
     RDKit          3D

 49 52  0  0  0  0  0  0  0  0999 V2000
  -19.1220  -41.9790   27.0580 C   0  0  0  0  0  0  0  0  0  0  0  0
  -18.1240  -42.2810   25.9790 C   0  0  0  0  0  0  0  0  0  0  0  0
  -18.4530  -42.0760   24.6330 C   0  0  0  0  0  0  0  0  0  0  0  0
  -17.5120  -42.3020   23.6290 C   0  0  0  0  0  0  0  0  0  0  0  0
  -16.2290  -42.7360   23.9590 C   0  0  0  0  0  0  0  0  0  0  0  0
  -15.8870  -42.9530   25.2980 C   0  0  0  0  0  0  0  0  0  0  0  0
  -14.5060  -43.4130   25.6150 C   0  0  0  0  0  0  0  0  0  0  0  0
  -13.6020  -43.1160   24.8430 O   0  0  0  0  0  0  0  0  0  0  0  0
  -14.3990  -44.1840   26.7600 N   0  0  0  0  0  0  0  0  0  0  0  0
  -13.2240  -44.7190   27.3240 C   0  0  0  0  0  0  0  0  0  0  0  0
  -13.0780  -46.1120   27.2970 C   0  0  0  0  0  0  0  0  0  0  0  0
  -11.9420  -46.7240   27.8330 C   0  0  0  0  0  0  0  0  0  0  0  0
  -10.9430  -45.9470   28.4230 C   0  0  0  0  0  0  0  0  0  0  0  0
  -11.0810  -44.5570   28.4600 C   0  0  0  0  0  0  0  0  0  0  0  0
  -12.2160  -43.9470   27.9060 C   0  0  0  0  0  0  0  0  0  0  0  0
   -9.9610  -43.7500   29.0530 C   0  0  0  0  0  0  0  0  0  0  0  0
   -9.3740  -44.4180   30.2060 N   0  0  0  0  0  0  0  0  0  0  0  0
   -8.6790  -43.5780   31.0790 C   0  0  0  0  0  0  0  0  0  0  0  0
   -7.5380  -43.1760   30.8520 O   0  0  0  0  0  0  0  0  0  0  0  0
   -9.3540  -43.1330   32.3300 C   0  0  0  0  0  0  0  0  0  0  0  0
   -8.5630  -42.7730   33.4300 C   0  0  0  0  0  0  0  0  0  0  0  0
   -9.1610  -42.3210   34.6070 C   0  0  0  0  0  0  0  0  0  0  0  0
  -10.5500  -42.2130   34.6820 C   0  0  0  0  0  0  0  0  0  0  0  0
  -11.3340  -42.5510   33.5800 C   0  0  0  0  0  0  0  0  0  0  0  0
  -13.0470  -42.3990   33.6730 Cl  0  0  0  0  0  0  0  0  0  0  0  0
  -10.7460  -43.0030   32.4000 C   0  0  0  0  0  0  0  0  0  0  0  0
   -9.0050  -45.7560   30.0710 C   0  0  0  0  0  0  0  0  0  0  0  0
   -8.1710  -46.3130   30.7880 O   0  0  0  0  0  0  0  0  0  0  0  0
   -9.6850  -46.5610   28.9700 C   0  0  0  0  0  0  0  0  0  0  0  0
  -16.8290  -42.7060   26.3080 C   0  0  0  0  0  0  0  0  0  0  0  0
  -18.6521  -42.1212   28.0423 H   0  0  0  0  0  0  0  0  0  0  0  0
  -19.4626  -40.9376   26.9613 H   0  0  0  0  0  0  0  0  0  0  0  0
  -19.9829  -42.6568   26.9613 H   0  0  0  0  0  0  0  0  0  0  0  0
  -19.4634  -41.7334   24.3653 H   0  0  0  0  0  0  0  0  0  0  0  0
  -17.7824  -42.1376   22.5755 H   0  0  0  0  0  0  0  0  0  0  0  0
  -15.4856  -42.9078   23.1666 H   0  0  0  0  0  0  0  0  0  0  0  0
  -15.2650  -44.4550   27.2080 H   0  0  0  0  0  0  0  0  0  0  0  0
  -13.8679  -46.7320   26.8480 H   0  0  0  0  0  0  0  0  0  0  0  0
  -11.8346  -47.8179   27.7902 H   0  0  0  0  0  0  0  0  0  0  0  0
  -12.3131  -42.8516   27.9301 H   0  0  0  0  0  0  0  0  0  0  0  0
   -9.1824  -43.6043   28.2897 H   0  0  0  0  0  0  0  0  0  0  0  0
  -10.3698  -42.7842   29.3849 H   0  0  0  0  0  0  0  0  0  0  0  0
   -7.4674  -42.8471   33.3651 H   0  0  0  0  0  0  0  0  0  0  0  0
   -8.5391  -42.0506   35.4731 H   0  0  0  0  0  0  0  0  0  0  0  0
  -11.0258  -41.8616   35.6094 H   0  0  0  0  0  0  0  0  0  0  0  0
  -11.3708  -43.2556   31.5306 H   0  0  0  0  0  0  0  0  0  0  0  0
   -8.9719  -46.6758   28.1403 H   0  0  0  0  0  0  0  0  0  0  0  0
   -9.9809  -47.5178   29.4249 H   0  0  0  0  0  0  0  0  0  0  0  0
  -16.5503  -42.8464   27.3628 H   0  0  0  0  0  0  0  0  0  0  0  0
  1  2  1  0
  2  3  2  0
  3  4  1  0
  4  5  2  0
  5  6  1  0
  6  7  1  0
  7  8  2  0
  7  9  1  0
  9 10  1  0
 10 11  2  0
 11 12  1  0
 12 13  2  0
 13 14  1  0
 14 15  2  0
 14 16  1  0
 16 17  1  0
 17 18  1  0
 18 19  2  0
 18 20  1  0
 20 21  2  0
 21 22  1  0
 22 23  2  0
 23 24  1  0
 24 25  1  0
 24 26  2  0
 17 27  1  0
 27 28  2  0
 27 29  1  0
  6 30  2  0
 30  2  1  0
 15 10  1  0
 26 20  1  0
 29 13  1  0
  1 31  1  0
  1 32  1  0
  1 33  1  0
  3 34  1  0
  4 35  1  0
  5 36  1  0
  9 37  1  0
 11 38  1  0
 12 39  1  0
 15 40  1  0
 16 41  1  0
 16 42  1  0
 21 43  1  0
 22 44  1  0
 23 45  1  0
 26 46  1  0
 29 47  1  0
 29 48  1  0
 30 49  1  0
M  END
>  <meeko>  (1) 
{"is_sidechain": false}

$$$$
