
     RDKit          3D

 49 52  0  0  0  0  0  0  0  0999 V2000
  -13.0640  -42.3990   33.5790 C   0  0  0  0  0  0  0  0  0  0  0  0
  -11.5720  -42.5060   33.4630 C   0  0  0  0  0  0  0  0  0  0  0  0
  -10.7520  -42.1980   34.5560 C   0  0  0  0  0  0  0  0  0  0  0  0
   -9.3650  -42.3190   34.4600 C   0  0  0  0  0  0  0  0  0  0  0  0
   -8.7850  -42.7670   33.2740 C   0  0  0  0  0  0  0  0  0  0  0  0
   -9.5920  -43.1110   32.1840 C   0  0  0  0  0  0  0  0  0  0  0  0
   -8.9380  -43.5530   30.9200 C   0  0  0  0  0  0  0  0  0  0  0  0
   -7.7940  -43.1650   30.6780 O   0  0  0  0  0  0  0  0  0  0  0  0
   -9.6550  -44.3700   30.0440 N   0  0  0  0  0  0  0  0  0  0  0  0
  -10.1830  -43.6910   28.8710 C   0  0  0  0  0  0  0  0  0  0  0  0
  -11.3200  -44.4540   28.2530 C   0  0  0  0  0  0  0  0  0  0  0  0
  -12.4110  -43.8020   27.6620 C   0  0  0  0  0  0  0  0  0  0  0  0
  -13.4370  -44.5350   27.0630 C   0  0  0  0  0  0  0  0  0  0  0  0
  -14.5670  -43.9540   26.4500 N   0  0  0  0  0  0  0  0  0  0  0  0
  -14.6280  -43.3430   25.2100 C   0  0  0  0  0  0  0  0  0  0  0  0
  -13.6930  -43.1360   24.4470 O   0  0  0  0  0  0  0  0  0  0  0  0
  -15.9830  -42.8630   24.8170 C   0  0  0  0  0  0  0  0  0  0  0  0
  -16.2930  -42.5350   23.4890 C   0  0  0  0  0  0  0  0  0  0  0  0
  -17.5750  -42.0880   23.1630 C   0  0  0  0  0  0  0  0  0  0  0  0
  -18.5440  -41.9590   24.1580 C   0  0  0  0  0  0  0  0  0  0  0  0
  -18.2340  -42.2660   25.4840 C   0  0  0  0  0  0  0  0  0  0  0  0
  -16.9540  -42.7120   25.8140 C   0  0  0  0  0  0  0  0  0  0  0  0
  -13.3470  -45.9330   27.0440 C   0  0  0  0  0  0  0  0  0  0  0  0
  -12.2540  -46.5880   27.6190 C   0  0  0  0  0  0  0  0  0  0  0  0
  -11.2420  -45.8500   28.2340 C   0  0  0  0  0  0  0  0  0  0  0  0
  -10.0290  -46.5120   28.8240 C   0  0  0  0  0  0  0  0  0  0  0  0
   -9.3380  -45.7230   29.9310 C   0  0  0  0  0  0  0  0  0  0  0  0
   -8.5430  -46.3090   30.6690 O   0  0  0  0  0  0  0  0  0  0  0  0
  -10.9850  -42.9690   32.2770 C   0  0  0  0  0  0  0  0  0  0  0  0
  -13.3487  -42.3786   34.6413 H   0  0  0  0  0  0  0  0  0  0  0  0
  -13.4044  -41.4741   33.0904 H   0  0  0  0  0  0  0  0  0  0  0  0
  -13.5329  -43.2658   33.0904 H   0  0  0  0  0  0  0  0  0  0  0  0
  -11.2054  -41.8576   35.4986 H   0  0  0  0  0  0  0  0  0  0  0  0
   -8.7295  -42.0609   35.3200 H   0  0  0  0  0  0  0  0  0  0  0  0
   -7.6910  -42.8502   33.1950 H   0  0  0  0  0  0  0  0  0  0  0  0
  -10.5417  -42.6942   29.1672 H   0  0  0  0  0  0  0  0  0  0  0  0
   -9.3766  -43.6142   28.1268 H   0  0  0  0  0  0  0  0  0  0  0  0
  -12.4592  -42.7031   27.6703 H   0  0  0  0  0  0  0  0  0  0  0  0
  -15.4040  -43.9210   27.0170 H   0  0  0  0  0  0  0  0  0  0  0  0
  -15.5270  -42.6298   22.7052 H   0  0  0  0  0  0  0  0  0  0  0  0
  -17.8210  -41.8374   22.1206 H   0  0  0  0  0  0  0  0  0  0  0  0
  -19.5555  -41.6143   23.8970 H   0  0  0  0  0  0  0  0  0  0  0  0
  -18.9980  -42.1564   26.2677 H   0  0  0  0  0  0  0  0  0  0  0  0
  -16.7071  -42.9456   26.8602 H   0  0  0  0  0  0  0  0  0  0  0  0
  -14.1462  -46.5225   26.5708 H   0  0  0  0  0  0  0  0  0  0  0  0
  -12.1917  -47.6858   27.5866 H   0  0  0  0  0  0  0  0  0  0  0  0
  -10.3380  -47.4828   29.2388 H   0  0  0  0  0  0  0  0  0  0  0  0
   -9.2982  -46.5988   28.0065 H   0  0  0  0  0  0  0  0  0  0  0  0
  -11.6196  -43.2223   31.4149 H   0  0  0  0  0  0  0  0  0  0  0  0
  1  2  1  0
  2  3  2  0
  3  4  1  0
  4  5  2  0
  5  6  1  0
  6  7  1  0
  7  8  2  0
  7  9  1  0
  9 10  1  0
 10 11  1  0
 11 12  2  0
 12 13  1  0
 13 14  1  0
 14 15  1  0
 15 16  2  0
 15 17  1  0
 17 18  2  0
 18 19  1  0
 19 20  2  0
 20 21  1  0
 21 22  2  0
 13 23  2  0
 23 24  1  0
 24 25  2  0
 25 26  1  0
 26 27  1  0
 27 28  2  0
  6 29  2  0
 29  2  1  0
 27  9  1  0
 25 11  1  0
 22 17  1  0
  1 30  1  0
  1 31  1  0
  1 32  1  0
  3 33  1  0
  4 34  1  0
  5 35  1  0
 10 36  1  0
 10 37  1  0
 12 38  1  0
 14 39  1  0
 18 40  1  0
 19 41  1  0
 20 42  1  0
 21 43  1  0
 22 44  1  0
 23 45  1  0
 24 46  1  0
 26 47  1  0
 26 48  1  0
 29 49  1  0
M  END
>  <meeko>  (1) 
{"is_sidechain": false}

$$$$
