MODEL 1
REMARK VINA RESULT:   -10.478      0.000      0.000
REMARK INTER + INTRA:         -10.785
REMARK INTER:                 -10.785
REMARK INTRA:                   0.000
REMARK UNBOUND:                 0.000
REMARK SMILES CC1=C[C@@H]2Cc3[nH]c4cc(Cl)ccc4c(=N)c3[C@@H](C1)C2
REMARK SMILES IDX 7 1 6 2 17 3 15 4 14 5 13 6 12 7 10 8 11 9 9 10 8 11 18 12
REMARK SMILES IDX 19 13 2 14 1 15 3 16 4 17 5 18 20 19 16 21
REMARK H PARENT 7 20 16 22
ROOT
ATOM      1  N   UNL     1      10.802 -56.981 -21.658  1.00  0.00    -0.358 N 
ATOM      2  C   UNL     1      10.995 -58.217 -22.219  1.00  0.00     0.021 A 
ATOM      3  C   UNL     1      11.553 -58.398 -23.555  1.00  0.00     0.000 A 
ATOM      4  C   UNL     1      11.898 -57.182 -24.340  1.00  0.00     0.068 A 
ATOM      5  C   UNL     1      11.602 -55.865 -23.695  1.00  0.00     0.023 A 
ATOM      6  C   UNL     1      11.878 -54.682 -24.394  1.00  0.00     0.014 A 
ATOM      7  C   UNL     1      11.609 -53.443 -23.811  1.00  0.00     0.021 A 
ATOM      8  C   UNL     1      11.071 -53.390 -22.527  1.00  0.00     0.043 A 
ATOM      9  Cl  UNL     1      10.750 -51.862 -21.800  1.00  0.00    -0.084 Cl
ATOM     10  C   UNL     1      10.792 -54.561 -21.820  1.00  0.00     0.047 A 
ATOM     11  C   UNL     1      11.038 -55.813 -22.400  1.00  0.00     0.049 A 
ATOM     12  C   UNL     1      11.848 -60.066 -24.303  1.00  0.00     0.028 C 
ATOM     13  C   UNL     1      11.792 -60.156 -22.935  1.00  0.00     0.039 C 
ATOM     14  C   UNL     1       9.868 -60.005 -23.398  1.00  0.00    -0.076 C 
ATOM     15  C   UNL     1       9.219 -59.244 -24.562  1.00  0.00     0.039 C 
ATOM     16  C   UNL     1       9.107 -60.859 -22.720  1.00  0.00    -0.024 C 
ATOM     17  C   UNL     1      10.264 -61.331 -22.047  1.00  0.00     0.018 C 
ATOM     18  C   UNL     1      10.551 -59.669 -21.178  1.00  0.00     0.062 C 
ATOM     19  C   UNL     1      11.179 -61.702 -23.711  1.00  0.00     0.017 C 
ATOM     20  H   UNL     1      10.222 -56.927 -20.831  1.00  0.00     0.166 HD
ENDROOT
BRANCH   4  21
ATOM     21  N   UNL     1      12.417 -57.231 -25.527  1.00  0.00    -0.300 NA
ATOM     22  H   UNL     1      12.688 -58.185 -25.773  1.00  0.00     0.188 HD
ENDBRANCH   4  21
TORSDOF 1
ENDMDL
MODEL 2
REMARK VINA RESULT:   -10.012      4.350      6.995
REMARK INTER + INTRA:         -10.305
REMARK INTER:                 -10.305
REMARK INTRA:                   0.000
REMARK UNBOUND:                 0.000
REMARK SMILES CC1=C[C@@H]2Cc3[nH]c4cc(Cl)ccc4c(=N)c3[C@@H](C1)C2
REMARK SMILES IDX 7 1 6 2 17 3 15 4 14 5 13 6 12 7 10 8 11 9 9 10 8 11 18 12
REMARK SMILES IDX 19 13 2 14 1 15 3 16 4 17 5 18 20 19 16 21
REMARK H PARENT 7 20 16 22
ROOT
ATOM      1  N   UNL     1      10.279 -60.938 -25.716  1.00  0.00    -0.358 N 
ATOM      2  C   UNL     1      10.509 -60.461 -24.451  1.00  0.00     0.021 A 
ATOM      3  C   UNL     1       9.802 -60.967 -23.278  1.00  0.00     0.000 A 
ATOM      4  C   UNL     1       8.775 -62.023 -23.481  1.00  0.00     0.068 A 
ATOM      5  C   UNL     1       8.528 -62.451 -24.894  1.00  0.00     0.023 A 
ATOM      6  C   UNL     1       7.552 -63.423 -25.155  1.00  0.00     0.014 A 
ATOM      7  C   UNL     1       7.305 -63.835 -26.465  1.00  0.00     0.021 A 
ATOM      8  C   UNL     1       8.040 -63.280 -27.511  1.00  0.00     0.043 A 
ATOM      9  Cl  UNL     1       7.747 -63.798 -29.127  1.00  0.00    -0.084 Cl
ATOM     10  C   UNL     1       9.015 -62.312 -27.263  1.00  0.00     0.047 A 
ATOM     11  C   UNL     1       9.260 -61.873 -25.956  1.00  0.00     0.049 A 
ATOM     12  C   UNL     1      10.134 -60.352 -21.563  1.00  0.00     0.028 C 
ATOM     13  C   UNL     1      11.208 -60.101 -22.379  1.00  0.00     0.039 C 
ATOM     14  C   UNL     1       9.954 -58.664 -22.929  1.00  0.00    -0.076 C 
ATOM     15  C   UNL     1       8.420 -58.693 -22.966  1.00  0.00     0.039 C 
ATOM     16  C   UNL     1      10.551 -57.483 -23.063  1.00  0.00    -0.024 C 
ATOM     17  C   UNL     1      11.789 -58.087 -22.721  1.00  0.00     0.018 C 
ATOM     18  C   UNL     1      11.803 -59.162 -24.285  1.00  0.00     0.062 C 
ATOM     19  C   UNL     1      11.071 -58.815 -21.077  1.00  0.00     0.017 C 
ATOM     20  H   UNL     1      10.644 -60.400 -26.492  1.00  0.00     0.166 HD
ENDROOT
BRANCH   4  21
ATOM     21  N   UNL     1       8.104 -62.553 -22.507  1.00  0.00    -0.300 NA
ATOM     22  H   UNL     1       8.363 -63.532 -22.370  1.00  0.00     0.188 HD
ENDBRANCH   4  21
TORSDOF 1
ENDMDL
MODEL 3
REMARK VINA RESULT:    -9.592      1.718      2.702
REMARK INTER + INTRA:          -9.872
REMARK INTER:                  -9.872
REMARK INTRA:                   0.000
REMARK UNBOUND:                 0.000
REMARK SMILES CC1=C[C@@H]2Cc3[nH]c4cc(Cl)ccc4c(=N)c3[C@@H](C1)C2
REMARK SMILES IDX 7 1 6 2 17 3 15 4 14 5 13 6 12 7 10 8 11 9 9 10 8 11 18 12
REMARK SMILES IDX 19 13 2 14 1 15 3 16 4 17 5 18 20 19 16 21
REMARK H PARENT 7 20 16 22
ROOT
ATOM      1  N   UNL     1       9.101 -57.423 -23.724  1.00  0.00    -0.358 N 
ATOM      2  C   UNL     1       9.394 -58.749 -23.532  1.00  0.00     0.021 A 
ATOM      3  C   UNL     1      10.285 -59.215 -22.474  1.00  0.00     0.000 A 
ATOM      4  C   UNL     1      10.916 -58.196 -21.592  1.00  0.00     0.068 A 
ATOM      5  C   UNL     1      10.606 -56.764 -21.897  1.00  0.00     0.023 A 
ATOM      6  C   UNL     1      11.191 -55.755 -21.120  1.00  0.00     0.014 A 
ATOM      7  C   UNL     1      10.916 -54.414 -21.388  1.00  0.00     0.021 A 
ATOM      8  C   UNL     1      10.049 -54.085 -22.428  1.00  0.00     0.043 A 
ATOM      9  Cl  UNL     1       9.698 -52.430 -22.753  1.00  0.00    -0.084 Cl
ATOM     10  C   UNL     1       9.460 -55.081 -23.209  1.00  0.00     0.047 A 
ATOM     11  C   UNL     1       9.742 -56.431 -22.965  1.00  0.00     0.049 A 
ATOM     12  C   UNL     1      10.655 -61.006 -22.188  1.00  0.00     0.028 C 
ATOM     13  C   UNL     1       9.475 -60.863 -22.873  1.00  0.00     0.039 C 
ATOM     14  C   UNL     1      10.804 -60.553 -24.313  1.00  0.00    -0.076 C 
ATOM     15  C   UNL     1      12.198 -59.920 -24.212  1.00  0.00     0.039 C 
ATOM     16  C   UNL     1      10.495 -61.184 -25.443  1.00  0.00    -0.024 C 
ATOM     17  C   UNL     1       9.317 -61.678 -24.827  1.00  0.00     0.018 C 
ATOM     18  C   UNL     1       8.565 -59.944 -24.660  1.00  0.00     0.062 C 
ATOM     19  C   UNL     1      10.310 -62.427 -23.344  1.00  0.00     0.017 C 
ATOM     20  H   UNL     1       8.656 -57.164 -24.594  1.00  0.00     0.166 HD
ENDROOT
BRANCH   4  21
ATOM     21  N   UNL     1      11.707 -58.503 -20.612  1.00  0.00    -0.300 NA
ATOM     22  H   UNL     1      12.196 -57.678 -20.260  1.00  0.00     0.188 HD
ENDBRANCH   4  21
TORSDOF 1
ENDMDL
MODEL 4
REMARK VINA RESULT:    -9.170      3.942      5.904
REMARK INTER + INTRA:          -9.438
REMARK INTER:                  -9.438
REMARK INTRA:                   0.000
REMARK UNBOUND:                 0.000
REMARK SMILES CC1=C[C@@H]2Cc3[nH]c4cc(Cl)ccc4c(=N)c3[C@@H](C1)C2
REMARK SMILES IDX 7 1 6 2 17 3 15 4 14 5 13 6 12 7 10 8 11 9 9 10 8 11 18 12
REMARK SMILES IDX 19 13 2 14 1 15 3 16 4 17 5 18 20 19 16 21
REMARK H PARENT 7 20 16 22
ROOT
ATOM      1  N   UNL     1      11.876 -59.607 -25.795  1.00  0.00    -0.358 N 
ATOM      2  C   UNL     1      11.375 -59.896 -24.551  1.00  0.00     0.021 A 
ATOM      3  C   UNL     1      10.249 -60.801 -24.346  1.00  0.00     0.000 A 
ATOM      4  C   UNL     1       9.611 -61.408 -25.546  1.00  0.00     0.068 A 
ATOM      5  C   UNL     1      10.165 -60.999 -26.875  1.00  0.00     0.023 A 
ATOM      6  C   UNL     1       9.590 -61.513 -28.045  1.00  0.00     0.014 A 
ATOM      7  C   UNL     1      10.090 -61.144 -29.294  1.00  0.00     0.021 A 
ATOM      8  C   UNL     1      11.170 -60.268 -29.370  1.00  0.00     0.043 A 
ATOM      9  Cl  UNL     1      11.797 -59.821 -30.911  1.00  0.00    -0.084 Cl
ATOM     10  C   UNL     1      11.752 -59.749 -28.212  1.00  0.00     0.047 A 
ATOM     11  C   UNL     1      11.248 -60.094 -26.951  1.00  0.00     0.049 A 
ATOM     12  C   UNL     1       9.592 -61.223 -22.667  1.00  0.00     0.028 C 
ATOM     13  C   UNL     1      10.887 -60.778 -22.578  1.00  0.00     0.039 C 
ATOM     14  C   UNL     1       9.901 -59.072 -22.819  1.00  0.00    -0.076 C 
ATOM     15  C   UNL     1       8.612 -58.813 -23.609  1.00  0.00     0.039 C 
ATOM     16  C   UNL     1      10.324 -58.113 -21.999  1.00  0.00    -0.024 C 
ATOM     17  C   UNL     1      11.290 -59.010 -21.474  1.00  0.00     0.018 C 
ATOM     18  C   UNL     1      12.228 -59.112 -23.120  1.00  0.00     0.062 C 
ATOM     19  C   UNL     1       9.947 -60.342 -21.063  1.00  0.00     0.017 C 
ATOM     20  H   UNL     1      12.506 -58.819 -25.874  1.00  0.00     0.166 HD
ENDROOT
BRANCH   4  21
ATOM     21  N   UNL     1       8.619 -62.238 -25.474  1.00  0.00    -0.300 NA
ATOM     22  H   UNL     1       8.681 -62.816 -24.634  1.00  0.00     0.188 HD
ENDBRANCH   4  21
TORSDOF 1
ENDMDL
MODEL 5
REMARK VINA RESULT:    -8.534      6.255     10.849
REMARK INTER + INTRA:          -8.783
REMARK INTER:                  -8.783
REMARK INTRA:                   0.000
REMARK UNBOUND:                 0.000
REMARK SMILES CC1=C[C@@H]2Cc3[nH]c4cc(Cl)ccc4c(=N)c3[C@@H](C1)C2
REMARK SMILES IDX 7 1 6 2 17 3 15 4 14 5 13 6 12 7 10 8 11 9 9 10 8 11 18 12
REMARK SMILES IDX 19 13 2 14 1 15 3 16 4 17 5 18 20 19 16 21
REMARK H PARENT 7 20 16 22
ROOT
ATOM      1  N   UNL     1      10.552 -48.778 -22.265  1.00  0.00    -0.358 N 
ATOM      2  C   UNL     1      11.040 -47.656 -22.885  1.00  0.00     0.021 A 
ATOM      3  C   UNL     1      12.053 -47.711 -23.934  1.00  0.00     0.000 A 
ATOM      4  C   UNL     1      12.590 -49.045 -24.318  1.00  0.00     0.068 A 
ATOM      5  C   UNL     1      12.063 -50.221 -23.557  1.00  0.00     0.023 A 
ATOM      6  C   UNL     1      12.550 -51.502 -23.852  1.00  0.00     0.014 A 
ATOM      7  C   UNL     1      12.073 -52.612 -23.154  1.00  0.00     0.021 A 
ATOM      8  C   UNL     1      11.104 -52.440 -22.168  1.00  0.00     0.043 A 
ATOM      9  Cl  UNL     1      10.505 -53.810 -21.314  1.00  0.00    -0.084 Cl
ATOM     10  C   UNL     1      10.611 -51.169 -21.865  1.00  0.00     0.047 A 
ATOM     11  C   UNL     1      11.095 -50.043 -22.543  1.00  0.00     0.049 A 
ATOM     12  C   UNL     1      12.688 -46.202 -24.798  1.00  0.00     0.028 C 
ATOM     13  C   UNL     1      11.457 -45.956 -24.242  1.00  0.00     0.039 C 
ATOM     14  C   UNL     1      12.635 -45.853 -22.649  1.00  0.00    -0.076 C 
ATOM     15  C   UNL     1      13.930 -46.624 -22.362  1.00  0.00     0.039 C 
ATOM     16  C   UNL     1      12.346 -44.821 -21.861  1.00  0.00    -0.024 C 
ATOM     17  C   UNL     1      11.290 -44.465 -22.739  1.00  0.00     0.018 C 
ATOM     18  C   UNL     1      10.315 -46.047 -22.357  1.00  0.00     0.062 C 
ATOM     19  C   UNL     1      12.472 -44.427 -24.272  1.00  0.00     0.017 C 
ATOM     20  H   UNL     1      10.020 -48.649 -21.415  1.00  0.00     0.166 HD
ENDROOT
BRANCH   4  21
ATOM     21  N   UNL     1      13.477 -49.207 -25.248  1.00  0.00    -0.300 NA
ATOM     22  H   UNL     1      13.549 -48.376 -25.839  1.00  0.00     0.188 HD
ENDBRANCH   4  21
TORSDOF 1
ENDMDL
MODEL 6
REMARK VINA RESULT:    -8.519      4.277      5.488
REMARK INTER + INTRA:          -8.768
REMARK INTER:                  -8.768
REMARK INTRA:                   0.000
REMARK UNBOUND:                 0.000
REMARK SMILES CC1=C[C@@H]2Cc3[nH]c4cc(Cl)ccc4c(=N)c3[C@@H](C1)C2
REMARK SMILES IDX 7 1 6 2 17 3 15 4 14 5 13 6 12 7 10 8 11 9 9 10 8 11 18 12
REMARK SMILES IDX 19 13 2 14 1 15 3 16 4 17 5 18 20 19 16 21
REMARK H PARENT 7 20 16 22
ROOT
ATOM      1  N   UNL     1       9.835 -59.629 -26.264  1.00  0.00    -0.358 N 
ATOM      2  C   UNL     1       9.920 -59.737 -24.899  1.00  0.00     0.021 A 
ATOM      3  C   UNL     1      11.182 -59.966 -24.203  1.00  0.00     0.000 A 
ATOM      4  C   UNL     1      12.416 -60.113 -25.023  1.00  0.00     0.068 A 
ATOM      5  C   UNL     1      12.242 -60.051 -26.508  1.00  0.00     0.023 A 
ATOM      6  C   UNL     1      13.362 -60.210 -27.336  1.00  0.00     0.014 A 
ATOM      7  C   UNL     1      13.222 -60.156 -28.723  1.00  0.00     0.021 A 
ATOM      8  C   UNL     1      11.964 -59.935 -29.279  1.00  0.00     0.043 A 
ATOM      9  Cl  UNL     1      11.791 -59.855 -30.991  1.00  0.00    -0.084 Cl
ATOM     10  C   UNL     1      10.842 -59.774 -28.465  1.00  0.00     0.047 A 
ATOM     11  C   UNL     1      10.962 -59.845 -27.071  1.00  0.00     0.049 A 
ATOM     12  C   UNL     1      11.308 -60.076 -22.360  1.00  0.00     0.028 C 
ATOM     13  C   UNL     1      10.172 -59.399 -22.724  1.00  0.00     0.039 C 
ATOM     14  C   UNL     1       9.631 -61.279 -23.057  1.00  0.00    -0.076 C 
ATOM     15  C   UNL     1      10.500 -62.461 -23.507  1.00  0.00     0.039 C 
ATOM     16  C   UNL     1       8.406 -61.549 -22.614  1.00  0.00    -0.024 C 
ATOM     17  C   UNL     1       8.281 -60.202 -22.186  1.00  0.00     0.018 C 
ATOM     18  C   UNL     1       8.349 -59.533 -23.960  1.00  0.00     0.062 C 
ATOM     19  C   UNL     1       9.911 -60.297 -21.145  1.00  0.00     0.017 C 
ATOM     20  H   UNL     1       8.915 -59.685 -26.681  1.00  0.00     0.166 HD
ENDROOT
BRANCH   4  21
ATOM     21  N   UNL     1      13.589 -60.300 -24.505  1.00  0.00    -0.300 NA
ATOM     22  H   UNL     1      13.727 -61.279 -24.246  1.00  0.00     0.188 HD
ENDBRANCH   4  21
TORSDOF 1
ENDMDL
MODEL 7
REMARK VINA RESULT:    -8.494      4.581      9.065
REMARK INTER + INTRA:          -8.742
REMARK INTER:                  -8.742
REMARK INTRA:                   0.000
REMARK UNBOUND:                 0.000
REMARK SMILES CC1=C[C@@H]2Cc3[nH]c4cc(Cl)ccc4c(=N)c3[C@@H](C1)C2
REMARK SMILES IDX 7 1 6 2 17 3 15 4 14 5 13 6 12 7 10 8 11 9 9 10 8 11 18 12
REMARK SMILES IDX 19 13 2 14 1 15 3 16 4 17 5 18 20 19 16 21
REMARK H PARENT 7 20 16 22
ROOT
ATOM      1  N   UNL     1      11.715 -51.032 -22.847  1.00  0.00    -0.358 N 
ATOM      2  C   UNL     1      12.400 -49.972 -23.385  1.00  0.00     0.021 A 
ATOM      3  C   UNL     1      13.162 -50.074 -24.625  1.00  0.00     0.000 A 
ATOM      4  C   UNL     1      13.211 -51.395 -25.310  1.00  0.00     0.068 A 
ATOM      5  C   UNL     1      12.496 -52.523 -24.636  1.00  0.00     0.023 A 
ATOM      6  C   UNL     1      12.528 -53.799 -25.216  1.00  0.00     0.014 A 
ATOM      7  C   UNL     1      11.868 -54.865 -24.604  1.00  0.00     0.021 A 
ATOM      8  C   UNL     1      11.172 -54.652 -23.416  1.00  0.00     0.043 A 
ATOM      9  Cl  UNL     1      10.347 -55.964 -22.665  1.00  0.00    -0.084 Cl
ATOM     10  C   UNL     1      11.133 -53.386 -22.829  1.00  0.00     0.047 A 
ATOM     11  C   UNL     1      11.806 -52.310 -23.421  1.00  0.00     0.049 A 
ATOM     12  C   UNL     1      14.060 -48.639 -25.373  1.00  0.00     0.028 C 
ATOM     13  C   UNL     1      13.068 -48.200 -24.534  1.00  0.00     0.039 C 
ATOM     14  C   UNL     1      14.472 -48.732 -23.237  1.00  0.00    -0.076 C 
ATOM     15  C   UNL     1      15.512 -49.855 -23.356  1.00  0.00     0.039 C 
ATOM     16  C   UNL     1      14.635 -47.843 -22.261  1.00  0.00    -0.024 C 
ATOM     17  C   UNL     1      13.600 -47.055 -22.826  1.00  0.00     0.018 C 
ATOM     18  C   UNL     1      12.280 -48.373 -22.480  1.00  0.00     0.062 C 
ATOM     19  C   UNL     1      14.467 -47.013 -24.557  1.00  0.00     0.017 C 
ATOM     20  H   UNL     1      11.393 -50.945 -21.892  1.00  0.00     0.166 HD
ENDROOT
BRANCH   4  21
ATOM     21  N   UNL     1      13.843 -51.589 -26.425  1.00  0.00    -0.300 NA
ATOM     22  H   UNL     1      13.898 -52.584 -26.649  1.00  0.00     0.188 HD
ENDBRANCH   4  21
TORSDOF 1
ENDMDL
MODEL 8
REMARK VINA RESULT:    -8.118      5.483     10.189
REMARK INTER + INTRA:          -8.355
REMARK INTER:                  -8.355
REMARK INTRA:                   0.000
REMARK UNBOUND:                 0.000
REMARK SMILES CC1=C[C@@H]2Cc3[nH]c4cc(Cl)ccc4c(=N)c3[C@@H](C1)C2
REMARK SMILES IDX 7 1 6 2 17 3 15 4 14 5 13 6 12 7 10 8 11 9 9 10 8 11 18 12
REMARK SMILES IDX 19 13 2 14 1 15 3 16 4 17 5 18 20 19 16 21
REMARK H PARENT 7 20 16 22
ROOT
ATOM      1  N   UNL     1      13.788 -50.201 -25.102  1.00  0.00    -0.358 N 
ATOM      2  C   UNL     1      13.698 -49.060 -24.345  1.00  0.00     0.021 A 
ATOM      3  C   UNL     1      12.985 -49.012 -23.073  1.00  0.00     0.000 A 
ATOM      4  C   UNL     1      12.309 -50.252 -22.603  1.00  0.00     0.068 A 
ATOM      5  C   UNL     1      12.390 -51.441 -23.508  1.00  0.00     0.023 A 
ATOM      6  C   UNL     1      11.750 -52.631 -23.135  1.00  0.00     0.014 A 
ATOM      7  C   UNL     1      11.813 -53.751 -23.964  1.00  0.00     0.021 A 
ATOM      8  C   UNL     1      12.523 -53.682 -25.161  1.00  0.00     0.043 A 
ATOM      9  Cl  UNL     1      12.612 -55.067 -26.180  1.00  0.00    -0.084 Cl
ATOM     10  C   UNL     1      13.165 -52.502 -25.543  1.00  0.00     0.047 A 
ATOM     11  C   UNL     1      13.094 -51.363 -24.731  1.00  0.00     0.049 A 
ATOM     12  C   UNL     1      12.892 -47.485 -22.031  1.00  0.00     0.028 C 
ATOM     13  C   UNL     1      13.970 -47.424 -22.876  1.00  0.00     0.039 C 
ATOM     14  C   UNL     1      12.479 -46.984 -24.110  1.00  0.00    -0.076 C 
ATOM     15  C   UNL     1      11.028 -47.482 -24.076  1.00  0.00     0.039 C 
ATOM     16  C   UNL     1      12.761 -45.963 -24.915  1.00  0.00    -0.024 C 
ATOM     17  C   UNL     1      14.050 -45.876 -24.327  1.00  0.00     0.018 C 
ATOM     18  C   UNL     1      14.571 -47.574 -24.994  1.00  0.00     0.062 C 
ATOM     19  C   UNL     1      13.315 -45.743 -22.542  1.00  0.00     0.017 C 
ATOM     20  H   UNL     1      14.109 -50.105 -26.057  1.00  0.00     0.166 HD
ENDROOT
BRANCH   4  21
ATOM     21  N   UNL     1      11.665 -50.322 -21.481  1.00  0.00    -0.300 NA
ATOM     22  H   UNL     1      11.845 -49.501 -20.899  1.00  0.00     0.188 HD
ENDBRANCH   4  21
TORSDOF 1
ENDMDL
MODEL 9
REMARK VINA RESULT:    -7.861      4.371      6.487
REMARK INTER + INTRA:          -8.090
REMARK INTER:                  -8.090
REMARK INTRA:                   0.000
REMARK UNBOUND:                 0.000
REMARK SMILES CC1=C[C@@H]2Cc3[nH]c4cc(Cl)ccc4c(=N)c3[C@@H](C1)C2
REMARK SMILES IDX 7 1 6 2 17 3 15 4 14 5 13 6 12 7 10 8 11 9 9 10 8 11 18 12
REMARK SMILES IDX 19 13 2 14 1 15 3 16 4 17 5 18 20 19 16 21
REMARK H PARENT 7 20 16 22
ROOT
ATOM      1  N   UNL     1       8.604 -61.268 -24.939  1.00  0.00    -0.358 N 
ATOM      2  C   UNL     1       9.327 -60.284 -24.315  1.00  0.00     0.021 A 
ATOM      3  C   UNL     1      10.346 -59.497 -25.002  1.00  0.00     0.000 A 
ATOM      4  C   UNL     1      10.621 -59.805 -26.432  1.00  0.00     0.068 A 
ATOM      5  C   UNL     1       9.844 -60.934 -27.033  1.00  0.00     0.023 A 
ATOM      6  C   UNL     1      10.077 -61.292 -28.368  1.00  0.00     0.014 A 
ATOM      7  C   UNL     1       9.364 -62.342 -28.948  1.00  0.00     0.021 A 
ATOM      8  C   UNL     1       8.414 -63.027 -28.194  1.00  0.00     0.043 A 
ATOM      9  Cl  UNL     1       7.524 -64.315 -28.911  1.00  0.00    -0.084 Cl
ATOM     10  C   UNL     1       8.173 -62.680 -26.863  1.00  0.00     0.047 A 
ATOM     11  C   UNL     1       8.894 -61.641 -26.261  1.00  0.00     0.049 A 
ATOM     12  C   UNL     1      11.298 -58.143 -24.174  1.00  0.00     0.028 C 
ATOM     13  C   UNL     1      10.122 -58.380 -23.507  1.00  0.00     0.039 C 
ATOM     14  C   UNL     1      11.239 -59.897 -22.884  1.00  0.00    -0.076 C 
ATOM     15  C   UNL     1      12.344 -60.648 -23.639  1.00  0.00     0.039 C 
ATOM     16  C   UNL     1      11.133 -60.111 -21.576  1.00  0.00    -0.024 C 
ATOM     17  C   UNL     1      10.201 -59.045 -21.493  1.00  0.00     0.018 C 
ATOM     18  C   UNL     1       8.918 -59.960 -22.549  1.00  0.00     0.062 C 
ATOM     19  C   UNL     1      11.421 -57.806 -22.345  1.00  0.00     0.017 C 
ATOM     20  H   UNL     1       8.078 -61.904 -24.354  1.00  0.00     0.166 HD
ENDROOT
BRANCH   4  21
ATOM     21  N   UNL     1      11.490 -59.155 -27.139  1.00  0.00    -0.300 NA
ATOM     22  H   UNL     1      11.577 -58.188 -26.821  1.00  0.00     0.188 HD
ENDBRANCH   4  21
TORSDOF 1
ENDMDL
