MODEL 1
REMARK VINA RESULT:   -11.422      0.000      0.000
REMARK INTER + INTRA:         -16.196
REMARK INTER:                 -15.763
REMARK INTRA:                  -0.433
REMARK UNBOUND:                -0.433
REMARK SMILES COc1cc2c(cc1OC)C(O)=C(C[C@H]1CC[N@H+](Cc3ccccc3)CC1)C2
REMARK SMILES IDX 14 1 13 2 11 3 6 4 28 5 7 6 5 7 8 8 4 9 3 10 12 11 9 13
REMARK SMILES IDX 10 14 2 15 1 16 15 17 27 18 16 19 26 20 17 21 18 22 19 24
REMARK SMILES IDX 20 25 21 26 25 27 22 28 24 29 23 30
REMARK H PARENT 12 12 18 23
ROOT
ATOM      1  C   UNL     1      10.154 -55.863 -22.349  1.00  0.00     0.039 C 
ENDROOT
BRANCH   1   2
ATOM      2  C   UNL     1      10.848 -54.627 -22.842  1.00  0.00    -0.023 C 
ATOM      3  C   UNL     1      10.898 -53.379 -22.343  1.00  0.00     0.122 C 
ATOM      4  C   UNL     1      11.692 -52.529 -23.222  1.00  0.00     0.024 A 
ATOM      5  C   UNL     1      11.620 -54.712 -24.150  1.00  0.00     0.071 C 
ATOM      6  C   UNL     1      12.049 -51.197 -23.141  1.00  0.00     0.062 A 
ATOM      7  C   UNL     1      12.121 -53.306 -24.300  1.00  0.00    -0.029 A 
ATOM      8  C   UNL     1      12.848 -50.637 -24.152  1.00  0.00     0.161 A 
ATOM      9  C   UNL     1      12.893 -52.771 -25.323  1.00  0.00     0.055 A 
ATOM     10  C   UNL     1      13.254 -51.416 -25.264  1.00  0.00     0.161 A 
BRANCH   3  11
ATOM     11  O   UNL     1      10.294 -52.904 -21.219  1.00  0.00    -0.507 OA
ATOM     12  H   UNL     1       9.455 -52.492 -21.493  1.00  0.00     0.293 HD
ENDBRANCH   3  11
BRANCH   8  13
ATOM     13  O   UNL     1      13.110 -49.306 -23.932  1.00  0.00    -0.493 OA
ATOM     14  C   UNL     1      12.122 -48.556 -23.237  1.00  0.00     0.278 C 
ENDBRANCH   8  13
BRANCH  10  15
ATOM     15  O   UNL     1      13.973 -50.790 -26.248  1.00  0.00    -0.493 OA
ATOM     16  C   UNL     1      15.374 -50.636 -26.063  1.00  0.00     0.278 C 
ENDBRANCH  10  15
ENDBRANCH   1   2
BRANCH   1  17
ATOM     17  C   UNL     1      10.522 -57.200 -23.021  1.00  0.00     0.004 C 
ATOM     18  C   UNL     1      11.477 -58.008 -22.131  1.00  0.00     0.065 C 
ATOM     19  C   UNL     1       9.281 -58.054 -23.323  1.00  0.00     0.065 C 
ATOM     20  C   UNL     1      11.861 -59.332 -22.782  1.00  0.00     0.262 C 
ATOM     21  C   UNL     1       9.667 -59.362 -23.993  1.00  0.00     0.262 C 
ATOM     22  N   UNL     1      10.615 -60.125 -23.102  1.00  0.00    -0.331 N 
ATOM     23  H   UNL     1      10.133 -60.299 -22.212  1.00  0.00     0.348 HD
BRANCH  22  24
ATOM     24  C   UNL     1      10.928 -61.490 -23.681  1.00  0.00     0.299 C 
BRANCH  24  25
ATOM     25  C   UNL     1       9.698 -62.313 -23.949  1.00  0.00     0.006 A 
ATOM     26  C   UNL     1       9.067 -62.260 -25.203  1.00  0.00     0.009 A 
ATOM     27  C   UNL     1       9.152 -63.129 -22.947  1.00  0.00     0.009 A 
ATOM     28  C   UNL     1       7.910 -63.004 -25.442  1.00  0.00     0.001 A 
ATOM     29  C   UNL     1       7.995 -63.871 -23.192  1.00  0.00     0.001 A 
ATOM     30  C   UNL     1       7.375 -63.806 -24.438  1.00  0.00     0.000 A 
ENDBRANCH  24  25
ENDBRANCH  22  24
ENDBRANCH   1  17
TORSDOF 7
ENDMDL
MODEL 2
REMARK VINA RESULT:   -11.147      1.094      2.131
REMARK INTER + INTRA:         -15.817
REMARK INTER:                 -15.628
REMARK INTRA:                  -0.189
REMARK UNBOUND:                -0.433
REMARK SMILES COc1cc2c(cc1OC)C(O)=C(C[C@H]1CC[N@H+](Cc3ccccc3)CC1)C2
REMARK SMILES IDX 14 1 13 2 11 3 6 4 28 5 7 6 5 7 8 8 4 9 3 10 12 11 9 13
REMARK SMILES IDX 10 14 2 15 1 16 15 17 27 18 16 19 26 20 17 21 18 22 19 24
REMARK SMILES IDX 20 25 21 26 25 27 22 28 24 29 23 30
REMARK H PARENT 12 12 18 23
ROOT
ATOM      1  C   UNL     1       9.905 -55.642 -22.377  1.00  0.00     0.039 C 
ENDROOT
BRANCH   1   2
ATOM      2  C   UNL     1      10.645 -54.401 -22.781  1.00  0.00    -0.023 C 
ATOM      3  C   UNL     1      11.421 -54.138 -23.848  1.00  0.00     0.122 C 
ATOM      4  C   UNL     1      11.932 -52.776 -23.760  1.00  0.00     0.024 A 
ATOM      5  C   UNL     1      10.585 -53.197 -21.853  1.00  0.00     0.071 C 
ATOM      6  C   UNL     1      12.743 -52.039 -24.602  1.00  0.00     0.062 A 
ATOM      7  C   UNL     1      11.449 -52.209 -22.579  1.00  0.00    -0.029 A 
ATOM      8  C   UNL     1      13.070 -50.717 -24.257  1.00  0.00     0.161 A 
ATOM      9  C   UNL     1      11.775 -50.912 -22.205  1.00  0.00     0.055 A 
ATOM     10  C   UNL     1      12.609 -50.154 -23.041  1.00  0.00     0.161 A 
BRANCH   3  11
ATOM     11  O   UNL     1      11.751 -54.977 -24.867  1.00  0.00    -0.507 OA
ATOM     12  H   UNL     1      11.019 -55.611 -24.970  1.00  0.00     0.293 HD
ENDBRANCH   3  11
BRANCH   8  13
ATOM     13  O   UNL     1      13.886 -50.122 -25.189  1.00  0.00    -0.493 OA
ATOM     14  C   UNL     1      13.989 -50.754 -26.459  1.00  0.00     0.278 C 
ENDBRANCH   8  13
BRANCH  10  15
ATOM     15  O   UNL     1      13.022 -48.885 -22.733  1.00  0.00    -0.493 OA
ATOM     16  C   UNL     1      12.324 -47.790 -23.314  1.00  0.00     0.278 C 
ENDBRANCH  10  15
ENDBRANCH   1   2
BRANCH   1  17
ATOM     17  C   UNL     1      10.354 -56.974 -23.009  1.00  0.00     0.004 C 
ATOM     18  C   UNL     1      11.386 -57.677 -22.115  1.00  0.00     0.065 C 
ATOM     19  C   UNL     1       9.171 -57.927 -23.246  1.00  0.00     0.065 C 
ATOM     20  C   UNL     1      11.850 -58.994 -22.727  1.00  0.00     0.262 C 
ATOM     21  C   UNL     1       9.636 -59.228 -23.878  1.00  0.00     0.262 C 
ATOM     22  N   UNL     1      10.658 -59.887 -22.985  1.00  0.00    -0.331 N 
ATOM     23  H   UNL     1      10.211 -60.060 -22.077  1.00  0.00     0.348 HD
BRANCH  22  24
ATOM     24  C   UNL     1      11.056 -61.247 -23.521  1.00  0.00     0.299 C 
BRANCH  24  25
ATOM     25  C   UNL     1       9.894 -62.194 -23.648  1.00  0.00     0.006 A 
ATOM     26  C   UNL     1       9.173 -62.277 -24.850  1.00  0.00     0.009 A 
ATOM     27  C   UNL     1       9.503 -62.992 -22.562  1.00  0.00     0.009 A 
ATOM     28  C   UNL     1       8.078 -63.137 -24.957  1.00  0.00     0.001 A 
ATOM     29  C   UNL     1       8.407 -63.850 -22.676  1.00  0.00     0.001 A 
ATOM     30  C   UNL     1       7.696 -63.920 -23.872  1.00  0.00     0.000 A 
ENDBRANCH  24  25
ENDBRANCH  22  24
ENDBRANCH   1  17
TORSDOF 7
ENDMDL
MODEL 3
REMARK VINA RESULT:   -10.155      2.316      3.618
REMARK INTER + INTRA:         -14.447
REMARK INTER:                 -14.368
REMARK INTRA:                  -0.079
REMARK UNBOUND:                -0.433
REMARK SMILES COc1cc2c(cc1OC)C(O)=C(C[C@H]1CC[N@H+](Cc3ccccc3)CC1)C2
REMARK SMILES IDX 14 1 13 2 11 3 6 4 28 5 7 6 5 7 8 8 4 9 3 10 12 11 9 13
REMARK SMILES IDX 10 14 2 15 1 16 15 17 27 18 16 19 26 20 17 21 18 22 19 24
REMARK SMILES IDX 20 25 21 26 25 27 22 28 24 29 23 30
REMARK H PARENT 12 12 18 23
ROOT
ATOM      1  C   UNL     1       9.997 -52.878 -21.957  1.00  0.00     0.039 C 
ENDROOT
BRANCH   1   2
ATOM      2  C   UNL     1      10.511 -51.520 -22.335  1.00  0.00    -0.023 C 
ATOM      3  C   UNL     1       9.969 -50.297 -22.202  1.00  0.00     0.122 C 
ATOM      4  C   UNL     1      10.870 -49.296 -22.759  1.00  0.00     0.024 A 
ATOM      5  C   UNL     1      11.862 -51.434 -23.031  1.00  0.00     0.071 C 
ATOM      6  C   UNL     1      10.780 -47.920 -22.846  1.00  0.00     0.062 A 
ATOM      7  C   UNL     1      11.994 -49.958 -23.258  1.00  0.00    -0.029 A 
ATOM      8  C   UNL     1      11.830 -47.199 -23.440  1.00  0.00     0.161 A 
ATOM      9  C   UNL     1      13.035 -49.270 -23.868  1.00  0.00     0.055 A 
ATOM     10  C   UNL     1      12.953 -47.873 -23.979  1.00  0.00     0.161 A 
BRANCH   3  11
ATOM     11  O   UNL     1       8.756 -49.974 -21.675  1.00  0.00    -0.507 OA
ATOM     12  H   UNL     1       8.917 -49.395 -20.909  1.00  0.00     0.293 HD
ENDBRANCH   3  11
BRANCH   8  13
ATOM     13  O   UNL     1      11.588 -45.846 -23.456  1.00  0.00    -0.493 OA
ATOM     14  C   UNL     1      11.396 -45.205 -22.201  1.00  0.00     0.278 C 
ENDBRANCH   8  13
BRANCH  10  15
ATOM     15  O   UNL     1      13.908 -47.116 -24.604  1.00  0.00    -0.493 OA
ATOM     16  C   UNL     1      14.954 -46.564 -23.815  1.00  0.00     0.278 C 
ENDBRANCH  10  15
ENDBRANCH   1   2
BRANCH   1  17
ATOM     17  C   UNL     1      10.846 -54.098 -22.362  1.00  0.00     0.004 C 
ATOM     18  C   UNL     1      10.529 -55.301 -21.460  1.00  0.00     0.065 C 
ATOM     19  C   UNL     1      10.614 -54.501 -23.827  1.00  0.00     0.065 C 
ATOM     20  C   UNL     1      11.366 -56.517 -21.839  1.00  0.00     0.262 C 
ATOM     21  C   UNL     1      11.469 -55.699 -24.205  1.00  0.00     0.262 C 
ATOM     22  N   UNL     1      11.146 -56.858 -23.294  1.00  0.00    -0.331 N 
ATOM     23  H   UNL     1      10.147 -57.071 -23.405  1.00  0.00     0.348 HD
BRANCH  22  24
ATOM     24  C   UNL     1      11.888 -58.108 -23.718  1.00  0.00     0.299 C 
BRANCH  24  25
ATOM     25  C   UNL     1      11.271 -59.371 -23.182  1.00  0.00     0.006 A 
ATOM     26  C   UNL     1      11.444 -60.590 -23.858  1.00  0.00     0.009 A 
ATOM     27  C   UNL     1      10.499 -59.347 -22.011  1.00  0.00     0.009 A 
ATOM     28  C   UNL     1      10.849 -61.756 -23.374  1.00  0.00     0.001 A 
ATOM     29  C   UNL     1       9.905 -60.516 -21.531  1.00  0.00     0.001 A 
ATOM     30  C   UNL     1      10.079 -61.718 -22.214  1.00  0.00     0.000 A 
ENDBRANCH  24  25
ENDBRANCH  22  24
ENDBRANCH   1  17
TORSDOF 7
ENDMDL
MODEL 4
REMARK VINA RESULT:    -9.983      3.767     10.341
REMARK INTER + INTRA:         -14.210
REMARK INTER:                 -13.464
REMARK INTRA:                  -0.746
REMARK UNBOUND:                -0.433
REMARK SMILES COc1cc2c(cc1OC)C(O)=C(C[C@H]1CC[N@H+](Cc3ccccc3)CC1)C2
REMARK SMILES IDX 14 1 13 2 11 3 6 4 28 5 7 6 5 7 8 8 4 9 3 10 12 11 9 13
REMARK SMILES IDX 10 14 2 15 1 16 15 17 27 18 16 19 26 20 17 21 18 22 19 24
REMARK SMILES IDX 20 25 21 26 25 27 22 28 24 29 23 30
REMARK H PARENT 12 12 18 23
ROOT
ATOM      1  C   UNL     1      11.423 -57.316 -22.242  1.00  0.00     0.039 C 
ENDROOT
BRANCH   1   2
ATOM      2  C   UNL     1      10.846 -58.413 -23.088  1.00  0.00    -0.023 C 
ATOM      3  C   UNL     1      11.287 -58.983 -24.224  1.00  0.00     0.122 C 
ATOM      4  C   UNL     1      10.337 -59.996 -24.666  1.00  0.00     0.024 A 
ATOM      5  C   UNL     1       9.510 -59.011 -22.672  1.00  0.00     0.071 C 
ATOM      6  C   UNL     1      10.343 -60.856 -25.748  1.00  0.00     0.062 A 
ATOM      7  C   UNL     1       9.276 -60.019 -23.758  1.00  0.00    -0.029 A 
ATOM      8  C   UNL     1       9.274 -61.751 -25.919  1.00  0.00     0.161 A 
ATOM      9  C   UNL     1       8.198 -60.879 -23.918  1.00  0.00     0.055 A 
ATOM     10  C   UNL     1       8.181 -61.750 -25.018  1.00  0.00     0.161 A 
BRANCH   3  11
ATOM     11  O   UNL     1      12.414 -58.683 -24.925  1.00  0.00    -0.507 OA
ATOM     12  H   UNL     1      13.013 -58.208 -24.323  1.00  0.00     0.293 HD
ENDBRANCH   3  11
BRANCH   8  13
ATOM     13  O   UNL     1       9.424 -62.533 -27.040  1.00  0.00    -0.493 OA
ATOM     14  C   UNL     1       9.024 -61.968 -28.283  1.00  0.00     0.278 C 
ENDBRANCH   8  13
BRANCH  10  15
ATOM     15  O   UNL     1       7.140 -62.600 -25.282  1.00  0.00    -0.493 OA
ATOM     16  C   UNL     1       7.210 -63.928 -24.778  1.00  0.00     0.278 C 
ENDBRANCH  10  15
ENDBRANCH   1   2
BRANCH   1  17
ATOM     17  C   UNL     1      10.686 -55.963 -22.235  1.00  0.00     0.004 C 
ATOM     18  C   UNL     1      11.042 -55.160 -20.975  1.00  0.00     0.065 C 
ATOM     19  C   UNL     1      11.022 -55.117 -23.474  1.00  0.00     0.065 C 
ATOM     20  C   UNL     1      10.315 -53.820 -20.944  1.00  0.00     0.262 C 
ATOM     21  C   UNL     1      10.277 -53.793 -23.449  1.00  0.00     0.262 C 
ATOM     22  N   UNL     1      10.636 -53.035 -22.195  1.00  0.00    -0.331 N 
ATOM     23  H   UNL     1      11.651 -52.883 -22.203  1.00  0.00     0.348 HD
BRANCH  22  24
ATOM     24  C   UNL     1      10.008 -51.656 -22.193  1.00  0.00     0.299 C 
BRANCH  24  25
ATOM     25  C   UNL     1      10.959 -50.575 -22.628  1.00  0.00     0.006 A 
ATOM     26  C   UNL     1      10.555 -49.230 -22.627  1.00  0.00     0.009 A 
ATOM     27  C   UNL     1      12.255 -50.895 -23.060  1.00  0.00     0.009 A 
ATOM     28  C   UNL     1      11.428 -48.230 -23.057  1.00  0.00     0.001 A 
ATOM     29  C   UNL     1      13.125 -49.891 -23.489  1.00  0.00     0.001 A 
ATOM     30  C   UNL     1      12.710 -48.561 -23.489  1.00  0.00     0.000 A 
ENDBRANCH  24  25
ENDBRANCH  22  24
ENDBRANCH   1  17
TORSDOF 7
ENDMDL
MODEL 5
REMARK VINA RESULT:    -9.831      2.846      5.589
REMARK INTER + INTRA:         -14.000
REMARK INTER:                 -13.289
REMARK INTRA:                  -0.712
REMARK UNBOUND:                -0.433
REMARK SMILES COc1cc2c(cc1OC)C(O)=C(C[C@H]1CC[N@H+](Cc3ccccc3)CC1)C2
REMARK SMILES IDX 14 1 13 2 11 3 6 4 28 5 7 6 5 7 8 8 4 9 3 10 12 11 9 13
REMARK SMILES IDX 10 14 2 15 1 16 15 17 27 18 16 19 26 20 17 21 18 22 19 24
REMARK SMILES IDX 20 25 21 26 25 27 22 28 24 29 23 30
REMARK H PARENT 12 12 18 23
ROOT
ATOM      1  C   UNL     1      12.929 -51.175 -23.193  1.00  0.00     0.039 C 
ENDROOT
BRANCH   1   2
ATOM      2  C   UNL     1      12.593 -49.733 -23.436  1.00  0.00    -0.023 C 
ATOM      3  C   UNL     1      11.607 -48.957 -22.950  1.00  0.00     0.122 C 
ATOM      4  C   UNL     1      11.704 -47.622 -23.525  1.00  0.00     0.024 A 
ATOM      5  C   UNL     1      13.451 -48.954 -24.422  1.00  0.00     0.071 C 
ATOM      6  C   UNL     1      10.951 -46.479 -23.335  1.00  0.00     0.062 A 
ATOM      7  C   UNL     1      12.790 -47.607 -24.403  1.00  0.00    -0.029 A 
ATOM      8  C   UNL     1      11.291 -45.308 -24.032  1.00  0.00     0.161 A 
ATOM      9  C   UNL     1      13.133 -46.469 -25.120  1.00  0.00     0.055 A 
ATOM     10  C   UNL     1      12.370 -45.303 -24.951  1.00  0.00     0.161 A 
BRANCH   3  11
ATOM     11  O   UNL     1      10.618 -49.309 -22.085  1.00  0.00    -0.507 OA
ATOM     12  H   UNL     1       9.962 -49.826 -22.588  1.00  0.00     0.293 HD
ENDBRANCH   3  11
BRANCH   8  13
ATOM     13  O   UNL     1      10.446 -44.264 -23.742  1.00  0.00    -0.493 OA
ATOM     14  C   UNL     1      10.878 -43.335 -22.755  1.00  0.00     0.278 C 
ENDBRANCH   8  13
BRANCH  10  15
ATOM     15  O   UNL     1      12.605 -44.148 -25.648  1.00  0.00    -0.493 OA
ATOM     16  C   UNL     1      13.947 -43.692 -25.764  1.00  0.00     0.278 C 
ENDBRANCH  10  15
ENDBRANCH   1   2
BRANCH   1  17
ATOM     17  C   UNL     1      11.818 -52.214 -23.437  1.00  0.00     0.004 C 
ATOM     18  C   UNL     1      12.371 -53.430 -24.194  1.00  0.00     0.065 C 
ATOM     19  C   UNL     1      11.179 -52.694 -22.124  1.00  0.00     0.065 C 
ATOM     20  C   UNL     1      11.284 -54.467 -24.454  1.00  0.00     0.262 C 
ATOM     21  C   UNL     1      10.081 -53.710 -22.391  1.00  0.00     0.262 C 
ATOM     22  N   UNL     1      10.652 -54.884 -23.147  1.00  0.00    -0.331 N 
ATOM     23  H   UNL     1      11.396 -55.294 -22.570  1.00  0.00     0.348 HD
BRANCH  22  24
ATOM     24  C   UNL     1       9.615 -55.975 -23.325  1.00  0.00     0.299 C 
BRANCH  24  25
ATOM     25  C   UNL     1      10.014 -57.277 -22.687  1.00  0.00     0.006 A 
ATOM     26  C   UNL     1       9.290 -58.451 -22.954  1.00  0.00     0.009 A 
ATOM     27  C   UNL     1      11.101 -57.336 -21.803  1.00  0.00     0.009 A 
ATOM     28  C   UNL     1       9.644 -59.653 -22.341  1.00  0.00     0.001 A 
ATOM     29  C   UNL     1      11.452 -58.542 -21.193  1.00  0.00     0.001 A 
ATOM     30  C   UNL     1      10.722 -59.697 -21.461  1.00  0.00     0.000 A 
ENDBRANCH  24  25
ENDBRANCH  22  24
ENDBRANCH   1  17
TORSDOF 7
ENDMDL
MODEL 6
REMARK VINA RESULT:    -9.612      3.535     10.255
REMARK INTER + INTRA:         -13.697
REMARK INTER:                 -13.239
REMARK INTRA:                  -0.458
REMARK UNBOUND:                -0.433
REMARK SMILES COc1cc2c(cc1OC)C(O)=C(C[C@H]1CC[N@H+](Cc3ccccc3)CC1)C2
REMARK SMILES IDX 14 1 13 2 11 3 6 4 28 5 7 6 5 7 8 8 4 9 3 10 12 11 9 13
REMARK SMILES IDX 10 14 2 15 1 16 15 17 27 18 16 19 26 20 17 21 18 22 19 24
REMARK SMILES IDX 20 25 21 26 25 27 22 28 24 29 23 30
REMARK H PARENT 12 12 18 23
ROOT
ATOM      1  C   UNL     1       9.591 -55.023 -22.337  1.00  0.00     0.039 C 
ENDROOT
BRANCH   1   2
ATOM      2  C   UNL     1       9.950 -56.407 -22.792  1.00  0.00    -0.023 C 
ATOM      3  C   UNL     1       9.181 -57.445 -23.165  1.00  0.00     0.122 C 
ATOM      4  C   UNL     1      10.024 -58.588 -23.493  1.00  0.00     0.024 A 
ATOM      5  C   UNL     1      11.422 -56.791 -22.826  1.00  0.00     0.071 C 
ATOM      6  C   UNL     1       9.720 -59.861 -23.939  1.00  0.00     0.062 A 
ATOM      7  C   UNL     1      11.354 -58.215 -23.291  1.00  0.00    -0.029 A 
ATOM      8  C   UNL     1      10.763 -60.768 -24.186  1.00  0.00     0.161 A 
ATOM      9  C   UNL     1      12.401 -59.101 -23.508  1.00  0.00     0.055 A 
ATOM     10  C   UNL     1      12.111 -60.402 -23.947  1.00  0.00     0.161 A 
BRANCH   3  11
ATOM     11  O   UNL     1       7.822 -57.502 -23.216  1.00  0.00    -0.507 OA
ATOM     12  H   UNL     1       7.568 -57.543 -24.155  1.00  0.00     0.293 HD
ENDBRANCH   3  11
BRANCH   8  13
ATOM     13  O   UNL     1      10.300 -61.989 -24.616  1.00  0.00    -0.493 OA
ATOM     14  C   UNL     1       9.354 -62.653 -23.787  1.00  0.00     0.278 C 
ENDBRANCH   8  13
BRANCH  10  15
ATOM     15  O   UNL     1      13.073 -61.357 -24.143  1.00  0.00    -0.493 OA
ATOM     16  C   UNL     1      14.293 -60.967 -24.759  1.00  0.00     0.278 C 
ENDBRANCH  10  15
ENDBRANCH   1   2
BRANCH   1  17
ATOM     17  C   UNL     1      10.702 -53.956 -22.363  1.00  0.00     0.004 C 
ATOM     18  C   UNL     1      11.090 -53.613 -23.809  1.00  0.00     0.065 C 
ATOM     19  C   UNL     1      10.279 -52.666 -21.643  1.00  0.00     0.065 C 
ATOM     20  C   UNL     1      12.196 -52.565 -23.856  1.00  0.00     0.262 C 
ATOM     21  C   UNL     1      11.394 -51.633 -21.672  1.00  0.00     0.262 C 
ATOM     22  N   UNL     1      11.762 -51.328 -23.104  1.00  0.00    -0.331 N 
ATOM     23  H   UNL     1      10.920 -50.972 -23.572  1.00  0.00     0.348 HD
BRANCH  22  24
ATOM     24  C   UNL     1      12.785 -50.213 -23.178  1.00  0.00     0.299 C 
BRANCH  24  25
ATOM     25  C   UNL     1      12.175 -48.873 -23.487  1.00  0.00     0.006 A 
ATOM     26  C   UNL     1      12.727 -48.053 -24.484  1.00  0.00     0.009 A 
ATOM     27  C   UNL     1      11.059 -48.415 -22.770  1.00  0.00     0.009 A 
ATOM     28  C   UNL     1      12.177 -46.799 -24.751  1.00  0.00     0.001 A 
ATOM     29  C   UNL     1      10.512 -47.159 -23.041  1.00  0.00     0.001 A 
ATOM     30  C   UNL     1      11.073 -46.353 -24.029  1.00  0.00     0.000 A 
ENDBRANCH  24  25
ENDBRANCH  22  24
ENDBRANCH   1  17
TORSDOF 7
ENDMDL
MODEL 7
REMARK VINA RESULT:    -9.471      3.884     10.337
REMARK INTER + INTRA:         -13.503
REMARK INTER:                 -12.828
REMARK INTRA:                  -0.676
REMARK UNBOUND:                -0.433
REMARK SMILES COc1cc2c(cc1OC)C(O)=C(C[C@H]1CC[N@H+](Cc3ccccc3)CC1)C2
REMARK SMILES IDX 14 1 13 2 11 3 6 4 28 5 7 6 5 7 8 8 4 9 3 10 12 11 9 13
REMARK SMILES IDX 10 14 2 15 1 16 15 17 27 18 16 19 26 20 17 21 18 22 19 24
REMARK SMILES IDX 20 25 21 26 25 27 22 28 24 29 23 30
REMARK H PARENT 12 12 18 23
ROOT
ATOM      1  C   UNL     1      11.575 -57.973 -22.749  1.00  0.00     0.039 C 
ENDROOT
BRANCH   1   2
ATOM      2  C   UNL     1      10.796 -59.118 -23.324  1.00  0.00    -0.023 C 
ATOM      3  C   UNL     1      10.132 -60.126 -22.730  1.00  0.00     0.122 C 
ATOM      4  C   UNL     1       9.560 -61.002 -23.745  1.00  0.00     0.024 A 
ATOM      5  C   UNL     1      10.732 -59.253 -24.838  1.00  0.00     0.071 C 
ATOM      6  C   UNL     1       8.788 -62.145 -23.648  1.00  0.00     0.062 A 
ATOM      7  C   UNL     1       9.913 -60.499 -24.999  1.00  0.00    -0.029 A 
ATOM      8  C   UNL     1       8.363 -62.788 -24.823  1.00  0.00     0.161 A 
ATOM      9  C   UNL     1       9.523 -61.128 -26.174  1.00  0.00     0.055 A 
ATOM     10  C   UNL     1       8.751 -62.297 -26.095  1.00  0.00     0.161 A 
BRANCH   3  11
ATOM     11  O   UNL     1      10.006 -60.373 -21.398  1.00  0.00    -0.507 OA
ATOM     12  H   UNL     1       9.338 -61.074 -21.295  1.00  0.00     0.293 HD
ENDBRANCH   3  11
BRANCH   8  13
ATOM     13  O   UNL     1       7.612 -63.909 -24.561  1.00  0.00    -0.493 OA
ATOM     14  C   UNL     1       7.609 -64.389 -23.222  1.00  0.00     0.278 C 
ENDBRANCH   8  13
BRANCH  10  15
ATOM     15  O   UNL     1       8.360 -63.011 -27.196  1.00  0.00    -0.493 OA
ATOM     16  C   UNL     1       8.803 -62.573 -28.475  1.00  0.00     0.278 C 
ENDBRANCH  10  15
ENDBRANCH   1   2
BRANCH   1  17
ATOM     17  C   UNL     1      10.838 -56.632 -22.565  1.00  0.00     0.004 C 
ATOM     18  C   UNL     1      11.291 -55.937 -21.273  1.00  0.00     0.065 C 
ATOM     19  C   UNL     1      11.070 -55.680 -23.749  1.00  0.00     0.065 C 
ATOM     20  C   UNL     1      10.566 -54.612 -21.068  1.00  0.00     0.262 C 
ATOM     21  C   UNL     1      10.325 -54.370 -23.551  1.00  0.00     0.262 C 
ATOM     22  N   UNL     1      10.781 -53.720 -22.268  1.00  0.00    -0.331 N 
ATOM     23  H   UNL     1      11.793 -53.558 -22.344  1.00  0.00     0.348 HD
BRANCH  22  24
ATOM     24  C   UNL     1      10.152 -52.352 -22.096  1.00  0.00     0.299 C 
BRANCH  24  25
ATOM     25  C   UNL     1      11.040 -51.231 -22.561  1.00  0.00     0.006 A 
ATOM     26  C   UNL     1      10.606 -49.898 -22.477  1.00  0.00     0.009 A 
ATOM     27  C   UNL     1      12.306 -51.501 -23.102  1.00  0.00     0.009 A 
ATOM     28  C   UNL     1      11.420 -48.861 -22.933  1.00  0.00     0.001 A 
ATOM     29  C   UNL     1      13.117 -50.459 -23.557  1.00  0.00     0.001 A 
ATOM     30  C   UNL     1      12.672 -49.142 -23.474  1.00  0.00     0.000 A 
ENDBRANCH  24  25
ENDBRANCH  22  24
ENDBRANCH   1  17
TORSDOF 7
ENDMDL
MODEL 8
REMARK VINA RESULT:    -9.464      3.503      9.722
REMARK INTER + INTRA:         -13.494
REMARK INTER:                 -13.089
REMARK INTRA:                  -0.405
REMARK UNBOUND:                -0.433
REMARK SMILES COc1cc2c(cc1OC)C(O)=C(C[C@H]1CC[N@H+](Cc3ccccc3)CC1)C2
REMARK SMILES IDX 14 1 13 2 11 3 6 4 28 5 7 6 5 7 8 8 4 9 3 10 12 11 9 13
REMARK SMILES IDX 10 14 2 15 1 16 15 17 27 18 16 19 26 20 17 21 18 22 19 24
REMARK SMILES IDX 20 25 21 26 25 27 22 28 24 29 23 30
REMARK H PARENT 12 12 18 23
ROOT
ATOM      1  C   UNL     1       9.911 -55.110 -22.160  1.00  0.00     0.039 C 
ENDROOT
BRANCH   1   2
ATOM      2  C   UNL     1       9.866 -56.566 -22.521  1.00  0.00    -0.023 C 
ATOM      3  C   UNL     1      10.632 -57.601 -22.133  1.00  0.00     0.122 C 
ATOM      4  C   UNL     1      10.189 -58.818 -22.800  1.00  0.00     0.024 A 
ATOM      5  C   UNL     1       8.820 -57.022 -23.529  1.00  0.00     0.071 C 
ATOM      6  C   UNL     1      10.631 -60.125 -22.725  1.00  0.00     0.062 A 
ATOM      7  C   UNL     1       9.119 -58.488 -23.635  1.00  0.00    -0.029 A 
ATOM      8  C   UNL     1       9.992 -61.112 -23.493  1.00  0.00     0.161 A 
ATOM      9  C   UNL     1       8.485 -59.441 -24.421  1.00  0.00     0.055 A 
ATOM     10  C   UNL     1       8.930 -60.771 -24.367  1.00  0.00     0.161 A 
BRANCH   3  11
ATOM     11  O   UNL     1      11.694 -57.580 -21.283  1.00  0.00    -0.507 OA
ATOM     12  H   UNL     1      11.792 -58.478 -20.918  1.00  0.00     0.293 HD
ENDBRANCH   3  11
BRANCH   8  13
ATOM     13  O   UNL     1      10.551 -62.355 -23.313  1.00  0.00    -0.493 OA
ATOM     14  C   UNL     1       9.835 -63.276 -22.500  1.00  0.00     0.278 C 
ENDBRANCH   8  13
BRANCH  10  15
ATOM     15  O   UNL     1       8.397 -61.769 -25.139  1.00  0.00    -0.493 OA
ATOM     16  C   UNL     1       8.994 -62.036 -26.401  1.00  0.00     0.278 C 
ENDBRANCH  10  15
ENDBRANCH   1   2
BRANCH   1  17
ATOM     17  C   UNL     1      11.079 -54.275 -22.719  1.00  0.00     0.004 C 
ATOM     18  C   UNL     1      11.217 -54.483 -24.235  1.00  0.00     0.065 C 
ATOM     19  C   UNL     1      10.901 -52.775 -22.438  1.00  0.00     0.065 C 
ATOM     20  C   UNL     1      12.374 -53.673 -24.806  1.00  0.00     0.262 C 
ATOM     21  C   UNL     1      12.069 -51.974 -22.989  1.00  0.00     0.262 C 
ATOM     22  N   UNL     1      12.187 -52.210 -24.475  1.00  0.00    -0.331 N 
ATOM     23  H   UNL     1      11.304 -51.915 -24.908  1.00  0.00     0.348 HD
BRANCH  22  24
ATOM     24  C   UNL     1      13.263 -51.334 -25.083  1.00  0.00     0.299 C 
BRANCH  24  25
ATOM     25  C   UNL     1      14.650 -51.703 -24.630  1.00  0.00     0.006 A 
ATOM     26  C   UNL     1      15.425 -52.605 -25.376  1.00  0.00     0.009 A 
ATOM     27  C   UNL     1      15.180 -51.166 -23.447  1.00  0.00     0.009 A 
ATOM     28  C   UNL     1      16.701 -52.966 -24.941  1.00  0.00     0.001 A 
ATOM     29  C   UNL     1      16.457 -51.531 -23.016  1.00  0.00     0.001 A 
ATOM     30  C   UNL     1      17.214 -52.432 -23.762  1.00  0.00     0.000 A 
ENDBRANCH  24  25
ENDBRANCH  22  24
ENDBRANCH   1  17
TORSDOF 7
ENDMDL
MODEL 9
REMARK VINA RESULT:    -9.294      1.913      2.650
REMARK INTER + INTRA:         -13.259
REMARK INTER:                 -12.779
REMARK INTRA:                  -0.481
REMARK UNBOUND:                -0.433
REMARK SMILES COc1cc2c(cc1OC)C(O)=C(C[C@H]1CC[N@H+](Cc3ccccc3)CC1)C2
REMARK SMILES IDX 14 1 13 2 11 3 6 4 28 5 7 6 5 7 8 8 4 9 3 10 12 11 9 13
REMARK SMILES IDX 10 14 2 15 1 16 15 17 27 18 16 19 26 20 17 21 18 22 19 24
REMARK SMILES IDX 20 25 21 26 25 27 22 28 24 29 23 30
REMARK H PARENT 12 12 18 23
ROOT
ATOM      1  C   UNL     1      10.508 -53.980 -22.384  1.00  0.00     0.039 C 
ENDROOT
BRANCH   1   2
ATOM      2  C   UNL     1      11.511 -53.039 -22.983  1.00  0.00    -0.023 C 
ATOM      3  C   UNL     1      12.031 -51.887 -22.523  1.00  0.00     0.122 C 
ATOM      4  C   UNL     1      12.954 -51.337 -23.508  1.00  0.00     0.024 A 
ATOM      5  C   UNL     1      12.052 -53.356 -24.369  1.00  0.00     0.071 C 
ATOM      6  C   UNL     1      13.741 -50.201 -23.501  1.00  0.00     0.062 A 
ATOM      7  C   UNL     1      12.972 -52.196 -24.609  1.00  0.00    -0.029 A 
ATOM      8  C   UNL     1      14.557 -49.925 -24.611  1.00  0.00     0.161 A 
ATOM      9  C   UNL     1      13.753 -51.933 -25.727  1.00  0.00     0.055 A 
ATOM     10  C   UNL     1      14.548 -50.777 -25.744  1.00  0.00     0.161 A 
BRANCH   3  11
ATOM     11  O   UNL     1      11.755 -51.256 -21.350  1.00  0.00    -0.507 OA
ATOM     12  H   UNL     1      11.987 -50.317 -21.464  1.00  0.00     0.293 HD
ENDBRANCH   3  11
BRANCH   8  13
ATOM     13  O   UNL     1      15.272 -48.761 -24.455  1.00  0.00    -0.493 OA
ATOM     14  C   UNL     1      16.560 -48.865 -23.863  1.00  0.00     0.278 C 
ENDBRANCH   8  13
BRANCH  10  15
ATOM     15  O   UNL     1      15.315 -50.412 -26.818  1.00  0.00    -0.493 OA
ATOM     16  C   UNL     1      14.784 -49.460 -27.732  1.00  0.00     0.278 C 
ENDBRANCH  10  15
ENDBRANCH   1   2
BRANCH   1  17
ATOM     17  C   UNL     1      10.538 -55.446 -22.857  1.00  0.00     0.004 C 
ATOM     18  C   UNL     1      11.337 -56.316 -21.876  1.00  0.00     0.065 C 
ATOM     19  C   UNL     1       9.125 -56.034 -23.003  1.00  0.00     0.065 C 
ATOM     20  C   UNL     1      11.387 -57.770 -22.331  1.00  0.00     0.262 C 
ATOM     21  C   UNL     1       9.180 -57.476 -23.480  1.00  0.00     0.262 C 
ATOM     22  N   UNL     1       9.983 -58.300 -22.505  1.00  0.00    -0.331 N 
ATOM     23  H   UNL     1       9.522 -58.235 -21.589  1.00  0.00     0.348 HD
BRANCH  22  24
ATOM     24  C   UNL     1       9.958 -59.767 -22.880  1.00  0.00     0.299 C 
BRANCH  24  25
ATOM     25  C   UNL     1      10.231 -60.008 -24.340  1.00  0.00     0.006 A 
ATOM     26  C   UNL     1       9.188 -60.368 -25.209  1.00  0.00     0.009 A 
ATOM     27  C   UNL     1      11.533 -59.895 -24.850  1.00  0.00     0.009 A 
ATOM     28  C   UNL     1       9.447 -60.616 -26.557  1.00  0.00     0.001 A 
ATOM     29  C   UNL     1      11.787 -60.144 -26.200  1.00  0.00     0.001 A 
ATOM     30  C   UNL     1      10.745 -60.507 -27.051  1.00  0.00     0.000 A 
ENDBRANCH  24  25
ENDBRANCH  22  24
ENDBRANCH   1  17
TORSDOF 7
ENDMDL
