MODEL 1
REMARK VINA RESULT:   -13.235      0.000      0.000
REMARK INTER + INTRA:         -19.198
REMARK INTER:                 -18.265
REMARK INTRA:                  -0.934
REMARK UNBOUND:                -0.934
REMARK SMILES O=C1C(=NCCCNc2c3c(nc4cc(Cl)ccc24)CCCC3)CC(=O)c2c(O)cccc21
REMARK SMILES IDX 5 1 4 2 3 3 24 4 25 5 27 6 2 7 28 8 33 9 30 10 32 11 31 12
REMARK SMILES IDX 26 13 1 14 29 15 6 17 7 18 8 19 9 21 10 22 19 23 11 24 23 25
REMARK SMILES IDX 18 26 13 27 12 28 20 29 22 30 17 31 14 32 21 33 15 34 16 35
REMARK H PARENT 29 16 8 20
ROOT
ATOM      1  C   UNL     1      10.663 -57.709 -22.776  1.00  0.00     0.144 C 
ENDROOT
BRANCH   1   2
ATOM      2  N   UNL     1      11.564 -56.727 -23.376  1.00  0.00    -0.285 NA
BRANCH   2   3
ATOM      3  C   UNL     1      11.227 -55.485 -23.465  1.00  0.00     0.090 C 
ATOM      4  C   UNL     1      10.303 -54.894 -22.446  1.00  0.00     0.141 C 
ATOM      5  C   UNL     1      10.755 -53.556 -21.933  1.00  0.00     0.173 C 
ATOM      6  C   UNL     1      11.638 -52.717 -22.781  1.00  0.00     0.071 A 
ATOM      7  C   UNL     1      11.694 -54.506 -24.515  1.00  0.00     0.208 C 
ATOM      8  C   UNL     1      12.027 -51.440 -22.352  1.00  0.00     0.127 A 
ATOM      9  C   UNL     1      12.061 -53.163 -24.036  1.00  0.00     0.038 A 
ATOM     10  C   UNL     1      12.816 -50.626 -23.164  1.00  0.00     0.047 A 
ATOM     11  C   UNL     1      12.843 -52.342 -24.860  1.00  0.00     0.013 A 
ATOM     12  C   UNL     1      13.221 -51.074 -24.420  1.00  0.00     0.005 A 
ATOM     13  O   UNL     1      10.367 -53.112 -20.854  1.00  0.00    -0.294 OA
ATOM     14  O   UNL     1      11.749 -54.816 -25.692  1.00  0.00    -0.287 OA
BRANCH   8  15
ATOM     15  O   UNL     1      11.662 -50.908 -21.144  1.00  0.00    -0.507 OA
ATOM     16  H   UNL     1      12.475 -50.647 -20.654  1.00  0.00     0.293 HD
ENDBRANCH   8  15
ENDBRANCH   2   3
ENDBRANCH   1   2
BRANCH   1  17
ATOM     17  C   UNL     1      11.457 -58.860 -22.164  1.00  0.00     0.045 C 
BRANCH  17  18
ATOM     18  C   UNL     1      10.696 -60.183 -22.239  1.00  0.00     0.115 C 
BRANCH  18  19
ATOM     19  N   UNL     1      11.350 -61.154 -23.141  1.00  0.00    -0.384 N 
ATOM     20  H   UNL     1      12.297 -60.834 -23.340  1.00  0.00     0.160 HD
BRANCH  19  21
ATOM     21  C   UNL     1      10.676 -61.331 -24.382  1.00  0.00     0.049 A 
ATOM     22  C   UNL     1       9.596 -62.221 -24.439  1.00  0.00    -0.003 A 
ATOM     23  C   UNL     1      11.038 -60.604 -25.554  1.00  0.00     0.024 A 
ATOM     24  C   UNL     1       8.906 -62.343 -25.644  1.00  0.00     0.046 A 
ATOM     25  C   UNL     1       9.181 -63.130 -23.312  1.00  0.00     0.039 C 
ATOM     26  C   UNL     1      12.131 -59.703 -25.631  1.00  0.00     0.014 A 
ATOM     27  C   UNL     1      10.258 -60.810 -26.717  1.00  0.00     0.074 A 
ATOM     28  N   UNL     1       9.218 -61.653 -26.761  1.00  0.00    -0.252 NA
ATOM     29  C   UNL     1       7.763 -63.322 -25.720  1.00  0.00     0.056 C 
ATOM     30  C   UNL     1       7.657 -63.189 -23.159  1.00  0.00     0.005 C 
ATOM     31  C   UNL     1      12.428 -59.023 -26.810  1.00  0.00     0.021 A 
ATOM     32  C   UNL     1      10.570 -60.122 -27.879  1.00  0.00     0.049 A 
ATOM     33  C   UNL     1       6.878 -63.202 -24.482  1.00  0.00     0.007 C 
ATOM     34  C   UNL     1      11.641 -59.236 -27.932  1.00  0.00     0.043 A 
ATOM     35  Cl  UNL     1      11.995 -58.402 -29.394  1.00  0.00    -0.084 Cl
ENDBRANCH  19  21
ENDBRANCH  18  19
ENDBRANCH  17  18
ENDBRANCH   1  17
TORSDOF 7
ENDMDL
MODEL 2
REMARK VINA RESULT:   -11.352      2.043      3.740
REMARK INTER + INTRA:         -16.599
REMARK INTER:                 -15.855
REMARK INTRA:                  -0.744
REMARK UNBOUND:                -0.934
REMARK SMILES O=C1C(=NCCCNc2c3c(nc4cc(Cl)ccc24)CCCC3)CC(=O)c2c(O)cccc21
REMARK SMILES IDX 5 1 4 2 3 3 24 4 25 5 27 6 2 7 28 8 33 9 30 10 32 11 31 12
REMARK SMILES IDX 26 13 1 14 29 15 6 17 7 18 8 19 9 21 10 22 19 23 11 24 23 25
REMARK SMILES IDX 18 26 13 27 12 28 20 29 22 30 17 31 14 32 21 33 15 34 16 35
REMARK H PARENT 29 16 8 20
ROOT
ATOM      1  C   UNL     1      11.112 -56.466 -22.107  1.00  0.00     0.144 C 
ENDROOT
BRANCH   1   2
ATOM      2  N   UNL     1      10.135 -55.752 -22.926  1.00  0.00    -0.285 NA
BRANCH   2   3
ATOM      3  C   UNL     1      10.348 -54.540 -23.307  1.00  0.00     0.090 C 
ATOM      4  C   UNL     1       9.522 -53.429 -22.739  1.00  0.00     0.141 C 
ATOM      5  C   UNL     1      10.332 -52.233 -22.321  1.00  0.00     0.173 C 
ATOM      6  C   UNL     1      11.648 -51.991 -22.963  1.00  0.00     0.071 A 
ATOM      7  C   UNL     1      11.399 -54.085 -24.293  1.00  0.00     0.208 C 
ATOM      8  C   UNL     1      12.398 -50.853 -22.636  1.00  0.00     0.127 A 
ATOM      9  C   UNL     1      12.143 -52.866 -23.935  1.00  0.00     0.038 A 
ATOM     10  C   UNL     1      13.612 -50.594 -23.270  1.00  0.00     0.047 A 
ATOM     11  C   UNL     1      13.357 -52.601 -24.584  1.00  0.00     0.013 A 
ATOM     12  C   UNL     1      14.091 -51.464 -24.247  1.00  0.00     0.005 A 
ATOM     13  O   UNL     1       9.909 -51.418 -21.503  1.00  0.00    -0.294 OA
ATOM     14  O   UNL     1      11.602 -54.693 -25.328  1.00  0.00    -0.287 OA
BRANCH   8  15
ATOM     15  O   UNL     1      12.000 -49.933 -21.703  1.00  0.00    -0.507 OA
ATOM     16  H   UNL     1      11.437 -49.256 -22.144  1.00  0.00     0.293 HD
ENDBRANCH   8  15
ENDBRANCH   2   3
ENDBRANCH   1   2
BRANCH   1  17
ATOM     17  C   UNL     1      11.266 -57.906 -22.591  1.00  0.00     0.045 C 
BRANCH  17  18
ATOM     18  C   UNL     1      12.096 -57.993 -23.872  1.00  0.00     0.115 C 
BRANCH  18  19
ATOM     19  N   UNL     1      12.500 -59.380 -24.183  1.00  0.00    -0.384 N 
ATOM     20  H   UNL     1      13.363 -59.358 -24.725  1.00  0.00     0.160 HD
BRANCH  19  21
ATOM     21  C   UNL     1      11.531 -60.108 -24.928  1.00  0.00     0.049 A 
ATOM     22  C   UNL     1      11.420 -59.866 -26.303  1.00  0.00    -0.003 A 
ATOM     23  C   UNL     1      10.701 -61.100 -24.330  1.00  0.00     0.024 A 
ATOM     24  C   UNL     1      10.508 -60.626 -27.034  1.00  0.00     0.046 A 
ATOM     25  C   UNL     1      12.152 -58.774 -27.039  1.00  0.00     0.039 C 
ATOM     26  C   UNL     1      10.696 -61.410 -22.945  1.00  0.00     0.014 A 
ATOM     27  C   UNL     1       9.816 -61.809 -25.177  1.00  0.00     0.074 A 
ATOM     28  N   UNL     1       9.724 -61.583 -26.494  1.00  0.00    -0.252 NA
ATOM     29  C   UNL     1      10.361 -60.349 -28.508  1.00  0.00     0.056 C 
ATOM     30  C   UNL     1      12.681 -59.255 -28.394  1.00  0.00     0.005 C 
ATOM     31  C   UNL     1       9.858 -62.395 -22.426  1.00  0.00     0.021 A 
ATOM     32  C   UNL     1       8.991 -62.786 -24.639  1.00  0.00     0.049 A 
ATOM     33  C   UNL     1      11.734 -60.192 -29.157  1.00  0.00     0.007 C 
ATOM     34  C   UNL     1       9.008 -63.081 -23.280  1.00  0.00     0.043 A 
ATOM     35  Cl  UNL     1       7.969 -64.301 -22.653  1.00  0.00    -0.084 Cl
ENDBRANCH  19  21
ENDBRANCH  18  19
ENDBRANCH  17  18
ENDBRANCH   1  17
TORSDOF 7
ENDMDL
MODEL 3
REMARK VINA RESULT:   -11.149      1.669      2.520
REMARK INTER + INTRA:         -16.319
REMARK INTER:                 -15.882
REMARK INTRA:                  -0.437
REMARK UNBOUND:                -0.934
REMARK SMILES O=C1C(=NCCCNc2c3c(nc4cc(Cl)ccc24)CCCC3)CC(=O)c2c(O)cccc21
REMARK SMILES IDX 5 1 4 2 3 3 24 4 25 5 27 6 2 7 28 8 33 9 30 10 32 11 31 12
REMARK SMILES IDX 26 13 1 14 29 15 6 17 7 18 8 19 9 21 10 22 19 23 11 24 23 25
REMARK SMILES IDX 18 26 13 27 12 28 20 29 22 30 17 31 14 32 21 33 15 34 16 35
REMARK H PARENT 29 16 8 20
ROOT
ATOM      1  C   UNL     1      10.404 -55.206 -22.275  1.00  0.00     0.144 C 
ENDROOT
BRANCH   1   2
ATOM      2  N   UNL     1      11.020 -53.955 -21.839  1.00  0.00    -0.285 NA
BRANCH   2   3
ATOM      3  C   UNL     1      10.832 -52.860 -22.493  1.00  0.00     0.090 C 
ATOM      4  C   UNL     1       9.559 -52.095 -22.307  1.00  0.00     0.141 C 
ATOM      5  C   UNL     1       9.769 -50.617 -22.130  1.00  0.00     0.173 C 
ATOM      6  C   UNL     1      10.994 -49.990 -22.684  1.00  0.00     0.071 A 
ATOM      7  C   UNL     1      11.802 -52.218 -23.456  1.00  0.00     0.208 C 
ATOM      8  C   UNL     1      11.187 -48.605 -22.586  1.00  0.00     0.127 A 
ATOM      9  C   UNL     1      11.954 -50.757 -23.350  1.00  0.00     0.038 A 
ATOM     10  C   UNL     1      12.313 -48.001 -23.146  1.00  0.00     0.047 A 
ATOM     11  C   UNL     1      13.079 -50.152 -23.927  1.00  0.00     0.013 A 
ATOM     12  C   UNL     1      13.257 -48.772 -23.820  1.00  0.00     0.005 A 
ATOM     13  O   UNL     1       8.925 -49.904 -21.590  1.00  0.00    -0.294 OA
ATOM     14  O   UNL     1      12.409 -52.879 -24.280  1.00  0.00    -0.287 OA
BRANCH   8  15
ATOM     15  O   UNL     1      10.306 -47.765 -21.959  1.00  0.00    -0.507 OA
ATOM     16  H   UNL     1      10.043 -48.165 -21.099  1.00  0.00     0.293 HD
ENDBRANCH   8  15
ENDBRANCH   2   3
ENDBRANCH   1   2
BRANCH   1  17
ATOM     17  C   UNL     1      11.396 -56.039 -23.082  1.00  0.00     0.045 C 
BRANCH  17  18
ATOM     18  C   UNL     1      11.011 -57.517 -23.111  1.00  0.00     0.115 C 
BRANCH  18  19
ATOM     19  N   UNL     1      12.050 -58.353 -23.750  1.00  0.00    -0.384 N 
ATOM     20  H   UNL     1      12.605 -57.769 -24.373  1.00  0.00     0.160 HD
BRANCH  19  21
ATOM     21  C   UNL     1      11.528 -59.437 -24.510  1.00  0.00     0.049 A 
ATOM     22  C   UNL     1      10.911 -60.497 -23.833  1.00  0.00    -0.003 A 
ATOM     23  C   UNL     1      11.578 -59.460 -25.934  1.00  0.00     0.024 A 
ATOM     24  C   UNL     1      10.352 -61.525 -24.590  1.00  0.00     0.046 A 
ATOM     25  C   UNL     1      10.889 -60.653 -22.334  1.00  0.00     0.039 C 
ATOM     26  C   UNL     1      12.204 -58.465 -26.729  1.00  0.00     0.014 A 
ATOM     27  C   UNL     1      10.971 -60.557 -26.591  1.00  0.00     0.074 A 
ATOM     28  N   UNL     1      10.370 -61.560 -25.938  1.00  0.00    -0.252 NA
ATOM     29  C   UNL     1       9.715 -62.683 -23.866  1.00  0.00     0.056 C 
ATOM     30  C   UNL     1       9.522 -61.130 -21.832  1.00  0.00     0.005 C 
ATOM     31  C   UNL     1      12.214 -58.549 -28.120  1.00  0.00     0.021 A 
ATOM     32  C   UNL     1      10.991 -60.619 -27.976  1.00  0.00     0.049 A 
ATOM     33  C   UNL     1       8.839 -62.177 -22.723  1.00  0.00     0.007 C 
ATOM     34  C   UNL     1      11.603 -59.629 -28.738  1.00  0.00     0.043 A 
ATOM     35  Cl  UNL     1      11.606 -59.745 -30.455  1.00  0.00    -0.084 Cl
ENDBRANCH  19  21
ENDBRANCH  18  19
ENDBRANCH  17  18
ENDBRANCH   1  17
TORSDOF 7
ENDMDL
MODEL 4
REMARK VINA RESULT:   -11.112      1.209      2.178
REMARK INTER + INTRA:         -16.269
REMARK INTER:                 -15.547
REMARK INTRA:                  -0.721
REMARK UNBOUND:                -0.934
REMARK SMILES O=C1C(=NCCCNc2c3c(nc4cc(Cl)ccc24)CCCC3)CC(=O)c2c(O)cccc21
REMARK SMILES IDX 5 1 4 2 3 3 24 4 25 5 27 6 2 7 28 8 33 9 30 10 32 11 31 12
REMARK SMILES IDX 26 13 1 14 29 15 6 17 7 18 8 19 9 21 10 22 19 23 11 24 23 25
REMARK SMILES IDX 18 26 13 27 12 28 20 29 22 30 17 31 14 32 21 33 15 34 16 35
REMARK H PARENT 29 16 8 20
ROOT
ATOM      1  C   UNL     1       9.691 -56.469 -22.797  1.00  0.00     0.144 C 
ENDROOT
BRANCH   1   2
ATOM      2  N   UNL     1       9.934 -55.364 -23.722  1.00  0.00    -0.285 NA
BRANCH   2   3
ATOM      3  C   UNL     1      10.963 -54.599 -23.586  1.00  0.00     0.090 C 
ATOM      4  C   UNL     1      12.106 -54.718 -24.545  1.00  0.00     0.141 C 
ATOM      5  C   UNL     1      12.609 -53.393 -25.044  1.00  0.00     0.173 C 
ATOM      6  C   UNL     1      12.395 -52.180 -24.216  1.00  0.00     0.071 A 
ATOM      7  C   UNL     1      11.150 -53.533 -22.533  1.00  0.00     0.208 C 
ATOM      8  C   UNL     1      12.905 -50.941 -24.629  1.00  0.00     0.127 A 
ATOM      9  C   UNL     1      11.722 -52.256 -22.993  1.00  0.00     0.038 A 
ATOM     10  C   UNL     1      12.749 -49.806 -23.833  1.00  0.00     0.047 A 
ATOM     11  C   UNL     1      11.576 -51.121 -22.185  1.00  0.00     0.013 A 
ATOM     12  C   UNL     1      12.089 -49.895 -22.609  1.00  0.00     0.005 A 
ATOM     13  O   UNL     1      13.245 -53.294 -26.092  1.00  0.00    -0.294 OA
ATOM     14  O   UNL     1      10.854 -53.733 -21.368  1.00  0.00    -0.287 OA
BRANCH   8  15
ATOM     15  O   UNL     1      13.582 -50.760 -25.805  1.00  0.00    -0.507 OA
ATOM     16  H   UNL     1      13.367 -49.868 -26.161  1.00  0.00     0.293 HD
ENDBRANCH   8  15
ENDBRANCH   2   3
ENDBRANCH   1   2
BRANCH   1  17
ATOM     17  C   UNL     1      10.662 -57.615 -23.065  1.00  0.00     0.045 C 
BRANCH  17  18
ATOM     18  C   UNL     1       9.986 -58.980 -22.936  1.00  0.00     0.115 C 
BRANCH  18  19
ATOM     19  N   UNL     1      10.842 -60.077 -23.433  1.00  0.00    -0.384 N 
ATOM     20  H   UNL     1      11.784 -59.718 -23.584  1.00  0.00     0.160 HD
BRANCH  19  21
ATOM     21  C   UNL     1      10.389 -60.653 -24.653  1.00  0.00     0.049 A 
ATOM     22  C   UNL     1       9.426 -61.669 -24.599  1.00  0.00    -0.003 A 
ATOM     23  C   UNL     1      10.852 -60.204 -25.923  1.00  0.00     0.024 A 
ATOM     24  C   UNL     1       8.947 -62.186 -25.802  1.00  0.00     0.046 A 
ATOM     25  C   UNL     1       8.936 -62.312 -23.328  1.00  0.00     0.039 C 
ATOM     26  C   UNL     1      11.847 -59.209 -26.106  1.00  0.00     0.014 A 
ATOM     27  C   UNL     1      10.287 -60.803 -27.074  1.00  0.00     0.074 A 
ATOM     28  N   UNL     1       9.356 -61.764 -27.016  1.00  0.00    -0.252 NA
ATOM     29  C   UNL     1       7.934 -63.301 -25.750  1.00  0.00     0.056 C 
ATOM     30  C   UNL     1       7.421 -62.540 -23.352  1.00  0.00     0.005 C 
ATOM     31  C   UNL     1      12.253 -58.815 -27.380  1.00  0.00     0.021 A 
ATOM     32  C   UNL     1      10.704 -60.395 -28.332  1.00  0.00     0.049 A 
ATOM     33  C   UNL     1       6.861 -62.995 -24.708  1.00  0.00     0.007 C 
ATOM     34  C   UNL     1      11.675 -59.411 -28.490  1.00  0.00     0.043 A 
ATOM     35  Cl  UNL     1      12.165 -58.934 -30.069  1.00  0.00    -0.084 Cl
ENDBRANCH  19  21
ENDBRANCH  18  19
ENDBRANCH  17  18
ENDBRANCH   1  17
TORSDOF 7
ENDMDL
MODEL 5
REMARK VINA RESULT:   -10.571      4.218     10.419
REMARK INTER + INTRA:         -15.522
REMARK INTER:                 -15.037
REMARK INTRA:                  -0.484
REMARK UNBOUND:                -0.934
REMARK SMILES O=C1C(=NCCCNc2c3c(nc4cc(Cl)ccc24)CCCC3)CC(=O)c2c(O)cccc21
REMARK SMILES IDX 5 1 4 2 3 3 24 4 25 5 27 6 2 7 28 8 33 9 30 10 32 11 31 12
REMARK SMILES IDX 26 13 1 14 29 15 6 17 7 18 8 19 9 21 10 22 19 23 11 24 23 25
REMARK SMILES IDX 18 26 13 27 12 28 20 29 22 30 17 31 14 32 21 33 15 34 16 35
REMARK H PARENT 29 16 8 20
ROOT
ATOM      1  C   UNL     1      10.121 -54.114 -22.742  1.00  0.00     0.144 C 
ENDROOT
BRANCH   1   2
ATOM      2  N   UNL     1      10.922 -55.323 -22.564  1.00  0.00    -0.285 NA
BRANCH   2   3
ATOM      3  C   UNL     1      10.362 -56.481 -22.476  1.00  0.00     0.090 C 
ATOM      4  C   UNL     1       8.925 -56.641 -22.863  1.00  0.00     0.141 C 
ATOM      5  C   UNL     1       8.667 -57.845 -23.725  1.00  0.00     0.173 C 
ATOM      6  C   UNL     1       9.600 -58.998 -23.654  1.00  0.00     0.071 A 
ATOM      7  C   UNL     1      11.025 -57.761 -22.025  1.00  0.00     0.208 C 
ATOM      8  C   UNL     1       9.351 -60.157 -24.402  1.00  0.00     0.127 A 
ATOM      9  C   UNL     1      10.714 -58.967 -22.811  1.00  0.00     0.038 A 
ATOM     10  C   UNL     1      10.196 -61.262 -24.304  1.00  0.00     0.047 A 
ATOM     11  C   UNL     1      11.557 -60.081 -22.700  1.00  0.00     0.013 A 
ATOM     12  C   UNL     1      11.296 -61.228 -23.450  1.00  0.00     0.005 A 
ATOM     13  O   UNL     1       7.673 -57.925 -24.444  1.00  0.00    -0.294 OA
ATOM     14  O   UNL     1      11.763 -57.786 -21.057  1.00  0.00    -0.287 OA
BRANCH   8  15
ATOM     15  O   UNL     1       8.285 -60.290 -25.252  1.00  0.00    -0.507 OA
ATOM     16  H   UNL     1       7.453 -60.189 -24.736  1.00  0.00     0.293 HD
ENDBRANCH   8  15
ENDBRANCH   2   3
ENDBRANCH   1   2
BRANCH   1  17
ATOM     17  C   UNL     1      10.555 -53.035 -21.753  1.00  0.00     0.045 C 
BRANCH  17  18
ATOM     18  C   UNL     1      10.244 -51.629 -22.267  1.00  0.00     0.115 C 
BRANCH  18  19
ATOM     19  N   UNL     1      11.240 -50.636 -21.813  1.00  0.00    -0.384 N 
ATOM     20  H   UNL     1      10.795 -50.003 -21.150  1.00  0.00     0.160 HD
BRANCH  19  21
ATOM     21  C   UNL     1      11.792 -49.853 -22.866  1.00  0.00     0.049 A 
ATOM     22  C   UNL     1      12.656 -50.471 -23.780  1.00  0.00    -0.003 A 
ATOM     23  C   UNL     1      11.465 -48.478 -23.043  1.00  0.00     0.024 A 
ATOM     24  C   UNL     1      13.146 -49.711 -24.841  1.00  0.00     0.046 A 
ATOM     25  C   UNL     1      13.171 -51.880 -23.647  1.00  0.00     0.039 C 
ATOM     26  C   UNL     1      10.632 -47.735 -22.168  1.00  0.00     0.014 A 
ATOM     27  C   UNL     1      12.022 -47.812 -24.162  1.00  0.00     0.074 A 
ATOM     28  N   UNL     1      12.836 -48.412 -25.040  1.00  0.00    -0.252 NA
ATOM     29  C   UNL     1      14.100 -50.361 -25.809  1.00  0.00     0.056 C 
ATOM     30  C   UNL     1      13.179 -52.614 -24.992  1.00  0.00     0.005 C 
ATOM     31  C   UNL     1      10.351 -46.390 -22.402  1.00  0.00     0.021 A 
ATOM     32  C   UNL     1      11.728 -46.475 -24.377  1.00  0.00     0.049 A 
ATOM     33  C   UNL     1      13.602 -51.752 -26.191  1.00  0.00     0.007 C 
ATOM     34  C   UNL     1      10.901 -45.766 -23.511  1.00  0.00     0.043 A 
ATOM     35  Cl  UNL     1      10.562 -44.106 -23.814  1.00  0.00    -0.084 Cl
ENDBRANCH  19  21
ENDBRANCH  18  19
ENDBRANCH  17  18
ENDBRANCH   1  17
TORSDOF 7
ENDMDL
MODEL 6
REMARK VINA RESULT:   -10.458      2.164      4.193
REMARK INTER + INTRA:         -15.365
REMARK INTER:                 -15.197
REMARK INTRA:                  -0.169
REMARK UNBOUND:                -0.934
REMARK SMILES O=C1C(=NCCCNc2c3c(nc4cc(Cl)ccc24)CCCC3)CC(=O)c2c(O)cccc21
REMARK SMILES IDX 5 1 4 2 3 3 24 4 25 5 27 6 2 7 28 8 33 9 30 10 32 11 31 12
REMARK SMILES IDX 26 13 1 14 29 15 6 17 7 18 8 19 9 21 10 22 19 23 11 24 23 25
REMARK SMILES IDX 18 26 13 27 12 28 20 29 22 30 17 31 14 32 21 33 15 34 16 35
REMARK H PARENT 29 16 8 20
ROOT
ATOM      1  C   UNL     1       9.789 -56.760 -22.750  1.00  0.00     0.144 C 
ENDROOT
BRANCH   1   2
ATOM      2  N   UNL     1      10.003 -55.653 -23.680  1.00  0.00    -0.285 NA
BRANCH   2   3
ATOM      3  C   UNL     1      10.981 -54.829 -23.517  1.00  0.00     0.090 C 
ATOM      4  C   UNL     1      12.104 -54.809 -24.507  1.00  0.00     0.141 C 
ATOM      5  C   UNL     1      12.503 -53.423 -24.930  1.00  0.00     0.173 C 
ATOM      6  C   UNL     1      12.229 -52.282 -24.022  1.00  0.00     0.071 A 
ATOM      7  C   UNL     1      11.123 -53.821 -22.402  1.00  0.00     0.208 C 
ATOM      8  C   UNL     1      12.644 -50.988 -24.365  1.00  0.00     0.127 A 
ATOM      9  C   UNL     1      11.595 -52.481 -22.792  1.00  0.00     0.038 A 
ATOM     10  C   UNL     1      12.432 -49.918 -23.495  1.00  0.00     0.047 A 
ATOM     11  C   UNL     1      11.394 -51.411 -21.910  1.00  0.00     0.013 A 
ATOM     12  C   UNL     1      11.812 -50.129 -22.266  1.00  0.00     0.005 A 
ATOM     13  O   UNL     1      13.103 -53.216 -25.984  1.00  0.00    -0.294 OA
ATOM     14  O   UNL     1      10.871 -54.113 -21.247  1.00  0.00    -0.287 OA
BRANCH   8  15
ATOM     15  O   UNL     1      13.277 -50.688 -25.542  1.00  0.00    -0.507 OA
ATOM     16  H   UNL     1      13.804 -49.866 -25.418  1.00  0.00     0.293 HD
ENDBRANCH   8  15
ENDBRANCH   2   3
ENDBRANCH   1   2
BRANCH   1  17
ATOM     17  C   UNL     1      10.270 -58.073 -23.361  1.00  0.00     0.045 C 
BRANCH  17  18
ATOM     18  C   UNL     1      11.795 -58.160 -23.401  1.00  0.00     0.115 C 
BRANCH  18  19
ATOM     19  N   UNL     1      12.269 -59.507 -23.783  1.00  0.00    -0.384 N 
ATOM     20  H   UNL     1      13.156 -59.417 -24.275  1.00  0.00     0.160 HD
BRANCH  19  21
ATOM     21  C   UNL     1      11.367 -60.215 -24.627  1.00  0.00     0.049 A 
ATOM     22  C   UNL     1      11.355 -59.917 -25.996  1.00  0.00    -0.003 A 
ATOM     23  C   UNL     1      10.510 -61.240 -24.134  1.00  0.00     0.024 A 
ATOM     24  C   UNL     1      10.510 -60.656 -26.823  1.00  0.00     0.046 A 
ATOM     25  C   UNL     1      12.123 -58.787 -26.629  1.00  0.00     0.039 C 
ATOM     26  C   UNL     1      10.407 -61.608 -22.767  1.00  0.00     0.014 A 
ATOM     27  C   UNL     1       9.700 -61.924 -25.072  1.00  0.00     0.074 A 
ATOM     28  N   UNL     1       9.703 -61.643 -26.382  1.00  0.00    -0.252 NA
ATOM     29  C   UNL     1      10.469 -60.318 -28.291  1.00  0.00     0.056 C 
ATOM     30  C   UNL     1      12.758 -59.204 -27.960  1.00  0.00     0.005 C 
ATOM     31  C   UNL     1       9.548 -62.624 -22.352  1.00  0.00     0.021 A 
ATOM     32  C   UNL     1       8.853 -62.931 -24.638  1.00  0.00     0.049 A 
ATOM     33  C   UNL     1      11.883 -60.119 -28.830  1.00  0.00     0.007 C 
ATOM     34  C   UNL     1       8.774 -63.283 -23.295  1.00  0.00     0.043 A 
ATOM     35  Cl  UNL     1       7.709 -64.540 -22.798  1.00  0.00    -0.084 Cl
ENDBRANCH  19  21
ENDBRANCH  18  19
ENDBRANCH  17  18
ENDBRANCH   1  17
TORSDOF 7
ENDMDL
MODEL 7
REMARK VINA RESULT:   -10.342      5.051     11.148
REMARK INTER + INTRA:         -15.205
REMARK INTER:                 -14.237
REMARK INTRA:                  -0.969
REMARK UNBOUND:                -0.934
REMARK SMILES O=C1C(=NCCCNc2c3c(nc4cc(Cl)ccc24)CCCC3)CC(=O)c2c(O)cccc21
REMARK SMILES IDX 5 1 4 2 3 3 24 4 25 5 27 6 2 7 28 8 33 9 30 10 32 11 31 12
REMARK SMILES IDX 26 13 1 14 29 15 6 17 7 18 8 19 9 21 10 22 19 23 11 24 23 25
REMARK SMILES IDX 18 26 13 27 12 28 20 29 22 30 17 31 14 32 21 33 15 34 16 35
REMARK H PARENT 29 16 8 20
ROOT
ATOM      1  C   UNL     1      10.953 -51.482 -21.341  1.00  0.00     0.144 C 
ENDROOT
BRANCH   1   2
ATOM      2  N   UNL     1      11.788 -52.414 -22.096  1.00  0.00    -0.285 NA
BRANCH   2   3
ATOM      3  C   UNL     1      11.291 -53.491 -22.601  1.00  0.00     0.090 C 
ATOM      4  C   UNL     1      11.210 -53.642 -24.088  1.00  0.00     0.141 C 
ATOM      5  C   UNL     1      11.674 -54.984 -24.579  1.00  0.00     0.173 C 
ATOM      6  C   UNL     1      11.617 -56.149 -23.662  1.00  0.00     0.071 A 
ATOM      7  C   UNL     1      10.775 -54.683 -21.831  1.00  0.00     0.208 C 
ATOM      8  C   UNL     1      11.988 -57.424 -24.112  1.00  0.00     0.127 A 
ATOM      9  C   UNL     1      11.153 -56.007 -22.351  1.00  0.00     0.038 A 
ATOM     10  C   UNL     1      11.892 -58.532 -23.271  1.00  0.00     0.047 A 
ATOM     11  C   UNL     1      11.042 -57.121 -21.508  1.00  0.00     0.013 A 
ATOM     12  C   UNL     1      11.415 -58.383 -21.970  1.00  0.00     0.005 A 
ATOM     13  O   UNL     1      12.045 -55.156 -25.739  1.00  0.00    -0.294 OA
ATOM     14  O   UNL     1      10.075 -54.546 -20.843  1.00  0.00    -0.287 OA
BRANCH   8  15
ATOM     15  O   UNL     1      12.450 -57.670 -25.378  1.00  0.00    -0.507 OA
ATOM     16  H   UNL     1      11.733 -57.468 -26.022  1.00  0.00     0.293 HD
ENDBRANCH   8  15
ENDBRANCH   2   3
ENDBRANCH   1   2
BRANCH   1  17
ATOM     17  C   UNL     1       9.909 -50.841 -22.251  1.00  0.00     0.045 C 
BRANCH  17  18
ATOM     18  C   UNL     1      10.090 -49.326 -22.350  1.00  0.00     0.115 C 
BRANCH  18  19
ATOM     19  N   UNL     1      11.478 -48.909 -22.061  1.00  0.00    -0.384 N 
ATOM     20  H   UNL     1      11.484 -48.349 -21.211  1.00  0.00     0.160 HD
BRANCH  19  21
ATOM     21  C   UNL     1      12.075 -48.140 -23.100  1.00  0.00     0.049 A 
ATOM     22  C   UNL     1      12.953 -48.775 -23.986  1.00  0.00    -0.003 A 
ATOM     23  C   UNL     1      11.778 -46.759 -23.289  1.00  0.00     0.024 A 
ATOM     24  C   UNL     1      13.487 -48.027 -25.034  1.00  0.00     0.046 A 
ATOM     25  C   UNL     1      13.439 -50.194 -23.835  1.00  0.00     0.039 C 
ATOM     26  C   UNL     1      10.933 -45.999 -22.440  1.00  0.00     0.014 A 
ATOM     27  C   UNL     1      12.378 -46.107 -24.393  1.00  0.00     0.074 A 
ATOM     28  N   UNL     1      13.207 -46.724 -25.245  1.00  0.00    -0.252 NA
ATOM     29  C   UNL     1      14.458 -48.697 -25.973  1.00  0.00     0.056 C 
ATOM     30  C   UNL     1      13.473 -50.931 -25.178  1.00  0.00     0.005 C 
ATOM     31  C   UNL     1      10.683 -44.650 -22.685  1.00  0.00     0.021 A 
ATOM     32  C   UNL     1      12.115 -44.765 -24.619  1.00  0.00     0.049 A 
ATOM     33  C   UNL     1      13.946 -50.080 -26.366  1.00  0.00     0.007 C 
ATOM     34  C   UNL     1      11.276 -44.039 -23.779  1.00  0.00     0.043 A 
ATOM     35  Cl  UNL     1      10.976 -42.375 -24.096  1.00  0.00    -0.084 Cl
ENDBRANCH  19  21
ENDBRANCH  18  19
ENDBRANCH  17  18
ENDBRANCH   1  17
TORSDOF 7
ENDMDL
