MODEL 1
REMARK VINA RESULT:   -11.231      0.000      0.000
REMARK INTER + INTRA:         -17.138
REMARK INTER:                 -16.484
REMARK INTRA:                  -0.655
REMARK UNBOUND:                -0.655
REMARK SMILES COc1cc2c(cc1OC)S[C@@H](C(=O)CCc1cc[n+](Cc3ccccc3)cc1)C2
REMARK SMILES IDX 15 1 13 2 14 3 12 4 3 5 4 6 8 7 5 8 7 9 6 10 30 11 11 12
REMARK SMILES IDX 2 13 1 14 9 15 10 16 16 17 17 18 18 19 29 20 19 21 28 22
REMARK SMILES IDX 20 23 21 24 22 25 23 26 27 27 24 28 26 29 25 30
REMARK H PARENT
ROOT
ATOM      1  C   UNL     1      10.863 -55.181 -22.795  1.00  0.00     0.081 C 
ENDROOT
BRANCH   1   2
ATOM      2  C   UNL     1      10.502 -53.812 -22.235  1.00  0.00     0.146 C 
ATOM      3  O   UNL     1       9.419 -53.649 -21.665  1.00  0.00    -0.298 OA
BRANCH   2   4
ATOM      4  C   UNL     1      11.523 -52.696 -22.387  1.00  0.00     0.123 C 
ATOM      5  C   UNL     1      13.507 -49.298 -25.159  1.00  0.00     0.161 A 
ATOM      6  C   UNL     1      13.314 -50.679 -25.021  1.00  0.00     0.055 A 
ATOM      7  C   UNL     1      12.823 -48.397 -24.306  1.00  0.00     0.161 A 
ATOM      8  C   UNL     1      12.457 -51.148 -24.031  1.00  0.00    -0.029 A 
ATOM      9  C   UNL     1      11.953 -48.884 -23.324  1.00  0.00     0.065 A 
ATOM     10  C   UNL     1      11.783 -50.254 -23.200  1.00  0.00     0.015 A 
ATOM     11  C   UNL     1      12.107 -52.593 -23.806  1.00  0.00     0.059 C 
ATOM     12  S   UNL     1      10.739 -51.084 -22.038  1.00  0.00    -0.114 SA
BRANCH   5  13
ATOM     13  O   UNL     1      14.328 -48.724 -26.099  1.00  0.00    -0.493 OA
ATOM     14  C   UNL     1      14.669 -49.493 -27.243  1.00  0.00     0.278 C 
ENDBRANCH   5  13
BRANCH   7  15
ATOM     15  O   UNL     1      13.071 -47.063 -24.523  1.00  0.00    -0.493 OA
ATOM     16  C   UNL     1      11.957 -46.183 -24.591  1.00  0.00     0.278 C 
ENDBRANCH   7  15
ENDBRANCH   2   4
ENDBRANCH   1   2
BRANCH   1  17
ATOM     17  C   UNL     1      11.039 -56.249 -21.714  1.00  0.00     0.044 C 
BRANCH  17  18
ATOM     18  C   UNL     1      11.259 -57.638 -22.268  1.00  0.00    -0.036 A 
ATOM     19  C   UNL     1      11.687 -57.827 -23.581  1.00  0.00     0.074 A 
ATOM     20  C   UNL     1      10.970 -58.763 -21.493  1.00  0.00     0.074 A 
ATOM     21  C   UNL     1      11.793 -59.116 -24.093  1.00  0.00     0.308 A 
ATOM     22  C   UNL     1      11.087 -60.032 -22.047  1.00  0.00     0.308 A 
ATOM     23  N   UNL     1      11.493 -60.191 -23.327  1.00  0.00    -0.201 N 
BRANCH  23  24
ATOM     24  C   UNL     1      11.578 -61.551 -23.911  1.00  0.00     0.393 C 
BRANCH  24  25
ATOM     25  C   UNL     1      10.242 -62.246 -23.873  1.00  0.00     0.017 A 
ATOM     26  C   UNL     1       9.306 -62.039 -24.899  1.00  0.00     0.010 A 
ATOM     27  C   UNL     1       9.904 -63.101 -22.810  1.00  0.00     0.010 A 
ATOM     28  C   UNL     1       8.071 -62.685 -24.871  1.00  0.00     0.001 A 
ATOM     29  C   UNL     1       8.667 -63.745 -22.787  1.00  0.00     0.001 A 
ATOM     30  C   UNL     1       7.752 -63.538 -23.817  1.00  0.00     0.000 A 
ENDBRANCH  24  25
ENDBRANCH  23  24
ENDBRANCH  17  18
ENDBRANCH   1  17
TORSDOF 8
ENDMDL
MODEL 2
REMARK VINA RESULT:   -11.023      1.186      2.293
REMARK INTER + INTRA:         -16.832
REMARK INTER:                 -16.254
REMARK INTRA:                  -0.578
REMARK UNBOUND:                -0.655
REMARK SMILES COc1cc2c(cc1OC)S[C@@H](C(=O)CCc1cc[n+](Cc3ccccc3)cc1)C2
REMARK SMILES IDX 15 1 13 2 14 3 12 4 3 5 4 6 8 7 5 8 7 9 6 10 30 11 11 12
REMARK SMILES IDX 2 13 1 14 9 15 10 16 16 17 17 18 18 19 29 20 19 21 28 22
REMARK SMILES IDX 20 23 21 24 22 25 23 26 27 27 24 28 26 29 25 30
REMARK H PARENT
ROOT
ATOM      1  C   UNL     1      10.403 -55.190 -22.378  1.00  0.00     0.081 C 
ENDROOT
BRANCH   1   2
ATOM      2  C   UNL     1      10.404 -53.802 -21.750  1.00  0.00     0.146 C 
ATOM      3  O   UNL     1      10.375 -53.684 -20.522  1.00  0.00    -0.298 OA
BRANCH   2   4
ATOM      4  C   UNL     1      10.467 -52.605 -22.686  1.00  0.00     0.123 C 
ATOM      5  C   UNL     1      11.495 -47.947 -23.327  1.00  0.00     0.161 A 
ATOM      6  C   UNL     1      10.658 -48.840 -22.645  1.00  0.00     0.055 A 
ATOM      7  C   UNL     1      12.600 -48.435 -24.068  1.00  0.00     0.161 A 
ATOM      8  C   UNL     1      10.920 -50.205 -22.717  1.00  0.00    -0.029 A 
ATOM      9  C   UNL     1      12.859 -49.809 -24.118  1.00  0.00     0.065 A 
ATOM     10  C   UNL     1      12.014 -50.674 -23.442  1.00  0.00     0.015 A 
ATOM     11  C   UNL     1      10.148 -51.271 -21.991  1.00  0.00     0.059 C 
ATOM     12  S   UNL     1      12.152 -52.437 -23.369  1.00  0.00    -0.114 SA
BRANCH   5  13
ATOM     13  O   UNL     1      11.331 -46.583 -23.327  1.00  0.00    -0.493 OA
ATOM     14  C   UNL     1      10.453 -46.019 -22.364  1.00  0.00     0.278 C 
ENDBRANCH   5  13
BRANCH   7  15
ATOM     15  O   UNL     1      13.366 -47.482 -24.695  1.00  0.00    -0.493 OA
ATOM     16  C   UNL     1      14.633 -47.173 -24.132  1.00  0.00     0.278 C 
ENDBRANCH   7  15
ENDBRANCH   2   4
ENDBRANCH   1   2
BRANCH   1  17
ATOM     17  C   UNL     1      11.268 -56.197 -21.619  1.00  0.00     0.044 C 
BRANCH  17  18
ATOM     18  C   UNL     1      11.270 -57.577 -22.236  1.00  0.00    -0.036 A 
ATOM     19  C   UNL     1      10.938 -58.700 -21.480  1.00  0.00     0.074 A 
ATOM     20  C   UNL     1      11.673 -57.760 -23.559  1.00  0.00     0.074 A 
ATOM     21  C   UNL     1      11.036 -59.966 -22.047  1.00  0.00     0.308 A 
ATOM     22  C   UNL     1      11.760 -59.044 -24.084  1.00  0.00     0.308 A 
ATOM     23  N   UNL     1      11.443 -60.120 -23.329  1.00  0.00    -0.201 N 
BRANCH  23  24
ATOM     24  C   UNL     1      11.576 -61.484 -23.896  1.00  0.00     0.393 C 
BRANCH  24  25
ATOM     25  C   UNL     1      10.254 -62.207 -23.893  1.00  0.00     0.017 A 
ATOM     26  C   UNL     1       9.350 -62.036 -24.953  1.00  0.00     0.010 A 
ATOM     27  C   UNL     1       9.899 -63.054 -22.829  1.00  0.00     0.010 A 
ATOM     28  C   UNL     1       8.128 -62.709 -24.957  1.00  0.00     0.001 A 
ATOM     29  C   UNL     1       8.675 -63.725 -22.838  1.00  0.00     0.001 A 
ATOM     30  C   UNL     1       7.792 -63.553 -23.901  1.00  0.00     0.000 A 
ENDBRANCH  24  25
ENDBRANCH  23  24
ENDBRANCH  17  18
ENDBRANCH   1  17
TORSDOF 8
ENDMDL
MODEL 3
REMARK VINA RESULT:    -9.993      1.829      2.849
REMARK INTER + INTRA:         -15.321
REMARK INTER:                 -14.919
REMARK INTRA:                  -0.402
REMARK UNBOUND:                -0.655
REMARK SMILES COc1cc2c(cc1OC)S[C@@H](C(=O)CCc1cc[n+](Cc3ccccc3)cc1)C2
REMARK SMILES IDX 15 1 13 2 14 3 12 4 3 5 4 6 8 7 5 8 7 9 6 10 30 11 11 12
REMARK SMILES IDX 2 13 1 14 9 15 10 16 16 17 17 18 18 19 29 20 19 21 28 22
REMARK SMILES IDX 20 23 21 24 22 25 23 26 27 27 24 28 26 29 25 30
REMARK H PARENT
ROOT
ATOM      1  C   UNL     1      11.185 -56.231 -23.141  1.00  0.00     0.081 C 
ENDROOT
BRANCH   1   2
ATOM      2  C   UNL     1      10.499 -54.915 -22.800  1.00  0.00     0.146 C 
ATOM      3  O   UNL     1       9.677 -54.872 -21.880  1.00  0.00    -0.298 OA
BRANCH   2   4
ATOM      4  C   UNL     1      10.885 -53.688 -23.611  1.00  0.00     0.123 C 
ATOM      5  C   UNL     1      13.979 -50.081 -24.377  1.00  0.00     0.161 A 
ATOM      6  C   UNL     1      13.071 -50.621 -23.456  1.00  0.00     0.055 A 
ATOM      7  C   UNL     1      14.332 -50.814 -25.538  1.00  0.00     0.161 A 
ATOM      8  C   UNL     1      12.518 -51.873 -23.703  1.00  0.00    -0.029 A 
ATOM      9  C   UNL     1      13.778 -52.079 -25.764  1.00  0.00     0.065 A 
ATOM     10  C   UNL     1      12.877 -52.590 -24.843  1.00  0.00     0.015 A 
ATOM     11  C   UNL     1      11.582 -52.601 -22.777  1.00  0.00     0.059 C 
ATOM     12  S   UNL     1      12.061 -54.157 -24.927  1.00  0.00    -0.114 SA
BRANCH   5  13
ATOM     13  O   UNL     1      14.584 -48.857 -24.237  1.00  0.00    -0.493 OA
ATOM     14  C   UNL     1      15.627 -48.736 -23.280  1.00  0.00     0.278 C 
ENDBRANCH   5  13
BRANCH   7  15
ATOM     15  O   UNL     1      15.234 -50.206 -26.377  1.00  0.00    -0.493 OA
ATOM     16  C   UNL     1      14.735 -49.602 -27.562  1.00  0.00     0.278 C 
ENDBRANCH   7  15
ENDBRANCH   2   4
ENDBRANCH   1   2
BRANCH   1  17
ATOM     17  C   UNL     1      11.230 -57.211 -21.967  1.00  0.00     0.044 C 
BRANCH  17  18
ATOM     18  C   UNL     1      10.480 -58.497 -22.224  1.00  0.00    -0.036 A 
ATOM     19  C   UNL     1      10.920 -59.704 -21.684  1.00  0.00     0.074 A 
ATOM     20  C   UNL     1       9.368 -58.512 -23.067  1.00  0.00     0.074 A 
ATOM     21  C   UNL     1      10.264 -60.886 -22.010  1.00  0.00     0.308 A 
ATOM     22  C   UNL     1       8.745 -59.717 -23.369  1.00  0.00     0.308 A 
ATOM     23  N   UNL     1       9.196 -60.877 -22.842  1.00  0.00    -0.201 N 
BRANCH  23  24
ATOM     24  C   UNL     1       8.539 -62.157 -23.203  1.00  0.00     0.393 C 
BRANCH  24  25
ATOM     25  C   UNL     1       8.543 -62.369 -24.695  1.00  0.00     0.017 A 
ATOM     26  C   UNL     1       7.607 -63.230 -25.291  1.00  0.00     0.010 A 
ATOM     27  C   UNL     1       9.484 -61.721 -25.513  1.00  0.00     0.010 A 
ATOM     28  C   UNL     1       7.603 -63.424 -26.672  1.00  0.00     0.001 A 
ATOM     29  C   UNL     1       9.475 -61.918 -26.894  1.00  0.00     0.001 A 
ATOM     30  C   UNL     1       8.535 -62.767 -27.472  1.00  0.00     0.000 A 
ENDBRANCH  24  25
ENDBRANCH  23  24
ENDBRANCH  17  18
ENDBRANCH   1  17
TORSDOF 8
ENDMDL
MODEL 4
REMARK VINA RESULT:    -9.803      1.772      2.725
REMARK INTER + INTRA:         -15.042
REMARK INTER:                 -14.548
REMARK INTRA:                  -0.494
REMARK UNBOUND:                -0.655
REMARK SMILES COc1cc2c(cc1OC)S[C@@H](C(=O)CCc1cc[n+](Cc3ccccc3)cc1)C2
REMARK SMILES IDX 15 1 13 2 14 3 12 4 3 5 4 6 8 7 5 8 7 9 6 10 30 11 11 12
REMARK SMILES IDX 2 13 1 14 9 15 10 16 16 17 17 18 18 19 29 20 19 21 28 22
REMARK SMILES IDX 20 23 21 24 22 25 23 26 27 27 24 28 26 29 25 30
REMARK H PARENT
ROOT
ATOM      1  C   UNL     1      11.132 -57.164 -22.799  1.00  0.00     0.081 C 
ENDROOT
BRANCH   1   2
ATOM      2  C   UNL     1      10.503 -55.793 -22.595  1.00  0.00     0.146 C 
ATOM      3  O   UNL     1       9.280 -55.694 -22.451  1.00  0.00    -0.298 OA
BRANCH   2   4
ATOM      4  C   UNL     1      11.431 -54.589 -22.554  1.00  0.00     0.123 C 
ATOM      5  C   UNL     1      12.856 -50.436 -24.525  1.00  0.00     0.161 A 
ATOM      6  C   UNL     1      12.762 -51.818 -24.736  1.00  0.00     0.055 A 
ATOM      7  C   UNL     1      12.234 -49.846 -23.396  1.00  0.00     0.161 A 
ATOM      8  C   UNL     1      12.063 -52.598 -23.820  1.00  0.00    -0.029 A 
ATOM      9  C   UNL     1      11.522 -50.642 -22.492  1.00  0.00     0.065 A 
ATOM     10  C   UNL     1      11.448 -52.008 -22.717  1.00  0.00     0.015 A 
ATOM     11  C   UNL     1      11.827 -54.077 -23.949  1.00  0.00     0.059 C 
ATOM     12  S   UNL     1      10.606 -53.195 -21.712  1.00  0.00    -0.114 SA
BRANCH   5  13
ATOM     13  O   UNL     1      13.520 -49.571 -25.360  1.00  0.00    -0.493 OA
ATOM     14  C   UNL     1      14.612 -50.080 -26.112  1.00  0.00     0.278 C 
ENDBRANCH   5  13
BRANCH   7  15
ATOM     15  O   UNL     1      12.376 -48.485 -23.279  1.00  0.00    -0.493 OA
ATOM     16  C   UNL     1      11.196 -47.693 -23.267  1.00  0.00     0.278 C 
ENDBRANCH   7  15
ENDBRANCH   2   4
ENDBRANCH   1   2
BRANCH   1  17
ATOM     17  C   UNL     1      10.680 -58.197 -21.765  1.00  0.00     0.044 C 
BRANCH  17  18
ATOM     18  C   UNL     1       9.900 -59.346 -22.361  1.00  0.00    -0.036 A 
ATOM     19  C   UNL     1      10.365 -60.657 -22.259  1.00  0.00     0.074 A 
ATOM     20  C   UNL     1       8.732 -59.109 -23.086  1.00  0.00     0.074 A 
ATOM     21  C   UNL     1       9.676 -61.684 -22.894  1.00  0.00     0.308 A 
ATOM     22  C   UNL     1       8.077 -60.166 -23.707  1.00  0.00     0.308 A 
ATOM     23  N   UNL     1       8.552 -61.428 -23.604  1.00  0.00    -0.201 N 
BRANCH  23  24
ATOM     24  C   UNL     1       7.859 -62.537 -24.302  1.00  0.00     0.393 C 
BRANCH  24  25
ATOM     25  C   UNL     1       8.224 -62.574 -25.764  1.00  0.00     0.017 A 
ATOM     26  C   UNL     1       7.605 -63.493 -26.626  1.00  0.00     0.010 A 
ATOM     27  C   UNL     1       9.192 -61.700 -26.286  1.00  0.00     0.010 A 
ATOM     28  C   UNL     1       7.936 -63.526 -27.980  1.00  0.00     0.001 A 
ATOM     29  C   UNL     1       9.519 -61.736 -27.643  1.00  0.00     0.001 A 
ATOM     30  C   UNL     1       8.890 -62.647 -28.488  1.00  0.00     0.000 A 
ENDBRANCH  24  25
ENDBRANCH  23  24
ENDBRANCH  17  18
ENDBRANCH   1  17
TORSDOF 8
ENDMDL
MODEL 5
REMARK VINA RESULT:    -9.666      1.553      2.015
REMARK INTER + INTRA:         -14.841
REMARK INTER:                 -14.113
REMARK INTRA:                  -0.729
REMARK UNBOUND:                -0.655
REMARK SMILES COc1cc2c(cc1OC)S[C@@H](C(=O)CCc1cc[n+](Cc3ccccc3)cc1)C2
REMARK SMILES IDX 15 1 13 2 14 3 12 4 3 5 4 6 8 7 5 8 7 9 6 10 30 11 11 12
REMARK SMILES IDX 2 13 1 14 9 15 10 16 16 17 17 18 18 19 29 20 19 21 28 22
REMARK SMILES IDX 20 23 21 24 22 25 23 26 27 27 24 28 26 29 25 30
REMARK H PARENT
ROOT
ATOM      1  C   UNL     1      10.619 -55.250 -23.056  1.00  0.00     0.081 C 
ENDROOT
BRANCH   1   2
ATOM      2  C   UNL     1      10.648 -53.867 -22.419  1.00  0.00     0.146 C 
ATOM      3  O   UNL     1       9.755 -53.533 -21.635  1.00  0.00    -0.298 OA
BRANCH   2   4
ATOM      4  C   UNL     1      11.812 -52.954 -22.770  1.00  0.00     0.123 C 
ATOM      5  C   UNL     1      13.916 -50.024 -25.957  1.00  0.00     0.161 A 
ATOM      6  C   UNL     1      13.511 -51.346 -25.727  1.00  0.00     0.055 A 
ATOM      7  C   UNL     1      13.534 -48.997 -25.059  1.00  0.00     0.161 A 
ATOM      8  C   UNL     1      12.743 -51.633 -24.602  1.00  0.00    -0.029 A 
ATOM      9  C   UNL     1      12.749 -49.300 -23.940  1.00  0.00     0.065 A 
ATOM     10  C   UNL     1      12.366 -50.615 -23.728  1.00  0.00     0.015 A 
ATOM     11  C   UNL     1      12.187 -52.988 -24.261  1.00  0.00     0.059 C 
ATOM     12  S   UNL     1      11.379 -51.220 -22.390  1.00  0.00    -0.114 SA
BRANCH   5  13
ATOM     13  O   UNL     1      14.674 -49.626 -27.031  1.00  0.00    -0.493 OA
ATOM     14  C   UNL     1      16.081 -49.805 -26.954  1.00  0.00     0.278 C 
ENDBRANCH   5  13
BRANCH   7  15
ATOM     15  O   UNL     1      13.973 -47.734 -25.373  1.00  0.00    -0.493 OA
ATOM     16  C   UNL     1      14.992 -47.165 -24.565  1.00  0.00     0.278 C 
ENDBRANCH   7  15
ENDBRANCH   2   4
ENDBRANCH   1   2
BRANCH   1  17
ATOM     17  C   UNL     1       9.219 -55.865 -23.102  1.00  0.00     0.044 C 
BRANCH  17  18
ATOM     18  C   UNL     1       9.222 -57.376 -23.094  1.00  0.00    -0.036 A 
ATOM     19  C   UNL     1      10.375 -58.088 -22.768  1.00  0.00     0.074 A 
ATOM     20  C   UNL     1       8.087 -58.088 -23.483  1.00  0.00     0.074 A 
ATOM     21  C   UNL     1      10.377 -59.476 -22.857  1.00  0.00     0.308 A 
ATOM     22  C   UNL     1       8.135 -59.475 -23.561  1.00  0.00     0.308 A 
ATOM     23  N   UNL     1       9.267 -60.145 -23.250  1.00  0.00    -0.201 N 
BRANCH  23  24
ATOM     24  C   UNL     1       9.309 -61.622 -23.373  1.00  0.00     0.393 C 
BRANCH  24  25
ATOM     25  C   UNL     1       8.947 -62.064 -24.767  1.00  0.00     0.017 A 
ATOM     26  C   UNL     1       9.675 -61.592 -25.871  1.00  0.00     0.010 A 
ATOM     27  C   UNL     1       7.873 -62.943 -24.988  1.00  0.00     0.010 A 
ATOM     28  C   UNL     1       9.347 -62.004 -27.163  1.00  0.00     0.001 A 
ATOM     29  C   UNL     1       7.550 -63.352 -26.282  1.00  0.00     0.001 A 
ATOM     30  C   UNL     1       8.286 -62.884 -27.368  1.00  0.00     0.000 A 
ENDBRANCH  24  25
ENDBRANCH  23  24
ENDBRANCH  17  18
ENDBRANCH   1  17
TORSDOF 8
ENDMDL
MODEL 6
REMARK VINA RESULT:    -9.558      2.672      4.427
REMARK INTER + INTRA:         -14.683
REMARK INTER:                 -14.044
REMARK INTRA:                  -0.639
REMARK UNBOUND:                -0.655
REMARK SMILES COc1cc2c(cc1OC)S[C@@H](C(=O)CCc1cc[n+](Cc3ccccc3)cc1)C2
REMARK SMILES IDX 15 1 13 2 14 3 12 4 3 5 4 6 8 7 5 8 7 9 6 10 30 11 11 12
REMARK SMILES IDX 2 13 1 14 9 15 10 16 16 17 17 18 18 19 29 20 19 21 28 22
REMARK SMILES IDX 20 23 21 24 22 25 23 26 27 27 24 28 26 29 25 30
REMARK H PARENT
ROOT
ATOM      1  C   UNL     1      11.255 -50.948 -22.569  1.00  0.00     0.081 C 
ENDROOT
BRANCH   1   2
ATOM      2  C   UNL     1      10.680 -49.546 -22.418  1.00  0.00     0.146 C 
ATOM      3  O   UNL     1       9.502 -49.399 -22.078  1.00  0.00    -0.298 OA
BRANCH   2   4
ATOM      4  C   UNL     1      11.609 -48.371 -22.676  1.00  0.00     0.123 C 
ATOM      5  C   UNL     1      13.188 -44.973 -25.698  1.00  0.00     0.161 A 
ATOM      6  C   UNL     1      13.102 -46.356 -25.492  1.00  0.00     0.055 A 
ATOM      7  C   UNL     1      12.492 -44.083 -24.843  1.00  0.00     0.161 A 
ATOM      8  C   UNL     1      12.338 -46.838 -24.434  1.00  0.00    -0.029 A 
ATOM      9  C   UNL     1      11.715 -44.584 -23.792  1.00  0.00     0.065 A 
ATOM     10  C   UNL     1      11.650 -45.956 -23.603  1.00  0.00     0.015 A 
ATOM     11  C   UNL     1      12.104 -48.292 -24.130  1.00  0.00     0.059 C 
ATOM     12  S   UNL     1      10.734 -46.802 -22.348  1.00  0.00    -0.114 SA
BRANCH   5  13
ATOM     13  O   UNL     1      13.913 -44.387 -26.707  1.00  0.00    -0.493 OA
ATOM     14  C   UNL     1      15.328 -44.497 -26.660  1.00  0.00     0.278 C 
ENDBRANCH   5  13
BRANCH   7  15
ATOM     15  O   UNL     1      12.632 -42.747 -25.129  1.00  0.00    -0.493 OA
ATOM     16  C   UNL     1      11.528 -42.075 -25.719  1.00  0.00     0.278 C 
ENDBRANCH   7  15
ENDBRANCH   2   4
ENDBRANCH   1   2
BRANCH   1  17
ATOM     17  C   UNL     1      10.509 -52.000 -21.747  1.00  0.00     0.044 C 
BRANCH  17  18
ATOM     18  C   UNL     1      10.756 -53.416 -22.211  1.00  0.00    -0.036 A 
ATOM     19  C   UNL     1      10.704 -54.483 -21.315  1.00  0.00     0.074 A 
ATOM     20  C   UNL     1      11.111 -53.676 -23.535  1.00  0.00     0.074 A 
ATOM     21  C   UNL     1      11.026 -55.764 -21.749  1.00  0.00     0.308 A 
ATOM     22  C   UNL     1      11.427 -54.972 -23.924  1.00  0.00     0.308 A 
ATOM     23  N   UNL     1      11.381 -55.990 -23.036  1.00  0.00    -0.201 N 
BRANCH  23  24
ATOM     24  C   UNL     1      11.756 -57.360 -23.462  1.00  0.00     0.393 C 
BRANCH  24  25
ATOM     25  C   UNL     1      10.788 -58.382 -22.924  1.00  0.00     0.017 A 
ATOM     26  C   UNL     1      11.190 -59.281 -21.923  1.00  0.00     0.010 A 
ATOM     27  C   UNL     1       9.476 -58.462 -23.419  1.00  0.00     0.010 A 
ATOM     28  C   UNL     1      10.296 -60.225 -21.418  1.00  0.00     0.001 A 
ATOM     29  C   UNL     1       8.585 -59.408 -22.910  1.00  0.00     0.001 A 
ATOM     30  C   UNL     1       8.994 -60.286 -21.910  1.00  0.00     0.000 A 
ENDBRANCH  24  25
ENDBRANCH  23  24
ENDBRANCH  17  18
ENDBRANCH   1  17
TORSDOF 8
ENDMDL
MODEL 7
REMARK VINA RESULT:    -9.522      2.399      3.765
REMARK INTER + INTRA:         -14.630
REMARK INTER:                 -13.813
REMARK INTRA:                  -0.817
REMARK UNBOUND:                -0.655
REMARK SMILES COc1cc2c(cc1OC)S[C@@H](C(=O)CCc1cc[n+](Cc3ccccc3)cc1)C2
REMARK SMILES IDX 15 1 13 2 14 3 12 4 3 5 4 6 8 7 5 8 7 9 6 10 30 11 11 12
REMARK SMILES IDX 2 13 1 14 9 15 10 16 16 17 17 18 18 19 29 20 19 21 28 22
REMARK SMILES IDX 20 23 21 24 22 25 23 26 27 27 24 28 26 29 25 30
REMARK H PARENT
ROOT
ATOM      1  C   UNL     1      11.162 -51.306 -21.678  1.00  0.00     0.081 C 
ENDROOT
BRANCH   1   2
ATOM      2  C   UNL     1      11.173 -49.997 -22.456  1.00  0.00     0.146 C 
ATOM      3  O   UNL     1      10.156 -49.299 -22.497  1.00  0.00    -0.298 OA
BRANCH   2   4
ATOM      4  C   UNL     1      12.470 -49.594 -23.140  1.00  0.00     0.123 C 
ATOM      5  C   UNL     1      15.039 -49.258 -27.197  1.00  0.00     0.161 A 
ATOM      6  C   UNL     1      14.428 -50.157 -26.312  1.00  0.00     0.055 A 
ATOM      7  C   UNL     1      14.815 -47.865 -27.060  1.00  0.00     0.161 A 
ATOM      8  C   UNL     1      13.615 -49.663 -25.297  1.00  0.00    -0.029 A 
ATOM      9  C   UNL     1      13.982 -47.385 -26.044  1.00  0.00     0.065 A 
ATOM     10  C   UNL     1      13.394 -48.292 -25.176  1.00  0.00     0.015 A 
ATOM     11  C   UNL     1      12.848 -50.508 -24.317  1.00  0.00     0.059 C 
ATOM     12  S   UNL     1      12.312 -47.910 -23.829  1.00  0.00    -0.114 SA
BRANCH   5  13
ATOM     13  O   UNL     1      15.860 -49.632 -28.232  1.00  0.00    -0.493 OA
ATOM     14  C   UNL     1      17.226 -49.890 -27.937  1.00  0.00     0.278 C 
ENDBRANCH   5  13
BRANCH   7  15
ATOM     15  O   UNL     1      15.450 -47.066 -27.979  1.00  0.00    -0.493 OA
ATOM     16  C   UNL     1      15.484 -45.667 -27.731  1.00  0.00     0.278 C 
ENDBRANCH   7  15
ENDBRANCH   2   4
ENDBRANCH   1   2
BRANCH   1  17
ATOM     17  C   UNL     1      10.086 -52.283 -22.153  1.00  0.00     0.044 C 
BRANCH  17  18
ATOM     18  C   UNL     1      10.622 -53.654 -22.492  1.00  0.00    -0.036 A 
ATOM     19  C   UNL     1      11.050 -53.957 -23.784  1.00  0.00     0.074 A 
ATOM     20  C   UNL     1      10.634 -54.667 -21.533  1.00  0.00     0.074 A 
ATOM     21  C   UNL     1      11.453 -55.252 -24.091  1.00  0.00     0.308 A 
ATOM     22  C   UNL     1      11.042 -55.948 -21.885  1.00  0.00     0.308 A 
ATOM     23  N   UNL     1      11.443 -56.222 -23.147  1.00  0.00    -0.201 N 
BRANCH  23  24
ATOM     24  C   UNL     1      11.841 -57.603 -23.512  1.00  0.00     0.393 C 
BRANCH  24  25
ATOM     25  C   UNL     1      10.865 -58.614 -22.968  1.00  0.00     0.017 A 
ATOM     26  C   UNL     1      11.207 -59.405 -21.860  1.00  0.00     0.010 A 
ATOM     27  C   UNL     1       9.604 -58.790 -23.564  1.00  0.00     0.010 A 
ATOM     28  C   UNL     1      10.303 -60.337 -21.350  1.00  0.00     0.001 A 
ATOM     29  C   UNL     1       8.704 -59.724 -23.049  1.00  0.00     0.001 A 
ATOM     30  C   UNL     1       9.053 -60.495 -21.944  1.00  0.00     0.000 A 
ENDBRANCH  24  25
ENDBRANCH  23  24
ENDBRANCH  17  18
ENDBRANCH   1  17
TORSDOF 8
ENDMDL
MODEL 8
REMARK VINA RESULT:    -9.379      1.372      2.630
REMARK INTER + INTRA:         -14.420
REMARK INTER:                 -13.766
REMARK INTRA:                  -0.655
REMARK UNBOUND:                -0.655
REMARK SMILES COc1cc2c(cc1OC)S[C@@H](C(=O)CCc1cc[n+](Cc3ccccc3)cc1)C2
REMARK SMILES IDX 15 1 13 2 14 3 12 4 3 5 4 6 8 7 5 8 7 9 6 10 30 11 11 12
REMARK SMILES IDX 2 13 1 14 9 15 10 16 16 17 17 18 18 19 29 20 19 21 28 22
REMARK SMILES IDX 20 23 21 24 22 25 23 26 27 27 24 28 26 29 25 30
REMARK H PARENT
ROOT
ATOM      1  C   UNL     1      11.359 -54.029 -23.250  1.00  0.00     0.081 C 
ENDROOT
BRANCH   1   2
ATOM      2  C   UNL     1      11.501 -52.606 -22.728  1.00  0.00     0.146 C 
ATOM      3  O   UNL     1      11.482 -52.394 -21.512  1.00  0.00    -0.298 OA
BRANCH   2   4
ATOM      4  C   UNL     1      11.686 -51.495 -23.749  1.00  0.00     0.123 C 
ATOM      5  C   UNL     1      13.822 -47.359 -24.972  1.00  0.00     0.161 A 
ATOM      6  C   UNL     1      12.944 -47.954 -24.057  1.00  0.00     0.055 A 
ATOM      7  C   UNL     1      14.543 -48.162 -25.890  1.00  0.00     0.161 A 
ATOM      8  C   UNL     1      12.783 -49.336 -24.072  1.00  0.00    -0.029 A 
ATOM      9  C   UNL     1      14.382 -49.553 -25.882  1.00  0.00     0.065 A 
ATOM     10  C   UNL     1      13.503 -50.119 -24.973  1.00  0.00     0.015 A 
ATOM     11  C   UNL     1      11.927 -50.116 -23.113  1.00  0.00     0.059 C 
ATOM     12  S   UNL     1      13.148 -51.842 -24.788  1.00  0.00    -0.114 SA
BRANCH   5  13
ATOM     13  O   UNL     1      14.057 -46.008 -25.049  1.00  0.00    -0.493 OA
ATOM     14  C   UNL     1      12.957 -45.156 -25.334  1.00  0.00     0.278 C 
ENDBRANCH   5  13
BRANCH   7  15
ATOM     15  O   UNL     1      15.385 -47.488 -26.742  1.00  0.00    -0.493 OA
ATOM     16  C   UNL     1      14.892 -47.146 -28.029  1.00  0.00     0.278 C 
ENDBRANCH   7  15
ENDBRANCH   2   4
ENDBRANCH   1   2
BRANCH   1  17
ATOM     17  C   UNL     1      11.008 -55.042 -22.159  1.00  0.00     0.044 C 
BRANCH  17  18
ATOM     18  C   UNL     1      11.251 -56.477 -22.566  1.00  0.00    -0.036 A 
ATOM     19  C   UNL     1      11.101 -57.517 -21.649  1.00  0.00     0.074 A 
ATOM     20  C   UNL     1      11.698 -56.783 -23.852  1.00  0.00     0.074 A 
ATOM     21  C   UNL     1      11.418 -58.818 -22.024  1.00  0.00     0.308 A 
ATOM     22  C   UNL     1      12.006 -58.097 -24.182  1.00  0.00     0.308 A 
ATOM     23  N   UNL     1      11.863 -59.088 -23.274  1.00  0.00    -0.201 N 
BRANCH  23  24
ATOM     24  C   UNL     1      12.231 -60.478 -23.634  1.00  0.00     0.393 C 
BRANCH  24  25
ATOM     25  C   UNL     1      11.009 -61.299 -23.959  1.00  0.00     0.017 A 
ATOM     26  C   UNL     1      10.594 -62.325 -23.095  1.00  0.00     0.010 A 
ATOM     27  C   UNL     1      10.273 -61.061 -25.131  1.00  0.00     0.010 A 
ATOM     28  C   UNL     1       9.460 -63.082 -23.389  1.00  0.00     0.001 A 
ATOM     29  C   UNL     1       9.139 -61.821 -25.420  1.00  0.00     0.001 A 
ATOM     30  C   UNL     1       8.733 -62.829 -24.550  1.00  0.00     0.000 A 
ENDBRANCH  24  25
ENDBRANCH  23  24
ENDBRANCH  17  18
ENDBRANCH   1  17
TORSDOF 8
ENDMDL
MODEL 9
REMARK VINA RESULT:    -9.221      3.537     11.649
REMARK INTER + INTRA:         -14.189
REMARK INTER:                 -13.844
REMARK INTRA:                  -0.345
REMARK UNBOUND:                -0.655
REMARK SMILES COc1cc2c(cc1OC)S[C@@H](C(=O)CCc1cc[n+](Cc3ccccc3)cc1)C2
REMARK SMILES IDX 15 1 13 2 14 3 12 4 3 5 4 6 8 7 5 8 7 9 6 10 30 11 11 12
REMARK SMILES IDX 2 13 1 14 9 15 10 16 16 17 17 18 18 19 29 20 19 21 28 22
REMARK SMILES IDX 20 23 21 24 22 25 23 26 27 27 24 28 26 29 25 30
REMARK H PARENT
ROOT
ATOM      1  C   UNL     1      10.721 -53.850 -22.271  1.00  0.00     0.081 C 
ENDROOT
BRANCH   1   2
ATOM      2  C   UNL     1      10.978 -55.206 -21.629  1.00  0.00     0.146 C 
ATOM      3  O   UNL     1      11.091 -55.293 -20.403  1.00  0.00    -0.298 OA
BRANCH   2   4
ATOM      4  C   UNL     1      11.060 -56.416 -22.547  1.00  0.00     0.123 C 
ATOM      5  C   UNL     1      10.373 -61.137 -23.185  1.00  0.00     0.161 A 
ATOM      6  C   UNL     1      11.100 -60.185 -22.458  1.00  0.00     0.055 A 
ATOM      7  C   UNL     1       9.300 -60.729 -24.015  1.00  0.00     0.161 A 
ATOM      8  C   UNL     1      10.760 -58.841 -22.572  1.00  0.00    -0.029 A 
ATOM      9  C   UNL     1       8.961 -59.374 -24.107  1.00  0.00     0.065 A 
ATOM     10  C   UNL     1       9.698 -58.449 -23.384  1.00  0.00     0.015 A 
ATOM     11  C   UNL     1      11.408 -57.719 -21.808  1.00  0.00     0.059 C 
ATOM     12  S   UNL     1       9.445 -56.698 -23.351  1.00  0.00    -0.114 SA
BRANCH   5  13
ATOM     13  O   UNL     1      10.621 -62.488 -23.150  1.00  0.00    -0.493 OA
ATOM     14  C   UNL     1       9.789 -63.295 -22.329  1.00  0.00     0.278 C 
ENDBRANCH   5  13
BRANCH   7  15
ATOM     15  O   UNL     1       8.643 -61.735 -24.681  1.00  0.00    -0.493 OA
ATOM     16  C   UNL     1       8.922 -61.907 -26.064  1.00  0.00     0.278 C 
ENDBRANCH   7  15
ENDBRANCH   2   4
ENDBRANCH   1   2
BRANCH   1  17
ATOM     17  C   UNL     1      11.558 -53.607 -23.528  1.00  0.00     0.044 C 
BRANCH  17  18
ATOM     18  C   UNL     1      12.013 -52.174 -23.684  1.00  0.00    -0.036 A 
ATOM     19  C   UNL     1      12.787 -51.783 -24.775  1.00  0.00     0.074 A 
ATOM     20  C   UNL     1      11.725 -51.229 -22.698  1.00  0.00     0.074 A 
ATOM     21  C   UNL     1      13.268 -50.480 -24.847  1.00  0.00     0.308 A 
ATOM     22  C   UNL     1      12.230 -49.939 -22.810  1.00  0.00     0.308 A 
ATOM     23  N   UNL     1      12.988 -49.584 -23.872  1.00  0.00    -0.201 N 
BRANCH  23  24
ATOM     24  C   UNL     1      13.546 -48.213 -23.955  1.00  0.00     0.393 C 
BRANCH  24  25
ATOM     25  C   UNL     1      12.559 -47.190 -23.457  1.00  0.00     0.017 A 
ATOM     26  C   UNL     1      12.726 -46.599 -22.195  1.00  0.00     0.010 A 
ATOM     27  C   UNL     1      11.452 -46.818 -24.239  1.00  0.00     0.010 A 
ATOM     28  C   UNL     1      11.817 -45.647 -21.733  1.00  0.00     0.001 A 
ATOM     29  C   UNL     1      10.546 -45.864 -23.773  1.00  0.00     0.001 A 
ATOM     30  C   UNL     1      10.730 -45.279 -22.522  1.00  0.00     0.000 A 
ENDBRANCH  24  25
ENDBRANCH  23  24
ENDBRANCH  17  18
ENDBRANCH   1  17
TORSDOF 8
ENDMDL
