MODEL 1
REMARK VINA RESULT:   -12.373      0.000      0.000
REMARK INTER + INTRA:         -18.253
REMARK INTER:                 -17.436
REMARK INTRA:                  -0.817
REMARK UNBOUND:                -0.817
REMARK SMILES O=C1CCc2cc(C(O)=CC[C@H]3CC[N@@H+](Cc4ccc(O)cc4)CC3)cc3ccn1c23
REMARK SMILES IDX 12 1 25 2 24 3 15 4 14 5 13 6 11 8 10 9 8 10 9 11 7 13 6 14
REMARK SMILES IDX 26 15 5 16 27 17 31 18 4 19 28 20 30 21 3 22 29 23 2 24 1 25
REMARK SMILES IDX 16 26 17 27 18 28 23 29 19 30 22 31 20 32 21 33
REMARK H PARENT 15 7 9 12 21 34
ROOT
ATOM      1  C   UNL     1      10.470 -57.611 -22.262  1.00  0.00     0.004 C 
ATOM      2  C   UNL     1       9.491 -58.166 -23.308  1.00  0.00     0.065 C 
ATOM      3  C   UNL     1       8.731 -59.378 -22.784  1.00  0.00     0.262 C 
ATOM      4  N   UNL     1       9.685 -60.441 -22.295  1.00  0.00    -0.331 N 
ATOM      5  C   UNL     1      10.600 -59.917 -21.219  1.00  0.00     0.262 C 
ATOM      6  C   UNL     1      11.391 -58.718 -21.724  1.00  0.00     0.065 C 
ATOM      7  H   UNL     1       9.094 -61.152 -21.846  1.00  0.00     0.348 HD
ENDROOT
BRANCH   1   8
ATOM      8  C   UNL     1      11.265 -56.392 -22.778  1.00  0.00     0.035 C 
BRANCH   8   9
ATOM      9  C   UNL     1      10.468 -55.121 -22.868  1.00  0.00     0.020 C 
BRANCH   9  10
ATOM     10  C   UNL     1      10.728 -53.943 -22.282  1.00  0.00     0.118 C 
BRANCH  10  11
ATOM     11  O   UNL     1      10.319 -53.737 -20.982  1.00  0.00    -0.508 OA
ATOM     12  H   UNL     1       9.936 -52.841 -20.924  1.00  0.00     0.293 HD
ENDBRANCH  10  11
BRANCH  10  13
ATOM     13  C   UNL     1      11.394 -52.805 -22.928  1.00  0.00     0.017 A 
ATOM     14  C   UNL     1      12.230 -53.010 -24.038  1.00  0.00     0.017 A 
ATOM     15  C   UNL     1      11.217 -51.513 -22.388  1.00  0.00     0.022 A 
ATOM     16  C   UNL     1      12.867 -51.935 -24.663  1.00  0.00    -0.022 A 
ATOM     17  C   UNL     1      11.865 -50.423 -22.996  1.00  0.00     0.001 A 
ATOM     18  C   UNL     1      12.642 -50.677 -24.111  1.00  0.00     0.059 A 
ATOM     19  C   UNL     1      13.851 -52.034 -25.785  1.00  0.00     0.047 C 
ATOM     20  C   UNL     1      11.972 -49.028 -22.747  1.00  0.00     0.029 A 
ATOM     21  N   UNL     1      13.181 -49.496 -24.571  1.00  0.00    -0.287 N 
ATOM     22  C   UNL     1      13.938 -50.707 -26.564  1.00  0.00     0.106 C 
ATOM     23  C   UNL     1      12.802 -48.487 -23.711  1.00  0.00     0.095 A 
ATOM     24  C   UNL     1      13.966 -49.430 -25.729  1.00  0.00     0.231 C 
ATOM     25  O   UNL     1      14.491 -48.373 -26.049  1.00  0.00    -0.274 OA
ENDBRANCH  10  13
ENDBRANCH   9  10
ENDBRANCH   8   9
ENDBRANCH   1   8
BRANCH   4  26
ATOM     26  C   UNL     1      10.419 -61.197 -23.387  1.00  0.00     0.299 C 
BRANCH  26  27
ATOM     27  C   UNL     1       9.493 -61.927 -24.323  1.00  0.00     0.006 A 
ATOM     28  C   UNL     1       8.527 -62.818 -23.825  1.00  0.00     0.013 A 
ATOM     29  C   UNL     1       9.568 -61.710 -25.708  1.00  0.00     0.013 A 
ATOM     30  C   UNL     1       7.649 -63.473 -24.693  1.00  0.00     0.046 A 
ATOM     31  C   UNL     1       8.689 -62.363 -26.571  1.00  0.00     0.046 A 
ATOM     32  C   UNL     1       7.738 -63.236 -26.060  1.00  0.00     0.115 A 
BRANCH  32  33
ATOM     33  O   UNL     1       6.903 -63.846 -26.946  1.00  0.00    -0.508 OA
ATOM     34  H   UNL     1       7.351 -64.612 -27.345  1.00  0.00     0.293 HD
ENDBRANCH  32  33
ENDBRANCH  26  27
ENDBRANCH   4  26
TORSDOF 8
ENDMDL
MODEL 2
REMARK VINA RESULT:   -12.212      0.384      1.804
REMARK INTER + INTRA:         -18.026
REMARK INTER:                 -17.203
REMARK INTRA:                  -0.823
REMARK UNBOUND:                -0.817
REMARK SMILES O=C1CCc2cc(C(O)=CC[C@H]3CC[N@@H+](Cc4ccc(O)cc4)CC3)cc3ccn1c23
REMARK SMILES IDX 12 1 25 2 24 3 15 4 14 5 13 6 11 8 10 9 8 10 9 11 7 13 6 14
REMARK SMILES IDX 26 15 5 16 27 17 31 18 4 19 28 20 30 21 3 22 29 23 2 24 1 25
REMARK SMILES IDX 16 26 17 27 18 28 23 29 19 30 22 31 20 32 21 33
REMARK H PARENT 15 7 9 12 21 34
ROOT
ATOM      1  C   UNL     1      10.472 -57.616 -22.333  1.00  0.00     0.004 C 
ATOM      2  C   UNL     1       9.483 -58.241 -23.329  1.00  0.00     0.065 C 
ATOM      3  C   UNL     1       8.733 -59.418 -22.717  1.00  0.00     0.262 C 
ATOM      4  N   UNL     1       9.696 -60.444 -22.172  1.00  0.00    -0.331 N 
ATOM      5  C   UNL     1      10.622 -59.849 -21.143  1.00  0.00     0.262 C 
ATOM      6  C   UNL     1      11.403 -58.683 -21.735  1.00  0.00     0.065 C 
ATOM      7  H   UNL     1       9.113 -61.126 -21.671  1.00  0.00     0.348 HD
ENDROOT
BRANCH   1   8
ATOM      8  C   UNL     1      11.257 -56.432 -22.937  1.00  0.00     0.035 C 
BRANCH   8   9
ATOM      9  C   UNL     1      10.475 -55.152 -23.036  1.00  0.00     0.020 C 
BRANCH   9  10
ATOM     10  C   UNL     1      10.756 -53.969 -22.469  1.00  0.00     0.118 C 
BRANCH  10  11
ATOM     11  O   UNL     1      10.340 -53.729 -21.177  1.00  0.00    -0.508 OA
ATOM     12  H   UNL     1      10.605 -52.821 -20.938  1.00  0.00     0.293 HD
ENDBRANCH  10  11
BRANCH  10  13
ATOM     13  C   UNL     1      11.456 -52.859 -23.129  1.00  0.00     0.017 A 
ATOM     14  C   UNL     1      11.335 -51.551 -22.633  1.00  0.00     0.017 A 
ATOM     15  C   UNL     1      12.212 -53.123 -24.292  1.00  0.00     0.022 A 
ATOM     16  C   UNL     1      11.998 -50.488 -23.251  1.00  0.00    -0.022 A 
ATOM     17  C   UNL     1      12.871 -52.060 -24.934  1.00  0.00     0.001 A 
ATOM     18  C   UNL     1      12.753 -50.799 -24.379  1.00  0.00     0.059 A 
ATOM     19  C   UNL     1      11.873 -49.044 -22.879  1.00  0.00     0.047 C 
ATOM     20  C   UNL     1      13.667 -51.906 -26.101  1.00  0.00     0.029 A 
ATOM     21  N   UNL     1      13.471 -49.898 -25.133  1.00  0.00    -0.287 N 
ATOM     22  C   UNL     1      13.090 -48.237 -23.370  1.00  0.00     0.106 C 
ATOM     23  C   UNL     1      14.002 -50.570 -26.214  1.00  0.00     0.095 A 
ATOM     24  C   UNL     1      13.589 -48.548 -24.779  1.00  0.00     0.231 C 
ATOM     25  O   UNL     1      14.166 -47.772 -25.525  1.00  0.00    -0.274 OA
ENDBRANCH  10  13
ENDBRANCH   9  10
ENDBRANCH   8   9
ENDBRANCH   1   8
BRANCH   4  26
ATOM     26  C   UNL     1      10.420 -61.268 -23.221  1.00  0.00     0.299 C 
BRANCH  26  27
ATOM     27  C   UNL     1       9.483 -61.989 -24.154  1.00  0.00     0.006 A 
ATOM     28  C   UNL     1       8.520 -62.881 -23.654  1.00  0.00     0.013 A 
ATOM     29  C   UNL     1       9.546 -61.761 -25.538  1.00  0.00     0.013 A 
ATOM     30  C   UNL     1       7.632 -63.526 -24.518  1.00  0.00     0.046 A 
ATOM     31  C   UNL     1       8.656 -62.404 -26.397  1.00  0.00     0.046 A 
ATOM     32  C   UNL     1       7.708 -63.279 -25.884  1.00  0.00     0.115 A 
BRANCH  32  33
ATOM     33  O   UNL     1       6.864 -63.880 -26.767  1.00  0.00    -0.508 OA
ATOM     34  H   UNL     1       7.377 -64.368 -27.433  1.00  0.00     0.293 HD
ENDBRANCH  32  33
ENDBRANCH  26  27
ENDBRANCH   4  26
TORSDOF 8
ENDMDL
MODEL 3
REMARK VINA RESULT:   -12.152      1.632      2.548
REMARK INTER + INTRA:         -17.942
REMARK INTER:                 -17.082
REMARK INTRA:                  -0.860
REMARK UNBOUND:                -0.817
REMARK SMILES O=C1CCc2cc(C(O)=CC[C@H]3CC[N@@H+](Cc4ccc(O)cc4)CC3)cc3ccn1c23
REMARK SMILES IDX 12 1 25 2 24 3 15 4 14 5 13 6 11 8 10 9 8 10 9 11 7 13 6 14
REMARK SMILES IDX 26 15 5 16 27 17 31 18 4 19 28 20 30 21 3 22 29 23 2 24 1 25
REMARK SMILES IDX 16 26 17 27 18 28 23 29 19 30 22 31 20 32 21 33
REMARK H PARENT 15 7 9 12 21 34
ROOT
ATOM      1  C   UNL     1      11.897 -59.298 -22.639  1.00  0.00     0.004 C 
ATOM      2  C   UNL     1      10.776 -60.333 -22.457  1.00  0.00     0.065 C 
ATOM      3  C   UNL     1      10.994 -61.563 -23.330  1.00  0.00     0.262 C 
ATOM      4  N   UNL     1      11.160 -61.172 -24.778  1.00  0.00    -0.331 N 
ATOM      5  C   UNL     1      12.305 -60.211 -24.968  1.00  0.00     0.262 C 
ATOM      6  C   UNL     1      12.100 -58.960 -24.125  1.00  0.00     0.065 C 
ATOM      7  H   UNL     1      11.430 -62.037 -25.264  1.00  0.00     0.348 HD
ENDROOT
BRANCH   1   8
ATOM      8  C   UNL     1      11.687 -58.035 -21.778  1.00  0.00     0.035 C 
BRANCH   8   9
ATOM      9  C   UNL     1      10.340 -57.388 -21.941  1.00  0.00     0.020 C 
BRANCH   9  10
ATOM     10  C   UNL     1       9.967 -56.483 -22.858  1.00  0.00     0.118 C 
BRANCH  10  11
ATOM     11  O   UNL     1       8.942 -56.793 -23.727  1.00  0.00    -0.508 OA
ATOM     12  H   UNL     1       8.098 -56.577 -23.288  1.00  0.00     0.293 HD
ENDBRANCH  10  11
BRANCH  10  13
ATOM     13  C   UNL     1      10.592 -55.168 -23.053  1.00  0.00     0.017 A 
ATOM     14  C   UNL     1      11.480 -54.957 -24.121  1.00  0.00     0.017 A 
ATOM     15  C   UNL     1      10.319 -54.138 -22.128  1.00  0.00     0.022 A 
ATOM     16  C   UNL     1      12.078 -53.710 -24.318  1.00  0.00    -0.022 A 
ATOM     17  C   UNL     1      10.927 -52.882 -22.305  1.00  0.00     0.001 A 
ATOM     18  C   UNL     1      11.759 -52.717 -23.396  1.00  0.00     0.059 A 
ATOM     19  C   UNL     1      13.109 -53.388 -25.353  1.00  0.00     0.047 C 
ATOM     20  C   UNL     1      10.942 -51.646 -21.603  1.00  0.00     0.029 A 
ATOM     21  N   UNL     1      12.247 -51.430 -23.408  1.00  0.00    -0.287 N 
ATOM     22  C   UNL     1      13.150 -51.876 -25.644  1.00  0.00     0.106 C 
ATOM     23  C   UNL     1      11.777 -50.781 -22.286  1.00  0.00     0.095 A 
ATOM     24  C   UNL     1      13.071 -50.949 -24.434  1.00  0.00     0.231 C 
ATOM     25  O   UNL     1      13.547 -49.825 -24.356  1.00  0.00    -0.274 OA
ENDBRANCH  10  13
ENDBRANCH   9  10
ENDBRANCH   8   9
ENDBRANCH   1   8
BRANCH   4  26
ATOM     26  C   UNL     1       9.887 -60.730 -25.475  1.00  0.00     0.299 C 
BRANCH  26  27
ATOM     27  C   UNL     1       8.850 -61.818 -25.553  1.00  0.00     0.006 A 
ATOM     28  C   UNL     1       8.634 -62.519 -26.751  1.00  0.00     0.013 A 
ATOM     29  C   UNL     1       8.098 -62.164 -24.418  1.00  0.00     0.013 A 
ATOM     30  C   UNL     1       7.691 -63.549 -26.813  1.00  0.00     0.046 A 
ATOM     31  C   UNL     1       7.161 -63.194 -24.482  1.00  0.00     0.046 A 
ATOM     32  C   UNL     1       6.964 -63.878 -25.674  1.00  0.00     0.115 A 
BRANCH  32  33
ATOM     33  O   UNL     1       6.037 -64.875 -25.682  1.00  0.00    -0.508 OA
ATOM     34  H   UNL     1       6.093 -65.382 -24.855  1.00  0.00     0.293 HD
ENDBRANCH  32  33
ENDBRANCH  26  27
ENDBRANCH   4  26
TORSDOF 8
ENDMDL
MODEL 4
REMARK VINA RESULT:   -11.253      1.658      2.673
REMARK INTER + INTRA:         -16.675
REMARK INTER:                 -15.668
REMARK INTRA:                  -1.007
REMARK UNBOUND:                -0.817
REMARK SMILES O=C1CCc2cc(C(O)=CC[C@H]3CC[N@@H+](Cc4ccc(O)cc4)CC3)cc3ccn1c23
REMARK SMILES IDX 12 1 25 2 24 3 15 4 14 5 13 6 11 8 10 9 8 10 9 11 7 13 6 14
REMARK SMILES IDX 26 15 5 16 27 17 31 18 4 19 28 20 30 21 3 22 29 23 2 24 1 25
REMARK SMILES IDX 16 26 17 27 18 28 23 29 19 30 22 31 20 32 21 33
REMARK H PARENT 15 7 9 12 21 34
ROOT
ATOM      1  C   UNL     1      11.163 -56.581 -22.143  1.00  0.00     0.004 C 
ATOM      2  C   UNL     1      11.415 -57.816 -21.264  1.00  0.00     0.065 C 
ATOM      3  C   UNL     1      11.568 -59.082 -22.099  1.00  0.00     0.262 C 
ATOM      4  N   UNL     1      10.376 -59.277 -23.003  1.00  0.00    -0.331 N 
ATOM      5  C   UNL     1      10.168 -58.095 -23.914  1.00  0.00     0.262 C 
ATOM      6  C   UNL     1       9.988 -56.818 -23.105  1.00  0.00     0.065 C 
ATOM      7  H   UNL     1      10.622 -60.067 -23.612  1.00  0.00     0.348 HD
ENDROOT
BRANCH   1   8
ATOM      8  C   UNL     1      10.987 -55.289 -21.317  1.00  0.00     0.035 C 
BRANCH   8   9
ATOM      9  C   UNL     1       9.821 -54.436 -21.736  1.00  0.00     0.020 C 
BRANCH   9  10
ATOM     10  C   UNL     1       9.849 -53.189 -22.229  1.00  0.00     0.118 C 
BRANCH  10  11
ATOM     11  O   UNL     1       8.704 -52.423 -22.179  1.00  0.00    -0.508 OA
ATOM     12  H   UNL     1       8.594 -51.987 -23.045  1.00  0.00     0.293 HD
ENDBRANCH  10  11
BRANCH  10  13
ATOM     13  C   UNL     1      11.010 -52.557 -22.868  1.00  0.00     0.017 A 
ATOM     14  C   UNL     1      11.456 -51.296 -22.441  1.00  0.00     0.017 A 
ATOM     15  C   UNL     1      11.641 -53.218 -23.945  1.00  0.00     0.022 A 
ATOM     16  C   UNL     1      12.562 -50.687 -23.040  1.00  0.00    -0.022 A 
ATOM     17  C   UNL     1      12.745 -52.609 -24.568  1.00  0.00     0.001 A 
ATOM     18  C   UNL     1      13.167 -51.387 -24.080  1.00  0.00     0.059 A 
ATOM     19  C   UNL     1      13.071 -49.312 -22.741  1.00  0.00     0.047 C 
ATOM     20  C   UNL     1      13.597 -52.915 -25.663  1.00  0.00     0.029 A 
ATOM     21  N   UNL     1      14.257 -50.957 -24.803  1.00  0.00    -0.287 N 
ATOM     22  C   UNL     1      14.549 -49.167 -23.153  1.00  0.00     0.106 C 
ATOM     23  C   UNL     1      14.500 -51.877 -25.801  1.00  0.00     0.095 A 
ATOM     24  C   UNL     1      14.943 -49.775 -24.496  1.00  0.00     0.231 C 
ATOM     25  O   UNL     1      15.853 -49.394 -25.218  1.00  0.00    -0.274 OA
ENDBRANCH  10  13
ENDBRANCH   9  10
ENDBRANCH   8   9
ENDBRANCH   1   8
BRANCH   4  26
ATOM     26  C   UNL     1       9.104 -59.722 -22.304  1.00  0.00     0.299 C 
BRANCH  26  27
ATOM     27  C   UNL     1       8.672 -61.110 -22.696  1.00  0.00     0.006 A 
ATOM     28  C   UNL     1       9.483 -62.221 -22.412  1.00  0.00     0.013 A 
ATOM     29  C   UNL     1       7.437 -61.314 -23.332  1.00  0.00     0.013 A 
ATOM     30  C   UNL     1       9.066 -63.511 -22.751  1.00  0.00     0.046 A 
ATOM     31  C   UNL     1       7.022 -62.603 -23.666  1.00  0.00     0.046 A 
ATOM     32  C   UNL     1       7.836 -63.689 -23.374  1.00  0.00     0.115 A 
BRANCH  32  33
ATOM     33  O   UNL     1       7.384 -64.925 -23.721  1.00  0.00    -0.508 OA
ATOM     34  H   UNL     1       6.441 -65.006 -23.495  1.00  0.00     0.293 HD
ENDBRANCH  32  33
ENDBRANCH  26  27
ENDBRANCH   4  26
TORSDOF 8
ENDMDL
MODEL 5
REMARK VINA RESULT:   -11.220      1.579      1.981
REMARK INTER + INTRA:         -16.628
REMARK INTER:                 -15.917
REMARK INTRA:                  -0.710
REMARK UNBOUND:                -0.817
REMARK SMILES O=C1CCc2cc(C(O)=CC[C@H]3CC[N@@H+](Cc4ccc(O)cc4)CC3)cc3ccn1c23
REMARK SMILES IDX 12 1 25 2 24 3 15 4 14 5 13 6 11 8 10 9 8 10 9 11 7 13 6 14
REMARK SMILES IDX 26 15 5 16 27 17 31 18 4 19 28 20 30 21 3 22 29 23 2 24 1 25
REMARK SMILES IDX 16 26 17 27 18 28 23 29 19 30 22 31 20 32 21 33
REMARK H PARENT 15 7 9 12 21 34
ROOT
ATOM      1  C   UNL     1       9.980 -58.517 -22.291  1.00  0.00     0.004 C 
ATOM      2  C   UNL     1       9.524 -58.770 -23.736  1.00  0.00     0.065 C 
ATOM      3  C   UNL     1       8.474 -59.872 -23.812  1.00  0.00     0.262 C 
ATOM      4  N   UNL     1       8.973 -61.137 -23.156  1.00  0.00    -0.331 N 
ATOM      5  C   UNL     1       9.355 -60.905 -21.718  1.00  0.00     0.262 C 
ATOM      6  C   UNL     1      10.423 -59.824 -21.614  1.00  0.00     0.065 C 
ATOM      7  H   UNL     1       8.164 -61.771 -23.138  1.00  0.00     0.348 HD
ENDROOT
BRANCH   1   8
ATOM      8  C   UNL     1      11.059 -57.416 -22.191  1.00  0.00     0.035 C 
BRANCH   8   9
ATOM      9  C   UNL     1      10.720 -56.145 -22.919  1.00  0.00     0.020 C 
BRANCH   9  10
ATOM     10  C   UNL     1      11.462 -55.493 -23.827  1.00  0.00     0.118 C 
BRANCH  10  11
ATOM     11  O   UNL     1      12.067 -56.210 -24.837  1.00  0.00    -0.508 OA
ATOM     12  H   UNL     1      11.648 -55.955 -25.681  1.00  0.00     0.293 HD
ENDBRANCH  10  11
BRANCH  10  13
ATOM     13  C   UNL     1      11.728 -54.049 -23.823  1.00  0.00     0.017 A 
ATOM     14  C   UNL     1      12.585 -53.484 -24.781  1.00  0.00     0.017 A 
ATOM     15  C   UNL     1      11.144 -53.249 -22.817  1.00  0.00     0.022 A 
ATOM     16  C   UNL     1      12.844 -52.111 -24.790  1.00  0.00    -0.022 A 
ATOM     17  C   UNL     1      11.408 -51.868 -22.803  1.00  0.00     0.001 A 
ATOM     18  C   UNL     1      12.226 -51.359 -23.795  1.00  0.00     0.059 A 
ATOM     19  C   UNL     1      13.808 -51.408 -25.692  1.00  0.00     0.047 C 
ATOM     20  C   UNL     1      11.060 -50.769 -21.972  1.00  0.00     0.029 A 
ATOM     21  N   UNL     1      12.357 -49.999 -23.625  1.00  0.00    -0.287 N 
ATOM     22  C   UNL     1      13.465 -49.911 -25.811  1.00  0.00     0.106 C 
ATOM     23  C   UNL     1      11.673 -49.640 -22.483  1.00  0.00     0.095 A 
ATOM     24  C   UNL     1      13.080 -49.197 -24.518  1.00  0.00     0.231 C 
ATOM     25  O   UNL     1      13.237 -48.009 -24.278  1.00  0.00    -0.274 OA
ENDBRANCH  10  13
ENDBRANCH   9  10
ENDBRANCH   8   9
ENDBRANCH   1   8
BRANCH   4  26
ATOM     26  C   UNL     1      10.029 -61.894 -23.941  1.00  0.00     0.299 C 
BRANCH  26  27
ATOM     27  C   UNL     1       9.811 -61.836 -25.429  1.00  0.00     0.006 A 
ATOM     28  C   UNL     1       8.841 -62.644 -26.044  1.00  0.00     0.013 A 
ATOM     29  C   UNL     1      10.562 -60.953 -26.221  1.00  0.00     0.013 A 
ATOM     30  C   UNL     1       8.621 -62.567 -27.422  1.00  0.00     0.046 A 
ATOM     31  C   UNL     1      10.338 -60.875 -27.595  1.00  0.00     0.046 A 
ATOM     32  C   UNL     1       9.372 -61.680 -28.185  1.00  0.00     0.115 A 
BRANCH  32  33
ATOM     33  O   UNL     1       9.193 -61.565 -29.530  1.00  0.00    -0.508 OA
ATOM     34  H   UNL     1       8.501 -62.182 -29.823  1.00  0.00     0.293 HD
ENDBRANCH  32  33
ENDBRANCH  26  27
ENDBRANCH   4  26
TORSDOF 8
ENDMDL
MODEL 6
REMARK VINA RESULT:   -10.564      2.232     11.795
REMARK INTER + INTRA:         -15.704
REMARK INTER:                 -14.962
REMARK INTRA:                  -0.743
REMARK UNBOUND:                -0.817
REMARK SMILES O=C1CCc2cc(C(O)=CC[C@H]3CC[N@@H+](Cc4ccc(O)cc4)CC3)cc3ccn1c23
REMARK SMILES IDX 12 1 25 2 24 3 15 4 14 5 13 6 11 8 10 9 8 10 9 11 7 13 6 14
REMARK SMILES IDX 26 15 5 16 27 17 31 18 4 19 28 20 30 21 3 22 29 23 2 24 1 25
REMARK SMILES IDX 16 26 17 27 18 28 23 29 19 30 22 31 20 32 21 33
REMARK H PARENT 15 7 9 12 21 34
ROOT
ATOM      1  C   UNL     1      11.211 -53.381 -22.786  1.00  0.00     0.004 C 
ATOM      2  C   UNL     1      12.041 -52.640 -23.846  1.00  0.00     0.065 C 
ATOM      3  C   UNL     1      12.965 -51.605 -23.217  1.00  0.00     0.262 C 
ATOM      4  N   UNL     1      12.187 -50.645 -22.350  1.00  0.00    -0.331 N 
ATOM      5  C   UNL     1      11.428 -51.365 -21.266  1.00  0.00     0.262 C 
ATOM      6  C   UNL     1      10.477 -52.391 -21.868  1.00  0.00     0.065 C 
ATOM      7  H   UNL     1      12.896 -50.075 -21.871  1.00  0.00     0.348 HD
ENDROOT
BRANCH   1   8
ATOM      8  C   UNL     1      10.253 -54.423 -23.402  1.00  0.00     0.035 C 
BRANCH   8   9
ATOM      9  C   UNL     1      10.255 -55.757 -22.708  1.00  0.00     0.020 C 
BRANCH   9  10
ATOM     10  C   UNL     1      10.784 -56.910 -23.144  1.00  0.00     0.118 C 
BRANCH  10  11
ATOM     11  O   UNL     1      12.073 -56.913 -23.635  1.00  0.00    -0.508 OA
ATOM     12  H   UNL     1      12.569 -57.619 -23.179  1.00  0.00     0.293 HD
ENDBRANCH  10  11
BRANCH  10  13
ATOM     13  C   UNL     1      10.086 -58.202 -23.181  1.00  0.00     0.017 A 
ATOM     14  C   UNL     1      10.814 -59.402 -23.148  1.00  0.00     0.017 A 
ATOM     15  C   UNL     1       8.679 -58.214 -23.294  1.00  0.00     0.022 A 
ATOM     16  C   UNL     1      10.161 -60.637 -23.180  1.00  0.00    -0.022 A 
ATOM     17  C   UNL     1       8.009 -59.450 -23.344  1.00  0.00     0.001 A 
ATOM     18  C   UNL     1       8.772 -60.600 -23.266  1.00  0.00     0.059 A 
ATOM     19  C   UNL     1      10.824 -61.976 -23.248  1.00  0.00     0.047 C 
ATOM     20  C   UNL     1       6.661 -59.877 -23.489  1.00  0.00     0.029 A 
ATOM     21  N   UNL     1       7.946 -61.701 -23.318  1.00  0.00    -0.287 N 
ATOM     22  C   UNL     1       9.885 -63.086 -22.739  1.00  0.00     0.106 C 
ATOM     23  C   UNL     1       6.652 -61.259 -23.494  1.00  0.00     0.095 A 
ATOM     24  C   UNL     1       8.431 -63.009 -23.198  1.00  0.00     0.231 C 
ATOM     25  O   UNL     1       7.669 -63.956 -23.334  1.00  0.00    -0.274 OA
ENDBRANCH  10  13
ENDBRANCH   9  10
ENDBRANCH   8   9
ENDBRANCH   1   8
BRANCH   4  26
ATOM     26  C   UNL     1      11.340 -49.638 -23.105  1.00  0.00     0.299 C 
BRANCH  26  27
ATOM     27  C   UNL     1      11.985 -48.281 -23.201  1.00  0.00     0.006 A 
ATOM     28  C   UNL     1      12.934 -47.869 -22.251  1.00  0.00     0.013 A 
ATOM     29  C   UNL     1      11.661 -47.415 -24.259  1.00  0.00     0.013 A 
ATOM     30  C   UNL     1      13.553 -46.621 -22.359  1.00  0.00     0.046 A 
ATOM     31  C   UNL     1      12.283 -46.172 -24.365  1.00  0.00     0.046 A 
ATOM     32  C   UNL     1      13.222 -45.784 -23.419  1.00  0.00     0.115 A 
BRANCH  32  33
ATOM     33  O   UNL     1      13.799 -44.560 -23.570  1.00  0.00    -0.508 OA
ATOM     34  H   UNL     1      13.139 -43.864 -23.411  1.00  0.00     0.293 HD
ENDBRANCH  32  33
ENDBRANCH  26  27
ENDBRANCH   4  26
TORSDOF 8
ENDMDL
MODEL 7
REMARK VINA RESULT:   -10.491      2.173     11.376
REMARK INTER + INTRA:         -15.601
REMARK INTER:                 -14.870
REMARK INTRA:                  -0.732
REMARK UNBOUND:                -0.817
REMARK SMILES O=C1CCc2cc(C(O)=CC[C@H]3CC[N@@H+](Cc4ccc(O)cc4)CC3)cc3ccn1c23
REMARK SMILES IDX 12 1 25 2 24 3 15 4 14 5 13 6 11 8 10 9 8 10 9 11 7 13 6 14
REMARK SMILES IDX 26 15 5 16 27 17 31 18 4 19 28 20 30 21 3 22 29 23 2 24 1 25
REMARK SMILES IDX 16 26 17 27 18 28 23 29 19 30 22 31 20 32 21 33
REMARK H PARENT 15 7 9 12 21 34
ROOT
ATOM      1  C   UNL     1      12.934 -52.332 -23.969  1.00  0.00     0.004 C 
ATOM      2  C   UNL     1      13.647 -51.783 -25.215  1.00  0.00     0.065 C 
ATOM      3  C   UNL     1      14.579 -50.628 -24.870  1.00  0.00     0.262 C 
ATOM      4  N   UNL     1      13.838 -49.541 -24.130  1.00  0.00    -0.331 N 
ATOM      5  C   UNL     1      13.196 -50.063 -22.870  1.00  0.00     0.262 C 
ATOM      6  C   UNL     1      12.240 -51.204 -23.189  1.00  0.00     0.065 C 
ATOM      7  H   UNL     1      14.561 -48.876 -23.827  1.00  0.00     0.348 HD
ENDROOT
BRANCH   1   8
ATOM      8  C   UNL     1      11.969 -53.491 -24.298  1.00  0.00     0.035 C 
BRANCH   8   9
ATOM      9  C   UNL     1      10.757 -53.563 -23.411  1.00  0.00     0.020 C 
BRANCH   9  10
ATOM     10  C   UNL     1      10.533 -54.403 -22.390  1.00  0.00     0.118 C 
BRANCH  10  11
ATOM     11  O   UNL     1      10.613 -53.925 -21.099  1.00  0.00    -0.508 OA
ATOM     12  H   UNL     1       9.800 -54.189 -20.628  1.00  0.00     0.293 HD
ENDBRANCH  10  11
BRANCH  10  13
ATOM     13  C   UNL     1      10.237 -55.835 -22.522  1.00  0.00     0.017 A 
ATOM     14  C   UNL     1       9.054 -56.260 -23.149  1.00  0.00     0.017 A 
ATOM     15  C   UNL     1      11.137 -56.772 -21.969  1.00  0.00     0.022 A 
ATOM     16  C   UNL     1       8.763 -57.620 -23.283  1.00  0.00    -0.022 A 
ATOM     17  C   UNL     1      10.848 -58.144 -22.082  1.00  0.00     0.001 A 
ATOM     18  C   UNL     1       9.692 -58.507 -22.746  1.00  0.00     0.059 A 
ATOM     19  C   UNL     1       7.499 -58.193 -23.841  1.00  0.00     0.047 C 
ATOM     20  C   UNL     1      11.452 -59.355 -21.646  1.00  0.00     0.029 A 
ATOM     21  N   UNL     1       9.587 -59.880 -22.765  1.00  0.00    -0.287 N 
ATOM     22  C   UNL     1       7.714 -59.638 -24.330  1.00  0.00     0.106 C 
ATOM     23  C   UNL     1      10.648 -60.402 -22.056  1.00  0.00     0.095 A 
ATOM     24  C   UNL     1       8.546 -60.544 -23.426  1.00  0.00     0.231 C 
ATOM     25  O   UNL     1       8.451 -61.760 -23.343  1.00  0.00    -0.274 OA
ENDBRANCH  10  13
ENDBRANCH   9  10
ENDBRANCH   8   9
ENDBRANCH   1   8
BRANCH   4  26
ATOM     26  C   UNL     1      12.895 -48.711 -24.981  1.00  0.00     0.299 C 
BRANCH  26  27
ATOM     27  C   UNL     1      12.324 -47.529 -24.245  1.00  0.00     0.006 A 
ATOM     28  C   UNL     1      12.951 -46.273 -24.309  1.00  0.00     0.013 A 
ATOM     29  C   UNL     1      11.141 -47.660 -23.500  1.00  0.00     0.013 A 
ATOM     30  C   UNL     1      12.403 -45.170 -23.649  1.00  0.00     0.046 A 
ATOM     31  C   UNL     1      10.595 -46.557 -22.845  1.00  0.00     0.046 A 
ATOM     32  C   UNL     1      11.227 -45.323 -22.924  1.00  0.00     0.115 A 
BRANCH  32  33
ATOM     33  O   UNL     1      10.652 -44.279 -22.266  1.00  0.00    -0.508 OA
ATOM     34  H   UNL     1      11.283 -43.905 -21.629  1.00  0.00     0.293 HD
ENDBRANCH  32  33
ENDBRANCH  26  27
ENDBRANCH   4  26
TORSDOF 8
ENDMDL
MODEL 8
REMARK VINA RESULT:   -10.420      2.558     10.729
REMARK INTER + INTRA:         -15.501
REMARK INTER:                 -14.629
REMARK INTRA:                  -0.872
REMARK UNBOUND:                -0.817
REMARK SMILES O=C1CCc2cc(C(O)=CC[C@H]3CC[N@@H+](Cc4ccc(O)cc4)CC3)cc3ccn1c23
REMARK SMILES IDX 12 1 25 2 24 3 15 4 14 5 13 6 11 8 10 9 8 10 9 11 7 13 6 14
REMARK SMILES IDX 26 15 5 16 27 17 31 18 4 19 28 20 30 21 3 22 29 23 2 24 1 25
REMARK SMILES IDX 16 26 17 27 18 28 23 29 19 30 22 31 20 32 21 33
REMARK H PARENT 15 7 9 12 21 34
ROOT
ATOM      1  C   UNL     1      12.332 -52.605 -24.612  1.00  0.00     0.004 C 
ATOM      2  C   UNL     1      12.726 -51.862 -23.326  1.00  0.00     0.065 C 
ATOM      3  C   UNL     1      13.282 -50.475 -23.622  1.00  0.00     0.262 C 
ATOM      4  N   UNL     1      14.435 -50.554 -24.593  1.00  0.00    -0.331 N 
ATOM      5  C   UNL     1      14.031 -51.220 -25.883  1.00  0.00     0.262 C 
ATOM      6  C   UNL     1      13.493 -52.619 -25.619  1.00  0.00     0.065 C 
ATOM      7  H   UNL     1      14.656 -49.579 -24.832  1.00  0.00     0.348 HD
ENDROOT
BRANCH   1   8
ATOM      8  C   UNL     1      11.782 -54.021 -24.338  1.00  0.00     0.035 C 
BRANCH   8   9
ATOM      9  C   UNL     1      10.951 -54.135 -23.090  1.00  0.00     0.020 C 
BRANCH   9  10
ATOM     10  C   UNL     1      10.822 -55.198 -22.282  1.00  0.00     0.118 C 
BRANCH  10  11
ATOM     11  O   UNL     1      11.074 -55.050 -20.935  1.00  0.00    -0.508 OA
ATOM     12  H   UNL     1      10.718 -54.185 -20.654  1.00  0.00     0.293 HD
ENDBRANCH  10  11
BRANCH  10  13
ATOM     13  C   UNL     1      10.461 -56.553 -22.718  1.00  0.00     0.017 A 
ATOM     14  C   UNL     1      11.453 -57.535 -22.872  1.00  0.00     0.017 A 
ATOM     15  C   UNL     1       9.111 -56.837 -23.019  1.00  0.00     0.022 A 
ATOM     16  C   UNL     1      11.121 -58.829 -23.283  1.00  0.00    -0.022 A 
ATOM     17  C   UNL     1       8.766 -58.131 -23.450  1.00  0.00     0.001 A 
ATOM     18  C   UNL     1       9.775 -59.070 -23.544  1.00  0.00     0.059 A 
ATOM     19  C   UNL     1      12.092 -59.929 -23.576  1.00  0.00     0.047 C 
ATOM     20  C   UNL     1       7.576 -58.784 -23.872  1.00  0.00     0.029 A 
ATOM     21  N   UNL     1       9.247 -60.269 -23.967  1.00  0.00    -0.287 N 
ATOM     22  C   UNL     1      11.413 -61.309 -23.476  1.00  0.00     0.106 C 
ATOM     23  C   UNL     1       7.902 -60.085 -24.206  1.00  0.00     0.095 A 
ATOM     24  C   UNL     1      10.023 -61.428 -24.095  1.00  0.00     0.231 C 
ATOM     25  O   UNL     1       9.525 -62.446 -24.553  1.00  0.00    -0.274 OA
ENDBRANCH  10  13
ENDBRANCH   9  10
ENDBRANCH   8   9
ENDBRANCH   1   8
BRANCH   4  26
ATOM     26  C   UNL     1      15.726 -51.103 -24.016  1.00  0.00     0.299 C 
BRANCH  26  27
ATOM     27  C   UNL     1      16.862 -51.099 -25.004  1.00  0.00     0.006 A 
ATOM     28  C   UNL     1      17.189 -49.932 -25.716  1.00  0.00     0.013 A 
ATOM     29  C   UNL     1      17.626 -52.258 -25.211  1.00  0.00     0.013 A 
ATOM     30  C   UNL     1      18.262 -49.923 -26.611  1.00  0.00     0.046 A 
ATOM     31  C   UNL     1      18.698 -52.245 -26.103  1.00  0.00     0.046 A 
ATOM     32  C   UNL     1      19.008 -51.081 -26.794  1.00  0.00     0.115 A 
BRANCH  32  33
ATOM     33  O   UNL     1      20.065 -51.121 -27.652  1.00  0.00    -0.508 OA
ATOM     34  H   UNL     1      20.330 -50.217 -27.889  1.00  0.00     0.293 HD
ENDBRANCH  32  33
ENDBRANCH  26  27
ENDBRANCH   4  26
TORSDOF 8
ENDMDL
MODEL 9
REMARK VINA RESULT:   -10.229      2.355      2.868
REMARK INTER + INTRA:         -15.232
REMARK INTER:                 -15.214
REMARK INTRA:                  -0.018
REMARK UNBOUND:                -0.817
REMARK SMILES O=C1CCc2cc(C(O)=CC[C@H]3CC[N@@H+](Cc4ccc(O)cc4)CC3)cc3ccn1c23
REMARK SMILES IDX 12 1 25 2 24 3 15 4 14 5 13 6 11 8 10 9 8 10 9 11 7 13 6 14
REMARK SMILES IDX 26 15 5 16 27 17 31 18 4 19 28 20 30 21 3 22 29 23 2 24 1 25
REMARK SMILES IDX 16 26 17 27 18 28 23 29 19 30 22 31 20 32 21 33
REMARK H PARENT 15 7 9 12 21 34
ROOT
ATOM      1  C   UNL     1      11.335 -58.096 -22.401  1.00  0.00     0.004 C 
ATOM      2  C   UNL     1      10.402 -59.313 -22.294  1.00  0.00     0.065 C 
ATOM      3  C   UNL     1      11.018 -60.555 -22.924  1.00  0.00     0.262 C 
ATOM      4  N   UNL     1      11.423 -60.289 -24.354  1.00  0.00    -0.331 N 
ATOM      5  C   UNL     1      12.393 -59.141 -24.454  1.00  0.00     0.262 C 
ATOM      6  C   UNL     1      11.793 -57.877 -23.852  1.00  0.00     0.065 C 
ATOM      7  H   UNL     1      11.940 -61.126 -24.651  1.00  0.00     0.348 HD
ENDROOT
BRANCH   1   8
ATOM      8  C   UNL     1      10.723 -56.820 -21.785  1.00  0.00     0.035 C 
BRANCH   8   9
ATOM      9  C   UNL     1      11.352 -55.538 -22.256  1.00  0.00     0.020 C 
BRANCH   9  10
ATOM     10  C   UNL     1      10.873 -54.672 -23.161  1.00  0.00     0.118 C 
BRANCH  10  11
ATOM     11  O   UNL     1       9.738 -55.002 -23.870  1.00  0.00    -0.508 OA
ATOM     12  H   UNL     1       9.925 -55.814 -24.379  1.00  0.00     0.293 HD
ENDBRANCH  10  11
BRANCH  10  13
ATOM     13  C   UNL     1      11.485 -53.381 -23.504  1.00  0.00     0.017 A 
ATOM     14  C   UNL     1      12.361 -53.280 -24.597  1.00  0.00     0.017 A 
ATOM     15  C   UNL     1      11.213 -52.259 -22.692  1.00  0.00     0.022 A 
ATOM     16  C   UNL     1      12.947 -52.058 -24.934  1.00  0.00    -0.022 A 
ATOM     17  C   UNL     1      11.808 -51.025 -23.010  1.00  0.00     0.001 A 
ATOM     18  C   UNL     1      12.629 -50.973 -24.121  1.00  0.00     0.059 A 
ATOM     19  C   UNL     1      13.965 -51.842 -26.009  1.00  0.00     0.047 C 
ATOM     20  C   UNL     1      11.821 -49.721 -22.446  1.00  0.00     0.029 A 
ATOM     21  N   UNL     1      13.106 -49.691 -24.277  1.00  0.00    -0.287 N 
ATOM     22  C   UNL     1      13.991 -50.370 -26.462  1.00  0.00     0.106 C 
ATOM     23  C   UNL     1      12.641 -48.929 -23.227  1.00  0.00     0.095 A 
ATOM     24  C   UNL     1      13.916 -49.318 -25.358  1.00  0.00     0.231 C 
ATOM     25  O   UNL     1      14.383 -48.189 -25.407  1.00  0.00    -0.274 OA
ENDBRANCH  10  13
ENDBRANCH   9  10
ENDBRANCH   8   9
ENDBRANCH   1   8
BRANCH   4  26
ATOM     26  C   UNL     1      10.273 -60.187 -25.339  1.00  0.00     0.299 C 
BRANCH  26  27
ATOM     27  C   UNL     1      10.727 -60.176 -26.774  1.00  0.00     0.006 A 
ATOM     28  C   UNL     1      10.077 -60.965 -27.738  1.00  0.00     0.013 A 
ATOM     29  C   UNL     1      11.794 -59.356 -27.174  1.00  0.00     0.013 A 
ATOM     30  C   UNL     1      10.481 -60.930 -29.075  1.00  0.00     0.046 A 
ATOM     31  C   UNL     1      12.193 -59.321 -28.509  1.00  0.00     0.046 A 
ATOM     32  C   UNL     1      11.536 -60.105 -29.449  1.00  0.00     0.115 A 
BRANCH  32  33
ATOM     33  O   UNL     1      11.965 -60.033 -30.739  1.00  0.00    -0.508 OA
ATOM     34  H   UNL     1      11.772 -60.870 -31.196  1.00  0.00     0.293 HD
ENDBRANCH  32  33
ENDBRANCH  26  27
ENDBRANCH   4  26
TORSDOF 8
ENDMDL
