MODEL 1
REMARK VINA RESULT:   -12.061      0.000      0.000
REMARK INTER + INTRA:         -17.426
REMARK INTER:                 -16.644
REMARK INTRA:                  -0.782
REMARK UNBOUND:                -0.782
REMARK SMILES C=C(O)c1c[n+](Cc2ccccc2C)ccc1C[C@H]1CCc2cc(OC)ccc2C1=O
REMARK SMILES IDX 4 1 5 2 6 3 15 4 16 5 17 6 2 7 1 8 3 9 18 11 19 12 20 13
REMARK SMILES IDX 30 14 21 15 29 16 22 17 28 18 23 19 27 20 24 21 31 22 25 23
REMARK SMILES IDX 26 24 7 25 8 26 9 27 13 28 10 29 12 30 11 31 14 32
REMARK H PARENT 3 10
ROOT
ATOM      1  C   UNL     1       9.019 -58.386 -23.234  1.00  0.00     0.083 A 
ATOM      2  C   UNL     1       9.394 -59.705 -23.514  1.00  0.00     0.320 A 
ATOM      3  N   UNL     1      10.665 -60.135 -23.328  1.00  0.00    -0.200 N 
ATOM      4  C   UNL     1      11.617 -59.283 -22.893  1.00  0.00     0.308 A 
ATOM      5  C   UNL     1      11.306 -57.957 -22.614  1.00  0.00     0.075 A 
ATOM      6  C   UNL     1       9.997 -57.485 -22.783  1.00  0.00    -0.024 A 
ENDROOT
BRANCH   1   7
ATOM      7  C   UNL     1       7.613 -58.040 -23.471  1.00  0.00     0.121 C 
ATOM      8  C   UNL     1       6.640 -58.294 -22.589  1.00  0.00     0.059 C 
BRANCH   7   9
ATOM      9  O   UNL     1       7.371 -57.497 -24.708  1.00  0.00    -0.508 OA
ATOM     10  H   UNL     1       8.172 -57.025 -25.005  1.00  0.00     0.293 HD
ENDBRANCH   7   9
ENDBRANCH   1   7
BRANCH   6  11
ATOM     11  C   UNL     1       9.727 -56.020 -22.498  1.00  0.00     0.048 C 
BRANCH  11  12
ATOM     12  C   UNL     1      10.916 -55.087 -22.810  1.00  0.00     0.066 C 
ATOM     13  C   UNL     1      11.006 -54.757 -24.304  1.00  0.00     0.017 C 
ATOM     14  C   UNL     1      10.779 -53.806 -21.989  1.00  0.00     0.166 C 
ATOM     15  C   UNL     1      12.165 -53.806 -24.583  1.00  0.00     0.037 C 
ATOM     16  C   UNL     1      11.410 -52.565 -22.509  1.00  0.00     0.021 A 
ATOM     17  C   UNL     1      12.065 -52.562 -23.747  1.00  0.00    -0.033 A 
ATOM     18  C   UNL     1      11.349 -51.393 -21.744  1.00  0.00     0.016 A 
ATOM     19  C   UNL     1      12.675 -51.379 -24.187  1.00  0.00     0.050 A 
ATOM     20  C   UNL     1      11.950 -50.216 -22.204  1.00  0.00     0.047 A 
ATOM     21  C   UNL     1      12.619 -50.206 -23.425  1.00  0.00     0.119 A 
ATOM     22  O   UNL     1      10.219 -53.796 -20.895  1.00  0.00    -0.294 OA
BRANCH  21  23
ATOM     23  O   UNL     1      13.253 -49.134 -23.988  1.00  0.00    -0.497 OA
ATOM     24  C   UNL     1      13.703 -49.281 -25.330  1.00  0.00     0.278 C 
ENDBRANCH  21  23
ENDBRANCH  11  12
ENDBRANCH   6  11
BRANCH   3  25
ATOM     25  C   UNL     1      11.024 -61.540 -23.652  1.00  0.00     0.393 C 
BRANCH  25  26
ATOM     26  C   UNL     1       9.819 -62.451 -23.683  1.00  0.00     0.020 A 
ATOM     27  C   UNL     1       9.475 -63.142 -22.504  1.00  0.00     0.010 A 
ATOM     28  C   UNL     1       9.031 -62.638 -24.841  1.00  0.00    -0.042 A 
ATOM     29  C   UNL     1       8.392 -64.020 -22.476  1.00  0.00     0.001 A 
ATOM     30  C   UNL     1       7.954 -63.538 -24.795  1.00  0.00     0.004 A 
ATOM     31  C   UNL     1       7.636 -64.222 -23.623  1.00  0.00     0.000 A 
ATOM     32  C   UNL     1       9.312 -61.940 -26.144  1.00  0.00     0.045 C 
ENDBRANCH  25  26
ENDBRANCH   3  25
TORSDOF 7
ENDMDL
MODEL 2
REMARK VINA RESULT:   -11.578      2.610      9.855
REMARK INTER + INTRA:         -16.760
REMARK INTER:                 -15.957
REMARK INTRA:                  -0.803
REMARK UNBOUND:                -0.782
REMARK SMILES C=C(O)c1c[n+](Cc2ccccc2C)ccc1C[C@H]1CCc2cc(OC)ccc2C1=O
REMARK SMILES IDX 4 1 5 2 6 3 15 4 16 5 17 6 2 7 1 8 3 9 18 11 19 12 20 13
REMARK SMILES IDX 30 14 21 15 29 16 22 17 28 18 23 19 27 20 24 21 31 22 25 23
REMARK SMILES IDX 26 24 7 25 8 26 9 27 13 28 10 29 12 30 11 31 14 32
REMARK H PARENT 3 10
ROOT
ATOM      1  C   UNL     1      11.275 -53.075 -23.069  1.00  0.00     0.083 A 
ATOM      2  C   UNL     1      12.094 -52.283 -23.881  1.00  0.00     0.320 A 
ATOM      3  N   UNL     1      12.698 -52.786 -24.983  1.00  0.00    -0.200 N 
ATOM      4  C   UNL     1      12.547 -54.087 -25.311  1.00  0.00     0.308 A 
ATOM      5  C   UNL     1      11.757 -54.925 -24.533  1.00  0.00     0.075 A 
ATOM      6  C   UNL     1      11.108 -54.431 -23.393  1.00  0.00    -0.024 A 
ENDROOT
BRANCH   1   7
ATOM      7  C   UNL     1      10.672 -52.416 -21.905  1.00  0.00     0.121 C 
ATOM      8  C   UNL     1      10.148 -51.187 -21.951  1.00  0.00     0.059 C 
BRANCH   7   9
ATOM      9  O   UNL     1      10.757 -53.143 -20.744  1.00  0.00    -0.508 OA
ATOM     10  H   UNL     1      10.446 -54.051 -20.920  1.00  0.00     0.293 HD
ENDBRANCH   7   9
ENDBRANCH   1   7
BRANCH   6  11
ATOM     11  C   UNL     1      10.290 -55.403 -22.563  1.00  0.00     0.048 C 
BRANCH  11  12
ATOM     12  C   UNL     1      10.623 -56.887 -22.820  1.00  0.00     0.066 C 
ATOM     13  C   UNL     1      11.257 -57.551 -21.593  1.00  0.00     0.017 C 
ATOM     14  C   UNL     1       9.348 -57.624 -23.227  1.00  0.00     0.166 C 
ATOM     15  C   UNL     1      11.544 -59.025 -21.858  1.00  0.00     0.037 C 
ATOM     16  C   UNL     1       9.264 -59.085 -22.960  1.00  0.00     0.021 A 
ATOM     17  C   UNL     1      10.306 -59.751 -22.303  1.00  0.00    -0.033 A 
ATOM     18  C   UNL     1       8.130 -59.793 -23.378  1.00  0.00     0.016 A 
ATOM     19  C   UNL     1      10.202 -61.135 -22.099  1.00  0.00     0.050 A 
ATOM     20  C   UNL     1       8.034 -61.170 -23.154  1.00  0.00     0.047 A 
ATOM     21  C   UNL     1       9.072 -61.847 -22.517  1.00  0.00     0.119 A 
ATOM     22  O   UNL     1       8.432 -57.056 -23.815  1.00  0.00    -0.294 OA
BRANCH  21  23
ATOM     23  O   UNL     1       9.112 -63.186 -22.243  1.00  0.00    -0.497 OA
ATOM     24  C   UNL     1       8.117 -64.000 -22.854  1.00  0.00     0.278 C 
ENDBRANCH  21  23
ENDBRANCH  11  12
ENDBRANCH   6  11
BRANCH   3  25
ATOM     25  C   UNL     1      13.572 -51.914 -25.810  1.00  0.00     0.393 C 
BRANCH  25  26
ATOM     26  C   UNL     1      14.928 -51.694 -25.181  1.00  0.00     0.020 A 
ATOM     27  C   UNL     1      15.873 -52.736 -25.251  1.00  0.00     0.010 A 
ATOM     28  C   UNL     1      15.281 -50.492 -24.527  1.00  0.00    -0.042 A 
ATOM     29  C   UNL     1      17.132 -52.606 -24.664  1.00  0.00     0.001 A 
ATOM     30  C   UNL     1      16.549 -50.387 -23.931  1.00  0.00     0.004 A 
ATOM     31  C   UNL     1      17.466 -51.434 -24.000  1.00  0.00     0.000 A 
ATOM     32  C   UNL     1      14.347 -49.320 -24.407  1.00  0.00     0.045 C 
ENDBRANCH  25  26
ENDBRANCH   3  25
TORSDOF 7
ENDMDL
MODEL 3
REMARK VINA RESULT:   -10.264      1.973      3.318
REMARK INTER + INTRA:         -14.947
REMARK INTER:                 -13.797
REMARK INTRA:                  -1.149
REMARK UNBOUND:                -0.782
REMARK SMILES C=C(O)c1c[n+](Cc2ccccc2C)ccc1C[C@H]1CCc2cc(OC)ccc2C1=O
REMARK SMILES IDX 4 1 5 2 6 3 15 4 16 5 17 6 2 7 1 8 3 9 18 11 19 12 20 13
REMARK SMILES IDX 30 14 21 15 29 16 22 17 28 18 23 19 27 20 24 21 31 22 25 23
REMARK SMILES IDX 26 24 7 25 8 26 9 27 13 28 10 29 12 30 11 31 14 32
REMARK H PARENT 3 10
ROOT
ATOM      1  C   UNL     1      10.956 -55.477 -22.190  1.00  0.00     0.083 A 
ATOM      2  C   UNL     1      11.115 -56.776 -21.695  1.00  0.00     0.320 A 
ATOM      3  N   UNL     1      11.605 -57.773 -22.468  1.00  0.00    -0.200 N 
ATOM      4  C   UNL     1      11.926 -57.542 -23.759  1.00  0.00     0.308 A 
ATOM      5  C   UNL     1      11.775 -56.275 -24.309  1.00  0.00     0.075 A 
ATOM      6  C   UNL     1      11.282 -55.218 -23.531  1.00  0.00    -0.024 A 
ENDROOT
BRANCH   1   7
ATOM      7  C   UNL     1      10.420 -54.480 -21.256  1.00  0.00     0.121 C 
ATOM      8  C   UNL     1      11.036 -54.139 -20.119  1.00  0.00     0.059 C 
BRANCH   7   9
ATOM      9  O   UNL     1       9.194 -53.979 -21.615  1.00  0.00    -0.508 OA
ATOM     10  H   UNL     1       9.313 -53.369 -22.367  1.00  0.00     0.293 HD
ENDBRANCH   7   9
ENDBRANCH   1   7
BRANCH   6  11
ATOM     11  C   UNL     1      11.104 -53.867 -24.198  1.00  0.00     0.048 C 
BRANCH  11  12
ATOM     12  C   UNL     1      12.292 -52.903 -23.997  1.00  0.00     0.066 C 
ATOM     13  C   UNL     1      13.018 -52.608 -25.314  1.00  0.00     0.017 C 
ATOM     14  C   UNL     1      11.786 -51.607 -23.364  1.00  0.00     0.166 C 
ATOM     15  C   UNL     1      14.163 -51.626 -25.097  1.00  0.00     0.037 C 
ATOM     16  C   UNL     1      12.557 -50.358 -23.604  1.00  0.00     0.021 A 
ATOM     17  C   UNL     1      13.685 -50.365 -24.434  1.00  0.00    -0.033 A 
ATOM     18  C   UNL     1      12.146 -49.171 -22.986  1.00  0.00     0.016 A 
ATOM     19  C   UNL     1      14.403 -49.174 -24.609  1.00  0.00     0.050 A 
ATOM     20  C   UNL     1      12.864 -47.987 -23.182  1.00  0.00     0.047 A 
ATOM     21  C   UNL     1      13.998 -47.985 -23.991  1.00  0.00     0.119 A 
ATOM     22  O   UNL     1      10.806 -51.589 -22.624  1.00  0.00    -0.294 OA
BRANCH  21  23
ATOM     23  O   UNL     1      14.793 -46.906 -24.262  1.00  0.00    -0.497 OA
ATOM     24  C   UNL     1      14.298 -45.628 -23.878  1.00  0.00     0.278 C 
ENDBRANCH  21  23
ENDBRANCH  11  12
ENDBRANCH   6  11
BRANCH   3  25
ATOM     25  C   UNL     1      11.744 -59.143 -21.907  1.00  0.00     0.393 C 
BRANCH  25  26
ATOM     26  C   UNL     1      10.869 -60.149 -22.619  1.00  0.00     0.020 A 
ATOM     27  C   UNL     1       9.534 -60.292 -22.190  1.00  0.00     0.010 A 
ATOM     28  C   UNL     1      11.334 -60.947 -23.687  1.00  0.00    -0.042 A 
ATOM     29  C   UNL     1       8.684 -61.223 -22.786  1.00  0.00     0.001 A 
ATOM     30  C   UNL     1      10.466 -61.889 -24.264  1.00  0.00     0.004 A 
ATOM     31  C   UNL     1       9.153 -62.025 -23.818  1.00  0.00     0.000 A 
ATOM     32  C   UNL     1      12.738 -60.862 -24.222  1.00  0.00     0.045 C 
ENDBRANCH  25  26
ENDBRANCH   3  25
TORSDOF 7
ENDMDL
MODEL 4
REMARK VINA RESULT:   -10.243      3.154      6.304
REMARK INTER + INTRA:         -14.918
REMARK INTER:                 -14.456
REMARK INTRA:                  -0.462
REMARK UNBOUND:                -0.782
REMARK SMILES C=C(O)c1c[n+](Cc2ccccc2C)ccc1C[C@H]1CCc2cc(OC)ccc2C1=O
REMARK SMILES IDX 4 1 5 2 6 3 15 4 16 5 17 6 2 7 1 8 3 9 18 11 19 12 20 13
REMARK SMILES IDX 30 14 21 15 29 16 22 17 28 18 23 19 27 20 24 21 31 22 25 23
REMARK SMILES IDX 26 24 7 25 8 26 9 27 13 28 10 29 12 30 11 31 14 32
REMARK H PARENT 3 10
ROOT
ATOM      1  C   UNL     1      11.112 -52.308 -22.694  1.00  0.00     0.083 A 
ATOM      2  C   UNL     1      10.208 -53.375 -22.731  1.00  0.00     0.320 A 
ATOM      3  N   UNL     1      10.408 -54.447 -23.534  1.00  0.00    -0.200 N 
ATOM      4  C   UNL     1      11.482 -54.496 -24.351  1.00  0.00     0.308 A 
ATOM      5  C   UNL     1      12.406 -53.458 -24.368  1.00  0.00     0.075 A 
ATOM      6  C   UNL     1      12.233 -52.341 -23.538  1.00  0.00    -0.024 A 
ENDROOT
BRANCH   1   7
ATOM      7  C   UNL     1      10.789 -51.207 -21.780  1.00  0.00     0.121 C 
ATOM      8  C   UNL     1       9.714 -50.425 -21.930  1.00  0.00     0.059 C 
BRANCH   7   9
ATOM      9  O   UNL     1      11.725 -51.002 -20.798  1.00  0.00    -0.508 OA
ATOM     10  H   UNL     1      12.245 -51.820 -20.685  1.00  0.00     0.293 HD
ENDBRANCH   7   9
ENDBRANCH   1   7
BRANCH   6  11
ATOM     11  C   UNL     1      13.255 -51.223 -23.629  1.00  0.00     0.048 C 
BRANCH  11  12
ATOM     12  C   UNL     1      12.728 -49.941 -24.307  1.00  0.00     0.066 C 
ATOM     13  C   UNL     1      12.470 -48.823 -23.291  1.00  0.00     0.017 C 
ATOM     14  C   UNL     1      13.732 -49.482 -25.362  1.00  0.00     0.166 C 
ATOM     15  C   UNL     1      11.985 -47.556 -23.987  1.00  0.00     0.037 C 
ATOM     16  C   UNL     1      13.771 -48.038 -25.717  1.00  0.00     0.021 A 
ATOM     17  C   UNL     1      12.944 -47.120 -25.058  1.00  0.00    -0.033 A 
ATOM     18  C   UNL     1      14.641 -47.604 -26.724  1.00  0.00     0.016 A 
ATOM     19  C   UNL     1      12.987 -45.772 -25.445  1.00  0.00     0.050 A 
ATOM     20  C   UNL     1      14.684 -46.254 -27.088  1.00  0.00     0.047 A 
ATOM     21  C   UNL     1      13.853 -45.334 -26.453  1.00  0.00     0.119 A 
ATOM     22  O   UNL     1      14.454 -50.277 -25.957  1.00  0.00    -0.294 OA
BRANCH  21  23
ATOM     23  O   UNL     1      13.788 -43.994 -26.713  1.00  0.00    -0.497 OA
ATOM     24  C   UNL     1      12.840 -43.237 -25.969  1.00  0.00     0.278 C 
ENDBRANCH  21  23
ENDBRANCH  11  12
ENDBRANCH   6  11
BRANCH   3  25
ATOM     25  C   UNL     1       9.415 -55.552 -23.554  1.00  0.00     0.393 C 
BRANCH  25  26
ATOM     26  C   UNL     1       9.915 -56.790 -22.846  1.00  0.00     0.020 A 
ATOM     27  C   UNL     1      10.999 -56.656 -21.955  1.00  0.00     0.010 A 
ATOM     28  C   UNL     1       9.345 -58.067 -23.043  1.00  0.00    -0.042 A 
ATOM     29  C   UNL     1      11.526 -57.765 -21.294  1.00  0.00     0.001 A 
ATOM     30  C   UNL     1       9.900 -59.172 -22.378  1.00  0.00     0.004 A 
ATOM     31  C   UNL     1      10.980 -59.023 -21.510  1.00  0.00     0.000 A 
ATOM     32  C   UNL     1       8.182 -58.311 -23.966  1.00  0.00     0.045 C 
ENDBRANCH  25  26
ENDBRANCH   3  25
TORSDOF 7
ENDMDL
MODEL 5
REMARK VINA RESULT:   -10.147      3.223     10.111
REMARK INTER + INTRA:         -14.784
REMARK INTER:                 -13.770
REMARK INTRA:                  -1.014
REMARK UNBOUND:                -0.782
REMARK SMILES C=C(O)c1c[n+](Cc2ccccc2C)ccc1C[C@H]1CCc2cc(OC)ccc2C1=O
REMARK SMILES IDX 4 1 5 2 6 3 15 4 16 5 17 6 2 7 1 8 3 9 18 11 19 12 20 13
REMARK SMILES IDX 30 14 21 15 29 16 22 17 28 18 23 19 27 20 24 21 31 22 25 23
REMARK SMILES IDX 26 24 7 25 8 26 9 27 13 28 10 29 12 30 11 31 14 32
REMARK H PARENT 3 10
ROOT
ATOM      1  C   UNL     1      11.802 -52.187 -22.991  1.00  0.00     0.083 A 
ATOM      2  C   UNL     1      12.764 -51.177 -22.883  1.00  0.00     0.320 A 
ATOM      3  N   UNL     1      13.790 -51.080 -23.762  1.00  0.00    -0.200 N 
ATOM      4  C   UNL     1      13.927 -51.984 -24.754  1.00  0.00     0.308 A 
ATOM      5  C   UNL     1      13.010 -53.018 -24.900  1.00  0.00     0.075 A 
ATOM      6  C   UNL     1      11.929 -53.138 -24.015  1.00  0.00    -0.024 A 
ENDROOT
BRANCH   1   7
ATOM      7  C   UNL     1      10.735 -52.186 -21.983  1.00  0.00     0.121 C 
ATOM      8  C   UNL     1       9.698 -51.342 -22.018  1.00  0.00     0.059 C 
BRANCH   7   9
ATOM      9  O   UNL     1      10.931 -53.079 -20.960  1.00  0.00    -0.508 OA
ATOM     10  H   UNL     1      11.661 -52.757 -20.399  1.00  0.00     0.293 HD
ENDBRANCH   7   9
ENDBRANCH   1   7
BRANCH   6  11
ATOM     11  C   UNL     1      10.983 -54.309 -24.203  1.00  0.00     0.048 C 
BRANCH  11  12
ATOM     12  C   UNL     1      11.448 -55.611 -23.518  1.00  0.00     0.066 C 
ATOM     13  C   UNL     1      10.339 -56.233 -22.661  1.00  0.00     0.017 C 
ATOM     14  C   UNL     1      11.917 -56.600 -24.584  1.00  0.00     0.166 C 
ATOM     15  C   UNL     1      10.809 -57.536 -22.024  1.00  0.00     0.037 C 
ATOM     16  C   UNL     1      11.848 -58.053 -24.276  1.00  0.00     0.021 A 
ATOM     17  C   UNL     1      11.315 -58.500 -23.060  1.00  0.00    -0.033 A 
ATOM     18  C   UNL     1      12.328 -58.976 -25.214  1.00  0.00     0.016 A 
ATOM     19  C   UNL     1      11.298 -59.877 -22.794  1.00  0.00     0.050 A 
ATOM     20  C   UNL     1      12.290 -60.347 -24.941  1.00  0.00     0.047 A 
ATOM     21  C   UNL     1      11.779 -60.802 -23.728  1.00  0.00     0.119 A 
ATOM     22  O   UNL     1      12.399 -56.223 -25.648  1.00  0.00    -0.294 OA
BRANCH  21  23
ATOM     23  O   UNL     1      11.689 -62.107 -23.330  1.00  0.00    -0.497 OA
ATOM     24  C   UNL     1      10.383 -62.624 -23.100  1.00  0.00     0.278 C 
ENDBRANCH  21  23
ENDBRANCH  11  12
ENDBRANCH   6  11
BRANCH   3  25
ATOM     25  C   UNL     1      14.799 -50.000 -23.603  1.00  0.00     0.393 C 
BRANCH  25  26
ATOM     26  C   UNL     1      16.103 -50.323 -24.295  1.00  0.00     0.020 A 
ATOM     27  C   UNL     1      16.338 -49.765 -25.568  1.00  0.00     0.010 A 
ATOM     28  C   UNL     1      17.087 -51.158 -23.721  1.00  0.00    -0.042 A 
ATOM     29  C   UNL     1      17.509 -50.048 -26.271  1.00  0.00     0.001 A 
ATOM     30  C   UNL     1      18.252 -51.442 -24.452  1.00  0.00     0.004 A 
ATOM     31  C   UNL     1      18.462 -50.891 -25.715  1.00  0.00     0.000 A 
ATOM     32  C   UNL     1      16.933 -51.793 -22.366  1.00  0.00     0.045 C 
ENDBRANCH  25  26
ENDBRANCH   3  25
TORSDOF 7
ENDMDL
MODEL 6
REMARK VINA RESULT:   -10.142      3.050     10.792
REMARK INTER + INTRA:         -14.778
REMARK INTER:                 -13.854
REMARK INTRA:                  -0.923
REMARK UNBOUND:                -0.782
REMARK SMILES C=C(O)c1c[n+](Cc2ccccc2C)ccc1C[C@H]1CCc2cc(OC)ccc2C1=O
REMARK SMILES IDX 4 1 5 2 6 3 15 4 16 5 17 6 2 7 1 8 3 9 18 11 19 12 20 13
REMARK SMILES IDX 30 14 21 15 29 16 22 17 28 18 23 19 27 20 24 21 31 22 25 23
REMARK SMILES IDX 26 24 7 25 8 26 9 27 13 28 10 29 12 30 11 31 14 32
REMARK H PARENT 3 10
ROOT
ATOM      1  C   UNL     1      12.873 -52.148 -24.419  1.00  0.00     0.083 A 
ATOM      2  C   UNL     1      13.190 -50.949 -23.771  1.00  0.00     0.320 A 
ATOM      3  N   UNL     1      12.557 -50.569 -22.635  1.00  0.00    -0.200 N 
ATOM      4  C   UNL     1      11.572 -51.332 -22.115  1.00  0.00     0.308 A 
ATOM      5  C   UNL     1      11.204 -52.525 -22.725  1.00  0.00     0.075 A 
ATOM      6  C   UNL     1      11.850 -52.953 -23.894  1.00  0.00    -0.024 A 
ENDROOT
BRANCH   1   7
ATOM      7  C   UNL     1      13.631 -52.453 -25.638  1.00  0.00     0.121 C 
ATOM      8  C   UNL     1      14.395 -53.543 -25.769  1.00  0.00     0.059 C 
BRANCH   7   9
ATOM      9  O   UNL     1      13.544 -51.487 -26.608  1.00  0.00    -0.508 OA
ATOM     10  H   UNL     1      14.275 -50.853 -26.483  1.00  0.00     0.293 HD
ENDBRANCH   7   9
ENDBRANCH   1   7
BRANCH   6  11
ATOM     11  C   UNL     1      11.379 -54.245 -24.534  1.00  0.00     0.048 C 
BRANCH  11  12
ATOM     12  C   UNL     1      11.784 -55.517 -23.760  1.00  0.00     0.066 C 
ATOM     13  C   UNL     1      10.692 -55.962 -22.781  1.00  0.00     0.017 C 
ATOM     14  C   UNL     1      12.096 -56.633 -24.755  1.00  0.00     0.166 C 
ATOM     15  C   UNL     1      11.099 -57.239 -22.055  1.00  0.00     0.037 C 
ATOM     16  C   UNL     1      11.932 -58.042 -24.308  1.00  0.00     0.021 A 
ATOM     17  C   UNL     1      11.451 -58.331 -23.025  1.00  0.00    -0.033 A 
ATOM     18  C   UNL     1      12.269 -59.081 -25.184  1.00  0.00     0.016 A 
ATOM     19  C   UNL     1      11.342 -59.672 -22.630  1.00  0.00     0.050 A 
ATOM     20  C   UNL     1      12.140 -60.415 -24.781  1.00  0.00     0.047 A 
ATOM     21  C   UNL     1      11.680 -60.715 -23.501  1.00  0.00     0.119 A 
ATOM     22  O   UNL     1      12.531 -56.395 -25.879  1.00  0.00    -0.294 OA
BRANCH  21  23
ATOM     23  O   UNL     1      11.514 -61.967 -22.978  1.00  0.00    -0.497 OA
ATOM     24  C   UNL     1      10.253 -62.592 -23.189  1.00  0.00     0.278 C 
ENDBRANCH  21  23
ENDBRANCH  11  12
ENDBRANCH   6  11
BRANCH   3  25
ATOM     25  C   UNL     1      12.914 -49.281 -21.986  1.00  0.00     0.393 C 
BRANCH  25  26
ATOM     26  C   UNL     1      12.642 -48.091 -22.877  1.00  0.00     0.020 A 
ATOM     27  C   UNL     1      11.325 -47.890 -23.338  1.00  0.00     0.010 A 
ATOM     28  C   UNL     1      13.650 -47.181 -23.265  1.00  0.00    -0.042 A 
ATOM     29  C   UNL     1      11.016 -46.828 -24.186  1.00  0.00     0.001 A 
ATOM     30  C   UNL     1      13.319 -46.126 -24.132  1.00  0.00     0.004 A 
ATOM     31  C   UNL     1      12.014 -45.950 -24.588  1.00  0.00     0.000 A 
ATOM     32  C   UNL     1      15.081 -47.305 -22.820  1.00  0.00     0.045 C 
ENDBRANCH  25  26
ENDBRANCH   3  25
TORSDOF 7
ENDMDL
MODEL 7
REMARK VINA RESULT:    -9.998      2.898     10.561
REMARK INTER + INTRA:         -14.580
REMARK INTER:                 -13.418
REMARK INTRA:                  -1.161
REMARK UNBOUND:                -0.782
REMARK SMILES C=C(O)c1c[n+](Cc2ccccc2C)ccc1C[C@H]1CCc2cc(OC)ccc2C1=O
REMARK SMILES IDX 4 1 5 2 6 3 15 4 16 5 17 6 2 7 1 8 3 9 18 11 19 12 20 13
REMARK SMILES IDX 30 14 21 15 29 16 22 17 28 18 23 19 27 20 24 21 31 22 25 23
REMARK SMILES IDX 26 24 7 25 8 26 9 27 13 28 10 29 12 30 11 31 14 32
REMARK H PARENT 3 10
ROOT
ATOM      1  C   UNL     1      12.035 -52.130 -23.064  1.00  0.00     0.083 A 
ATOM      2  C   UNL     1      13.006 -51.126 -22.990  1.00  0.00     0.320 A 
ATOM      3  N   UNL     1      13.996 -51.029 -23.909  1.00  0.00    -0.200 N 
ATOM      4  C   UNL     1      14.088 -51.928 -24.911  1.00  0.00     0.308 A 
ATOM      5  C   UNL     1      13.160 -52.956 -25.026  1.00  0.00     0.075 A 
ATOM      6  C   UNL     1      12.115 -53.076 -24.098  1.00  0.00    -0.024 A 
ENDROOT
BRANCH   1   7
ATOM      7  C   UNL     1      11.010 -52.129 -22.014  1.00  0.00     0.121 C 
ATOM      8  C   UNL     1      11.040 -52.956 -20.963  1.00  0.00     0.059 C 
BRANCH   7   9
ATOM      9  O   UNL     1       9.977 -51.253 -22.240  1.00  0.00    -0.508 OA
ATOM     10  H   UNL     1       9.318 -51.357 -21.528  1.00  0.00     0.293 HD
ENDBRANCH   7   9
ENDBRANCH   1   7
BRANCH   6  11
ATOM     11  C   UNL     1      11.155 -54.240 -24.254  1.00  0.00     0.048 C 
BRANCH  11  12
ATOM     12  C   UNL     1      11.636 -55.547 -23.588  1.00  0.00     0.066 C 
ATOM     13  C   UNL     1      10.568 -56.144 -22.665  1.00  0.00     0.017 C 
ATOM     14  C   UNL     1      12.025 -56.549 -24.673  1.00  0.00     0.166 C 
ATOM     15  C   UNL     1      11.051 -57.452 -22.047  1.00  0.00     0.037 C 
ATOM     16  C   UNL     1      11.949 -57.999 -24.351  1.00  0.00     0.021 A 
ATOM     17  C   UNL     1      11.479 -58.430 -23.104  1.00  0.00    -0.033 A 
ATOM     18  C   UNL     1      12.358 -58.935 -25.310  1.00  0.00     0.016 A 
ATOM     19  C   UNL     1      11.454 -59.804 -22.829  1.00  0.00     0.050 A 
ATOM     20  C   UNL     1      12.312 -60.304 -25.026  1.00  0.00     0.047 A 
ATOM     21  C   UNL     1      11.863 -60.744 -23.782  1.00  0.00     0.119 A 
ATOM     22  O   UNL     1      12.451 -56.187 -25.766  1.00  0.00    -0.294 OA
BRANCH  21  23
ATOM     23  O   UNL     1      11.774 -62.044 -23.372  1.00  0.00    -0.497 OA
ATOM     24  C   UNL     1      10.490 -62.508 -22.970  1.00  0.00     0.278 C 
ENDBRANCH  21  23
ENDBRANCH  11  12
ENDBRANCH   6  11
BRANCH   3  25
ATOM     25  C   UNL     1      15.017 -49.955 -23.785  1.00  0.00     0.393 C 
BRANCH  25  26
ATOM     26  C   UNL     1      14.429 -48.576 -23.974  1.00  0.00     0.020 A 
ATOM     27  C   UNL     1      14.107 -47.825 -22.826  1.00  0.00     0.010 A 
ATOM     28  C   UNL     1      14.190 -48.015 -25.248  1.00  0.00    -0.042 A 
ATOM     29  C   UNL     1      13.535 -46.558 -22.932  1.00  0.00     0.001 A 
ATOM     30  C   UNL     1      13.600 -46.743 -25.333  1.00  0.00     0.004 A 
ATOM     31  C   UNL     1      13.277 -46.020 -24.186  1.00  0.00     0.000 A 
ATOM     32  C   UNL     1      14.506 -48.732 -26.532  1.00  0.00     0.045 C 
ENDBRANCH  25  26
ENDBRANCH   3  25
TORSDOF 7
ENDMDL
MODEL 8
REMARK VINA RESULT:    -9.974      2.789      5.440
REMARK INTER + INTRA:         -14.546
REMARK INTER:                 -14.167
REMARK INTRA:                  -0.380
REMARK UNBOUND:                -0.782
REMARK SMILES C=C(O)c1c[n+](Cc2ccccc2C)ccc1C[C@H]1CCc2cc(OC)ccc2C1=O
REMARK SMILES IDX 4 1 5 2 6 3 15 4 16 5 17 6 2 7 1 8 3 9 18 11 19 12 20 13
REMARK SMILES IDX 30 14 21 15 29 16 22 17 28 18 23 19 27 20 24 21 31 22 25 23
REMARK SMILES IDX 26 24 7 25 8 26 9 27 13 28 10 29 12 30 11 31 14 32
REMARK H PARENT 3 10
ROOT
ATOM      1  C   UNL     1      11.666 -54.076 -24.177  1.00  0.00     0.083 A 
ATOM      2  C   UNL     1      10.828 -55.186 -24.028  1.00  0.00     0.320 A 
ATOM      3  N   UNL     1       9.980 -55.298 -22.979  1.00  0.00    -0.200 N 
ATOM      4  C   UNL     1       9.946 -54.345 -22.023  1.00  0.00     0.308 A 
ATOM      5  C   UNL     1      10.768 -53.228 -22.110  1.00  0.00     0.075 A 
ATOM      6  C   UNL     1      11.647 -53.076 -23.192  1.00  0.00    -0.024 A 
ENDROOT
BRANCH   1   7
ATOM      7  C   UNL     1      12.537 -54.065 -25.358  1.00  0.00     0.121 C 
ATOM      8  C   UNL     1      12.952 -55.180 -25.969  1.00  0.00     0.059 C 
BRANCH   7   9
ATOM      9  O   UNL     1      12.948 -52.812 -25.739  1.00  0.00    -0.508 OA
ATOM     10  H   UNL     1      13.918 -52.820 -25.843  1.00  0.00     0.293 HD
ENDBRANCH   7   9
ENDBRANCH   1   7
BRANCH   6  11
ATOM     11  C   UNL     1      12.545 -51.853 -23.212  1.00  0.00     0.048 C 
BRANCH  11  12
ATOM     12  C   UNL     1      11.823 -50.547 -23.604  1.00  0.00     0.066 C 
ATOM     13  C   UNL     1      11.253 -49.820 -22.382  1.00  0.00     0.017 C 
ATOM     14  C   UNL     1      12.796 -49.642 -24.357  1.00  0.00     0.166 C 
ATOM     15  C   UNL     1      10.577 -48.515 -22.789  1.00  0.00     0.037 C 
ATOM     16  C   UNL     1      12.564 -48.173 -24.322  1.00  0.00     0.021 A 
ATOM     17  C   UNL     1      11.512 -47.636 -23.570  1.00  0.00    -0.033 A 
ATOM     18  C   UNL     1      13.409 -47.329 -25.053  1.00  0.00     0.016 A 
ATOM     19  C   UNL     1      11.307 -46.249 -23.589  1.00  0.00     0.050 A 
ATOM     20  C   UNL     1      13.201 -45.946 -25.050  1.00  0.00     0.047 A 
ATOM     21  C   UNL     1      12.146 -45.401 -24.320  1.00  0.00     0.119 A 
ATOM     22  O   UNL     1      13.716 -50.099 -25.031  1.00  0.00    -0.294 OA
BRANCH  21  23
ATOM     23  O   UNL     1      11.826 -44.075 -24.235  1.00  0.00    -0.497 OA
ATOM     24  C   UNL     1      10.561 -43.751 -23.670  1.00  0.00     0.278 C 
ENDBRANCH  21  23
ENDBRANCH  11  12
ENDBRANCH   6  11
BRANCH   3  25
ATOM     25  C   UNL     1       9.117 -56.502 -22.851  1.00  0.00     0.393 C 
BRANCH  25  26
ATOM     26  C   UNL     1       9.912 -57.786 -22.870  1.00  0.00     0.020 A 
ATOM     27  C   UNL     1      11.100 -57.847 -22.115  1.00  0.00     0.010 A 
ATOM     28  C   UNL     1       9.515 -58.921 -23.613  1.00  0.00    -0.042 A 
ATOM     29  C   UNL     1      11.894 -58.993 -22.114  1.00  0.00     0.001 A 
ATOM     30  C   UNL     1      10.336 -60.060 -23.610  1.00  0.00     0.004 A 
ATOM     31  C   UNL     1      11.515 -60.097 -22.866  1.00  0.00     0.000 A 
ATOM     32  C   UNL     1       8.261 -58.958 -24.443  1.00  0.00     0.045 C 
ENDBRANCH  25  26
ENDBRANCH   3  25
TORSDOF 7
ENDMDL
MODEL 9
REMARK VINA RESULT:    -9.906      3.550      6.329
REMARK INTER + INTRA:         -14.452
REMARK INTER:                 -13.887
REMARK INTRA:                  -0.566
REMARK UNBOUND:                -0.782
REMARK SMILES C=C(O)c1c[n+](Cc2ccccc2C)ccc1C[C@H]1CCc2cc(OC)ccc2C1=O
REMARK SMILES IDX 4 1 5 2 6 3 15 4 16 5 17 6 2 7 1 8 3 9 18 11 19 12 20 13
REMARK SMILES IDX 30 14 21 15 29 16 22 17 28 18 23 19 27 20 24 21 31 22 25 23
REMARK SMILES IDX 26 24 7 25 8 26 9 27 13 28 10 29 12 30 11 31 14 32
REMARK H PARENT 3 10
ROOT
ATOM      1  C   UNL     1      11.137 -52.343 -22.808  1.00  0.00     0.083 A 
ATOM      2  C   UNL     1      10.209 -53.369 -22.601  1.00  0.00     0.320 A 
ATOM      3  N   UNL     1      10.274 -54.533 -23.290  1.00  0.00    -0.200 N 
ATOM      4  C   UNL     1      11.228 -54.720 -24.226  1.00  0.00     0.308 A 
ATOM      5  C   UNL     1      12.168 -53.729 -24.485  1.00  0.00     0.075 A 
ATOM      6  C   UNL     1      12.136 -52.518 -23.779  1.00  0.00    -0.024 A 
ENDROOT
BRANCH   1   7
ATOM      7  C   UNL     1      10.966 -51.131 -21.999  1.00  0.00     0.121 C 
ATOM      8  C   UNL     1       9.901 -50.329 -22.100  1.00  0.00     0.059 C 
BRANCH   7   9
ATOM      9  O   UNL     1      12.030 -50.852 -21.177  1.00  0.00    -0.508 OA
ATOM     10  H   UNL     1      11.688 -50.573 -20.307  1.00  0.00     0.293 HD
ENDBRANCH   7   9
ENDBRANCH   1   7
BRANCH   6  11
ATOM     11  C   UNL     1      13.165 -51.461 -24.133  1.00  0.00     0.048 C 
BRANCH  11  12
ATOM     12  C   UNL     1      14.627 -51.939 -24.011  1.00  0.00     0.066 C 
ATOM     13  C   UNL     1      15.147 -52.531 -25.325  1.00  0.00     0.017 C 
ATOM     14  C   UNL     1      15.502 -50.767 -23.570  1.00  0.00     0.166 C 
ATOM     15  C   UNL     1      16.603 -52.961 -25.191  1.00  0.00     0.037 C 
ATOM     16  C   UNL     1      16.943 -50.787 -23.937  1.00  0.00     0.021 A 
ATOM     17  C   UNL     1      17.466 -51.828 -24.714  1.00  0.00    -0.033 A 
ATOM     18  C   UNL     1      17.778 -49.754 -23.494  1.00  0.00     0.016 A 
ATOM     19  C   UNL     1      18.837 -51.827 -25.012  1.00  0.00     0.050 A 
ATOM     20  C   UNL     1      19.140 -49.759 -23.811  1.00  0.00     0.047 A 
ATOM     21  C   UNL     1      19.675 -50.798 -24.568  1.00  0.00     0.119 A 
ATOM     22  O   UNL     1      15.061 -49.854 -22.877  1.00  0.00    -0.294 OA
BRANCH  21  23
ATOM     23  O   UNL     1      20.983 -50.931 -24.943  1.00  0.00    -0.497 OA
ATOM     24  C   UNL     1      21.326 -52.093 -25.690  1.00  0.00     0.278 C 
ENDBRANCH  21  23
ENDBRANCH  11  12
ENDBRANCH   6  11
BRANCH   3  25
ATOM     25  C   UNL     1       9.258 -55.591 -23.050  1.00  0.00     0.393 C 
BRANCH  25  26
ATOM     26  C   UNL     1       9.883 -56.912 -22.665  1.00  0.00     0.020 A 
ATOM     27  C   UNL     1      11.048 -56.893 -21.872  1.00  0.00     0.010 A 
ATOM     28  C   UNL     1       9.349 -58.157 -23.067  1.00  0.00    -0.042 A 
ATOM     29  C   UNL     1      11.688 -58.077 -21.508  1.00  0.00     0.001 A 
ATOM     30  C   UNL     1      10.018 -59.337 -22.701  1.00  0.00     0.004 A 
ATOM     31  C   UNL     1      11.176 -59.297 -21.927  1.00  0.00     0.000 A 
ATOM     32  C   UNL     1       8.106 -58.282 -23.906  1.00  0.00     0.045 C 
ENDBRANCH  25  26
ENDBRANCH   3  25
TORSDOF 7
ENDMDL
