MODEL 1
REMARK VINA RESULT:   -13.089      0.000      0.000
REMARK INTER + INTRA:         -17.946
REMARK INTER:                 -16.915
REMARK INTRA:                  -1.031
REMARK UNBOUND:                -1.031
REMARK SMILES COc1ccccc1C(=O)Nc1ccc2c(c1)CN(C(=O)c1ccccc1)C(=O)C2
REMARK SMILES IDX 9 1 10 2 11 3 8 5 3 6 4 7 5 8 7 9 6 10 2 11 1 12 12 13 13 14
REMARK SMILES IDX 17 15 14 16 16 17 15 18 18 19 30 20 19 21 28 22 29 23 20 24
REMARK SMILES IDX 21 25 22 26 23 27 27 28 24 29 26 30 25 31
REMARK H PARENT 11 4
ROOT
ATOM      1  C   UNL     1      10.560 -55.017 -22.640  1.00  0.00     0.259 C 
ATOM      2  O   UNL     1       9.513 -54.887 -22.011  1.00  0.00    -0.269 OA
ATOM      3  N   UNL     1      11.153 -56.225 -22.948  1.00  0.00    -0.322 N 
ATOM      4  H   UNL     1      12.018 -56.163 -23.477  1.00  0.00     0.170 HD
ENDROOT
BRANCH   1   5
ATOM      5  C   UNL     1      11.266 -53.772 -23.121  1.00  0.00     0.082 A 
ATOM      6  C   UNL     1      11.936 -53.642 -24.359  1.00  0.00     0.131 A 
ATOM      7  C   UNL     1      12.551 -52.420 -24.678  1.00  0.00     0.047 A 
ATOM      8  C   UNL     1      12.510 -51.341 -23.793  1.00  0.00     0.004 A 
ATOM      9  C   UNL     1      11.237 -52.670 -22.244  1.00  0.00     0.018 A 
ATOM     10  C   UNL     1      11.853 -51.464 -22.576  1.00  0.00     0.001 A 
BRANCH   6  11
ATOM     11  O   UNL     1      11.950 -54.730 -25.199  1.00  0.00    -0.496 OA
ATOM     12  C   UNL     1      13.072 -54.891 -26.062  1.00  0.00     0.278 C 
ENDBRANCH   6  11
ENDBRANCH   1   5
BRANCH   3  13
ATOM     13  C   UNL     1      10.712 -57.524 -22.627  1.00  0.00     0.041 A 
ATOM     14  C   UNL     1      11.381 -58.181 -21.586  1.00  0.00     0.026 A 
ATOM     15  C   UNL     1       9.662 -58.177 -23.273  1.00  0.00     0.032 A 
ATOM     16  C   UNL     1      11.006 -59.469 -21.195  1.00  0.00     0.007 A 
ATOM     17  C   UNL     1       9.292 -59.476 -22.895  1.00  0.00    -0.022 A 
ATOM     18  C   UNL     1       9.965 -60.124 -21.856  1.00  0.00    -0.033 A 
ATOM     19  C   UNL     1       8.140 -60.189 -23.544  1.00  0.00     0.164 C 
ATOM     20  C   UNL     1       9.501 -61.491 -21.438  1.00  0.00     0.136 C 
ATOM     21  N   UNL     1       8.394 -61.616 -23.669  1.00  0.00    -0.274 N 
ATOM     22  C   UNL     1       8.827 -62.306 -22.537  1.00  0.00     0.234 C 
ATOM     23  O   UNL     1       8.699 -63.522 -22.379  1.00  0.00    -0.274 OA
BRANCH  21  24
ATOM     24  C   UNL     1       7.621 -62.267 -24.633  1.00  0.00     0.260 C 
ATOM     25  O   UNL     1       6.484 -62.680 -24.403  1.00  0.00    -0.269 OA
BRANCH  24  26
ATOM     26  C   UNL     1       8.185 -62.443 -26.001  1.00  0.00     0.040 A 
ATOM     27  C   UNL     1       7.657 -63.447 -26.822  1.00  0.00     0.014 A 
ATOM     28  C   UNL     1       9.173 -61.585 -26.503  1.00  0.00     0.014 A 
ATOM     29  C   UNL     1       8.135 -63.613 -28.122  1.00  0.00     0.001 A 
ATOM     30  C   UNL     1       9.648 -61.755 -27.805  1.00  0.00     0.001 A 
ATOM     31  C   UNL     1       9.132 -62.770 -28.612  1.00  0.00     0.000 A 
ENDBRANCH  24  26
ENDBRANCH  21  24
ENDBRANCH   3  13
TORSDOF 5
ENDMDL
MODEL 2
REMARK VINA RESULT:   -10.823      1.721      2.476
REMARK INTER + INTRA:         -15.018
REMARK INTER:                 -14.185
REMARK INTRA:                  -0.832
REMARK UNBOUND:                -1.031
REMARK SMILES COc1ccccc1C(=O)Nc1ccc2c(c1)CN(C(=O)c1ccccc1)C(=O)C2
REMARK SMILES IDX 9 1 10 2 11 3 8 5 3 6 4 7 5 8 7 9 6 10 2 11 1 12 12 13 13 14
REMARK SMILES IDX 17 15 14 16 16 17 15 18 18 19 30 20 19 21 28 22 29 23 20 24
REMARK SMILES IDX 21 25 22 26 23 27 27 28 24 29 26 30 25 31
REMARK H PARENT 11 4
ROOT
ATOM      1  C   UNL     1      10.728 -53.223 -21.707  1.00  0.00     0.259 C 
ATOM      2  O   UNL     1      10.532 -53.381 -20.504  1.00  0.00    -0.269 OA
ATOM      3  N   UNL     1      10.823 -54.243 -22.633  1.00  0.00    -0.322 N 
ATOM      4  H   UNL     1      10.987 -53.948 -23.590  1.00  0.00     0.170 HD
ENDROOT
BRANCH   1   5
ATOM      5  C   UNL     1      10.881 -51.815 -22.230  1.00  0.00     0.082 A 
ATOM      6  C   UNL     1      11.931 -51.364 -23.060  1.00  0.00     0.131 A 
ATOM      7  C   UNL     1      11.947 -50.022 -23.475  1.00  0.00     0.047 A 
ATOM      8  C   UNL     1      10.944 -49.134 -23.077  1.00  0.00     0.004 A 
ATOM      9  C   UNL     1       9.880 -50.902 -21.841  1.00  0.00     0.018 A 
ATOM     10  C   UNL     1       9.910 -49.573 -22.261  1.00  0.00     0.001 A 
BRANCH   6  11
ATOM     11  O   UNL     1      12.895 -52.272 -23.427  1.00  0.00    -0.496 OA
ATOM     12  C   UNL     1      13.191 -52.407 -24.815  1.00  0.00     0.278 C 
ENDBRANCH   6  11
ENDBRANCH   1   5
BRANCH   3  13
ATOM     13  C   UNL     1      10.720 -55.631 -22.419  1.00  0.00     0.041 A 
ATOM     14  C   UNL     1      11.482 -56.172 -21.376  1.00  0.00     0.026 A 
ATOM     15  C   UNL     1       9.910 -56.481 -23.174  1.00  0.00     0.032 A 
ATOM     16  C   UNL     1      11.436 -57.538 -21.089  1.00  0.00     0.007 A 
ATOM     17  C   UNL     1       9.872 -57.857 -22.900  1.00  0.00    -0.022 A 
ATOM     18  C   UNL     1      10.635 -58.386 -21.857  1.00  0.00    -0.033 A 
ATOM     19  C   UNL     1       8.978 -58.790 -23.667  1.00  0.00     0.164 C 
ATOM     20  C   UNL     1      10.523 -59.854 -21.553  1.00  0.00     0.136 C 
ATOM     21  N   UNL     1       9.601 -60.091 -23.858  1.00  0.00    -0.274 N 
ATOM     22  C   UNL     1      10.141 -60.729 -22.742  1.00  0.00     0.234 C 
ATOM     23  O   UNL     1      10.325 -61.947 -22.666  1.00  0.00    -0.274 OA
BRANCH  21  24
ATOM     24  C   UNL     1       9.074 -60.843 -24.909  1.00  0.00     0.260 C 
ATOM     25  O   UNL     1       8.100 -61.586 -24.771  1.00  0.00    -0.269 OA
BRANCH  24  26
ATOM     26  C   UNL     1       9.697 -60.723 -26.258  1.00  0.00     0.040 A 
ATOM     27  C   UNL     1      10.832 -59.915 -26.404  1.00  0.00     0.014 A 
ATOM     28  C   UNL     1       9.218 -61.451 -27.354  1.00  0.00     0.014 A 
ATOM     29  C   UNL     1      11.464 -59.813 -27.644  1.00  0.00     0.001 A 
ATOM     30  C   UNL     1       9.854 -61.345 -28.593  1.00  0.00     0.001 A 
ATOM     31  C   UNL     1      10.972 -60.524 -28.738  1.00  0.00     0.000 A 
ENDBRANCH  24  26
ENDBRANCH  21  24
ENDBRANCH   3  13
TORSDOF 5
ENDMDL
MODEL 3
REMARK VINA RESULT:   -10.778      3.472     10.898
REMARK INTER + INTRA:         -14.959
REMARK INTER:                 -14.382
REMARK INTRA:                  -0.577
REMARK UNBOUND:                -1.031
REMARK SMILES COc1ccccc1C(=O)Nc1ccc2c(c1)CN(C(=O)c1ccccc1)C(=O)C2
REMARK SMILES IDX 9 1 10 2 11 3 8 5 3 6 4 7 5 8 7 9 6 10 2 11 1 12 12 13 13 14
REMARK SMILES IDX 17 15 14 16 16 17 15 18 18 19 30 20 19 21 28 22 29 23 20 24
REMARK SMILES IDX 21 25 22 26 23 27 27 28 24 29 26 30 25 31
REMARK H PARENT 11 4
ROOT
ATOM      1  C   UNL     1      11.055 -56.265 -22.699  1.00  0.00     0.259 C 
ATOM      2  O   UNL     1      11.000 -55.415 -21.814  1.00  0.00    -0.269 OA
ATOM      3  N   UNL     1      11.550 -56.052 -23.971  1.00  0.00    -0.322 N 
ATOM      4  H   UNL     1      11.527 -56.859 -24.587  1.00  0.00     0.170 HD
ENDROOT
BRANCH   1   5
ATOM      5  C   UNL     1      10.549 -57.655 -22.392  1.00  0.00     0.082 A 
ATOM      6  C   UNL     1       9.397 -58.245 -22.959  1.00  0.00     0.131 A 
ATOM      7  C   UNL     1       9.043 -59.551 -22.581  1.00  0.00     0.047 A 
ATOM      8  C   UNL     1       9.808 -60.266 -21.658  1.00  0.00     0.004 A 
ATOM      9  C   UNL     1      11.306 -58.394 -21.462  1.00  0.00     0.018 A 
ATOM     10  C   UNL     1      10.941 -59.689 -21.098  1.00  0.00     0.001 A 
BRANCH   6  11
ATOM     11  O   UNL     1       8.675 -57.505 -23.864  1.00  0.00    -0.496 OA
ATOM     12  C   UNL     1       7.388 -57.986 -24.242  1.00  0.00     0.278 C 
ENDBRANCH   6  11
ENDBRANCH   1   5
BRANCH   3  13
ATOM     13  C   UNL     1      12.079 -54.867 -24.516  1.00  0.00     0.041 A 
ATOM     14  C   UNL     1      12.809 -54.986 -25.705  1.00  0.00     0.026 A 
ATOM     15  C   UNL     1      11.915 -53.602 -23.950  1.00  0.00     0.032 A 
ATOM     16  C   UNL     1      13.365 -53.862 -26.321  1.00  0.00     0.007 A 
ATOM     17  C   UNL     1      12.483 -52.471 -24.555  1.00  0.00    -0.022 A 
ATOM     18  C   UNL     1      13.210 -52.601 -25.741  1.00  0.00    -0.033 A 
ATOM     19  C   UNL     1      12.288 -51.093 -23.992  1.00  0.00     0.164 C 
ATOM     20  C   UNL     1      13.753 -51.360 -26.393  1.00  0.00     0.136 C 
ATOM     21  N   UNL     1      13.475 -50.269 -24.169  1.00  0.00    -0.274 N 
ATOM     22  C   UNL     1      14.046 -50.208 -25.440  1.00  0.00     0.234 C 
ATOM     23  O   UNL     1      14.767 -49.285 -25.828  1.00  0.00    -0.274 OA
BRANCH  21  24
ATOM     24  C   UNL     1      13.560 -49.173 -23.308  1.00  0.00     0.260 C 
ATOM     25  O   UNL     1      14.460 -49.050 -22.477  1.00  0.00    -0.269 OA
BRANCH  24  26
ATOM     26  C   UNL     1      12.535 -48.096 -23.420  1.00  0.00     0.040 A 
ATOM     27  C   UNL     1      11.606 -47.942 -22.384  1.00  0.00     0.014 A 
ATOM     28  C   UNL     1      12.531 -47.198 -24.495  1.00  0.00     0.014 A 
ATOM     29  C   UNL     1      10.659 -46.918 -22.438  1.00  0.00     0.001 A 
ATOM     30  C   UNL     1      11.581 -46.175 -24.545  1.00  0.00     0.001 A 
ATOM     31  C   UNL     1      10.645 -46.038 -23.519  1.00  0.00     0.000 A 
ENDBRANCH  24  26
ENDBRANCH  21  24
ENDBRANCH   3  13
TORSDOF 5
ENDMDL
MODEL 4
REMARK VINA RESULT:   -10.498      3.156     10.285
REMARK INTER + INTRA:         -14.597
REMARK INTER:                 -13.632
REMARK INTRA:                  -0.965
REMARK UNBOUND:                -1.031
REMARK SMILES COc1ccccc1C(=O)Nc1ccc2c(c1)CN(C(=O)c1ccccc1)C(=O)C2
REMARK SMILES IDX 9 1 10 2 11 3 8 5 3 6 4 7 5 8 7 9 6 10 2 11 1 12 12 13 13 14
REMARK SMILES IDX 17 15 14 16 16 17 15 18 18 19 30 20 19 21 28 22 29 23 20 24
REMARK SMILES IDX 21 25 22 26 23 27 27 28 24 29 26 30 25 31
REMARK H PARENT 11 4
ROOT
ATOM      1  C   UNL     1      10.984 -56.996 -22.581  1.00  0.00     0.259 C 
ATOM      2  O   UNL     1      11.340 -56.891 -21.410  1.00  0.00    -0.269 OA
ATOM      3  N   UNL     1      10.593 -55.945 -23.387  1.00  0.00    -0.322 N 
ATOM      4  H   UNL     1      10.328 -56.197 -24.333  1.00  0.00     0.170 HD
ENDROOT
BRANCH   1   5
ATOM      5  C   UNL     1      10.965 -58.372 -23.205  1.00  0.00     0.082 A 
ATOM      6  C   UNL     1       9.876 -58.930 -23.913  1.00  0.00     0.131 A 
ATOM      7  C   UNL     1       9.998 -60.225 -24.442  1.00  0.00     0.047 A 
ATOM      8  C   UNL     1      11.173 -60.963 -24.277  1.00  0.00     0.004 A 
ATOM      9  C   UNL     1      12.140 -59.134 -23.050  1.00  0.00     0.018 A 
ATOM     10  C   UNL     1      12.244 -60.418 -23.582  1.00  0.00     0.001 A 
BRANCH   6  11
ATOM     11  O   UNL     1       8.741 -58.168 -24.051  1.00  0.00    -0.496 OA
ATOM     12  C   UNL     1       7.505 -58.727 -23.614  1.00  0.00     0.278 C 
ENDBRANCH   6  11
ENDBRANCH   1   5
BRANCH   3  13
ATOM     13  C   UNL     1      10.519 -54.576 -23.064  1.00  0.00     0.041 A 
ATOM     14  C   UNL     1       9.252 -54.063 -22.760  1.00  0.00     0.026 A 
ATOM     15  C   UNL     1      11.620 -53.719 -23.025  1.00  0.00     0.032 A 
ATOM     16  C   UNL     1       9.085 -52.718 -22.422  1.00  0.00     0.007 A 
ATOM     17  C   UNL     1      11.457 -52.364 -22.701  1.00  0.00    -0.022 A 
ATOM     18  C   UNL     1      10.189 -51.862 -22.400  1.00  0.00    -0.033 A 
ATOM     19  C   UNL     1      12.628 -51.428 -22.611  1.00  0.00     0.164 C 
ATOM     20  C   UNL     1      10.061 -50.419 -21.999  1.00  0.00     0.136 C 
ATOM     21  N   UNL     1      12.285 -50.093 -23.079  1.00  0.00    -0.274 N 
ATOM     22  C   UNL     1      11.133 -49.496 -22.565  1.00  0.00     0.234 C 
ATOM     23  O   UNL     1      10.938 -48.278 -22.548  1.00  0.00    -0.274 OA
BRANCH  21  24
ATOM     24  C   UNL     1      13.374 -49.306 -23.455  1.00  0.00     0.260 C 
ATOM     25  O   UNL     1      14.008 -48.621 -22.651  1.00  0.00    -0.269 OA
BRANCH  24  26
ATOM     26  C   UNL     1      13.804 -49.317 -24.882  1.00  0.00     0.040 A 
ATOM     27  C   UNL     1      14.245 -48.120 -25.461  1.00  0.00     0.014 A 
ATOM     28  C   UNL     1      13.844 -50.503 -25.627  1.00  0.00     0.014 A 
ATOM     29  C   UNL     1      14.692 -48.104 -26.783  1.00  0.00     0.001 A 
ATOM     30  C   UNL     1      14.292 -50.481 -26.949  1.00  0.00     0.001 A 
ATOM     31  C   UNL     1      14.712 -49.282 -27.527  1.00  0.00     0.000 A 
ENDBRANCH  24  26
ENDBRANCH  21  24
ENDBRANCH   3  13
TORSDOF 5
ENDMDL
MODEL 5
REMARK VINA RESULT:   -10.406      2.020      9.019
REMARK INTER + INTRA:         -14.479
REMARK INTER:                 -13.840
REMARK INTRA:                  -0.639
REMARK UNBOUND:                -1.031
REMARK SMILES COc1ccccc1C(=O)Nc1ccc2c(c1)CN(C(=O)c1ccccc1)C(=O)C2
REMARK SMILES IDX 9 1 10 2 11 3 8 5 3 6 4 7 5 8 7 9 6 10 2 11 1 12 12 13 13 14
REMARK SMILES IDX 17 15 14 16 16 17 15 18 18 19 30 20 19 21 28 22 29 23 20 24
REMARK SMILES IDX 21 25 22 26 23 27 27 28 24 29 26 30 25 31
REMARK H PARENT 11 4
ROOT
ATOM      1  C   UNL     1       8.887 -60.294 -25.002  1.00  0.00     0.259 C 
ATOM      2  O   UNL     1       7.843 -60.048 -24.402  1.00  0.00    -0.269 OA
ATOM      3  N   UNL     1      10.111 -59.717 -24.729  1.00  0.00    -0.322 N 
ATOM      4  H   UNL     1      10.879 -60.027 -25.316  1.00  0.00     0.170 HD
ENDROOT
BRANCH   1   5
ATOM      5  C   UNL     1       8.847 -61.300 -26.128  1.00  0.00     0.082 A 
ATOM      6  C   UNL     1       9.493 -61.152 -27.376  1.00  0.00     0.131 A 
ATOM      7  C   UNL     1       9.371 -62.172 -28.334  1.00  0.00     0.047 A 
ATOM      8  C   UNL     1       8.622 -63.321 -28.070  1.00  0.00     0.004 A 
ATOM      9  C   UNL     1       8.097 -62.468 -25.883  1.00  0.00     0.018 A 
ATOM     10  C   UNL     1       7.986 -63.471 -26.845  1.00  0.00     0.001 A 
BRANCH   6  11
ATOM     11  O   UNL     1      10.218 -60.005 -27.592  1.00  0.00    -0.496 OA
ATOM     12  C   UNL     1      11.378 -60.094 -28.416  1.00  0.00     0.278 C 
ENDBRANCH   6  11
ENDBRANCH   1   5
BRANCH   3  13
ATOM     13  C   UNL     1      10.428 -58.761 -23.744  1.00  0.00     0.041 A 
ATOM     14  C   UNL     1      10.752 -59.245 -22.471  1.00  0.00     0.026 A 
ATOM     15  C   UNL     1      10.440 -57.383 -23.966  1.00  0.00     0.032 A 
ATOM     16  C   UNL     1      11.086 -58.368 -21.435  1.00  0.00     0.007 A 
ATOM     17  C   UNL     1      10.759 -56.498 -22.926  1.00  0.00    -0.022 A 
ATOM     18  C   UNL     1      11.082 -56.990 -21.659  1.00  0.00    -0.033 A 
ATOM     19  C   UNL     1      10.822 -55.013 -23.145  1.00  0.00     0.164 C 
ATOM     20  C   UNL     1      11.477 -56.015 -20.586  1.00  0.00     0.136 C 
ATOM     21  N   UNL     1      10.354 -54.279 -21.979  1.00  0.00    -0.274 N 
ATOM     22  C   UNL     1      10.885 -54.618 -20.735  1.00  0.00     0.234 C 
ATOM     23  O   UNL     1      10.900 -53.860 -19.762  1.00  0.00    -0.274 OA
BRANCH  21  24
ATOM     24  C   UNL     1       9.952 -52.967 -22.236  1.00  0.00     0.260 C 
ATOM     25  O   UNL     1       8.785 -52.593 -22.110  1.00  0.00    -0.269 OA
BRANCH  24  26
ATOM     26  C   UNL     1      10.981 -51.973 -22.653  1.00  0.00     0.040 A 
ATOM     27  C   UNL     1      10.918 -50.677 -22.126  1.00  0.00     0.014 A 
ATOM     28  C   UNL     1      12.043 -52.328 -23.497  1.00  0.00     0.014 A 
ATOM     29  C   UNL     1      11.889 -49.735 -22.465  1.00  0.00     0.001 A 
ATOM     30  C   UNL     1      13.012 -51.381 -23.833  1.00  0.00     0.001 A 
ATOM     31  C   UNL     1      12.933 -50.085 -23.320  1.00  0.00     0.000 A 
ENDBRANCH  24  26
ENDBRANCH  21  24
ENDBRANCH   3  13
TORSDOF 5
ENDMDL
