MODEL 1
REMARK VINA RESULT:   -11.644      0.000      0.000
REMARK INTER + INTRA:         -15.055
REMARK INTER:                 -15.047
REMARK INTRA:                  -0.008
REMARK UNBOUND:                -0.008
REMARK SMILES O=C(NCCNc1c2c(nc3ccccc13)CCCC2)c1ccc(F)cc1
REMARK SMILES IDX 4 1 5 2 6 3 7 5 8 6 16 7 9 8 20 9 15 10 11 11 10 12 17 13
REMARK SMILES IDX 19 14 14 15 12 16 18 17 13 18 3 19 2 20 1 22 21 23 22 24
REMARK SMILES IDX 27 25 23 26 26 27 24 28 25 29
REMARK H PARENT 6 4 3 21
ROOT
ATOM      1  C   UNL     1      11.184 -58.782 -22.311  1.00  0.00     0.137 C 
ENDROOT
BRANCH   1   2
ATOM      2  C   UNL     1      12.236 -59.472 -23.195  1.00  0.00     0.134 C 
BRANCH   2   3
ATOM      3  N   UNL     1      11.933 -60.911 -23.301  1.00  0.00    -0.382 N 
ATOM      4  H   UNL     1      12.776 -61.418 -23.567  1.00  0.00     0.160 HD
BRANCH   3   5
ATOM      5  C   UNL     1      10.916 -61.148 -24.274  1.00  0.00     0.049 A 
ATOM      6  C   UNL     1       9.747 -61.848 -23.946  1.00  0.00    -0.003 A 
ATOM      7  C   UNL     1      11.135 -60.760 -25.626  1.00  0.00     0.024 A 
ATOM      8  C   UNL     1       8.828 -62.093 -24.970  1.00  0.00     0.046 A 
ATOM      9  C   UNL     1       9.371 -62.317 -22.565  1.00  0.00     0.039 C 
ATOM     10  C   UNL     1      12.286 -60.056 -26.056  1.00  0.00     0.012 A 
ATOM     11  C   UNL     1      10.142 -61.079 -26.575  1.00  0.00     0.073 A 
ATOM     12  N   UNL     1       9.012 -61.725 -26.256  1.00  0.00    -0.252 NA
ATOM     13  C   UNL     1       7.537 -62.790 -24.624  1.00  0.00     0.056 C 
ATOM     14  C   UNL     1       8.789 -63.735 -22.592  1.00  0.00     0.005 C 
ATOM     15  C   UNL     1      12.457 -59.692 -27.390  1.00  0.00     0.001 A 
ATOM     16  C   UNL     1      10.335 -60.708 -27.899  1.00  0.00     0.029 A 
ATOM     17  C   UNL     1       7.800 -64.002 -23.735  1.00  0.00     0.007 C 
ATOM     18  C   UNL     1      11.478 -60.023 -28.317  1.00  0.00     0.002 A 
ENDBRANCH   3   5
ENDBRANCH   2   3
ENDBRANCH   1   2
BRANCH   1  19
ATOM     19  N   UNL     1      11.374 -57.345 -22.214  1.00  0.00    -0.350 N 
ATOM     20  C   UNL     1      10.486 -56.475 -22.812  1.00  0.00     0.251 C 
ATOM     21  H   UNL     1      12.019 -57.001 -21.515  1.00  0.00     0.163 HD
ATOM     22  O   UNL     1       9.519 -56.850 -23.464  1.00  0.00    -0.269 OA
BRANCH  20  23
ATOM     23  C   UNL     1      10.726 -55.022 -22.589  1.00  0.00     0.040 A 
ATOM     24  C   UNL     1      11.269 -54.270 -23.642  1.00  0.00     0.017 A 
ATOM     25  C   UNL     1      10.450 -54.402 -21.362  1.00  0.00     0.017 A 
ATOM     26  C   UNL     1      11.512 -52.905 -23.475  1.00  0.00     0.040 A 
ATOM     27  C   UNL     1      10.696 -53.036 -21.201  1.00  0.00     0.040 A 
ATOM     28  C   UNL     1      11.220 -52.300 -22.258  1.00  0.00     0.123 A 
ATOM     29  F   UNL     1      11.455 -50.992 -22.098  1.00  0.00    -0.207 F 
ENDBRANCH  20  23
ENDBRANCH   1  19
TORSDOF 5
ENDMDL
MODEL 2
REMARK VINA RESULT:   -11.454      1.710      4.041
REMARK INTER + INTRA:         -14.810
REMARK INTER:                 -14.172
REMARK INTRA:                  -0.638
REMARK UNBOUND:                -0.008
REMARK SMILES O=C(NCCNc1c2c(nc3ccccc13)CCCC2)c1ccc(F)cc1
REMARK SMILES IDX 4 1 5 2 6 3 7 5 8 6 16 7 9 8 20 9 15 10 11 11 10 12 17 13
REMARK SMILES IDX 19 14 14 15 12 16 18 17 13 18 3 19 2 20 1 22 21 23 22 24
REMARK SMILES IDX 27 25 23 26 26 27 24 28 25 29
REMARK H PARENT 6 4 3 21
ROOT
ATOM      1  C   UNL     1      12.269 -59.587 -23.197  1.00  0.00     0.137 C 
ENDROOT
BRANCH   1   2
ATOM      2  C   UNL     1      11.305 -60.515 -23.953  1.00  0.00     0.134 C 
BRANCH   2   3
ATOM      3  N   UNL     1      10.438 -59.719 -24.841  1.00  0.00    -0.382 N 
ATOM      4  H   UNL     1       9.487 -59.713 -24.474  1.00  0.00     0.160 HD
BRANCH   3   5
ATOM      5  C   UNL     1      10.427 -60.260 -26.162  1.00  0.00     0.049 A 
ATOM      6  C   UNL     1      11.227 -59.714 -27.176  1.00  0.00    -0.003 A 
ATOM      7  C   UNL     1       9.516 -61.304 -26.485  1.00  0.00     0.024 A 
ATOM      8  C   UNL     1      11.114 -60.260 -28.458  1.00  0.00     0.046 A 
ATOM      9  C   UNL     1      12.240 -58.615 -26.990  1.00  0.00     0.039 C 
ATOM     10  C   UNL     1       8.665 -61.915 -25.533  1.00  0.00     0.012 A 
ATOM     11  C   UNL     1       9.480 -61.760 -27.819  1.00  0.00     0.073 A 
ATOM     12  N   UNL     1      10.263 -61.256 -28.782  1.00  0.00    -0.252 NA
ATOM     13  C   UNL     1      12.009 -59.727 -29.546  1.00  0.00     0.056 C 
ATOM     14  C   UNL     1      12.177 -57.592 -28.129  1.00  0.00     0.005 C 
ATOM     15  C   UNL     1       7.790 -62.938 -25.894  1.00  0.00     0.001 A 
ATOM     16  C   UNL     1       8.599 -62.780 -28.155  1.00  0.00     0.029 A 
ATOM     17  C   UNL     1      12.027 -58.201 -29.531  1.00  0.00     0.007 C 
ATOM     18  C   UNL     1       7.754 -63.370 -27.212  1.00  0.00     0.002 A 
ENDBRANCH   3   5
ENDBRANCH   2   3
ENDBRANCH   1   2
BRANCH   1  19
ATOM     19  N   UNL     1      11.862 -58.192 -23.230  1.00  0.00    -0.350 N 
ATOM     20  C   UNL     1      11.444 -57.553 -22.081  1.00  0.00     0.251 C 
ATOM     21  H   UNL     1      12.112 -57.647 -24.044  1.00  0.00     0.163 HD
ATOM     22  O   UNL     1      11.372 -58.112 -20.993  1.00  0.00    -0.269 OA
BRANCH  20  23
ATOM     23  C   UNL     1      11.121 -56.104 -22.205  1.00  0.00     0.040 A 
ATOM     24  C   UNL     1      11.064 -55.544 -23.490  1.00  0.00     0.017 A 
ATOM     25  C   UNL     1      10.903 -55.292 -21.082  1.00  0.00     0.017 A 
ATOM     26  C   UNL     1      10.767 -54.189 -23.652  1.00  0.00     0.040 A 
ATOM     27  C   UNL     1      10.607 -53.937 -21.250  1.00  0.00     0.040 A 
ATOM     28  C   UNL     1      10.538 -53.400 -22.531  1.00  0.00     0.123 A 
ATOM     29  F   UNL     1      10.255 -52.101 -22.686  1.00  0.00    -0.207 F 
ENDBRANCH  20  23
ENDBRANCH   1  19
TORSDOF 5
ENDMDL
MODEL 3
REMARK VINA RESULT:   -11.385      0.504      3.496
REMARK INTER + INTRA:         -14.720
REMARK INTER:                 -14.821
REMARK INTRA:                   0.101
REMARK UNBOUND:                -0.008
REMARK SMILES O=C(NCCNc1c2c(nc3ccccc13)CCCC2)c1ccc(F)cc1
REMARK SMILES IDX 4 1 5 2 6 3 7 5 8 6 16 7 9 8 20 9 15 10 11 11 10 12 17 13
REMARK SMILES IDX 19 14 14 15 12 16 18 17 13 18 3 19 2 20 1 22 21 23 22 24
REMARK SMILES IDX 27 25 23 26 26 27 24 28 25 29
REMARK H PARENT 6 4 3 21
ROOT
ATOM      1  C   UNL     1      11.148 -58.965 -22.433  1.00  0.00     0.137 C 
ENDROOT
BRANCH   1   2
ATOM      2  C   UNL     1      12.208 -59.737 -23.235  1.00  0.00     0.134 C 
BRANCH   2   3
ATOM      3  N   UNL     1      11.833 -61.161 -23.319  1.00  0.00    -0.382 N 
ATOM      4  H   UNL     1      12.674 -61.732 -23.387  1.00  0.00     0.160 HD
BRANCH   3   5
ATOM      5  C   UNL     1      11.008 -61.403 -24.458  1.00  0.00     0.049 A 
ATOM      6  C   UNL     1      11.315 -60.846 -25.708  1.00  0.00    -0.003 A 
ATOM      7  C   UNL     1       9.797 -62.135 -24.305  1.00  0.00     0.024 A 
ATOM      8  C   UNL     1      10.424 -61.079 -26.759  1.00  0.00     0.046 A 
ATOM      9  C   UNL     1      12.557 -60.056 -26.028  1.00  0.00     0.039 C 
ATOM     10  C   UNL     1       9.397 -62.729 -23.084  1.00  0.00     0.012 A 
ATOM     11  C   UNL     1       8.969 -62.287 -25.436  1.00  0.00     0.073 A 
ATOM     12  N   UNL     1       9.276 -61.777 -26.637  1.00  0.00    -0.252 NA
ATOM     13  C   UNL     1      10.769 -60.540 -28.123  1.00  0.00     0.056 C 
ATOM     14  C   UNL     1      12.238 -58.831 -26.892  1.00  0.00     0.005 C 
ATOM     15  C   UNL     1       8.203 -63.441 -22.981  1.00  0.00     0.001 A 
ATOM     16  C   UNL     1       7.784 -63.000 -25.309  1.00  0.00     0.029 A 
ATOM     17  C   UNL     1      11.239 -59.091 -28.029  1.00  0.00     0.007 C 
ATOM     18  C   UNL     1       7.391 -63.574 -24.098  1.00  0.00     0.002 A 
ENDBRANCH   3   5
ENDBRANCH   2   3
ENDBRANCH   1   2
BRANCH   1  19
ATOM     19  N   UNL     1      11.372 -57.530 -22.423  1.00  0.00    -0.350 N 
ATOM     20  C   UNL     1      10.401 -56.662 -22.877  1.00  0.00     0.251 C 
ATOM     21  H   UNL     1      12.140 -57.176 -21.868  1.00  0.00     0.163 HD
ATOM     22  O   UNL     1       9.324 -57.039 -23.325  1.00  0.00    -0.269 OA
BRANCH  20  23
ATOM     23  C   UNL     1      10.697 -55.208 -22.754  1.00  0.00     0.040 A 
ATOM     24  C   UNL     1      11.374 -54.577 -23.809  1.00  0.00     0.017 A 
ATOM     25  C   UNL     1      10.344 -54.470 -21.615  1.00  0.00     0.017 A 
ATOM     26  C   UNL     1      11.674 -53.215 -23.734  1.00  0.00     0.040 A 
ATOM     27  C   UNL     1      10.647 -53.108 -21.545  1.00  0.00     0.040 A 
ATOM     28  C   UNL     1      11.305 -52.493 -22.606  1.00  0.00     0.123 A 
ATOM     29  F   UNL     1      11.594 -51.188 -22.533  1.00  0.00    -0.207 F 
ENDBRANCH  20  23
ENDBRANCH   1  19
TORSDOF 5
ENDMDL
MODEL 4
REMARK VINA RESULT:   -11.345      1.597      4.029
REMARK INTER + INTRA:         -14.668
REMARK INTER:                 -13.942
REMARK INTRA:                  -0.726
REMARK UNBOUND:                -0.008
REMARK SMILES O=C(NCCNc1c2c(nc3ccccc13)CCCC2)c1ccc(F)cc1
REMARK SMILES IDX 4 1 5 2 6 3 7 5 8 6 16 7 9 8 20 9 15 10 11 11 10 12 17 13
REMARK SMILES IDX 19 14 14 15 12 16 18 17 13 18 3 19 2 20 1 22 21 23 22 24
REMARK SMILES IDX 27 25 23 26 26 27 24 28 25 29
REMARK H PARENT 6 4 3 21
ROOT
ATOM      1  C   UNL     1      10.681 -58.153 -22.733  1.00  0.00     0.137 C 
ENDROOT
BRANCH   1   2
ATOM      2  C   UNL     1       9.897 -59.059 -23.697  1.00  0.00     0.134 C 
BRANCH   2   3
ATOM      3  N   UNL     1      10.692 -60.262 -24.010  1.00  0.00    -0.382 N 
ATOM      4  H   UNL     1      11.682 -60.059 -23.878  1.00  0.00     0.160 HD
BRANCH   3   5
ATOM      5  C   UNL     1      10.474 -60.680 -25.357  1.00  0.00     0.049 A 
ATOM      6  C   UNL     1      11.186 -60.104 -26.419  1.00  0.00    -0.003 A 
ATOM      7  C   UNL     1       9.446 -61.621 -25.642  1.00  0.00     0.024 A 
ATOM      8  C   UNL     1      10.870 -60.522 -27.715  1.00  0.00     0.046 A 
ATOM      9  C   UNL     1      12.302 -59.103 -26.279  1.00  0.00     0.039 C 
ATOM     10  C   UNL     1       8.670 -62.252 -24.640  1.00  0.00     0.012 A 
ATOM     11  C   UNL     1       9.207 -61.951 -26.992  1.00  0.00     0.073 A 
ATOM     12  N   UNL     1       9.905 -61.420 -28.005  1.00  0.00    -0.252 NA
ATOM     13  C   UNL     1      11.666 -59.960 -28.864  1.00  0.00     0.056 C 
ATOM     14  C   UNL     1      12.185 -57.979 -27.314  1.00  0.00     0.005 C 
ATOM     15  C   UNL     1       7.675 -63.171 -24.965  1.00  0.00     0.001 A 
ATOM     16  C   UNL     1       8.209 -62.870 -27.292  1.00  0.00     0.029 A 
ATOM     17  C   UNL     1      11.813 -58.447 -28.729  1.00  0.00     0.007 C 
ATOM     18  C   UNL     1       7.441 -63.479 -26.297  1.00  0.00     0.002 A 
ENDBRANCH   3   5
ENDBRANCH   2   3
ENDBRANCH   1   2
BRANCH   1  19
ATOM     19  N   UNL     1      11.262 -56.993 -23.386  1.00  0.00    -0.350 N 
ATOM     20  C   UNL     1      10.793 -55.724 -23.115  1.00  0.00     0.251 C 
ATOM     21  H   UNL     1      12.153 -57.109 -23.850  1.00  0.00     0.163 HD
ATOM     22  O   UNL     1       9.867 -55.504 -22.343  1.00  0.00    -0.269 OA
BRANCH  20  23
ATOM     23  C   UNL     1      11.505 -54.596 -23.777  1.00  0.00     0.040 A 
ATOM     24  C   UNL     1      11.465 -53.334 -23.164  1.00  0.00     0.017 A 
ATOM     25  C   UNL     1      12.182 -54.756 -24.995  1.00  0.00     0.017 A 
ATOM     26  C   UNL     1      12.116 -52.248 -23.752  1.00  0.00     0.040 A 
ATOM     27  C   UNL     1      12.832 -53.665 -25.579  1.00  0.00     0.040 A 
ATOM     28  C   UNL     1      12.796 -52.424 -24.951  1.00  0.00     0.123 A 
ATOM     29  F   UNL     1      13.419 -51.383 -25.516  1.00  0.00    -0.207 F 
ENDBRANCH  20  23
ENDBRANCH   1  19
TORSDOF 5
ENDMDL
MODEL 5
REMARK VINA RESULT:   -10.632      3.739      8.875
REMARK INTER + INTRA:         -13.748
REMARK INTER:                 -13.445
REMARK INTRA:                  -0.303
REMARK UNBOUND:                -0.008
REMARK SMILES O=C(NCCNc1c2c(nc3ccccc13)CCCC2)c1ccc(F)cc1
REMARK SMILES IDX 4 1 5 2 6 3 7 5 8 6 16 7 9 8 20 9 15 10 11 11 10 12 17 13
REMARK SMILES IDX 19 14 14 15 12 16 18 17 13 18 3 19 2 20 1 22 21 23 22 24
REMARK SMILES IDX 27 25 23 26 26 27 24 28 25 29
REMARK H PARENT 6 4 3 21
ROOT
ATOM      1  C   UNL     1      12.863 -55.734 -26.116  1.00  0.00     0.137 C 
ENDROOT
BRANCH   1   2
ATOM      2  C   UNL     1      12.482 -54.245 -26.066  1.00  0.00     0.134 C 
BRANCH   2   3
ATOM      3  N   UNL     1      13.569 -53.473 -25.437  1.00  0.00    -0.382 N 
ATOM      4  H   UNL     1      14.080 -54.070 -24.788  1.00  0.00     0.160 HD
BRANCH   3   5
ATOM      5  C   UNL     1      13.050 -52.348 -24.728  1.00  0.00     0.049 A 
ATOM      6  C   UNL     1      12.112 -52.509 -23.698  1.00  0.00    -0.003 A 
ATOM      7  C   UNL     1      13.407 -51.033 -25.140  1.00  0.00     0.024 A 
ATOM      8  C   UNL     1      11.604 -51.355 -23.095  1.00  0.00     0.046 A 
ATOM      9  C   UNL     1      11.640 -53.830 -23.149  1.00  0.00     0.039 C 
ATOM     10  C   UNL     1      14.339 -50.768 -26.172  1.00  0.00     0.012 A 
ATOM     11  C   UNL     1      12.814 -49.945 -24.466  1.00  0.00     0.073 A 
ATOM     12  N   UNL     1      11.938 -50.100 -23.464  1.00  0.00    -0.252 NA
ATOM     13  C   UNL     1      10.643 -51.510 -21.946  1.00  0.00     0.056 C 
ATOM     14  C   UNL     1      10.126 -53.832 -22.912  1.00  0.00     0.005 C 
ATOM     15  C   UNL     1      14.662 -49.463 -26.539  1.00  0.00     0.001 A 
ATOM     16  C   UNL     1      13.151 -48.654 -24.851  1.00  0.00     0.029 A 
ATOM     17  C   UNL     1       9.574 -52.550 -22.273  1.00  0.00     0.007 C 
ATOM     18  C   UNL     1      14.063 -48.401 -25.878  1.00  0.00     0.002 A 
ENDBRANCH   3   5
ENDBRANCH   2   3
ENDBRANCH   1   2
BRANCH   1  19
ATOM     19  N   UNL     1      12.335 -56.495 -24.997  1.00  0.00    -0.350 N 
ATOM     20  C   UNL     1      12.040 -57.836 -25.133  1.00  0.00     0.251 C 
ATOM     21  H   UNL     1      12.411 -56.092 -24.073  1.00  0.00     0.163 HD
ATOM     22  O   UNL     1      12.181 -58.448 -26.186  1.00  0.00    -0.269 OA
BRANCH  20  23
ATOM     23  C   UNL     1      11.577 -58.544 -23.908  1.00  0.00     0.040 A 
ATOM     24  C   UNL     1      11.434 -57.803 -22.726  1.00  0.00     0.017 A 
ATOM     25  C   UNL     1      11.309 -59.921 -23.902  1.00  0.00     0.017 A 
ATOM     26  C   UNL     1      11.005 -58.428 -21.553  1.00  0.00     0.040 A 
ATOM     27  C   UNL     1      10.880 -60.542 -22.725  1.00  0.00     0.040 A 
ATOM     28  C   UNL     1      10.728 -59.790 -21.565  1.00  0.00     0.123 A 
ATOM     29  F   UNL     1      10.318 -60.389 -20.441  1.00  0.00    -0.207 F 
ENDBRANCH  20  23
ENDBRANCH   1  19
TORSDOF 5
ENDMDL
MODEL 6
REMARK VINA RESULT:   -10.632      1.505      2.032
REMARK INTER + INTRA:         -13.747
REMARK INTER:                 -13.338
REMARK INTRA:                  -0.409
REMARK UNBOUND:                -0.008
REMARK SMILES O=C(NCCNc1c2c(nc3ccccc13)CCCC2)c1ccc(F)cc1
REMARK SMILES IDX 4 1 5 2 6 3 7 5 8 6 16 7 9 8 20 9 15 10 11 11 10 12 17 13
REMARK SMILES IDX 19 14 14 15 12 16 18 17 13 18 3 19 2 20 1 22 21 23 22 24
REMARK SMILES IDX 27 25 23 26 26 27 24 28 25 29
REMARK H PARENT 6 4 3 21
ROOT
ATOM      1  C   UNL     1      10.852 -57.306 -22.471  1.00  0.00     0.137 C 
ENDROOT
BRANCH   1   2
ATOM      2  C   UNL     1      10.034 -58.278 -23.337  1.00  0.00     0.134 C 
BRANCH   2   3
ATOM      3  N   UNL     1      10.819 -59.500 -23.594  1.00  0.00    -0.382 N 
ATOM      4  H   UNL     1      11.763 -59.244 -23.881  1.00  0.00     0.160 HD
BRANCH   3   5
ATOM      5  C   UNL     1      10.215 -60.287 -24.620  1.00  0.00     0.049 A 
ATOM      6  C   UNL     1       9.248 -61.256 -24.315  1.00  0.00    -0.003 A 
ATOM      7  C   UNL     1      10.672 -60.163 -25.961  1.00  0.00     0.024 A 
ATOM      8  C   UNL     1       8.749 -62.029 -25.368  1.00  0.00     0.046 A 
ATOM      9  C   UNL     1       8.661 -61.502 -22.950  1.00  0.00     0.039 C 
ATOM     10  C   UNL     1      11.648 -59.220 -26.366  1.00  0.00     0.012 A 
ATOM     11  C   UNL     1      10.106 -61.012 -26.934  1.00  0.00     0.073 A 
ATOM     12  N   UNL     1       9.163 -61.920 -26.647  1.00  0.00    -0.252 NA
ATOM     13  C   UNL     1       7.666 -63.032 -25.069  1.00  0.00     0.056 C 
ATOM     14  C   UNL     1       8.535 -63.000 -22.654  1.00  0.00     0.005 C 
ATOM     15  C   UNL     1      12.064 -59.131 -27.693  1.00  0.00     0.001 A 
ATOM     16  C   UNL     1      10.537 -60.906 -28.251  1.00  0.00     0.029 A 
ATOM     17  C   UNL     1       8.010 -63.845 -23.824  1.00  0.00     0.007 C 
ATOM     18  C   UNL     1      11.508 -59.980 -28.639  1.00  0.00     0.002 A 
ENDBRANCH   3   5
ENDBRANCH   2   3
ENDBRANCH   1   2
BRANCH   1  19
ATOM     19  N   UNL     1      11.377 -56.178 -23.221  1.00  0.00    -0.350 N 
ATOM     20  C   UNL     1      11.085 -54.884 -22.843  1.00  0.00     0.251 C 
ATOM     21  H   UNL     1      12.137 -56.352 -23.865  1.00  0.00     0.163 HD
ATOM     22  O   UNL     1      10.365 -54.612 -21.888  1.00  0.00    -0.269 OA
BRANCH  20  23
ATOM     23  C   UNL     1      11.733 -53.798 -23.629  1.00  0.00     0.040 A 
ATOM     24  C   UNL     1      11.739 -52.502 -23.092  1.00  0.00     0.017 A 
ATOM     25  C   UNL     1      12.305 -54.031 -24.888  1.00  0.00     0.017 A 
ATOM     26  C   UNL     1      12.334 -51.453 -23.798  1.00  0.00     0.040 A 
ATOM     27  C   UNL     1      12.899 -52.978 -25.590  1.00  0.00     0.040 A 
ATOM     28  C   UNL     1      12.911 -51.702 -25.037  1.00  0.00     0.123 A 
ATOM     29  F   UNL     1      13.479 -50.697 -25.714  1.00  0.00    -0.207 F 
ENDBRANCH  20  23
ENDBRANCH   1  19
TORSDOF 5
ENDMDL
MODEL 7
REMARK VINA RESULT:   -10.444      5.077     10.832
REMARK INTER + INTRA:         -13.505
REMARK INTER:                 -12.606
REMARK INTRA:                  -0.899
REMARK UNBOUND:                -0.008
REMARK SMILES O=C(NCCNc1c2c(nc3ccccc13)CCCC2)c1ccc(F)cc1
REMARK SMILES IDX 4 1 5 2 6 3 7 5 8 6 16 7 9 8 20 9 15 10 11 11 10 12 17 13
REMARK SMILES IDX 19 14 14 15 12 16 18 17 13 18 3 19 2 20 1 22 21 23 22 24
REMARK SMILES IDX 27 25 23 26 26 27 24 28 25 29
REMARK H PARENT 6 4 3 21
ROOT
ATOM      1  C   UNL     1       9.508 -51.392 -21.807  1.00  0.00     0.137 C 
ENDROOT
BRANCH   1   2
ATOM      2  C   UNL     1      10.016 -50.073 -22.414  1.00  0.00     0.134 C 
BRANCH   2   3
ATOM      3  N   UNL     1      11.440 -49.885 -22.078  1.00  0.00    -0.382 N 
ATOM      4  H   UNL     1      11.519 -49.355 -21.211  1.00  0.00     0.160 HD
BRANCH   3   5
ATOM      5  C   UNL     1      12.121 -49.186 -23.119  1.00  0.00     0.049 A 
ATOM      6  C   UNL     1      12.093 -47.786 -23.191  1.00  0.00    -0.003 A 
ATOM      7  C   UNL     1      12.751 -49.920 -24.162  1.00  0.00     0.024 A 
ATOM      8  C   UNL     1      12.731 -47.178 -24.276  1.00  0.00     0.046 A 
ATOM      9  C   UNL     1      11.473 -46.873 -22.166  1.00  0.00     0.039 C 
ATOM     10  C   UNL     1      12.826 -51.334 -24.182  1.00  0.00     0.012 A 
ATOM     11  C   UNL     1      13.347 -49.195 -25.215  1.00  0.00     0.073 A 
ATOM     12  N   UNL     1      13.342 -47.856 -25.270  1.00  0.00    -0.252 NA
ATOM     13  C   UNL     1      12.764 -45.673 -24.337  1.00  0.00     0.056 C 
ATOM     14  C   UNL     1      10.689 -45.734 -22.827  1.00  0.00     0.005 C 
ATOM     15  C   UNL     1      13.458 -52.012 -25.223  1.00  0.00     0.001 A 
ATOM     16  C   UNL     1      13.970 -49.893 -26.242  1.00  0.00     0.029 A 
ATOM     17  C   UNL     1      11.387 -45.090 -24.033  1.00  0.00     0.007 C 
ATOM     18  C   UNL     1      14.029 -51.288 -26.260  1.00  0.00     0.002 A 
ENDBRANCH   3   5
ENDBRANCH   2   3
ENDBRANCH   1   2
BRANCH   1  19
ATOM     19  N   UNL     1      10.049 -52.568 -22.465  1.00  0.00    -0.350 N 
ATOM     20  C   UNL     1      10.465 -53.659 -21.730  1.00  0.00     0.251 C 
ATOM     21  H   UNL     1       9.896 -52.665 -23.460  1.00  0.00     0.163 HD
ATOM     22  O   UNL     1      10.426 -53.693 -20.505  1.00  0.00    -0.269 OA
BRANCH  20  23
ATOM     23  C   UNL     1      10.932 -54.844 -22.501  1.00  0.00     0.040 A 
ATOM     24  C   UNL     1      10.935 -56.093 -21.862  1.00  0.00     0.017 A 
ATOM     25  C   UNL     1      11.388 -54.738 -23.823  1.00  0.00     0.017 A 
ATOM     26  C   UNL     1      11.368 -57.230 -22.548  1.00  0.00     0.040 A 
ATOM     27  C   UNL     1      11.820 -55.879 -24.505  1.00  0.00     0.040 A 
ATOM     28  C   UNL     1      11.802 -57.113 -23.863  1.00  0.00     0.123 A 
ATOM     29  F   UNL     1      12.218 -58.203 -24.520  1.00  0.00    -0.207 F 
ENDBRANCH  20  23
ENDBRANCH   1  19
TORSDOF 5
ENDMDL
MODEL 8
REMARK VINA RESULT:   -10.397      3.720      9.516
REMARK INTER + INTRA:         -13.444
REMARK INTER:                 -13.136
REMARK INTRA:                  -0.308
REMARK UNBOUND:                -0.008
REMARK SMILES O=C(NCCNc1c2c(nc3ccccc13)CCCC2)c1ccc(F)cc1
REMARK SMILES IDX 4 1 5 2 6 3 7 5 8 6 16 7 9 8 20 9 15 10 11 11 10 12 17 13
REMARK SMILES IDX 19 14 14 15 12 16 18 17 13 18 3 19 2 20 1 22 21 23 22 24
REMARK SMILES IDX 27 25 23 26 26 27 24 28 25 29
REMARK H PARENT 6 4 3 21
ROOT
ATOM      1  C   UNL     1      12.876 -55.811 -26.132  1.00  0.00     0.137 C 
ENDROOT
BRANCH   1   2
ATOM      2  C   UNL     1      12.498 -54.321 -26.148  1.00  0.00     0.134 C 
BRANCH   2   3
ATOM      3  N   UNL     1      13.555 -53.531 -25.490  1.00  0.00    -0.382 N 
ATOM      4  H   UNL     1      14.027 -54.106 -24.794  1.00  0.00     0.160 HD
BRANCH   3   5
ATOM      5  C   UNL     1      13.006 -52.378 -24.852  1.00  0.00     0.049 A 
ATOM      6  C   UNL     1      13.356 -51.084 -25.266  1.00  0.00    -0.003 A 
ATOM      7  C   UNL     1      12.172 -52.538 -23.711  1.00  0.00     0.024 A 
ATOM      8  C   UNL     1      12.825 -50.008 -24.550  1.00  0.00     0.046 A 
ATOM      9  C   UNL     1      14.220 -50.754 -26.455  1.00  0.00     0.039 C 
ATOM     10  C   UNL     1      11.770 -53.801 -23.213  1.00  0.00     0.012 A 
ATOM     11  C   UNL     1      11.712 -51.375 -23.060  1.00  0.00     0.073 A 
ATOM     12  N   UNL     1      12.025 -50.138 -23.471  1.00  0.00    -0.252 NA
ATOM     13  C   UNL     1      13.140 -48.611 -25.018  1.00  0.00     0.056 C 
ATOM     14  C   UNL     1      15.214 -49.633 -26.133  1.00  0.00     0.005 C 
ATOM     15  C   UNL     1      10.948 -53.910 -22.093  1.00  0.00     0.001 A 
ATOM     16  C   UNL     1      10.895 -51.509 -21.944  1.00  0.00     0.029 A 
ATOM     17  C   UNL     1      14.628 -48.467 -25.325  1.00  0.00     0.007 C 
ATOM     18  C   UNL     1      10.511 -52.759 -21.454  1.00  0.00     0.002 A 
ENDBRANCH   3   5
ENDBRANCH   2   3
ENDBRANCH   1   2
BRANCH   1  19
ATOM     19  N   UNL     1      12.348 -56.521 -24.979  1.00  0.00    -0.350 N 
ATOM     20  C   UNL     1      12.018 -57.858 -25.066  1.00  0.00     0.251 C 
ATOM     21  H   UNL     1      12.450 -56.089 -24.071  1.00  0.00     0.163 HD
ATOM     22  O   UNL     1      12.127 -58.508 -26.100  1.00  0.00    -0.269 OA
BRANCH  20  23
ATOM     23  C   UNL     1      11.558 -58.513 -23.811  1.00  0.00     0.040 A 
ATOM     24  C   UNL     1      11.433 -57.725 -22.657  1.00  0.00     0.017 A 
ATOM     25  C   UNL     1      11.277 -59.886 -23.748  1.00  0.00     0.017 A 
ATOM     26  C   UNL     1      11.006 -58.299 -21.458  1.00  0.00     0.040 A 
ATOM     27  C   UNL     1      10.852 -60.456 -22.545  1.00  0.00     0.040 A 
ATOM     28  C   UNL     1      10.717 -59.658 -21.414  1.00  0.00     0.123 A 
ATOM     29  F   UNL     1      10.310 -60.209 -20.264  1.00  0.00    -0.207 F 
ENDBRANCH  20  23
ENDBRANCH   1  19
TORSDOF 5
ENDMDL
MODEL 9
REMARK VINA RESULT:   -10.290      4.520     10.469
REMARK INTER + INTRA:         -13.306
REMARK INTER:                 -13.042
REMARK INTRA:                  -0.263
REMARK UNBOUND:                -0.008
REMARK SMILES O=C(NCCNc1c2c(nc3ccccc13)CCCC2)c1ccc(F)cc1
REMARK SMILES IDX 4 1 5 2 6 3 7 5 8 6 16 7 9 8 20 9 15 10 11 11 10 12 17 13
REMARK SMILES IDX 19 14 14 15 12 16 18 17 13 18 3 19 2 20 1 22 21 23 22 24
REMARK SMILES IDX 27 25 23 26 26 27 24 28 25 29
REMARK H PARENT 6 4 3 21
ROOT
ATOM      1  C   UNL     1      10.928 -52.922 -22.303  1.00  0.00     0.137 C 
ENDROOT
BRANCH   1   2
ATOM      2  C   UNL     1      12.041 -52.572 -23.305  1.00  0.00     0.134 C 
BRANCH   2   3
ATOM      3  N   UNL     1      12.885 -51.494 -22.759  1.00  0.00    -0.382 N 
ATOM      4  H   UNL     1      12.418 -51.069 -21.958  1.00  0.00     0.160 HD
BRANCH   3   5
ATOM      5  C   UNL     1      13.131 -50.491 -23.744  1.00  0.00     0.049 A 
ATOM      6  C   UNL     1      14.137 -50.654 -24.708  1.00  0.00    -0.003 A 
ATOM      7  C   UNL     1      12.419 -49.261 -23.687  1.00  0.00     0.024 A 
ATOM      8  C   UNL     1      14.359 -49.600 -25.599  1.00  0.00     0.046 A 
ATOM      9  C   UNL     1      14.969 -51.894 -24.898  1.00  0.00     0.039 C 
ATOM     10  C   UNL     1      11.392 -49.000 -22.748  1.00  0.00     0.012 A 
ATOM     11  C   UNL     1      12.744 -48.264 -24.630  1.00  0.00     0.073 A 
ATOM     12  N   UNL     1      13.687 -48.430 -25.568  1.00  0.00    -0.252 NA
ATOM     13  C   UNL     1      15.392 -49.781 -26.680  1.00  0.00     0.056 C 
ATOM     14  C   UNL     1      16.442 -51.551 -25.145  1.00  0.00     0.005 C 
ATOM     15  C   UNL     1      10.717 -47.781 -22.732  1.00  0.00     0.001 A 
ATOM     16  C   UNL     1      12.059 -47.056 -24.594  1.00  0.00     0.029 A 
ATOM     17  C   UNL     1      16.675 -50.376 -26.106  1.00  0.00     0.007 C 
ATOM     18  C   UNL     1      11.055 -46.803 -23.657  1.00  0.00     0.002 A 
ENDBRANCH   3   5
ENDBRANCH   2   3
ENDBRANCH   1   2
BRANCH   1  19
ATOM     19  N   UNL     1      10.853 -54.341 -22.006  1.00  0.00    -0.350 N 
ATOM     20  C   UNL     1      10.324 -55.227 -22.922  1.00  0.00     0.251 C 
ATOM     21  H   UNL     1      11.402 -54.691 -21.232  1.00  0.00     0.163 HD
ATOM     22  O   UNL     1       9.876 -54.876 -24.008  1.00  0.00    -0.269 OA
BRANCH  20  23
ATOM     23  C   UNL     1      10.363 -56.669 -22.554  1.00  0.00     0.040 A 
ATOM     24  C   UNL     1      11.320 -57.091 -21.619  1.00  0.00     0.017 A 
ATOM     25  C   UNL     1       9.494 -57.607 -23.131  1.00  0.00     0.017 A 
ATOM     26  C   UNL     1      11.393 -58.435 -21.247  1.00  0.00     0.040 A 
ATOM     27  C   UNL     1       9.571 -58.951 -22.755  1.00  0.00     0.040 A 
ATOM     28  C   UNL     1      10.516 -59.351 -21.815  1.00  0.00     0.123 A 
ATOM     29  F   UNL     1      10.586 -60.639 -21.460  1.00  0.00    -0.207 F 
ENDBRANCH  20  23
ENDBRANCH   1  19
TORSDOF 5
ENDMDL
