MODEL 1
REMARK VINA RESULT:   -11.178      0.000      0.000
REMARK INTER + INTRA:         -13.770
REMARK INTER:                 -13.139
REMARK INTRA:                  -0.631
REMARK UNBOUND:                -0.631
REMARK SMILES Oc1ccc([C@@H]2CC(c3c4ccccc4cc4ccccc34)=NN2)c(O)c1
REMARK SMILES IDX 2 1 3 2 4 3 5 4 25 5 27 6 1 7 26 9 6 11 7 12 24 13 8 14
REMARK SMILES IDX 23 15 9 17 10 18 22 19 11 20 15 21 21 22 17 23 12 24 14 25
REMARK SMILES IDX 16 26 20 27 18 28 13 29 19 30
REMARK H PARENT 1 8 26 10 24 16
ROOT
ATOM      1  C   UNL     1      11.740 -44.105 -24.594  1.00  0.00     0.119 A 
ATOM      2  C   UNL     1      12.743 -45.067 -24.590  1.00  0.00     0.047 A 
ATOM      3  C   UNL     1      12.649 -46.153 -23.715  1.00  0.00     0.013 A 
ATOM      4  C   UNL     1      11.554 -46.291 -22.844  1.00  0.00     0.018 A 
ATOM      5  C   UNL     1      10.567 -45.295 -22.869  1.00  0.00     0.124 A 
ATOM      6  C   UNL     1      10.651 -44.207 -23.738  1.00  0.00     0.092 A 
ENDROOT
BRANCH   1   7
ATOM      7  O   UNL     1      11.791 -43.029 -25.430  1.00  0.00    -0.508 OA
ATOM      8  H   UNL     1      11.232 -43.211 -26.204  1.00  0.00     0.293 HD
ENDBRANCH   1   7
BRANCH   5   9
ATOM      9  O   UNL     1       9.508 -45.399 -22.009  1.00  0.00    -0.507 OA
ATOM     10  H   UNL     1       9.840 -45.331 -21.099  1.00  0.00     0.293 HD
ENDBRANCH   5   9
BRANCH   4  11
ATOM     11  C   UNL     1      11.429 -47.449 -21.871  1.00  0.00     0.138 C 
ATOM     12  C   UNL     1      12.395 -48.587 -22.185  1.00  0.00     0.090 C 
ATOM     13  N   UNL     1      10.131 -48.118 -21.911  1.00  0.00    -0.302 N 
ATOM     14  C   UNL     1      11.420 -49.563 -22.791  1.00  0.00     0.071 C 
ATOM     15  N   UNL     1      10.162 -49.286 -22.621  1.00  0.00    -0.184 NA
ATOM     16  H   UNL     1       9.254 -47.602 -21.909  1.00  0.00     0.184 HD
BRANCH  14  17
ATOM     17  C   UNL     1      11.913 -50.768 -23.477  1.00  0.00     0.013 A 
ATOM     18  C   UNL     1      12.781 -50.601 -24.591  1.00  0.00    -0.009 A 
ATOM     19  C   UNL     1      11.475 -52.043 -23.028  1.00  0.00    -0.009 A 
ATOM     20  C   UNL     1      13.254 -49.350 -25.058  1.00  0.00     0.009 A 
ATOM     21  C   UNL     1      13.195 -51.761 -25.281  1.00  0.00    -0.017 A 
ATOM     22  C   UNL     1      10.638 -52.255 -21.905  1.00  0.00     0.009 A 
ATOM     23  C   UNL     1      11.909 -53.179 -23.744  1.00  0.00    -0.017 A 
ATOM     24  C   UNL     1      14.098 -49.253 -26.166  1.00  0.00     0.001 A 
ATOM     25  C   UNL     1      14.045 -51.647 -26.397  1.00  0.00     0.009 A 
ATOM     26  C   UNL     1      12.755 -53.022 -24.854  1.00  0.00     0.017 A 
ATOM     27  C   UNL     1      10.234 -53.534 -21.520  1.00  0.00     0.001 A 
ATOM     28  C   UNL     1      11.496 -54.462 -23.345  1.00  0.00     0.009 A 
ATOM     29  C   UNL     1      14.493 -50.402 -26.837  1.00  0.00     0.001 A 
ATOM     30  C   UNL     1      10.662 -54.639 -22.242  1.00  0.00     0.001 A 
ENDBRANCH  14  17
ENDBRANCH   4  11
TORSDOF 4
ENDMDL
MODEL 2
REMARK VINA RESULT:   -10.966      3.180      6.829
REMARK INTER + INTRA:         -13.520
REMARK INTER:                 -12.340
REMARK INTRA:                  -1.181
REMARK UNBOUND:                -0.631
REMARK SMILES Oc1ccc([C@@H]2CC(c3c4ccccc4cc4ccccc34)=NN2)c(O)c1
REMARK SMILES IDX 2 1 3 2 4 3 5 4 25 5 27 6 1 7 26 9 6 11 7 12 24 13 8 14
REMARK SMILES IDX 23 15 9 17 10 18 22 19 11 20 15 21 21 22 17 23 12 24 14 25
REMARK SMILES IDX 16 26 20 27 18 28 13 29 19 30
REMARK H PARENT 1 8 26 10 24 16
ROOT
ATOM      1  C   UNL     1      11.328 -55.646 -23.356  1.00  0.00     0.119 A 
ATOM      2  C   UNL     1      11.414 -54.534 -24.185  1.00  0.00     0.047 A 
ATOM      3  C   UNL     1      11.172 -53.263 -23.656  1.00  0.00     0.013 A 
ATOM      4  C   UNL     1      10.850 -53.091 -22.299  1.00  0.00     0.018 A 
ATOM      5  C   UNL     1      10.761 -54.238 -21.495  1.00  0.00     0.124 A 
ATOM      6  C   UNL     1      11.001 -55.510 -22.014  1.00  0.00     0.092 A 
ENDROOT
BRANCH   1   7
ATOM      7  O   UNL     1      11.556 -56.904 -23.830  1.00  0.00    -0.508 OA
ATOM      8  H   UNL     1      11.250 -56.949 -24.751  1.00  0.00     0.293 HD
ENDBRANCH   1   7
BRANCH   5   9
ATOM      9  O   UNL     1      10.422 -54.092 -20.178  1.00  0.00    -0.507 OA
ATOM     10  H   UNL     1       9.455 -54.146 -20.099  1.00  0.00     0.293 HD
ENDBRANCH   5   9
BRANCH   4  11
ATOM     11  C   UNL     1      10.565 -51.727 -21.696  1.00  0.00     0.138 C 
ATOM     12  C   UNL     1      10.392 -50.642 -22.754  1.00  0.00     0.090 C 
ATOM     13  N   UNL     1      11.658 -51.201 -20.881  1.00  0.00    -0.302 N 
ATOM     14  C   UNL     1      11.720 -49.949 -22.599  1.00  0.00     0.071 C 
ATOM     15  N   UNL     1      12.408 -50.270 -21.545  1.00  0.00    -0.184 NA
ATOM     16  H   UNL     1      12.135 -51.766 -20.183  1.00  0.00     0.184 HD
BRANCH  14  17
ATOM     17  C   UNL     1      12.143 -48.938 -23.582  1.00  0.00     0.013 A 
ATOM     18  C   UNL     1      13.036 -49.335 -24.615  1.00  0.00    -0.009 A 
ATOM     19  C   UNL     1      11.678 -47.602 -23.439  1.00  0.00    -0.009 A 
ATOM     20  C   UNL     1      13.508 -50.657 -24.801  1.00  0.00     0.009 A 
ATOM     21  C   UNL     1      13.486 -48.343 -25.512  1.00  0.00    -0.017 A 
ATOM     22  C   UNL     1      10.765 -47.172 -22.444  1.00  0.00     0.009 A 
ATOM     23  C   UNL     1      12.151 -46.638 -24.354  1.00  0.00    -0.017 A 
ATOM     24  C   UNL     1      14.393 -50.981 -25.831  1.00  0.00     0.001 A 
ATOM     25  C   UNL     1      14.379 -48.684 -26.545  1.00  0.00     0.009 A 
ATOM     26  C   UNL     1      13.043 -47.019 -25.369  1.00  0.00     0.017 A 
ATOM     27  C   UNL     1      10.353 -45.842 -22.351  1.00  0.00     0.001 A 
ATOM     28  C   UNL     1      11.727 -45.302 -24.249  1.00  0.00     0.009 A 
ATOM     29  C   UNL     1      14.830 -49.994 -26.703  1.00  0.00     0.001 A 
ATOM     30  C   UNL     1      10.837 -44.905 -23.253  1.00  0.00     0.001 A 
ENDBRANCH  14  17
ENDBRANCH   4  11
TORSDOF 4
ENDMDL
MODEL 3
REMARK VINA RESULT:   -10.691      3.172      6.981
REMARK INTER + INTRA:         -13.197
REMARK INTER:                 -12.029
REMARK INTRA:                  -1.168
REMARK UNBOUND:                -0.631
REMARK SMILES Oc1ccc([C@@H]2CC(c3c4ccccc4cc4ccccc34)=NN2)c(O)c1
REMARK SMILES IDX 2 1 3 2 4 3 5 4 25 5 27 6 1 7 26 9 6 11 7 12 24 13 8 14
REMARK SMILES IDX 23 15 9 17 10 18 22 19 11 20 15 21 21 22 17 23 12 24 14 25
REMARK SMILES IDX 16 26 20 27 18 28 13 29 19 30
REMARK H PARENT 1 8 26 10 24 16
ROOT
ATOM      1  C   UNL     1      11.365 -55.615 -23.387  1.00  0.00     0.119 A 
ATOM      2  C   UNL     1      11.542 -54.494 -24.190  1.00  0.00     0.047 A 
ATOM      3  C   UNL     1      11.295 -53.225 -23.660  1.00  0.00     0.013 A 
ATOM      4  C   UNL     1      10.876 -53.063 -22.328  1.00  0.00     0.018 A 
ATOM      5  C   UNL     1      10.698 -54.217 -21.551  1.00  0.00     0.124 A 
ATOM      6  C   UNL     1      10.941 -55.489 -22.070  1.00  0.00     0.092 A 
ENDROOT
BRANCH   1   7
ATOM      7  O   UNL     1      11.593 -56.872 -23.862  1.00  0.00    -0.508 OA
ATOM      8  H   UNL     1      10.995 -57.035 -24.611  1.00  0.00     0.293 HD
ENDBRANCH   1   7
BRANCH   5   9
ATOM      9  O   UNL     1      10.265 -54.080 -20.261  1.00  0.00    -0.507 OA
ATOM     10  H   UNL     1       9.337 -54.364 -20.213  1.00  0.00     0.293 HD
ENDBRANCH   5   9
BRANCH   4  11
ATOM     11  C   UNL     1      10.584 -51.700 -21.726  1.00  0.00     0.138 C 
ATOM     12  C   UNL     1      10.452 -50.608 -22.782  1.00  0.00     0.090 C 
ATOM     13  N   UNL     1      11.655 -51.187 -20.875  1.00  0.00    -0.302 N 
ATOM     14  C   UNL     1      11.780 -49.926 -22.583  1.00  0.00     0.071 C 
ATOM     15  N   UNL     1      12.432 -50.258 -21.510  1.00  0.00    -0.184 NA
ATOM     16  H   UNL     1      12.107 -51.759 -20.166  1.00  0.00     0.184 HD
BRANCH  14  17
ATOM     17  C   UNL     1      12.241 -48.913 -23.547  1.00  0.00     0.013 A 
ATOM     18  C   UNL     1      11.743 -47.587 -23.419  1.00  0.00    -0.009 A 
ATOM     19  C   UNL     1      13.130 -49.304 -24.584  1.00  0.00    -0.009 A 
ATOM     20  C   UNL     1      10.871 -47.154 -22.390  1.00  0.00     0.009 A 
ATOM     21  C   UNL     1      12.140 -46.640 -24.387  1.00  0.00    -0.017 A 
ATOM     22  C   UNL     1      13.673 -50.605 -24.729  1.00  0.00     0.009 A 
ATOM     23  C   UNL     1      13.504 -48.329 -25.534  1.00  0.00    -0.017 A 
ATOM     24  C   UNL     1      10.409 -45.838 -22.326  1.00  0.00     0.001 A 
ATOM     25  C   UNL     1      11.666 -45.318 -24.310  1.00  0.00     0.009 A 
ATOM     26  C   UNL     1      13.005 -47.021 -25.424  1.00  0.00     0.017 A 
ATOM     27  C   UNL     1      14.535 -50.929 -25.777  1.00  0.00     0.001 A 
ATOM     28  C   UNL     1      14.373 -48.669 -26.585  1.00  0.00     0.009 A 
ATOM     29  C   UNL     1      10.805 -44.919 -23.288  1.00  0.00     0.001 A 
ATOM     30  C   UNL     1      14.883 -49.960 -26.709  1.00  0.00     0.001 A 
ENDBRANCH  14  17
ENDBRANCH   4  11
TORSDOF 4
ENDMDL
MODEL 4
REMARK VINA RESULT:   -10.500      1.151      3.736
REMARK INTER + INTRA:         -12.972
REMARK INTER:                 -11.924
REMARK INTRA:                  -1.048
REMARK UNBOUND:                -0.631
REMARK SMILES Oc1ccc([C@@H]2CC(c3c4ccccc4cc4ccccc34)=NN2)c(O)c1
REMARK SMILES IDX 2 1 3 2 4 3 5 4 25 5 27 6 1 7 26 9 6 11 7 12 24 13 8 14
REMARK SMILES IDX 23 15 9 17 10 18 22 19 11 20 15 21 21 22 17 23 12 24 14 25
REMARK SMILES IDX 16 26 20 27 18 28 13 29 19 30
REMARK H PARENT 1 8 26 10 24 16
ROOT
ATOM      1  C   UNL     1      13.611 -43.503 -23.736  1.00  0.00     0.119 A 
ATOM      2  C   UNL     1      14.414 -44.629 -23.604  1.00  0.00     0.047 A 
ATOM      3  C   UNL     1      13.925 -45.743 -22.914  1.00  0.00     0.013 A 
ATOM      4  C   UNL     1      12.634 -45.743 -22.358  1.00  0.00     0.018 A 
ATOM      5  C   UNL     1      11.857 -44.584 -22.503  1.00  0.00     0.124 A 
ATOM      6  C   UNL     1      12.335 -43.468 -23.189  1.00  0.00     0.092 A 
ENDROOT
BRANCH   1   7
ATOM      7  O   UNL     1      14.047 -42.394 -24.401  1.00  0.00    -0.508 OA
ATOM      8  H   UNL     1      13.401 -42.173 -25.092  1.00  0.00     0.293 HD
ENDBRANCH   1   7
BRANCH   5   9
ATOM      9  O   UNL     1      10.608 -44.556 -21.945  1.00  0.00    -0.507 OA
ATOM     10  H   UNL     1       9.982 -44.966 -22.566  1.00  0.00     0.293 HD
ENDBRANCH   5   9
BRANCH   4  11
ATOM     11  C   UNL     1      12.079 -46.928 -21.589  1.00  0.00     0.138 C 
ATOM     12  C   UNL     1      12.825 -48.224 -21.889  1.00  0.00     0.090 C 
ATOM     13  N   UNL     1      10.703 -47.269 -21.940  1.00  0.00    -0.302 N 
ATOM     14  C   UNL     1      11.805 -48.882 -22.781  1.00  0.00     0.071 C 
ATOM     15  N   UNL     1      10.625 -48.338 -22.790  1.00  0.00    -0.184 NA
ATOM     16  H   UNL     1       9.971 -46.566 -22.015  1.00  0.00     0.184 HD
BRANCH  14  17
ATOM     17  C   UNL     1      12.157 -50.097 -23.533  1.00  0.00     0.013 A 
ATOM     18  C   UNL     1      11.686 -51.349 -23.049  1.00  0.00    -0.009 A 
ATOM     19  C   UNL     1      12.980 -49.979 -24.686  1.00  0.00    -0.009 A 
ATOM     20  C   UNL     1      10.851 -51.507 -21.917  1.00  0.00     0.009 A 
ATOM     21  C   UNL     1      12.084 -52.513 -23.741  1.00  0.00    -0.017 A 
ATOM     22  C   UNL     1      13.444 -48.750 -25.219  1.00  0.00     0.009 A 
ATOM     23  C   UNL     1      13.359 -51.165 -25.350  1.00  0.00    -0.017 A 
ATOM     24  C   UNL     1      10.430 -52.767 -21.486  1.00  0.00     0.001 A 
ATOM     25  C   UNL     1      11.654 -53.776 -23.294  1.00  0.00     0.009 A 
ATOM     26  C   UNL     1      12.910 -52.406 -24.870  1.00  0.00     0.017 A 
ATOM     27  C   UNL     1      14.259 -48.701 -26.350  1.00  0.00     0.001 A 
ATOM     28  C   UNL     1      14.180 -51.101 -26.489  1.00  0.00     0.009 A 
ATOM     29  C   UNL     1      10.834 -53.902 -22.174  1.00  0.00     0.001 A 
ATOM     30  C   UNL     1      14.630 -49.879 -26.984  1.00  0.00     0.001 A 
ENDBRANCH  14  17
ENDBRANCH   4  11
TORSDOF 4
ENDMDL
MODEL 5
REMARK VINA RESULT:    -9.723      1.785      2.156
REMARK INTER + INTRA:         -12.059
REMARK INTER:                 -10.973
REMARK INTRA:                  -1.087
REMARK UNBOUND:                -0.631
REMARK SMILES Oc1ccc([C@@H]2CC(c3c4ccccc4cc4ccccc34)=NN2)c(O)c1
REMARK SMILES IDX 2 1 3 2 4 3 5 4 25 5 27 6 1 7 26 9 6 11 7 12 24 13 8 14
REMARK SMILES IDX 23 15 9 17 10 18 22 19 11 20 15 21 21 22 17 23 12 24 14 25
REMARK SMILES IDX 16 26 20 27 18 28 13 29 19 30
REMARK H PARENT 1 8 26 10 24 16
ROOT
ATOM      1  C   UNL     1      14.406 -43.534 -22.319  1.00  0.00     0.119 A 
ATOM      2  C   UNL     1      15.157 -44.702 -22.271  1.00  0.00     0.047 A 
ATOM      3  C   UNL     1      14.518 -45.920 -22.020  1.00  0.00     0.013 A 
ATOM      4  C   UNL     1      13.127 -45.982 -21.821  1.00  0.00     0.018 A 
ATOM      5  C   UNL     1      12.404 -44.781 -21.866  1.00  0.00     0.124 A 
ATOM      6  C   UNL     1      13.033 -43.561 -22.115  1.00  0.00     0.092 A 
ENDROOT
BRANCH   1   7
ATOM      7  O   UNL     1      14.988 -42.325 -22.560  1.00  0.00    -0.508 OA
ATOM      8  H   UNL     1      14.343 -41.625 -22.363  1.00  0.00     0.293 HD
ENDBRANCH   1   7
BRANCH   5   9
ATOM      9  O   UNL     1      11.054 -44.818 -21.648  1.00  0.00    -0.507 OA
ATOM     10  H   UNL     1      10.861 -45.537 -21.023  1.00  0.00     0.293 HD
ENDBRANCH   5   9
BRANCH   4  11
ATOM     11  C   UNL     1      12.404 -47.284 -21.530  1.00  0.00     0.138 C 
ATOM     12  C   UNL     1      13.172 -48.506 -22.024  1.00  0.00     0.090 C 
ATOM     13  N   UNL     1      11.124 -47.417 -22.222  1.00  0.00    -0.302 N 
ATOM     14  C   UNL     1      12.347 -48.827 -23.242  1.00  0.00     0.071 C 
ATOM     15  N   UNL     1      11.205 -48.214 -23.331  1.00  0.00    -0.184 NA
ATOM     16  H   UNL     1      10.437 -46.667 -22.242  1.00  0.00     0.184 HD
BRANCH  14  17
ATOM     17  C   UNL     1      12.826 -49.821 -24.216  1.00  0.00     0.013 A 
ATOM     18  C   UNL     1      13.625 -49.370 -25.302  1.00  0.00    -0.009 A 
ATOM     19  C   UNL     1      12.441 -51.180 -24.057  1.00  0.00    -0.009 A 
ATOM     20  C   UNL     1      14.044 -48.030 -25.486  1.00  0.00     0.009 A 
ATOM     21  C   UNL     1      14.024 -50.322 -26.265  1.00  0.00    -0.017 A 
ATOM     22  C   UNL     1      11.673 -51.676 -22.974  1.00  0.00     0.009 A 
ATOM     23  C   UNL     1      12.857 -52.103 -25.041  1.00  0.00    -0.017 A 
ATOM     24  C   UNL     1      14.821 -47.648 -26.581  1.00  0.00     0.001 A 
ATOM     25  C   UNL     1      14.806 -49.922 -27.364  1.00  0.00     0.009 A 
ATOM     26  C   UNL     1      13.635 -51.663 -26.124  1.00  0.00     0.017 A 
ATOM     27  C   UNL     1      11.319 -53.023 -22.881  1.00  0.00     0.001 A 
ATOM     28  C   UNL     1      12.494 -53.456 -24.934  1.00  0.00     0.009 A 
ATOM     29  C   UNL     1      15.201 -48.595 -27.522  1.00  0.00     0.001 A 
ATOM     30  C   UNL     1      11.728 -53.914 -23.863  1.00  0.00     0.001 A 
ENDBRANCH  14  17
ENDBRANCH   4  11
TORSDOF 4
ENDMDL
MODEL 6
REMARK VINA RESULT:    -9.698      3.200      5.470
REMARK INTER + INTRA:         -12.031
REMARK INTER:                 -10.753
REMARK INTRA:                  -1.277
REMARK UNBOUND:                -0.631
REMARK SMILES Oc1ccc([C@@H]2CC(c3c4ccccc4cc4ccccc34)=NN2)c(O)c1
REMARK SMILES IDX 2 1 3 2 4 3 5 4 25 5 27 6 1 7 26 9 6 11 7 12 24 13 8 14
REMARK SMILES IDX 23 15 9 17 10 18 22 19 11 20 15 21 21 22 17 23 12 24 14 25
REMARK SMILES IDX 16 26 20 27 18 28 13 29 19 30
REMARK H PARENT 1 8 26 10 24 16
ROOT
ATOM      1  C   UNL     1      16.670 -47.667 -28.011  1.00  0.00     0.119 A 
ATOM      2  C   UNL     1      15.330 -47.727 -27.649  1.00  0.00     0.047 A 
ATOM      3  C   UNL     1      14.838 -48.879 -27.028  1.00  0.00     0.013 A 
ATOM      4  C   UNL     1      15.678 -49.974 -26.758  1.00  0.00     0.018 A 
ATOM      5  C   UNL     1      17.022 -49.880 -27.147  1.00  0.00     0.124 A 
ATOM      6  C   UNL     1      17.523 -48.736 -27.768  1.00  0.00     0.092 A 
ENDROOT
BRANCH   1   7
ATOM      7  O   UNL     1      17.193 -46.564 -28.619  1.00  0.00    -0.508 OA
ATOM      8  H   UNL     1      17.383 -45.896 -27.939  1.00  0.00     0.293 HD
ENDBRANCH   1   7
BRANCH   5   9
ATOM      9  O   UNL     1      17.848 -50.946 -26.916  1.00  0.00    -0.507 OA
ATOM     10  H   UNL     1      18.003 -51.407 -27.758  1.00  0.00     0.293 HD
ENDBRANCH   5   9
BRANCH   4  11
ATOM     11  C   UNL     1      15.172 -51.245 -26.100  1.00  0.00     0.138 C 
ATOM     12  C   UNL     1      13.667 -51.221 -25.855  1.00  0.00     0.090 C 
ATOM     13  N   UNL     1      15.706 -51.469 -24.759  1.00  0.00    -0.302 N 
ATOM     14  C   UNL     1      13.674 -50.974 -24.369  1.00  0.00     0.071 C 
ATOM     15  N   UNL     1      14.820 -51.125 -23.776  1.00  0.00    -0.184 NA
ATOM     16  H   UNL     1      16.695 -51.369 -24.544  1.00  0.00     0.184 HD
BRANCH  14  17
ATOM     17  C   UNL     1      12.422 -50.639 -23.671  1.00  0.00     0.013 A 
ATOM     18  C   UNL     1      12.107 -49.267 -23.475  1.00  0.00    -0.009 A 
ATOM     19  C   UNL     1      11.601 -51.694 -23.188  1.00  0.00    -0.009 A 
ATOM     20  C   UNL     1      12.890 -48.189 -23.956  1.00  0.00     0.009 A 
ATOM     21  C   UNL     1      10.938 -48.958 -22.748  1.00  0.00    -0.017 A 
ATOM     22  C   UNL     1      11.861 -53.072 -23.389  1.00  0.00     0.009 A 
ATOM     23  C   UNL     1      10.440 -51.346 -22.464  1.00  0.00    -0.017 A 
ATOM     24  C   UNL     1      12.531 -46.860 -23.721  1.00  0.00     0.001 A 
ATOM     25  C   UNL     1      10.589 -47.615 -22.518  1.00  0.00     0.009 A 
ATOM     26  C   UNL     1      10.129 -49.993 -22.254  1.00  0.00     0.017 A 
ATOM     27  C   UNL     1      11.019 -54.061 -22.880  1.00  0.00     0.001 A 
ATOM     28  C   UNL     1       9.600 -52.353 -21.958  1.00  0.00     0.009 A 
ATOM     29  C   UNL     1      11.380 -46.573 -23.000  1.00  0.00     0.001 A 
ATOM     30  C   UNL     1       9.888 -53.701 -22.161  1.00  0.00     0.001 A 
ENDBRANCH  14  17
ENDBRANCH   4  11
TORSDOF 4
ENDMDL
MODEL 7
REMARK VINA RESULT:    -9.656      3.191      6.270
REMARK INTER + INTRA:         -11.981
REMARK INTER:                 -10.706
REMARK INTRA:                  -1.275
REMARK UNBOUND:                -0.631
REMARK SMILES Oc1ccc([C@@H]2CC(c3c4ccccc4cc4ccccc34)=NN2)c(O)c1
REMARK SMILES IDX 2 1 3 2 4 3 5 4 25 5 27 6 1 7 26 9 6 11 7 12 24 13 8 14
REMARK SMILES IDX 23 15 9 17 10 18 22 19 11 20 15 21 21 22 17 23 12 24 14 25
REMARK SMILES IDX 16 26 20 27 18 28 13 29 19 30
REMARK H PARENT 1 8 26 10 24 16
ROOT
ATOM      1  C   UNL     1      16.567 -47.751 -28.123  1.00  0.00     0.119 A 
ATOM      2  C   UNL     1      15.220 -47.824 -27.792  1.00  0.00     0.047 A 
ATOM      3  C   UNL     1      14.736 -48.956 -27.131  1.00  0.00     0.013 A 
ATOM      4  C   UNL     1      15.591 -50.019 -26.790  1.00  0.00     0.018 A 
ATOM      5  C   UNL     1      16.943 -49.914 -27.150  1.00  0.00     0.124 A 
ATOM      6  C   UNL     1      17.436 -48.789 -27.810  1.00  0.00     0.092 A 
ENDROOT
BRANCH   1   7
ATOM      7  O   UNL     1      17.083 -46.666 -28.768  1.00  0.00    -0.508 OA
ATOM      8  H   UNL     1      17.932 -46.434 -28.356  1.00  0.00     0.293 HD
ENDBRANCH   1   7
BRANCH   5   9
ATOM      9  O   UNL     1      17.784 -50.950 -26.850  1.00  0.00    -0.507 OA
ATOM     10  H   UNL     1      17.308 -51.786 -26.987  1.00  0.00     0.293 HD
ENDBRANCH   5   9
BRANCH   4  11
ATOM     11  C   UNL     1      15.095 -51.270 -26.087  1.00  0.00     0.138 C 
ATOM     12  C   UNL     1      13.597 -51.230 -25.805  1.00  0.00     0.090 C 
ATOM     13  N   UNL     1      15.661 -51.462 -24.754  1.00  0.00    -0.302 N 
ATOM     14  C   UNL     1      13.643 -50.945 -24.326  1.00  0.00     0.071 C 
ATOM     15  N   UNL     1      14.803 -51.088 -23.758  1.00  0.00    -0.184 NA
ATOM     16  H   UNL     1      16.657 -51.364 -24.567  1.00  0.00     0.184 HD
BRANCH  14  17
ATOM     17  C   UNL     1      12.412 -50.585 -23.605  1.00  0.00     0.013 A 
ATOM     18  C   UNL     1      11.578 -51.634 -23.130  1.00  0.00    -0.009 A 
ATOM     19  C   UNL     1      12.084 -49.210 -23.447  1.00  0.00    -0.009 A 
ATOM     20  C   UNL     1      11.878 -53.013 -23.252  1.00  0.00     0.009 A 
ATOM     21  C   UNL     1      10.368 -51.277 -22.498  1.00  0.00    -0.017 A 
ATOM     22  C   UNL     1      12.901 -48.135 -23.877  1.00  0.00     0.009 A 
ATOM     23  C   UNL     1      10.865 -48.893 -22.811  1.00  0.00    -0.017 A 
ATOM     24  C   UNL     1      11.011 -53.997 -22.772  1.00  0.00     0.001 A 
ATOM     25  C   UNL     1       9.504 -52.279 -22.020  1.00  0.00     0.009 A 
ATOM     26  C   UNL     1      10.030 -49.923 -22.351  1.00  0.00     0.017 A 
ATOM     27  C   UNL     1      12.518 -46.805 -23.701  1.00  0.00     0.001 A 
ATOM     28  C   UNL     1      10.492 -47.549 -22.639  1.00  0.00     0.009 A 
ATOM     29  C   UNL     1       9.822 -53.630 -22.157  1.00  0.00     0.001 A 
ATOM     30  C   UNL     1      11.310 -46.511 -23.083  1.00  0.00     0.001 A 
ENDBRANCH  14  17
ENDBRANCH   4  11
TORSDOF 4
ENDMDL
MODEL 8
REMARK VINA RESULT:    -9.504      3.374      5.722
REMARK INTER + INTRA:         -11.802
REMARK INTER:                 -10.798
REMARK INTRA:                  -1.004
REMARK UNBOUND:                -0.631
REMARK SMILES Oc1ccc([C@@H]2CC(c3c4ccccc4cc4ccccc34)=NN2)c(O)c1
REMARK SMILES IDX 2 1 3 2 4 3 5 4 25 5 27 6 1 7 26 9 6 11 7 12 24 13 8 14
REMARK SMILES IDX 23 15 9 17 10 18 22 19 11 20 15 21 21 22 17 23 12 24 14 25
REMARK SMILES IDX 16 26 20 27 18 28 13 29 19 30
REMARK H PARENT 1 8 26 10 24 16
ROOT
ATOM      1  C   UNL     1      16.310 -46.988 -29.321  1.00  0.00     0.119 A 
ATOM      2  C   UNL     1      15.214 -46.854 -28.478  1.00  0.00     0.047 A 
ATOM      3  C   UNL     1      14.900 -47.887 -27.590  1.00  0.00     0.013 A 
ATOM      4  C   UNL     1      15.680 -49.055 -27.531  1.00  0.00     0.018 A 
ATOM      5  C   UNL     1      16.773 -49.159 -28.404  1.00  0.00     0.124 A 
ATOM      6  C   UNL     1      17.094 -48.135 -29.294  1.00  0.00     0.092 A 
ENDROOT
BRANCH   1   7
ATOM      7  O   UNL     1      16.653 -46.006 -30.203  1.00  0.00    -0.508 OA
ATOM      8  H   UNL     1      16.646 -46.379 -31.100  1.00  0.00     0.293 HD
ENDBRANCH   1   7
BRANCH   5   9
ATOM      9  O   UNL     1      17.527 -50.301 -28.380  1.00  0.00    -0.507 OA
ATOM     10  H   UNL     1      18.002 -50.376 -29.224  1.00  0.00     0.293 HD
ENDBRANCH   5   9
BRANCH   4  11
ATOM     11  C   UNL     1      15.358 -50.203 -26.590  1.00  0.00     0.138 C 
ATOM     12  C   UNL     1      13.879 -50.262 -26.222  1.00  0.00     0.090 C 
ATOM     13  N   UNL     1      16.003 -50.095 -25.284  1.00  0.00    -0.302 N 
ATOM     14  C   UNL     1      13.962 -49.713 -24.822  1.00  0.00     0.071 C 
ATOM     15  N   UNL     1      15.156 -49.635 -24.314  1.00  0.00    -0.184 NA
ATOM     16  H   UNL     1      16.989 -49.865 -25.183  1.00  0.00     0.184 HD
BRANCH  14  17
ATOM     17  C   UNL     1      12.734 -49.354 -24.096  1.00  0.00     0.013 A 
ATOM     18  C   UNL     1      12.335 -47.989 -24.081  1.00  0.00    -0.009 A 
ATOM     19  C   UNL     1      12.018 -50.372 -23.409  1.00  0.00    -0.009 A 
ATOM     20  C   UNL     1      13.011 -46.950 -24.767  1.00  0.00     0.009 A 
ATOM     21  C   UNL     1      11.192 -47.646 -23.328  1.00  0.00    -0.017 A 
ATOM     22  C   UNL     1      12.362 -51.746 -23.424  1.00  0.00     0.009 A 
ATOM     23  C   UNL     1      10.880 -49.990 -22.665  1.00  0.00    -0.017 A 
ATOM     24  C   UNL     1      12.574 -45.625 -24.704  1.00  0.00     0.001 A 
ATOM     25  C   UNL     1      10.764 -46.307 -23.273  1.00  0.00     0.009 A 
ATOM     26  C   UNL     1      10.488 -48.642 -22.634  1.00  0.00     0.017 A 
ATOM     27  C   UNL     1      11.623 -52.696 -22.719  1.00  0.00     0.001 A 
ATOM     28  C   UNL     1      10.144 -50.958 -21.961  1.00  0.00     0.009 A 
ATOM     29  C   UNL     1      11.450 -45.303 -23.956  1.00  0.00     0.001 A 
ATOM     30  C   UNL     1      10.513 -52.301 -21.984  1.00  0.00     0.001 A 
ENDBRANCH  14  17
ENDBRANCH   4  11
TORSDOF 4
ENDMDL
MODEL 9
REMARK VINA RESULT:    -9.125      3.454      7.496
REMARK INTER + INTRA:         -11.357
REMARK INTER:                 -10.366
REMARK INTRA:                  -0.990
REMARK UNBOUND:                -0.631
REMARK SMILES Oc1ccc([C@@H]2CC(c3c4ccccc4cc4ccccc34)=NN2)c(O)c1
REMARK SMILES IDX 2 1 3 2 4 3 5 4 25 5 27 6 1 7 26 9 6 11 7 12 24 13 8 14
REMARK SMILES IDX 23 15 9 17 10 18 22 19 11 20 15 21 21 22 17 23 12 24 14 25
REMARK SMILES IDX 16 26 20 27 18 28 13 29 19 30
REMARK H PARENT 1 8 26 10 24 16
ROOT
ATOM      1  C   UNL     1      10.322 -53.328 -22.528  1.00  0.00     0.119 A 
ATOM      2  C   UNL     1      11.014 -52.183 -22.153  1.00  0.00     0.047 A 
ATOM      3  C   UNL     1      12.172 -51.823 -22.847  1.00  0.00     0.013 A 
ATOM      4  C   UNL     1      12.645 -52.596 -23.922  1.00  0.00     0.018 A 
ATOM      5  C   UNL     1      11.926 -53.751 -24.265  1.00  0.00     0.124 A 
ATOM      6  C   UNL     1      10.769 -54.120 -23.578  1.00  0.00     0.092 A 
ENDROOT
BRANCH   1   7
ATOM      7  O   UNL     1       9.188 -53.718 -21.879  1.00  0.00    -0.508 OA
ATOM      8  H   UNL     1       9.189 -53.326 -20.990  1.00  0.00     0.293 HD
ENDBRANCH   1   7
BRANCH   5   9
ATOM      9  O   UNL     1      12.386 -54.530 -25.291  1.00  0.00    -0.507 OA
ATOM     10  H   UNL     1      13.352 -54.438 -25.342  1.00  0.00     0.293 HD
ENDBRANCH   5   9
BRANCH   4  11
ATOM     11  C   UNL     1      13.907 -52.242 -24.687  1.00  0.00     0.138 C 
ATOM     12  C   UNL     1      14.397 -50.829 -24.389  1.00  0.00     0.090 C 
ATOM     13  N   UNL     1      13.732 -52.216 -26.137  1.00  0.00    -0.302 N 
ATOM     14  C   UNL     1      13.960 -50.155 -25.663  1.00  0.00     0.071 C 
ATOM     15  N   UNL     1      13.600 -50.946 -26.628  1.00  0.00    -0.184 NA
ATOM     16  H   UNL     1      13.252 -52.958 -26.640  1.00  0.00     0.184 HD
BRANCH  14  17
ATOM     17  C   UNL     1      14.009 -48.688 -25.776  1.00  0.00     0.013 A 
ATOM     18  C   UNL     1      13.076 -47.924 -25.023  1.00  0.00    -0.009 A 
ATOM     19  C   UNL     1      14.954 -48.096 -26.657  1.00  0.00    -0.009 A 
ATOM     20  C   UNL     1      12.131 -48.474 -24.122  1.00  0.00     0.009 A 
ATOM     21  C   UNL     1      13.088 -46.522 -25.188  1.00  0.00    -0.017 A 
ATOM     22  C   UNL     1      15.921 -48.818 -27.400  1.00  0.00     0.009 A 
ATOM     23  C   UNL     1      14.936 -46.692 -26.797  1.00  0.00    -0.017 A 
ATOM     24  C   UNL     1      11.233 -47.669 -23.419  1.00  0.00     0.001 A 
ATOM     25  C   UNL     1      12.177 -45.724 -24.473  1.00  0.00     0.009 A 
ATOM     26  C   UNL     1      14.008 -45.931 -26.067  1.00  0.00     0.017 A 
ATOM     27  C   UNL     1      16.817 -48.178 -28.257  1.00  0.00     0.001 A 
ATOM     28  C   UNL     1      15.844 -46.060 -27.663  1.00  0.00     0.009 A 
ATOM     29  C   UNL     1      11.255 -46.292 -23.595  1.00  0.00     0.001 A 
ATOM     30  C   UNL     1      16.777 -46.797 -28.391  1.00  0.00     0.001 A 
ENDBRANCH  14  17
ENDBRANCH   4  11
TORSDOF 4
ENDMDL
