MODEL 1
REMARK VINA RESULT:   -10.083      0.000      0.000
REMARK INTER + INTRA:         -10.378
REMARK INTER:                 -10.378
REMARK INTRA:                   0.000
REMARK UNBOUND:                 0.000
REMARK SMILES CC1=C[C@H]2Cc3nc4cc(Cl)ccc4c(N)c3[C@@H](C1)C2
REMARK SMILES IDX 1 1 2 2 3 3 4 4 5 5 6 6 7 7 8 8 9 9 10 10 11 11 12 12 13 13
REMARK SMILES IDX 14 14 15 15 17 16 18 17 19 18 20 19 16 20
REMARK H PARENT 16 21 16 22
ROOT
ATOM      1  C   UNL     1       8.001 -59.283 -22.943  1.00  0.00     0.039 C 
ATOM      2  C   UNL     1       8.019 -60.709 -23.371  1.00  0.00    -0.076 C 
ATOM      3  C   UNL     1       6.940 -61.309 -23.857  1.00  0.00    -0.024 C 
ATOM      4  C   UNL     1       7.584 -64.232 -24.049  1.00  0.00     0.018 C 
ATOM      5  C   UNL     1       7.294 -63.054 -24.920  1.00  0.00     0.064 C 
ATOM      6  C   UNL     1       8.610 -62.355 -24.958  1.00  0.00     0.047 A 
ATOM      7  N   UNL     1       8.898 -61.815 -26.159  1.00  0.00    -0.252 NA
ATOM      8  C   UNL     1      10.033 -61.138 -26.416  1.00  0.00     0.074 A 
ATOM      9  C   UNL     1      10.322 -60.588 -27.646  1.00  0.00     0.049 A 
ATOM     10  C   UNL     1      11.510 -59.906 -27.838  1.00  0.00     0.043 A 
ATOM     11  Cl  UNL     1      11.912 -59.191 -29.395  1.00  0.00    -0.084 Cl
ATOM     12  C   UNL     1      12.443 -59.754 -26.807  1.00  0.00     0.021 A 
ATOM     13  C   UNL     1      12.164 -60.306 -25.556  1.00  0.00     0.014 A 
ATOM     14  C   UNL     1      10.963 -60.985 -25.393  1.00  0.00     0.024 A 
ATOM     15  C   UNL     1      10.694 -61.528 -24.153  1.00  0.00     0.046 A 
ATOM     16  C   UNL     1       9.519 -62.214 -23.932  1.00  0.00     0.001 A 
ATOM     17  C   UNL     1       9.090 -62.853 -22.656  1.00  0.00     0.028 C 
ATOM     18  C   UNL     1       9.290 -61.475 -23.244  1.00  0.00     0.039 C 
ATOM     19  C   UNL     1       7.937 -63.834 -22.633  1.00  0.00     0.017 C 
ENDROOT
BRANCH  15  20
ATOM     20  N   UNL     1      11.577 -61.434 -23.028  1.00  0.00    -0.398 N 
ATOM     21  H   UNL     1      12.241 -60.646 -23.085  1.00  0.00     0.156 HD
ATOM     22  H   UNL     1      11.701 -62.000 -22.139  1.00  0.00     0.156 HD
ENDBRANCH  15  20
TORSDOF 1
ENDMDL
MODEL 2
REMARK VINA RESULT:    -9.926      2.137      2.912
REMARK INTER + INTRA:         -10.216
REMARK INTER:                 -10.216
REMARK INTRA:                   0.000
REMARK UNBOUND:                 0.000
REMARK SMILES CC1=C[C@H]2Cc3nc4cc(Cl)ccc4c(N)c3[C@@H](C1)C2
REMARK SMILES IDX 1 1 2 2 3 3 4 4 5 5 6 6 7 7 8 8 9 9 10 10 11 11 12 12 13 13
REMARK SMILES IDX 14 14 15 15 17 16 18 17 19 18 20 19 16 20
REMARK H PARENT 16 21 16 22
ROOT
ATOM      1  C   UNL     1      11.738 -56.712 -23.422  1.00  0.00     0.039 C 
ATOM      2  C   UNL     1      10.930 -57.951 -23.252  1.00  0.00    -0.076 C 
ATOM      3  C   UNL     1       9.613 -57.913 -23.096  1.00  0.00    -0.024 C 
ATOM      4  C   UNL     1       8.747 -60.687 -22.352  1.00  0.00     0.018 C 
ATOM      5  C   UNL     1       8.621 -59.696 -23.463  1.00  0.00     0.064 C 
ATOM      6  C   UNL     1       9.911 -59.865 -24.188  1.00  0.00     0.047 A 
ATOM      7  N   UNL     1       9.793 -59.767 -25.528  1.00  0.00    -0.252 NA
ATOM      8  C   UNL     1      10.831 -59.887 -26.376  1.00  0.00     0.074 A 
ATOM      9  C   UNL     1      10.704 -59.786 -27.745  1.00  0.00     0.049 A 
ATOM     10  C   UNL     1      11.816 -59.920 -28.556  1.00  0.00     0.043 A 
ATOM     11  Cl  UNL     1      11.691 -59.797 -30.307  1.00  0.00    -0.084 Cl
ATOM     12  C   UNL     1      13.087 -60.159 -28.023  1.00  0.00     0.021 A 
ATOM     13  C   UNL     1      13.231 -60.264 -26.639  1.00  0.00     0.014 A 
ATOM     14  C   UNL     1      12.097 -60.124 -25.850  1.00  0.00     0.024 A 
ATOM     15  C   UNL     1      12.247 -60.230 -24.482  1.00  0.00     0.046 A 
ATOM     16  C   UNL     1      11.157 -60.100 -23.648  1.00  0.00     0.001 A 
ATOM     17  C   UNL     1      11.161 -60.188 -22.161  1.00  0.00     0.028 C 
ATOM     18  C   UNL     1      11.631 -59.265 -23.261  1.00  0.00     0.039 C 
ATOM     19  C   UNL     1       9.865 -60.343 -21.393  1.00  0.00     0.017 C 
ENDROOT
BRANCH  15  20
ATOM     20  N   UNL     1      13.500 -60.474 -23.830  1.00  0.00    -0.398 N 
ATOM     21  H   UNL     1      13.780 -59.726 -23.174  1.00  0.00     0.156 HD
ATOM     22  H   UNL     1      14.211 -61.259 -23.870  1.00  0.00     0.156 HD
ENDBRANCH  15  20
TORSDOF 1
ENDMDL
MODEL 3
REMARK VINA RESULT:    -9.748      4.123      5.493
REMARK INTER + INTRA:         -10.033
REMARK INTER:                 -10.033
REMARK INTRA:                   0.000
REMARK UNBOUND:                 0.000
REMARK SMILES CC1=C[C@H]2Cc3nc4cc(Cl)ccc4c(N)c3[C@@H](C1)C2
REMARK SMILES IDX 1 1 2 2 3 3 4 4 5 5 6 6 7 7 8 8 9 9 10 10 11 11 12 12 13 13
REMARK SMILES IDX 14 14 15 15 17 16 18 17 19 18 20 19 16 20
REMARK H PARENT 16 21 16 22
ROOT
ATOM      1  C   UNL     1       8.004 -59.094 -23.358  1.00  0.00     0.039 C 
ATOM      2  C   UNL     1       9.426 -59.342 -23.722  1.00  0.00    -0.076 C 
ATOM      3  C   UNL     1       9.795 -59.608 -24.968  1.00  0.00    -0.024 C 
ATOM      4  C   UNL     1      12.671 -60.449 -24.863  1.00  0.00     0.018 C 
ATOM      5  C   UNL     1      11.810 -59.343 -25.376  1.00  0.00     0.064 C 
ATOM      6  C   UNL     1      11.594 -58.514 -24.157  1.00  0.00     0.047 A 
ATOM      7  N   UNL     1      11.586 -57.188 -24.402  1.00  0.00    -0.252 NA
ATOM      8  C   UNL     1      11.407 -56.258 -23.446  1.00  0.00     0.074 A 
ATOM      9  C   UNL     1      11.400 -54.903 -23.701  1.00  0.00     0.049 A 
ATOM     10  C   UNL     1      11.210 -54.004 -22.668  1.00  0.00     0.043 A 
ATOM     11  Cl  UNL     1      11.195 -52.269 -22.958  1.00  0.00    -0.084 Cl
ATOM     12  C   UNL     1      11.022 -54.431 -21.350  1.00  0.00     0.021 A 
ATOM     13  C   UNL     1      11.028 -55.800 -21.075  1.00  0.00     0.014 A 
ATOM     14  C   UNL     1      11.220 -56.679 -22.133  1.00  0.00     0.024 A 
ATOM     15  C   UNL     1      11.224 -58.030 -21.854  1.00  0.00     0.046 A 
ATOM     16  C   UNL     1      11.411 -58.951 -22.864  1.00  0.00     0.001 A 
ATOM     17  C   UNL     1      11.440 -60.434 -22.719  1.00  0.00     0.028 C 
ATOM     18  C   UNL     1      10.457 -59.289 -22.647  1.00  0.00     0.039 C 
ATOM     19  C   UNL     1      11.963 -61.308 -23.839  1.00  0.00     0.017 C 
ENDROOT
BRANCH  15  20
ATOM     20  N   UNL     1      11.042 -58.579 -20.542  1.00  0.00    -0.398 N 
ATOM     21  H   UNL     1      10.324 -58.092 -19.984  1.00  0.00     0.156 HD
ATOM     22  H   UNL     1      11.486 -59.383 -20.012  1.00  0.00     0.156 HD
ENDBRANCH  15  20
TORSDOF 1
ENDMDL
MODEL 4
REMARK VINA RESULT:    -9.152      2.267      3.350
REMARK INTER + INTRA:          -9.420
REMARK INTER:                  -9.420
REMARK INTRA:                   0.000
REMARK UNBOUND:                 0.000
REMARK SMILES CC1=C[C@H]2Cc3nc4cc(Cl)ccc4c(N)c3[C@@H](C1)C2
REMARK SMILES IDX 1 1 2 2 3 3 4 4 5 5 6 6 7 7 8 8 9 9 10 10 11 11 12 12 13 13
REMARK SMILES IDX 14 14 15 15 17 16 18 17 19 18 20 19 16 20
REMARK H PARENT 16 21 16 22
ROOT
ATOM      1  C   UNL     1       7.563 -57.857 -24.256  1.00  0.00     0.039 C 
ATOM      2  C   UNL     1       8.377 -58.853 -23.507  1.00  0.00    -0.076 C 
ATOM      3  C   UNL     1       7.892 -59.511 -22.462  1.00  0.00    -0.024 C 
ATOM      4  C   UNL     1      10.198 -60.955 -21.200  1.00  0.00     0.018 C 
ATOM      5  C   UNL     1       8.927 -61.229 -21.934  1.00  0.00     0.064 C 
ATOM      6  C   UNL     1       9.325 -61.010 -23.353  1.00  0.00     0.047 A 
ATOM      7  N   UNL     1       8.749 -61.875 -24.213  1.00  0.00    -0.252 NA
ATOM      8  C   UNL     1       8.968 -61.857 -25.541  1.00  0.00     0.074 A 
ATOM      9  C   UNL     1       8.376 -62.744 -26.416  1.00  0.00     0.049 A 
ATOM     10  C   UNL     1       8.648 -62.667 -27.769  1.00  0.00     0.043 A 
ATOM     11  Cl  UNL     1       7.912 -63.781 -28.914  1.00  0.00    -0.084 Cl
ATOM     12  C   UNL     1       9.518 -61.703 -28.289  1.00  0.00     0.021 A 
ATOM     13  C   UNL     1      10.125 -60.799 -27.415  1.00  0.00     0.014 A 
ATOM     14  C   UNL     1       9.832 -60.900 -26.061  1.00  0.00     0.024 A 
ATOM     15  C   UNL     1      10.436 -60.003 -25.204  1.00  0.00     0.046 A 
ATOM     16  C   UNL     1      10.184 -60.055 -23.849  1.00  0.00     0.001 A 
ATOM     17  C   UNL     1      10.757 -59.160 -22.804  1.00  0.00     0.028 C 
ATOM     18  C   UNL     1       9.775 -59.109 -23.952  1.00  0.00     0.039 C 
ATOM     19  C   UNL     1      10.650 -59.518 -21.337  1.00  0.00     0.017 C 
ENDROOT
BRANCH  15  20
ATOM     20  N   UNL     1      11.343 -58.976 -25.626  1.00  0.00    -0.398 N 
ATOM     21  H   UNL     1      11.586 -59.022 -26.628  1.00  0.00     0.156 HD
ATOM     22  H   UNL     1      11.826 -58.171 -25.132  1.00  0.00     0.156 HD
ENDBRANCH  15  20
TORSDOF 1
ENDMDL
MODEL 5
REMARK VINA RESULT:    -8.952      9.102     11.615
REMARK INTER + INTRA:          -9.214
REMARK INTER:                  -9.214
REMARK INTRA:                   0.000
REMARK UNBOUND:                 0.000
REMARK SMILES CC1=C[C@H]2Cc3nc4cc(Cl)ccc4c(N)c3[C@@H](C1)C2
REMARK SMILES IDX 1 1 2 2 3 3 4 4 5 5 6 6 7 7 8 8 9 9 10 10 11 11 12 12 13 13
REMARK SMILES IDX 14 14 15 15 17 16 18 17 19 18 20 19 16 20
REMARK H PARENT 16 21 16 22
ROOT
ATOM      1  C   UNL     1      16.219 -51.809 -22.668  1.00  0.00     0.039 C 
ATOM      2  C   UNL     1      15.412 -51.205 -23.764  1.00  0.00    -0.076 C 
ATOM      3  C   UNL     1      15.731 -51.369 -25.041  1.00  0.00    -0.024 C 
ATOM      4  C   UNL     1      13.977 -49.517 -26.618  1.00  0.00     0.018 C 
ATOM      5  C   UNL     1      14.211 -50.975 -26.395  1.00  0.00     0.064 C 
ATOM      6  C   UNL     1      13.480 -51.224 -25.121  1.00  0.00     0.047 A 
ATOM      7  N   UNL     1      12.852 -52.417 -25.085  1.00  0.00    -0.252 NA
ATOM      8  C   UNL     1      12.134 -52.846 -24.031  1.00  0.00     0.074 A 
ATOM      9  C   UNL     1      11.493 -54.067 -24.000  1.00  0.00     0.049 A 
ATOM     10  C   UNL     1      10.771 -54.442 -22.882  1.00  0.00     0.043 A 
ATOM     11  Cl  UNL     1       9.942 -55.992 -22.807  1.00  0.00    -0.084 Cl
ATOM     12  C   UNL     1      10.668 -53.610 -21.762  1.00  0.00     0.021 A 
ATOM     13  C   UNL     1      11.311 -52.371 -21.780  1.00  0.00     0.014 A 
ATOM     14  C   UNL     1      12.029 -52.021 -22.916  1.00  0.00     0.024 A 
ATOM     15  C   UNL     1      12.661 -50.795 -22.926  1.00  0.00     0.046 A 
ATOM     16  C   UNL     1      13.388 -50.393 -24.026  1.00  0.00     0.001 A 
ATOM     17  C   UNL     1      14.122 -49.106 -24.184  1.00  0.00     0.028 C 
ATOM     18  C   UNL     1      14.215 -50.396 -23.404  1.00  0.00     0.039 C 
ATOM     19  C   UNL     1      14.609 -48.657 -25.546  1.00  0.00     0.017 C 
ENDROOT
BRANCH  15  20
ATOM     20  N   UNL     1      12.622 -49.863 -21.836  1.00  0.00    -0.398 N 
ATOM     21  H   UNL     1      12.345 -50.288 -20.937  1.00  0.00     0.156 HD
ATOM     22  H   UNL     1      12.816 -48.824 -21.748  1.00  0.00     0.156 HD
ENDBRANCH  15  20
TORSDOF 1
ENDMDL
MODEL 6
REMARK VINA RESULT:    -8.696      3.431      4.403
REMARK INTER + INTRA:          -8.951
REMARK INTER:                  -8.951
REMARK INTRA:                   0.000
REMARK UNBOUND:                 0.000
REMARK SMILES CC1=C[C@H]2Cc3nc4cc(Cl)ccc4c(N)c3[C@@H](C1)C2
REMARK SMILES IDX 1 1 2 2 3 3 4 4 5 5 6 6 7 7 8 8 9 9 10 10 11 11 12 12 13 13
REMARK SMILES IDX 14 14 15 15 17 16 18 17 19 18 20 19 16 20
REMARK H PARENT 16 21 16 22
ROOT
ATOM      1  C   UNL     1       9.861 -60.847 -20.616  1.00  0.00     0.039 C 
ATOM      2  C   UNL     1       9.579 -60.839 -22.078  1.00  0.00    -0.076 C 
ATOM      3  C   UNL     1       8.397 -61.191 -22.566  1.00  0.00    -0.024 C 
ATOM      4  C   UNL     1       8.708 -61.384 -25.542  1.00  0.00     0.018 C 
ATOM      5  C   UNL     1       8.012 -60.566 -24.505  1.00  0.00     0.064 C 
ATOM      6  C   UNL     1       9.088 -59.641 -24.053  1.00  0.00     0.047 A 
ATOM      7  N   UNL     1       8.649 -58.393 -23.788  1.00  0.00    -0.252 NA
ATOM      8  C   UNL     1       9.452 -57.398 -23.367  1.00  0.00     0.074 A 
ATOM      9  C   UNL     1       8.998 -56.124 -23.098  1.00  0.00     0.049 A 
ATOM     10  C   UNL     1       9.881 -55.151 -22.668  1.00  0.00     0.043 A 
ATOM     11  Cl  UNL     1       9.337 -53.515 -22.316  1.00  0.00    -0.084 Cl
ATOM     12  C   UNL     1      11.242 -55.421 -22.494  1.00  0.00     0.021 A 
ATOM     13  C   UNL     1      11.716 -56.706 -22.763  1.00  0.00     0.014 A 
ATOM     14  C   UNL     1      10.806 -57.663 -23.193  1.00  0.00     0.024 A 
ATOM     15  C   UNL     1      11.283 -58.931 -23.456  1.00  0.00     0.046 A 
ATOM     16  C   UNL     1      10.426 -59.922 -23.886  1.00  0.00     0.001 A 
ATOM     17  C   UNL     1      10.790 -61.331 -24.209  1.00  0.00     0.028 C 
ATOM     18  C   UNL     1      10.663 -60.421 -23.011  1.00  0.00     0.039 C 
ATOM     19  C   UNL     1       9.827 -62.222 -24.965  1.00  0.00     0.017 C 
ENDROOT
BRANCH  15  20
ATOM     20  N   UNL     1      12.656 -59.318 -23.313  1.00  0.00    -0.398 N 
ATOM     21  H   UNL     1      13.295 -58.526 -23.139  1.00  0.00     0.156 HD
ATOM     22  H   UNL     1      13.166 -60.247 -23.347  1.00  0.00     0.156 HD
ENDBRANCH  15  20
TORSDOF 1
ENDMDL
MODEL 7
REMARK VINA RESULT:    -8.342      3.045      5.272
REMARK INTER + INTRA:          -8.586
REMARK INTER:                  -8.586
REMARK INTRA:                   0.000
REMARK UNBOUND:                 0.000
REMARK SMILES CC1=C[C@H]2Cc3nc4cc(Cl)ccc4c(N)c3[C@@H](C1)C2
REMARK SMILES IDX 1 1 2 2 3 3 4 4 5 5 6 6 7 7 8 8 9 9 10 10 11 11 12 12 13 13
REMARK SMILES IDX 14 14 15 15 17 16 18 17 19 18 20 19 16 20
REMARK H PARENT 16 21 16 22
ROOT
ATOM      1  C   UNL     1      10.527 -59.720 -20.457  1.00  0.00     0.039 C 
ATOM      2  C   UNL     1      10.844 -59.156 -21.798  1.00  0.00    -0.076 C 
ATOM      3  C   UNL     1      12.056 -59.246 -22.328  1.00  0.00    -0.024 C 
ATOM      4  C   UNL     1      12.066 -57.510 -24.774  1.00  0.00     0.018 C 
ATOM      5  C   UNL     1      12.156 -58.947 -24.378  1.00  0.00     0.064 C 
ATOM      6  C   UNL     1      10.728 -59.305 -24.152  1.00  0.00     0.047 A 
ATOM      7  N   UNL     1      10.415 -60.551 -24.562  1.00  0.00    -0.252 NA
ATOM      8  C   UNL     1       9.182 -61.080 -24.453  1.00  0.00     0.074 A 
ATOM      9  C   UNL     1       8.867 -62.355 -24.874  1.00  0.00     0.049 A 
ATOM     10  C   UNL     1       7.577 -62.833 -24.731  1.00  0.00     0.043 A 
ATOM     11  Cl  UNL     1       7.139 -64.454 -25.257  1.00  0.00    -0.084 Cl
ATOM     12  C   UNL     1       6.565 -62.052 -24.164  1.00  0.00     0.021 A 
ATOM     13  C   UNL     1       6.869 -60.760 -23.733  1.00  0.00     0.014 A 
ATOM     14  C   UNL     1       8.173 -60.307 -23.889  1.00  0.00     0.024 A 
ATOM     15  C   UNL     1       8.465 -59.028 -23.462  1.00  0.00     0.046 A 
ATOM     16  C   UNL     1       9.742 -58.524 -23.591  1.00  0.00     0.001 A 
ATOM     17  C   UNL     1      10.208 -57.170 -23.178  1.00  0.00     0.028 C 
ATOM     18  C   UNL     1       9.759 -58.472 -22.558  1.00  0.00     0.039 C 
ATOM     19  C   UNL     1      11.540 -56.633 -23.659  1.00  0.00     0.017 C 
ENDROOT
BRANCH  15  20
ATOM     20  N   UNL     1       7.507 -58.142 -22.868  1.00  0.00    -0.398 N 
ATOM     21  H   UNL     1       7.602 -57.161 -23.175  1.00  0.00     0.156 HD
ATOM     22  H   UNL     1       6.714 -58.272 -22.175  1.00  0.00     0.156 HD
ENDBRANCH  15  20
TORSDOF 1
ENDMDL
MODEL 8
REMARK VINA RESULT:    -7.907     11.532     13.738
REMARK INTER + INTRA:          -8.138
REMARK INTER:                  -8.138
REMARK INTRA:                   0.000
REMARK UNBOUND:                 0.000
REMARK SMILES CC1=C[C@H]2Cc3nc4cc(Cl)ccc4c(N)c3[C@@H](C1)C2
REMARK SMILES IDX 1 1 2 2 3 3 4 4 5 5 6 6 7 7 8 8 9 9 10 10 11 11 12 12 13 13
REMARK SMILES IDX 14 14 15 15 17 16 18 17 19 18 20 19 16 20
REMARK H PARENT 16 21 16 22
ROOT
ATOM      1  C   UNL     1      14.216 -47.719 -20.747  1.00  0.00     0.039 C 
ATOM      2  C   UNL     1      13.933 -47.573 -22.201  1.00  0.00    -0.076 C 
ATOM      3  C   UNL     1      14.900 -47.585 -23.109  1.00  0.00    -0.024 C 
ATOM      4  C   UNL     1      13.654 -46.778 -25.715  1.00  0.00     0.018 C 
ATOM      5  C   UNL     1      14.289 -47.958 -25.055  1.00  0.00     0.064 C 
ATOM      6  C   UNL     1      13.172 -48.503 -24.234  1.00  0.00     0.047 A 
ATOM      7  N   UNL     1      13.144 -49.851 -24.191  1.00  0.00    -0.252 NA
ATOM      8  C   UNL     1      12.220 -50.552 -23.507  1.00  0.00     0.074 A 
ATOM      9  C   UNL     1      12.195 -51.930 -23.466  1.00  0.00     0.049 A 
ATOM     10  C   UNL     1      11.215 -52.584 -22.743  1.00  0.00     0.043 A 
ATOM     11  Cl  UNL     1      11.154 -54.341 -22.669  1.00  0.00    -0.084 Cl
ATOM     12  C   UNL     1      10.232 -51.882 -22.040  1.00  0.00     0.021 A 
ATOM     13  C   UNL     1      10.243 -50.487 -22.072  1.00  0.00     0.014 A 
ATOM     14  C   UNL     1      11.240 -49.857 -22.807  1.00  0.00     0.024 A 
ATOM     15  C   UNL     1      11.245 -48.477 -22.834  1.00  0.00     0.046 A 
ATOM     16  C   UNL     1      12.209 -47.797 -23.546  1.00  0.00     0.001 A 
ATOM     17  C   UNL     1      12.345 -46.318 -23.670  1.00  0.00     0.028 C 
ATOM     18  C   UNL     1      12.518 -47.408 -22.638  1.00  0.00     0.039 C 
ATOM     19  C   UNL     1      13.244 -45.711 -24.726  1.00  0.00     0.017 C 
ENDROOT
BRANCH  15  20
ATOM     20  N   UNL     1      10.286 -47.658 -22.151  1.00  0.00    -0.398 N 
ATOM     21  H   UNL     1       9.406 -48.149 -21.925  1.00  0.00     0.156 HD
ATOM     22  H   UNL     1      10.280 -46.649 -21.824  1.00  0.00     0.156 HD
ENDBRANCH  15  20
TORSDOF 1
ENDMDL
MODEL 9
REMARK VINA RESULT:    -7.597     12.728     14.712
REMARK INTER + INTRA:          -7.819
REMARK INTER:                  -7.819
REMARK INTRA:                   0.000
REMARK UNBOUND:                 0.000
REMARK SMILES CC1=C[C@H]2Cc3nc4cc(Cl)ccc4c(N)c3[C@@H](C1)C2
REMARK SMILES IDX 1 1 2 2 3 3 4 4 5 5 6 6 7 7 8 8 9 9 10 10 11 11 12 12 13 13
REMARK SMILES IDX 14 14 15 15 17 16 18 17 19 18 20 19 16 20
REMARK H PARENT 16 21 16 22
ROOT
ATOM      1  C   UNL     1      13.411 -46.611 -20.416  1.00  0.00     0.039 C 
ATOM      2  C   UNL     1      12.730 -46.087 -21.632  1.00  0.00    -0.076 C 
ATOM      3  C   UNL     1      13.233 -45.086 -22.341  1.00  0.00    -0.024 C 
ATOM      4  C   UNL     1      11.128 -44.280 -24.320  1.00  0.00     0.018 C 
ATOM      5  C   UNL     1      12.488 -44.896 -24.267  1.00  0.00     0.064 C 
ATOM      6  C   UNL     1      12.182 -46.312 -23.918  1.00  0.00     0.047 A 
ATOM      7  N   UNL     1      12.979 -47.203 -24.541  1.00  0.00    -0.252 NA
ATOM      8  C   UNL     1      12.878 -48.535 -24.371  1.00  0.00     0.074 A 
ATOM      9  C   UNL     1      13.695 -49.443 -25.010  1.00  0.00     0.049 A 
ATOM     10  C   UNL     1      13.534 -50.798 -24.788  1.00  0.00     0.043 A 
ATOM     11  Cl  UNL     1      14.559 -51.984 -25.586  1.00  0.00    -0.084 Cl
ATOM     12  C   UNL     1      12.551 -51.286 -23.920  1.00  0.00     0.021 A 
ATOM     13  C   UNL     1      11.716 -50.379 -23.266  1.00  0.00     0.014 A 
ATOM     14  C   UNL     1      11.902 -49.024 -23.509  1.00  0.00     0.024 A 
ATOM     15  C   UNL     1      11.072 -48.134 -22.858  1.00  0.00     0.046 A 
ATOM     16  C   UNL     1      11.209 -46.777 -23.060  1.00  0.00     0.001 A 
ATOM     17  C   UNL     1      10.394 -45.699 -22.434  1.00  0.00     0.028 C 
ATOM     18  C   UNL     1      11.446 -46.714 -22.055  1.00  0.00     0.039 C 
ATOM     19  C   UNL     1      10.436 -44.286 -22.975  1.00  0.00     0.017 C 
ENDROOT
BRANCH  15  20
ATOM     20  N   UNL     1      10.033 -48.523 -21.950  1.00  0.00    -0.398 N 
ATOM     21  H   UNL     1      10.164 -49.464 -21.547  1.00  0.00     0.156 HD
ATOM     22  H   UNL     1       9.151 -48.053 -21.596  1.00  0.00     0.156 HD
ENDBRANCH  15  20
TORSDOF 1
ENDMDL
