MODEL 1
REMARK VINA RESULT:   -12.504      0.000      0.000
REMARK INTER + INTRA:         -16.304
REMARK INTER:                 -15.428
REMARK INTRA:                  -0.876
REMARK UNBOUND:                -0.876
REMARK SMILES O=C(Nc1ccc2c(c1)CN(C(=O)c1cccc(Cl)c1)C(=O)C2)c1ccccc1
REMARK SMILES IDX 4 1 5 2 6 3 7 4 8 5 9 6 10 7 11 8 21 9 22 10 23 11 3 12 2 13
REMARK SMILES IDX 1 14 24 16 25 17 29 18 26 19 28 20 27 21 12 22 13 23 14 24
REMARK SMILES IDX 15 25 20 26 16 27 18 28 17 29 19 30
REMARK H PARENT 3 15
ROOT
ATOM      1  C   UNL     1      10.553 -57.356 -22.138  1.00  0.00     0.041 A 
ATOM      2  C   UNL     1      11.376 -58.140 -21.330  1.00  0.00     0.026 A 
ATOM      3  C   UNL     1      11.170 -59.520 -21.229  1.00  0.00     0.007 A 
ATOM      4  C   UNL     1      10.141 -60.136 -21.945  1.00  0.00    -0.033 A 
ATOM      5  C   UNL     1       9.306 -59.359 -22.754  1.00  0.00    -0.022 A 
ATOM      6  C   UNL     1       9.510 -57.973 -22.841  1.00  0.00     0.032 A 
ATOM      7  C   UNL     1       8.169 -60.037 -23.463  1.00  0.00     0.164 C 
ATOM      8  N   UNL     1       8.521 -61.387 -23.880  1.00  0.00    -0.274 N 
ATOM      9  C   UNL     1       9.142 -62.244 -22.988  1.00  0.00     0.234 C 
ATOM     10  O   UNL     1       9.049 -63.472 -23.052  1.00  0.00    -0.274 OA
ATOM     11  C   UNL     1       9.877 -61.612 -21.815  1.00  0.00     0.136 C 
ENDROOT
BRANCH   1  12
ATOM     12  N   UNL     1      10.691 -55.959 -22.283  1.00  0.00    -0.322 N 
ATOM     13  C   UNL     1      11.277 -55.278 -23.336  1.00  0.00     0.255 C 
ATOM     14  O   UNL     1      11.732 -55.764 -24.364  1.00  0.00    -0.269 OA
ATOM     15  H   UNL     1      10.245 -55.396 -21.571  1.00  0.00     0.170 HD
BRANCH  13  16
ATOM     16  C   UNL     1      11.303 -53.797 -23.183  1.00  0.00     0.040 A 
ATOM     17  C   UNL     1      10.450 -53.208 -22.242  1.00  0.00     0.014 A 
ATOM     18  C   UNL     1      12.133 -52.990 -23.973  1.00  0.00     0.014 A 
ATOM     19  C   UNL     1      10.449 -51.823 -22.069  1.00  0.00     0.001 A 
ATOM     20  C   UNL     1      12.126 -51.604 -23.797  1.00  0.00     0.001 A 
ATOM     21  C   UNL     1      11.289 -51.023 -22.844  1.00  0.00     0.000 A 
ENDBRANCH  13  16
ENDBRANCH   1  12
BRANCH   8  22
ATOM     22  C   UNL     1       8.147 -61.884 -25.118  1.00  0.00     0.260 C 
ATOM     23  O   UNL     1       7.227 -62.681 -25.287  1.00  0.00    -0.269 OA
BRANCH  22  24
ATOM     24  C   UNL     1       8.995 -61.545 -26.291  1.00  0.00     0.041 A 
ATOM     25  C   UNL     1       8.717 -62.146 -27.525  1.00  0.00     0.014 A 
ATOM     26  C   UNL     1      10.026 -60.606 -26.181  1.00  0.00     0.034 A 
ATOM     27  C   UNL     1       9.495 -61.838 -28.642  1.00  0.00     0.002 A 
ATOM     28  C   UNL     1      10.797 -60.306 -27.302  1.00  0.00     0.041 A 
ATOM     29  C   UNL     1      10.541 -60.921 -28.528  1.00  0.00     0.020 A 
ATOM     30  Cl  UNL     1      12.081 -59.168 -27.171  1.00  0.00    -0.084 Cl
ENDBRANCH  22  24
ENDBRANCH   8  22
TORSDOF 4
ENDMDL
MODEL 2
REMARK VINA RESULT:   -12.118      2.067      2.497
REMARK INTER + INTRA:         -15.828
REMARK INTER:                 -15.839
REMARK INTRA:                   0.011
REMARK UNBOUND:                -0.876
REMARK SMILES O=C(Nc1ccc2c(c1)CN(C(=O)c1cccc(Cl)c1)C(=O)C2)c1ccccc1
REMARK SMILES IDX 4 1 5 2 6 3 7 4 8 5 9 6 10 7 11 8 21 9 22 10 23 11 3 12 2 13
REMARK SMILES IDX 1 14 24 16 25 17 29 18 26 19 28 20 27 21 12 22 13 23 14 24
REMARK SMILES IDX 15 25 20 26 16 27 18 28 17 29 19 30
REMARK H PARENT 3 15
ROOT
ATOM      1  C   UNL     1      10.903 -56.088 -21.969  1.00  0.00     0.041 A 
ATOM      2  C   UNL     1      11.402 -56.790 -20.872  1.00  0.00     0.026 A 
ATOM      3  C   UNL     1      11.397 -58.189 -20.859  1.00  0.00     0.007 A 
ATOM      4  C   UNL     1      10.900 -58.904 -21.952  1.00  0.00    -0.033 A 
ATOM      5  C   UNL     1      10.393 -58.211 -23.053  1.00  0.00    -0.022 A 
ATOM      6  C   UNL     1      10.389 -56.807 -23.055  1.00  0.00     0.032 A 
ATOM      7  C   UNL     1       9.807 -59.004 -24.187  1.00  0.00     0.164 C 
ATOM      8  N   UNL     1      10.518 -60.258 -24.392  1.00  0.00    -0.274 N 
ATOM      9  C   UNL     1      10.813 -61.068 -23.308  1.00  0.00     0.234 C 
ATOM     10  O   UNL     1      10.955 -62.290 -23.394  1.00  0.00    -0.274 OA
ATOM     11  C   UNL     1      10.847 -60.408 -21.937  1.00  0.00     0.136 C 
ENDROOT
BRANCH   1  12
ATOM     12  N   UNL     1      10.865 -54.680 -22.051  1.00  0.00    -0.322 N 
ATOM     13  C   UNL     1      11.252 -53.890 -23.120  1.00  0.00     0.255 C 
ATOM     14  O   UNL     1      11.644 -54.274 -24.214  1.00  0.00    -0.269 OA
ATOM     15  H   UNL     1      10.438 -54.204 -21.267  1.00  0.00     0.170 HD
BRANCH  13  16
ATOM     16  C   UNL     1      11.125 -52.424 -22.890  1.00  0.00     0.040 A 
ATOM     17  C   UNL     1       9.965 -51.942 -22.272  1.00  0.00     0.014 A 
ATOM     18  C   UNL     1      12.119 -51.525 -23.300  1.00  0.00     0.014 A 
ATOM     19  C   UNL     1       9.813 -50.575 -22.037  1.00  0.00     0.001 A 
ATOM     20  C   UNL     1      11.961 -50.158 -23.065  1.00  0.00     0.001 A 
ATOM     21  C   UNL     1      10.812 -49.684 -22.430  1.00  0.00     0.000 A 
ENDBRANCH  13  16
ENDBRANCH   1  12
BRANCH   8  22
ATOM     22  C   UNL     1      10.810 -60.727 -25.662  1.00  0.00     0.260 C 
ATOM     23  O   UNL     1      11.811 -60.402 -26.298  1.00  0.00    -0.269 OA
BRANCH  22  24
ATOM     24  C   UNL     1       9.789 -61.556 -26.353  1.00  0.00     0.041 A 
ATOM     25  C   UNL     1       9.796 -61.615 -27.752  1.00  0.00     0.014 A 
ATOM     26  C   UNL     1       8.861 -62.306 -25.621  1.00  0.00     0.034 A 
ATOM     27  C   UNL     1       8.851 -62.393 -28.422  1.00  0.00     0.002 A 
ATOM     28  C   UNL     1       7.922 -63.078 -26.300  1.00  0.00     0.041 A 
ATOM     29  C   UNL     1       7.908 -63.120 -27.695  1.00  0.00     0.020 A 
ATOM     30  Cl  UNL     1       6.764 -63.986 -25.408  1.00  0.00    -0.084 Cl
ENDBRANCH  22  24
ENDBRANCH   8  22
TORSDOF 4
ENDMDL
MODEL 3
REMARK VINA RESULT:   -11.880      1.491      1.781
REMARK INTER + INTRA:         -15.534
REMARK INTER:                 -14.749
REMARK INTRA:                  -0.784
REMARK UNBOUND:                -0.876
REMARK SMILES O=C(Nc1ccc2c(c1)CN(C(=O)c1cccc(Cl)c1)C(=O)C2)c1ccccc1
REMARK SMILES IDX 4 1 5 2 6 3 7 4 8 5 9 6 10 7 11 8 21 9 22 10 23 11 3 12 2 13
REMARK SMILES IDX 1 14 24 16 25 17 29 18 26 19 28 20 27 21 12 22 13 23 14 24
REMARK SMILES IDX 15 25 20 26 16 27 18 28 17 29 19 30
REMARK H PARENT 3 15
ROOT
ATOM      1  C   UNL     1      10.994 -56.854 -22.222  1.00  0.00     0.041 A 
ATOM      2  C   UNL     1      11.766 -57.643 -21.370  1.00  0.00     0.026 A 
ATOM      3  C   UNL     1      11.392 -58.961 -21.086  1.00  0.00     0.007 A 
ATOM      4  C   UNL     1      10.243 -59.509 -21.659  1.00  0.00    -0.033 A 
ATOM      5  C   UNL     1       9.458 -58.725 -22.509  1.00  0.00    -0.022 A 
ATOM      6  C   UNL     1       9.831 -57.400 -22.781  1.00  0.00     0.032 A 
ATOM      7  C   UNL     1       8.194 -59.320 -23.062  1.00  0.00     0.164 C 
ATOM      8  N   UNL     1       8.337 -60.745 -23.326  1.00  0.00    -0.274 N 
ATOM      9  C   UNL     1       8.907 -61.569 -22.371  1.00  0.00     0.234 C 
ATOM     10  O   UNL     1       8.652 -62.771 -22.275  1.00  0.00    -0.274 OA
ATOM     11  C   UNL     1       9.802 -60.911 -21.330  1.00  0.00     0.136 C 
ENDROOT
BRANCH   1  12
ATOM     12  N   UNL     1      11.300 -55.515 -22.548  1.00  0.00    -0.322 N 
ATOM     13  C   UNL     1      10.659 -54.374 -22.100  1.00  0.00     0.255 C 
ATOM     14  O   UNL     1       9.742 -54.314 -21.289  1.00  0.00    -0.269 OA
ATOM     15  H   UNL     1      12.127 -55.378 -23.114  1.00  0.00     0.170 HD
BRANCH  13  16
ATOM     16  C   UNL     1      11.195 -53.099 -22.653  1.00  0.00     0.040 A 
ATOM     17  C   UNL     1      10.854 -51.899 -22.019  1.00  0.00     0.014 A 
ATOM     18  C   UNL     1      12.002 -53.076 -23.800  1.00  0.00     0.014 A 
ATOM     19  C   UNL     1      11.341 -50.686 -22.508  1.00  0.00     0.001 A 
ATOM     20  C   UNL     1      12.484 -51.859 -24.286  1.00  0.00     0.001 A 
ATOM     21  C   UNL     1      12.159 -50.667 -23.638  1.00  0.00     0.000 A 
ENDBRANCH  13  16
ENDBRANCH   1  12
BRANCH   8  22
ATOM     22  C   UNL     1       7.813 -61.326 -24.469  1.00  0.00     0.260 C 
ATOM     23  O   UNL     1       6.753 -61.948 -24.496  1.00  0.00    -0.269 OA
BRANCH  22  24
ATOM     24  C   UNL     1       8.645 -61.321 -25.700  1.00  0.00     0.041 A 
ATOM     25  C   UNL     1       9.642 -60.349 -25.841  1.00  0.00     0.014 A 
ATOM     26  C   UNL     1       8.471 -62.300 -26.685  1.00  0.00     0.034 A 
ATOM     27  C   UNL     1      10.440 -60.329 -26.985  1.00  0.00     0.002 A 
ATOM     28  C   UNL     1       9.274 -62.271 -27.824  1.00  0.00     0.041 A 
ATOM     29  C   UNL     1      10.251 -61.288 -27.981  1.00  0.00     0.020 A 
ATOM     30  Cl  UNL     1       9.052 -63.458 -29.049  1.00  0.00    -0.084 Cl
ENDBRANCH  22  24
ENDBRANCH   8  22
TORSDOF 4
ENDMDL
MODEL 4
REMARK VINA RESULT:   -10.562      4.624     10.499
REMARK INTER + INTRA:         -13.908
REMARK INTER:                 -13.280
REMARK INTRA:                  -0.628
REMARK UNBOUND:                -0.876
REMARK SMILES O=C(Nc1ccc2c(c1)CN(C(=O)c1cccc(Cl)c1)C(=O)C2)c1ccccc1
REMARK SMILES IDX 4 1 5 2 6 3 7 4 8 5 9 6 10 7 11 8 21 9 22 10 23 11 3 12 2 13
REMARK SMILES IDX 1 14 24 16 25 17 29 18 26 19 28 20 27 21 12 22 13 23 14 24
REMARK SMILES IDX 15 25 20 26 16 27 18 28 17 29 19 30
REMARK H PARENT 3 15
ROOT
ATOM      1  C   UNL     1      10.730 -53.025 -22.296  1.00  0.00     0.041 A 
ATOM      2  C   UNL     1       9.453 -52.469 -22.364  1.00  0.00     0.026 A 
ATOM      3  C   UNL     1       9.280 -51.081 -22.395  1.00  0.00     0.007 A 
ATOM      4  C   UNL     1      10.388 -50.230 -22.369  1.00  0.00    -0.033 A 
ATOM      5  C   UNL     1      11.672 -50.776 -22.295  1.00  0.00    -0.022 A 
ATOM      6  C   UNL     1      11.838 -52.168 -22.251  1.00  0.00     0.032 A 
ATOM      7  C   UNL     1      12.841 -49.837 -22.203  1.00  0.00     0.164 C 
ATOM      8  N   UNL     1      12.619 -48.622 -22.975  1.00  0.00    -0.274 N 
ATOM      9  C   UNL     1      11.418 -47.944 -22.863  1.00  0.00     0.234 C 
ATOM     10  O   UNL     1      11.301 -46.732 -23.062  1.00  0.00    -0.274 OA
ATOM     11  C   UNL     1      10.219 -48.734 -22.357  1.00  0.00     0.136 C 
ENDROOT
BRANCH   1  12
ATOM     12  N   UNL     1      10.984 -54.412 -22.251  1.00  0.00    -0.322 N 
ATOM     13  C   UNL     1      11.195 -55.262 -23.323  1.00  0.00     0.255 C 
ATOM     14  O   UNL     1      11.257 -54.953 -24.507  1.00  0.00    -0.269 OA
ATOM     15  H   UNL     1      11.098 -54.810 -21.328  1.00  0.00     0.170 HD
BRANCH  13  16
ATOM     16  C   UNL     1      11.404 -56.690 -22.954  1.00  0.00     0.040 A 
ATOM     17  C   UNL     1      11.225 -57.068 -21.618  1.00  0.00     0.014 A 
ATOM     18  C   UNL     1      11.798 -57.645 -23.902  1.00  0.00     0.014 A 
ATOM     19  C   UNL     1      11.409 -58.398 -21.237  1.00  0.00     0.001 A 
ATOM     20  C   UNL     1      11.983 -58.974 -23.514  1.00  0.00     0.001 A 
ATOM     21  C   UNL     1      11.784 -59.350 -22.185  1.00  0.00     0.000 A 
ENDBRANCH  13  16
ENDBRANCH   1  12
BRANCH   8  22
ATOM     22  C   UNL     1      13.626 -48.054 -23.739  1.00  0.00     0.260 C 
ATOM     23  O   UNL     1      14.190 -47.000 -23.454  1.00  0.00    -0.269 OA
BRANCH  22  24
ATOM     24  C   UNL     1      13.945 -48.679 -25.049  1.00  0.00     0.041 A 
ATOM     25  C   UNL     1      13.711 -50.048 -25.223  1.00  0.00     0.014 A 
ATOM     26  C   UNL     1      14.428 -47.906 -26.111  1.00  0.00     0.034 A 
ATOM     27  C   UNL     1      13.996 -50.655 -26.446  1.00  0.00     0.002 A 
ATOM     28  C   UNL     1      14.710 -48.523 -27.329  1.00  0.00     0.041 A 
ATOM     29  C   UNL     1      14.503 -49.892 -27.499  1.00  0.00     0.020 A 
ATOM     30  Cl  UNL     1      15.324 -47.584 -28.633  1.00  0.00    -0.084 Cl
ENDBRANCH  22  24
ENDBRANCH   8  22
TORSDOF 4
ENDMDL
MODEL 5
REMARK VINA RESULT:   -10.545      2.125      8.595
REMARK INTER + INTRA:         -13.887
REMARK INTER:                 -13.330
REMARK INTRA:                  -0.556
REMARK UNBOUND:                -0.876
REMARK SMILES O=C(Nc1ccc2c(c1)CN(C(=O)c1cccc(Cl)c1)C(=O)C2)c1ccccc1
REMARK SMILES IDX 4 1 5 2 6 3 7 4 8 5 9 6 10 7 11 8 21 9 22 10 23 11 3 12 2 13
REMARK SMILES IDX 1 14 24 16 25 17 29 18 26 19 28 20 27 21 12 22 13 23 14 24
REMARK SMILES IDX 15 25 20 26 16 27 18 28 17 29 19 30
REMARK H PARENT 3 15
ROOT
ATOM      1  C   UNL     1      10.252 -59.731 -23.569  1.00  0.00     0.041 A 
ATOM      2  C   UNL     1      10.445 -60.193 -22.266  1.00  0.00     0.026 A 
ATOM      3  C   UNL     1      10.850 -59.318 -21.253  1.00  0.00     0.007 A 
ATOM      4  C   UNL     1      11.058 -57.964 -21.528  1.00  0.00    -0.033 A 
ATOM      5  C   UNL     1      10.874 -57.492 -22.830  1.00  0.00    -0.022 A 
ATOM      6  C   UNL     1      10.480 -58.377 -23.846  1.00  0.00     0.032 A 
ATOM      7  C   UNL     1      11.166 -56.045 -23.112  1.00  0.00     0.164 C 
ATOM      8  N   UNL     1      10.819 -55.195 -21.982  1.00  0.00    -0.274 N 
ATOM      9  C   UNL     1      11.214 -55.550 -20.704  1.00  0.00     0.234 C 
ATOM     10  O   UNL     1      11.402 -54.732 -19.801  1.00  0.00    -0.274 OA
ATOM     11  C   UNL     1      11.536 -57.018 -20.460  1.00  0.00     0.136 C 
ENDROOT
BRANCH   1  12
ATOM     12  N   UNL     1       9.855 -60.553 -24.644  1.00  0.00    -0.322 N 
ATOM     13  C   UNL     1       8.622 -61.154 -24.831  1.00  0.00     0.255 C 
ATOM     14  O   UNL     1       7.630 -61.034 -24.123  1.00  0.00    -0.269 OA
ATOM     15  H   UNL     1      10.525 -60.648 -25.396  1.00  0.00     0.170 HD
BRANCH  13  16
ATOM     16  C   UNL     1       8.518 -61.995 -26.056  1.00  0.00     0.040 A 
ATOM     17  C   UNL     1       9.244 -61.616 -27.191  1.00  0.00     0.014 A 
ATOM     18  C   UNL     1       7.696 -63.130 -26.102  1.00  0.00     0.014 A 
ATOM     19  C   UNL     1       9.173 -62.382 -28.355  1.00  0.00     0.001 A 
ATOM     20  C   UNL     1       7.627 -63.892 -27.271  1.00  0.00     0.001 A 
ATOM     21  C   UNL     1       8.369 -63.521 -28.393  1.00  0.00     0.000 A 
ENDBRANCH  13  16
ENDBRANCH   1  12
BRANCH   8  22
ATOM     22  C   UNL     1      10.197 -53.970 -22.162  1.00  0.00     0.260 C 
ATOM     23  O   UNL     1       8.988 -53.790 -22.032  1.00  0.00    -0.269 OA
BRANCH  22  24
ATOM     24  C   UNL     1      11.013 -52.841 -22.678  1.00  0.00     0.041 A 
ATOM     25  C   UNL     1      11.060 -51.647 -21.948  1.00  0.00     0.014 A 
ATOM     26  C   UNL     1      11.765 -52.978 -23.850  1.00  0.00     0.034 A 
ATOM     27  C   UNL     1      11.825 -50.576 -22.409  1.00  0.00     0.002 A 
ATOM     28  C   UNL     1      12.525 -51.902 -24.302  1.00  0.00     0.041 A 
ATOM     29  C   UNL     1      12.554 -50.702 -23.592  1.00  0.00     0.020 A 
ATOM     30  Cl  UNL     1      13.435 -52.056 -25.755  1.00  0.00    -0.084 Cl
ENDBRANCH  22  24
ENDBRANCH   8  22
TORSDOF 4
ENDMDL
MODEL 6
REMARK VINA RESULT:   -10.028      4.015     10.280
REMARK INTER + INTRA:         -13.248
REMARK INTER:                 -12.702
REMARK INTRA:                  -0.547
REMARK UNBOUND:                -0.876
REMARK SMILES O=C(Nc1ccc2c(c1)CN(C(=O)c1cccc(Cl)c1)C(=O)C2)c1ccccc1
REMARK SMILES IDX 4 1 5 2 6 3 7 4 8 5 9 6 10 7 11 8 21 9 22 10 23 11 3 12 2 13
REMARK SMILES IDX 1 14 24 16 25 17 29 18 26 19 28 20 27 21 12 22 13 23 14 24
REMARK SMILES IDX 15 25 20 26 16 27 18 28 17 29 19 30
REMARK H PARENT 3 15
ROOT
ATOM      1  C   UNL     1      10.501 -53.599 -22.256  1.00  0.00     0.041 A 
ATOM      2  C   UNL     1       9.447 -52.705 -22.070  1.00  0.00     0.026 A 
ATOM      3  C   UNL     1       9.644 -51.329 -22.229  1.00  0.00     0.007 A 
ATOM      4  C   UNL     1      10.899 -50.831 -22.588  1.00  0.00    -0.033 A 
ATOM      5  C   UNL     1      11.963 -51.717 -22.770  1.00  0.00    -0.022 A 
ATOM      6  C   UNL     1      11.763 -53.095 -22.596  1.00  0.00     0.032 A 
ATOM      7  C   UNL     1      13.316 -51.149 -23.093  1.00  0.00     0.164 C 
ATOM      8  N   UNL     1      13.218 -49.961 -23.929  1.00  0.00    -0.274 N 
ATOM      9  C   UNL     1      12.316 -48.963 -23.605  1.00  0.00     0.234 C 
ATOM     10  O   UNL     1      12.472 -47.781 -23.918  1.00  0.00    -0.274 OA
ATOM     11  C   UNL     1      11.139 -49.351 -22.721  1.00  0.00     0.136 C 
ENDROOT
BRANCH   1  12
ATOM     12  N   UNL     1      10.384 -54.997 -22.103  1.00  0.00    -0.322 N 
ATOM     13  C   UNL     1      10.805 -55.977 -22.986  1.00  0.00     0.255 C 
ATOM     14  O   UNL     1      11.411 -55.809 -24.037  1.00  0.00    -0.269 OA
ATOM     15  H   UNL     1      10.017 -55.314 -21.215  1.00  0.00     0.170 HD
BRANCH  13  16
ATOM     16  C   UNL     1      10.507 -57.371 -22.558  1.00  0.00     0.040 A 
ATOM     17  C   UNL     1       9.416 -58.030 -23.137  1.00  0.00     0.014 A 
ATOM     18  C   UNL     1      11.271 -58.020 -21.578  1.00  0.00     0.014 A 
ATOM     19  C   UNL     1       9.109 -59.339 -22.762  1.00  0.00     0.001 A 
ATOM     20  C   UNL     1      10.958 -59.329 -21.205  1.00  0.00     0.001 A 
ATOM     21  C   UNL     1       9.882 -59.988 -21.800  1.00  0.00     0.000 A 
ENDBRANCH  13  16
ENDBRANCH   1  12
BRANCH   8  22
ATOM     22  C   UNL     1      14.088 -49.745 -24.985  1.00  0.00     0.260 C 
ATOM     23  O   UNL     1      13.724 -49.544 -26.142  1.00  0.00    -0.269 OA
BRANCH  22  24
ATOM     24  C   UNL     1      15.544 -49.905 -24.735  1.00  0.00     0.041 A 
ATOM     25  C   UNL     1      16.177 -49.042 -23.833  1.00  0.00     0.014 A 
ATOM     26  C   UNL     1      16.267 -50.932 -25.353  1.00  0.00     0.034 A 
ATOM     27  C   UNL     1      17.542 -49.177 -23.577  1.00  0.00     0.002 A 
ATOM     28  C   UNL     1      17.630 -51.058 -25.091  1.00  0.00     0.041 A 
ATOM     29  C   UNL     1      18.270 -50.184 -24.213  1.00  0.00     0.020 A 
ATOM     30  Cl  UNL     1      18.531 -52.304 -25.863  1.00  0.00    -0.084 Cl
ENDBRANCH  22  24
ENDBRANCH   8  22
TORSDOF 4
ENDMDL
MODEL 7
REMARK VINA RESULT:    -9.963      4.640     11.053
REMARK INTER + INTRA:         -13.168
REMARK INTER:                 -13.070
REMARK INTRA:                  -0.098
REMARK UNBOUND:                -0.876
REMARK SMILES O=C(Nc1ccc2c(c1)CN(C(=O)c1cccc(Cl)c1)C(=O)C2)c1ccccc1
REMARK SMILES IDX 4 1 5 2 6 3 7 4 8 5 9 6 10 7 11 8 21 9 22 10 23 11 3 12 2 13
REMARK SMILES IDX 1 14 24 16 25 17 29 18 26 19 28 20 27 21 12 22 13 23 14 24
REMARK SMILES IDX 15 25 20 26 16 27 18 28 17 29 19 30
REMARK H PARENT 3 15
ROOT
ATOM      1  C   UNL     1      12.186 -54.629 -24.708  1.00  0.00     0.041 A 
ATOM      2  C   UNL     1      12.832 -54.618 -25.945  1.00  0.00     0.026 A 
ATOM      3  C   UNL     1      13.359 -53.431 -26.463  1.00  0.00     0.007 A 
ATOM      4  C   UNL     1      13.257 -52.238 -25.744  1.00  0.00    -0.033 A 
ATOM      5  C   UNL     1      12.608 -52.235 -24.507  1.00  0.00    -0.022 A 
ATOM      6  C   UNL     1      12.069 -53.427 -23.997  1.00  0.00     0.032 A 
ATOM      7  C   UNL     1      12.456 -50.927 -23.784  1.00  0.00     0.164 C 
ATOM      8  N   UNL     1      13.605 -50.057 -23.995  1.00  0.00    -0.274 N 
ATOM      9  C   UNL     1      14.105 -49.874 -25.273  1.00  0.00     0.234 C 
ATOM     10  O   UNL     1      14.709 -48.858 -25.625  1.00  0.00    -0.274 OA
ATOM     11  C   UNL     1      13.781 -50.944 -26.306  1.00  0.00     0.136 C 
ENDROOT
BRANCH   1  12
ATOM     12  N   UNL     1      11.621 -55.782 -24.125  1.00  0.00    -0.322 N 
ATOM     13  C   UNL     1      11.153 -55.926 -22.830  1.00  0.00     0.255 C 
ATOM     14  O   UNL     1      11.093 -55.056 -21.969  1.00  0.00    -0.269 OA
ATOM     15  H   UNL     1      11.474 -56.565 -24.749  1.00  0.00     0.170 HD
BRANCH  13  16
ATOM     16  C   UNL     1      10.641 -57.284 -22.499  1.00  0.00     0.040 A 
ATOM     17  C   UNL     1      11.328 -58.043 -21.544  1.00  0.00     0.014 A 
ATOM     18  C   UNL     1       9.516 -57.823 -23.138  1.00  0.00     0.014 A 
ATOM     19  C   UNL     1      10.875 -59.319 -21.206  1.00  0.00     0.001 A 
ATOM     20  C   UNL     1       9.069 -59.102 -22.798  1.00  0.00     0.001 A 
ATOM     21  C   UNL     1       9.744 -59.846 -21.830  1.00  0.00     0.000 A 
ENDBRANCH  13  16
ENDBRANCH   1  12
BRANCH   8  22
ATOM     22  C   UNL     1      14.149 -49.311 -22.962  1.00  0.00     0.260 C 
ATOM     23  O   UNL     1      15.152 -49.641 -22.334  1.00  0.00    -0.269 OA
BRANCH  22  24
ATOM     24  C   UNL     1      13.398 -48.118 -22.493  1.00  0.00     0.041 A 
ATOM     25  C   UNL     1      13.690 -47.585 -21.231  1.00  0.00     0.014 A 
ATOM     26  C   UNL     1      12.447 -47.502 -23.314  1.00  0.00     0.034 A 
ATOM     27  C   UNL     1      13.003 -46.461 -20.772  1.00  0.00     0.002 A 
ATOM     28  C   UNL     1      11.766 -46.381 -22.845  1.00  0.00     0.041 A 
ATOM     29  C   UNL     1      12.035 -45.862 -21.579  1.00  0.00     0.020 A 
ATOM     30  Cl  UNL     1      10.579 -45.631 -23.840  1.00  0.00    -0.084 Cl
ENDBRANCH  22  24
ENDBRANCH   8  22
TORSDOF 4
ENDMDL
MODEL 8
REMARK VINA RESULT:    -9.863      4.153      8.055
REMARK INTER + INTRA:         -13.045
REMARK INTER:                 -12.936
REMARK INTRA:                  -0.108
REMARK UNBOUND:                -0.876
REMARK SMILES O=C(Nc1ccc2c(c1)CN(C(=O)c1cccc(Cl)c1)C(=O)C2)c1ccccc1
REMARK SMILES IDX 4 1 5 2 6 3 7 4 8 5 9 6 10 7 11 8 21 9 22 10 23 11 3 12 2 13
REMARK SMILES IDX 1 14 24 16 25 17 29 18 26 19 28 20 27 21 12 22 13 23 14 24
REMARK SMILES IDX 15 25 20 26 16 27 18 28 17 29 19 30
REMARK H PARENT 3 15
ROOT
ATOM      1  C   UNL     1      12.905 -49.326 -24.301  1.00  0.00     0.041 A 
ATOM      2  C   UNL     1      13.539 -49.667 -25.496  1.00  0.00     0.026 A 
ATOM      3  C   UNL     1      13.636 -51.004 -25.894  1.00  0.00     0.007 A 
ATOM      4  C   UNL     1      13.089 -52.019 -25.106  1.00  0.00    -0.033 A 
ATOM      5  C   UNL     1      12.456 -51.690 -23.904  1.00  0.00    -0.022 A 
ATOM      6  C   UNL     1      12.373 -50.348 -23.503  1.00  0.00     0.032 A 
ATOM      7  C   UNL     1      11.933 -52.805 -23.045  1.00  0.00     0.164 C 
ATOM      8  N   UNL     1      11.425 -53.911 -23.846  1.00  0.00    -0.274 N 
ATOM      9  C   UNL     1      12.173 -54.397 -24.903  1.00  0.00     0.234 C 
ATOM     10  O   UNL     1      12.094 -55.557 -25.314  1.00  0.00    -0.274 OA
ATOM     11  C   UNL     1      13.221 -53.466 -25.498  1.00  0.00     0.136 C 
ENDROOT
BRANCH   1  12
ATOM     12  N   UNL     1      12.777 -48.003 -23.827  1.00  0.00    -0.322 N 
ATOM     13  C   UNL     1      11.640 -47.400 -23.318  1.00  0.00     0.255 C 
ATOM     14  O   UNL     1      10.550 -47.925 -23.131  1.00  0.00    -0.269 OA
ATOM     15  H   UNL     1      13.632 -47.465 -23.789  1.00  0.00     0.170 HD
BRANCH  13  16
ATOM     16  C   UNL     1      11.813 -45.973 -22.930  1.00  0.00     0.040 A 
ATOM     17  C   UNL     1      10.751 -45.088 -23.148  1.00  0.00     0.014 A 
ATOM     18  C   UNL     1      13.013 -45.498 -22.383  1.00  0.00     0.014 A 
ATOM     19  C   UNL     1      10.876 -43.743 -22.794  1.00  0.00     0.001 A 
ATOM     20  C   UNL     1      13.134 -44.151 -22.033  1.00  0.00     0.001 A 
ATOM     21  C   UNL     1      12.065 -43.277 -22.233  1.00  0.00     0.000 A 
ENDBRANCH  13  16
ENDBRANCH   1  12
BRANCH   8  22
ATOM     22  C   UNL     1      10.255 -54.573 -23.508  1.00  0.00     0.260 C 
ATOM     23  O   UNL     1       9.149 -54.038 -23.483  1.00  0.00    -0.269 OA
BRANCH  22  24
ATOM     24  C   UNL     1      10.361 -55.969 -23.013  1.00  0.00     0.041 A 
ATOM     25  C   UNL     1      11.283 -56.262 -22.000  1.00  0.00     0.014 A 
ATOM     26  C   UNL     1       9.523 -56.972 -23.513  1.00  0.00     0.034 A 
ATOM     27  C   UNL     1      11.395 -57.565 -21.514  1.00  0.00     0.002 A 
ATOM     28  C   UNL     1       9.644 -58.270 -23.021  1.00  0.00     0.041 A 
ATOM     29  C   UNL     1      10.579 -58.572 -22.030  1.00  0.00     0.020 A 
ATOM     30  Cl  UNL     1       8.631 -59.513 -23.646  1.00  0.00    -0.084 Cl
ENDBRANCH  22  24
ENDBRANCH   8  22
TORSDOF 4
ENDMDL
MODEL 9
REMARK VINA RESULT:    -9.560      5.046     11.395
REMARK INTER + INTRA:         -12.671
REMARK INTER:                 -11.770
REMARK INTRA:                  -0.900
REMARK UNBOUND:                -0.876
REMARK SMILES O=C(Nc1ccc2c(c1)CN(C(=O)c1cccc(Cl)c1)C(=O)C2)c1ccccc1
REMARK SMILES IDX 4 1 5 2 6 3 7 4 8 5 9 6 10 7 11 8 21 9 22 10 23 11 3 12 2 13
REMARK SMILES IDX 1 14 24 16 25 17 29 18 26 19 28 20 27 21 12 22 13 23 14 24
REMARK SMILES IDX 15 25 20 26 16 27 18 28 17 29 19 30
REMARK H PARENT 3 15
ROOT
ATOM      1  C   UNL     1      10.855 -52.953 -22.308  1.00  0.00     0.041 A 
ATOM      2  C   UNL     1       9.613 -52.337 -22.160  1.00  0.00     0.026 A 
ATOM      3  C   UNL     1       9.496 -50.945 -22.226  1.00  0.00     0.007 A 
ATOM      4  C   UNL     1      10.622 -50.150 -22.452  1.00  0.00    -0.033 A 
ATOM      5  C   UNL     1      11.873 -50.756 -22.596  1.00  0.00    -0.022 A 
ATOM      6  C   UNL     1      11.986 -52.153 -22.516  1.00  0.00     0.032 A 
ATOM      7  C   UNL     1      13.076 -49.875 -22.775  1.00  0.00     0.164 C 
ATOM      8  N   UNL     1      12.761 -48.682 -23.549  1.00  0.00    -0.274 N 
ATOM      9  C   UNL     1      11.633 -47.941 -23.245  1.00  0.00     0.234 C 
ATOM     10  O   UNL     1      11.532 -46.734 -23.479  1.00  0.00    -0.274 OA
ATOM     11  C   UNL     1      10.521 -48.648 -22.483  1.00  0.00     0.136 C 
ENDROOT
BRANCH   1  12
ATOM     12  N   UNL     1      11.054 -54.349 -22.243  1.00  0.00    -0.322 N 
ATOM     13  C   UNL     1      11.232 -55.221 -23.303  1.00  0.00     0.255 C 
ATOM     14  O   UNL     1      11.308 -54.931 -24.490  1.00  0.00    -0.269 OA
ATOM     15  H   UNL     1      11.152 -54.737 -21.315  1.00  0.00     0.170 HD
BRANCH  13  16
ATOM     16  C   UNL     1      11.385 -56.651 -22.914  1.00  0.00     0.040 A 
ATOM     17  C   UNL     1      11.211 -57.000 -21.569  1.00  0.00     0.014 A 
ATOM     18  C   UNL     1      11.724 -57.637 -23.851  1.00  0.00     0.014 A 
ATOM     19  C   UNL     1      11.343 -58.330 -21.169  1.00  0.00     0.001 A 
ATOM     20  C   UNL     1      11.857 -58.966 -23.444  1.00  0.00     0.001 A 
ATOM     21  C   UNL     1      11.662 -59.313 -22.107  1.00  0.00     0.000 A 
ENDBRANCH  13  16
ENDBRANCH   1  12
BRANCH   8  22
ATOM     22  C   UNL     1      13.626 -48.198 -24.517  1.00  0.00     0.260 C 
ATOM     23  O   UNL     1      13.382 -48.212 -25.722  1.00  0.00    -0.269 OA
BRANCH  22  24
ATOM     24  C   UNL     1      14.982 -47.767 -24.090  1.00  0.00     0.041 A 
ATOM     25  C   UNL     1      16.088 -48.543 -24.458  1.00  0.00     0.014 A 
ATOM     26  C   UNL     1      15.163 -46.580 -23.371  1.00  0.00     0.034 A 
ATOM     27  C   UNL     1      17.372 -48.154 -24.074  1.00  0.00     0.002 A 
ATOM     28  C   UNL     1      16.449 -46.202 -22.991  1.00  0.00     0.041 A 
ATOM     29  C   UNL     1      17.551 -46.985 -23.333  1.00  0.00     0.020 A 
ATOM     30  Cl  UNL     1      16.677 -44.755 -22.088  1.00  0.00    -0.084 Cl
ENDBRANCH  22  24
ENDBRANCH   8  22
TORSDOF 4
ENDMDL
