MODEL 1
REMARK VINA RESULT:   -11.901      0.000      0.000
REMARK INTER + INTRA:         -16.783
REMARK INTER:                 -16.075
REMARK INTRA:                  -0.708
REMARK UNBOUND:                -0.708
REMARK SMILES COc1cc2c(cc1OC)C(=O)/C(=C/c1cc[n+](Cc3ccccc3F)cc1)C2
REMARK SMILES IDX 15 1 16 2 17 3 18 4 27 5 28 6 14 7 13 8 3 9 4 10 8 11 5 12
REMARK SMILES IDX 7 13 6 14 29 15 11 16 12 17 2 18 1 19 9 20 10 21 19 22 20 23
REMARK SMILES IDX 21 24 25 25 22 26 24 27 23 28 26 29
REMARK H PARENT
ROOT
ATOM      1  C   UNL     1      10.437 -57.454 -23.121  1.00  0.00    -0.013 A 
ATOM      2  C   UNL     1       9.245 -58.081 -23.475  1.00  0.00     0.079 A 
ATOM      3  C   UNL     1       9.280 -59.292 -24.158  1.00  0.00     0.309 A 
ATOM      4  N   UNL     1      10.461 -59.871 -24.474  1.00  0.00    -0.201 N 
ATOM      5  C   UNL     1      11.630 -59.282 -24.130  1.00  0.00     0.309 A 
ATOM      6  C   UNL     1      11.642 -58.070 -23.449  1.00  0.00     0.079 A 
ENDROOT
BRANCH   1   7
ATOM      7  C   UNL     1      10.388 -56.207 -22.358  1.00  0.00     0.016 C 
BRANCH   7   8
ATOM      8  C   UNL     1      10.915 -55.037 -22.746  1.00  0.00     0.005 C 
ATOM      9  C   UNL     1      12.664 -50.943 -24.282  1.00  0.00     0.161 A 
ATOM     10  C   UNL     1      12.538 -52.287 -24.667  1.00  0.00     0.055 A 
ATOM     11  C   UNL     1      12.146 -50.498 -23.032  1.00  0.00     0.161 A 
ATOM     12  C   UNL     1      11.900 -53.168 -23.808  1.00  0.00    -0.028 A 
ATOM     13  C   UNL     1      11.504 -51.397 -22.176  1.00  0.00     0.063 A 
ATOM     14  C   UNL     1      11.400 -52.711 -22.590  1.00  0.00     0.030 A 
ATOM     15  C   UNL     1      11.652 -54.634 -23.998  1.00  0.00     0.076 C 
ATOM     16  C   UNL     1      10.773 -53.827 -21.876  1.00  0.00     0.189 C 
ATOM     17  O   UNL     1      10.236 -53.776 -20.790  1.00  0.00    -0.289 OA
BRANCH   9  18
ATOM     18  O   UNL     1      13.275 -49.978 -25.046  1.00  0.00    -0.493 OA
ATOM     19  C   UNL     1      14.037 -50.396 -26.169  1.00  0.00     0.278 C 
ENDBRANCH   9  18
BRANCH  11  20
ATOM     20  O   UNL     1      12.323 -49.164 -22.755  1.00  0.00    -0.493 OA
ATOM     21  C   UNL     1      11.182 -48.320 -22.808  1.00  0.00     0.278 C 
ENDBRANCH  11  20
ENDBRANCH   7   8
ENDBRANCH   1   7
BRANCH   4  22
ATOM     22  C   UNL     1      10.471 -61.169 -25.200  1.00  0.00     0.396 C 
BRANCH  22  23
ATOM     23  C   UNL     1       9.531 -62.150 -24.565  1.00  0.00     0.052 A 
ATOM     24  C   UNL     1       8.318 -62.510 -25.171  1.00  0.00     0.013 A 
ATOM     25  C   UNL     1       9.858 -62.724 -23.333  1.00  0.00     0.132 A 
ATOM     26  C   UNL     1       7.463 -63.418 -24.542  1.00  0.00     0.001 A 
ATOM     27  C   UNL     1       9.011 -63.627 -22.702  1.00  0.00     0.040 A 
ATOM     28  C   UNL     1       7.808 -63.975 -23.310  1.00  0.00     0.003 A 
ATOM     29  F   UNL     1      11.014 -62.391 -22.744  1.00  0.00    -0.206 F 
ENDBRANCH  22  23
ENDBRANCH   4  22
TORSDOF 6
ENDMDL
MODEL 2
REMARK VINA RESULT:   -11.312      1.196      1.583
REMARK INTER + INTRA:         -15.988
REMARK INTER:                 -15.393
REMARK INTRA:                  -0.596
REMARK UNBOUND:                -0.708
REMARK SMILES COc1cc2c(cc1OC)C(=O)/C(=C/c1cc[n+](Cc3ccccc3F)cc1)C2
REMARK SMILES IDX 15 1 16 2 17 3 18 4 27 5 28 6 14 7 13 8 3 9 4 10 8 11 5 12
REMARK SMILES IDX 7 13 6 14 29 15 11 16 12 17 2 18 1 19 9 20 10 21 19 22 20 23
REMARK SMILES IDX 21 24 25 25 22 26 24 27 23 28 26 29
REMARK H PARENT
ROOT
ATOM      1  C   UNL     1      10.184 -57.005 -22.727  1.00  0.00    -0.013 A 
ATOM      2  C   UNL     1       9.159 -57.838 -23.167  1.00  0.00     0.079 A 
ATOM      3  C   UNL     1       9.390 -59.202 -23.307  1.00  0.00     0.309 A 
ATOM      4  N   UNL     1      10.601 -59.730 -23.013  1.00  0.00    -0.201 N 
ATOM      5  C   UNL     1      11.607 -58.939 -22.573  1.00  0.00     0.309 A 
ATOM      6  C   UNL     1      11.420 -57.569 -22.420  1.00  0.00     0.079 A 
ENDROOT
BRANCH   1   7
ATOM      7  C   UNL     1       9.914 -55.582 -22.532  1.00  0.00     0.016 C 
BRANCH   7   8
ATOM      8  C   UNL     1      10.669 -54.577 -22.999  1.00  0.00     0.005 C 
ATOM      9  C   UNL     1      13.225 -51.062 -24.814  1.00  0.00     0.161 A 
ATOM     10  C   UNL     1      12.868 -52.395 -25.071  1.00  0.00     0.055 A 
ATOM     11  C   UNL     1      12.740 -50.395 -23.652  1.00  0.00     0.161 A 
ATOM     12  C   UNL     1      12.035 -53.045 -24.173  1.00  0.00    -0.028 A 
ATOM     13  C   UNL     1      11.901 -51.063 -22.756  1.00  0.00     0.063 A 
ATOM     14  C   UNL     1      11.572 -52.374 -23.043  1.00  0.00     0.030 A 
ATOM     15  C   UNL     1      11.527 -54.454 -24.233  1.00  0.00     0.076 C 
ATOM     16  C   UNL     1      10.715 -53.272 -22.265  1.00  0.00     0.189 C 
ATOM     17  O   UNL     1      10.145 -53.005 -21.228  1.00  0.00    -0.289 OA
BRANCH   9  18
ATOM     18  O   UNL     1      14.040 -50.314 -25.628  1.00  0.00    -0.493 OA
ATOM     19  C   UNL     1      15.400 -50.702 -25.752  1.00  0.00     0.278 C 
ENDBRANCH   9  18
BRANCH  11  20
ATOM     20  O   UNL     1      13.150 -49.093 -23.498  1.00  0.00    -0.493 OA
ATOM     21  C   UNL     1      12.931 -48.474 -22.238  1.00  0.00     0.278 C 
ENDBRANCH  11  20
ENDBRANCH   7   8
ENDBRANCH   1   7
BRANCH   4  22
ATOM     22  C   UNL     1      10.821 -61.192 -23.167  1.00  0.00     0.396 C 
BRANCH  22  23
ATOM     23  C   UNL     1       9.875 -61.778 -24.172  1.00  0.00     0.052 A 
ATOM     24  C   UNL     1       8.793 -62.583 -23.788  1.00  0.00     0.013 A 
ATOM     25  C   UNL     1      10.070 -61.528 -25.534  1.00  0.00     0.132 A 
ATOM     26  C   UNL     1       7.941 -63.122 -24.755  1.00  0.00     0.001 A 
ATOM     27  C   UNL     1       9.228 -62.062 -26.501  1.00  0.00     0.040 A 
ATOM     28  C   UNL     1       8.158 -62.863 -26.109  1.00  0.00     0.003 A 
ATOM     29  F   UNL     1      11.099 -60.759 -25.916  1.00  0.00    -0.206 F 
ENDBRANCH  22  23
ENDBRANCH   4  22
TORSDOF 6
ENDMDL
MODEL 3
REMARK VINA RESULT:   -11.153      1.320      2.423
REMARK INTER + INTRA:         -15.773
REMARK INTER:                 -15.472
REMARK INTRA:                  -0.300
REMARK UNBOUND:                -0.708
REMARK SMILES COc1cc2c(cc1OC)C(=O)/C(=C/c1cc[n+](Cc3ccccc3F)cc1)C2
REMARK SMILES IDX 15 1 16 2 17 3 18 4 27 5 28 6 14 7 13 8 3 9 4 10 8 11 5 12
REMARK SMILES IDX 7 13 6 14 29 15 11 16 12 17 2 18 1 19 9 20 10 21 19 22 20 23
REMARK SMILES IDX 21 24 25 25 22 26 24 27 23 28 26 29
REMARK H PARENT
ROOT
ATOM      1  C   UNL     1      10.178 -57.005 -22.746  1.00  0.00    -0.013 A 
ATOM      2  C   UNL     1       9.360 -57.845 -23.497  1.00  0.00     0.079 A 
ATOM      3  C   UNL     1       9.779 -59.139 -23.785  1.00  0.00     0.309 A 
ATOM      4  N   UNL     1      10.971 -59.594 -23.335  1.00  0.00    -0.201 N 
ATOM      5  C   UNL     1      11.776 -58.797 -22.595  1.00  0.00     0.309 A 
ATOM      6  C   UNL     1      11.398 -57.495 -22.285  1.00  0.00     0.079 A 
ENDROOT
BRANCH   1   7
ATOM      7  C   UNL     1       9.704 -55.665 -22.406  1.00  0.00     0.016 C 
BRANCH   7   8
ATOM      8  C   UNL     1      10.389 -54.527 -22.594  1.00  0.00     0.005 C 
ATOM      9  C   UNL     1      12.881 -50.560 -23.076  1.00  0.00     0.161 A 
ATOM     10  C   UNL     1      11.996 -51.190 -22.187  1.00  0.00     0.055 A 
ATOM     11  C   UNL     1      13.256 -51.197 -24.295  1.00  0.00     0.161 A 
ATOM     12  C   UNL     1      11.498 -52.440 -22.519  1.00  0.00    -0.028 A 
ATOM     13  C   UNL     1      12.746 -52.457 -24.616  1.00  0.00     0.063 A 
ATOM     14  C   UNL     1      11.877 -53.045 -23.715  1.00  0.00     0.030 A 
ATOM     15  C   UNL     1      10.546 -53.295 -21.738  1.00  0.00     0.076 C 
ATOM     16  C   UNL     1      11.221 -54.350 -23.826  1.00  0.00     0.189 C 
ATOM     17  O   UNL     1      11.336 -55.139 -24.741  1.00  0.00    -0.289 OA
BRANCH   9  18
ATOM     18  O   UNL     1      13.441 -49.325 -22.858  1.00  0.00    -0.493 OA
ATOM     19  C   UNL     1      12.665 -48.348 -22.181  1.00  0.00     0.278 C 
ENDBRANCH   9  18
BRANCH  11  20
ATOM     20  O   UNL     1      14.127 -50.493 -25.090  1.00  0.00    -0.493 OA
ATOM     21  C   UNL     1      14.051 -50.695 -26.495  1.00  0.00     0.278 C 
ENDBRANCH  11  20
ENDBRANCH   7   8
ENDBRANCH   1   7
BRANCH   4  22
ATOM     22  C   UNL     1      11.394 -60.983 -23.653  1.00  0.00     0.396 C 
BRANCH  22  23
ATOM     23  C   UNL     1      10.234 -61.932 -23.578  1.00  0.00     0.052 A 
ATOM     24  C   UNL     1       9.866 -62.556 -22.378  1.00  0.00     0.013 A 
ATOM     25  C   UNL     1       9.495 -62.214 -24.731  1.00  0.00     0.132 A 
ATOM     26  C   UNL     1       8.787 -63.444 -22.350  1.00  0.00     0.001 A 
ATOM     27  C   UNL     1       8.422 -63.097 -24.712  1.00  0.00     0.040 A 
ATOM     28  C   UNL     1       8.067 -63.714 -23.515  1.00  0.00     0.003 A 
ATOM     29  F   UNL     1       9.835 -61.624 -25.885  1.00  0.00    -0.206 F 
ENDBRANCH  22  23
ENDBRANCH   4  22
TORSDOF 6
ENDMDL
MODEL 4
REMARK VINA RESULT:   -10.493      1.777      2.916
REMARK INTER + INTRA:         -14.882
REMARK INTER:                 -14.566
REMARK INTRA:                  -0.316
REMARK UNBOUND:                -0.708
REMARK SMILES COc1cc2c(cc1OC)C(=O)/C(=C/c1cc[n+](Cc3ccccc3F)cc1)C2
REMARK SMILES IDX 15 1 16 2 17 3 18 4 27 5 28 6 14 7 13 8 3 9 4 10 8 11 5 12
REMARK SMILES IDX 7 13 6 14 29 15 11 16 12 17 2 18 1 19 9 20 10 21 19 22 20 23
REMARK SMILES IDX 21 24 25 25 22 26 24 27 23 28 26 29
REMARK H PARENT
ROOT
ATOM      1  C   UNL     1      10.051 -56.684 -22.651  1.00  0.00    -0.013 A 
ATOM      2  C   UNL     1       9.071 -57.535 -23.154  1.00  0.00     0.079 A 
ATOM      3  C   UNL     1       9.406 -58.833 -23.522  1.00  0.00     0.309 A 
ATOM      4  N   UNL     1      10.676 -59.282 -23.387  1.00  0.00    -0.201 N 
ATOM      5  C   UNL     1      11.640 -58.474 -22.889  1.00  0.00     0.309 A 
ATOM      6  C   UNL     1      11.350 -57.168 -22.511  1.00  0.00     0.079 A 
ENDROOT
BRANCH   1   7
ATOM      7  C   UNL     1       9.675 -55.339 -22.218  1.00  0.00     0.016 C 
BRANCH   7   8
ATOM      8  C   UNL     1      10.391 -54.226 -22.433  1.00  0.00     0.005 C 
ATOM      9  C   UNL     1      13.008 -50.353 -23.014  1.00  0.00     0.161 A 
ATOM     10  C   UNL     1      12.170 -50.971 -22.072  1.00  0.00     0.055 A 
ATOM     11  C   UNL     1      13.255 -50.969 -24.275  1.00  0.00     0.161 A 
ATOM     12  C   UNL     1      11.592 -52.189 -22.394  1.00  0.00    -0.028 A 
ATOM     13  C   UNL     1      12.667 -52.197 -24.586  1.00  0.00     0.063 A 
ATOM     14  C   UNL     1      11.848 -52.774 -23.633  1.00  0.00     0.030 A 
ATOM     15  C   UNL     1      10.670 -53.027 -21.561  1.00  0.00     0.076 C 
ATOM     16  C   UNL     1      11.129 -54.047 -23.724  1.00  0.00     0.189 C 
ATOM     17  O   UNL     1      11.136 -54.813 -24.665  1.00  0.00    -0.289 OA
BRANCH   9  18
ATOM     18  O   UNL     1      13.636 -49.148 -22.811  1.00  0.00    -0.493 OA
ATOM     19  C   UNL     1      12.837 -47.976 -22.756  1.00  0.00     0.278 C 
ENDBRANCH   9  18
BRANCH  11  20
ATOM     20  O   UNL     1      14.089 -50.279 -25.121  1.00  0.00    -0.493 OA
ATOM     21  C   UNL     1      14.179 -50.721 -26.468  1.00  0.00     0.278 C 
ENDBRANCH  11  20
ENDBRANCH   7   8
ENDBRANCH   1   7
BRANCH   4  22
ATOM     22  C   UNL     1      11.008 -60.675 -23.783  1.00  0.00     0.396 C 
BRANCH  22  23
ATOM     23  C   UNL     1      10.520 -60.975 -25.169  1.00  0.00     0.052 A 
ATOM     24  C   UNL     1       9.492 -61.899 -25.408  1.00  0.00     0.013 A 
ATOM     25  C   UNL     1      11.102 -60.327 -26.263  1.00  0.00     0.132 A 
ATOM     26  C   UNL     1       9.074 -62.161 -26.715  1.00  0.00     0.001 A 
ATOM     27  C   UNL     1      10.692 -60.583 -27.565  1.00  0.00     0.040 A 
ATOM     28  C   UNL     1       9.673 -61.505 -27.792  1.00  0.00     0.003 A 
ATOM     29  F   UNL     1      12.084 -59.440 -26.049  1.00  0.00    -0.206 F 
ENDBRANCH  22  23
ENDBRANCH   4  22
TORSDOF 6
ENDMDL
MODEL 5
REMARK VINA RESULT:   -10.398      2.162      3.480
REMARK INTER + INTRA:         -14.753
REMARK INTER:                 -14.310
REMARK INTRA:                  -0.443
REMARK UNBOUND:                -0.708
REMARK SMILES COc1cc2c(cc1OC)C(=O)/C(=C/c1cc[n+](Cc3ccccc3F)cc1)C2
REMARK SMILES IDX 15 1 16 2 17 3 18 4 27 5 28 6 14 7 13 8 3 9 4 10 8 11 5 12
REMARK SMILES IDX 7 13 6 14 29 15 11 16 12 17 2 18 1 19 9 20 10 21 19 22 20 23
REMARK SMILES IDX 21 24 25 25 22 26 24 27 23 28 26 29
REMARK H PARENT
ROOT
ATOM      1  C   UNL     1      10.102 -59.124 -22.375  1.00  0.00    -0.013 A 
ATOM      2  C   UNL     1      10.323 -60.477 -22.132  1.00  0.00     0.079 A 
ATOM      3  C   UNL     1       9.523 -61.429 -22.756  1.00  0.00     0.309 A 
ATOM      4  N   UNL     1       8.538 -61.053 -23.603  1.00  0.00    -0.201 N 
ATOM      5  C   UNL     1       8.314 -59.743 -23.860  1.00  0.00     0.309 A 
ATOM      6  C   UNL     1       9.088 -58.758 -23.257  1.00  0.00     0.079 A 
ENDROOT
BRANCH   1   7
ATOM      7  C   UNL     1      10.982 -58.135 -21.754  1.00  0.00     0.016 C 
BRANCH   7   8
ATOM      8  C   UNL     1      11.096 -56.853 -22.130  1.00  0.00     0.005 C 
ATOM      9  C   UNL     1      11.599 -52.312 -23.276  1.00  0.00     0.161 A 
ATOM     10  C   UNL     1      11.122 -53.127 -22.237  1.00  0.00     0.055 A 
ATOM     11  C   UNL     1      12.145 -52.892 -24.457  1.00  0.00     0.161 A 
ATOM     12  C   UNL     1      11.196 -54.504 -22.385  1.00  0.00    -0.028 A 
ATOM     13  C   UNL     1      12.214 -54.281 -24.592  1.00  0.00     0.063 A 
ATOM     14  C   UNL     1      11.735 -55.050 -23.548  1.00  0.00     0.030 A 
ATOM     15  C   UNL     1      10.751 -55.565 -21.424  1.00  0.00     0.076 C 
ATOM     16  C   UNL     1      11.703 -56.512 -23.456  1.00  0.00     0.189 C 
ATOM     17  O   UNL     1      12.098 -57.296 -24.293  1.00  0.00    -0.289 OA
BRANCH   9  18
ATOM     18  O   UNL     1      11.580 -50.939 -23.245  1.00  0.00    -0.493 OA
ATOM     19  C   UNL     1      11.912 -50.291 -22.027  1.00  0.00     0.278 C 
ENDBRANCH   9  18
BRANCH  11  20
ATOM     20  O   UNL     1      12.582 -52.003 -25.409  1.00  0.00    -0.493 OA
ATOM     21  C   UNL     1      13.952 -52.056 -25.784  1.00  0.00     0.278 C 
ENDBRANCH  11  20
ENDBRANCH   7   8
ENDBRANCH   1   7
BRANCH   4  22
ATOM     22  C   UNL     1       7.700 -62.090 -24.261  1.00  0.00     0.396 C 
BRANCH  22  23
ATOM     23  C   UNL     1       8.142 -62.325 -25.675  1.00  0.00     0.052 A 
ATOM     24  C   UNL     1       9.116 -61.524 -26.288  1.00  0.00     0.013 A 
ATOM     25  C   UNL     1       7.570 -63.364 -26.416  1.00  0.00     0.132 A 
ATOM     26  C   UNL     1       9.492 -61.765 -27.611  1.00  0.00     0.001 A 
ATOM     27  C   UNL     1       7.938 -63.609 -27.733  1.00  0.00     0.040 A 
ATOM     28  C   UNL     1       8.904 -62.805 -28.333  1.00  0.00     0.003 A 
ATOM     29  F   UNL     1       6.639 -64.138 -25.842  1.00  0.00    -0.206 F 
ENDBRANCH  22  23
ENDBRANCH   4  22
TORSDOF 6
ENDMDL
MODEL 6
REMARK VINA RESULT:   -10.361      4.303     10.293
REMARK INTER + INTRA:         -14.703
REMARK INTER:                 -14.089
REMARK INTRA:                  -0.614
REMARK UNBOUND:                -0.708
REMARK SMILES COc1cc2c(cc1OC)C(=O)/C(=C/c1cc[n+](Cc3ccccc3F)cc1)C2
REMARK SMILES IDX 15 1 16 2 17 3 18 4 27 5 28 6 14 7 13 8 3 9 4 10 8 11 5 12
REMARK SMILES IDX 7 13 6 14 29 15 11 16 12 17 2 18 1 19 9 20 10 21 19 22 20 23
REMARK SMILES IDX 21 24 25 25 22 26 24 27 23 28 26 29
REMARK H PARENT
ROOT
ATOM      1  C   UNL     1      11.005 -56.343 -22.290  1.00  0.00    -0.013 A 
ATOM      2  C   UNL     1      11.026 -55.577 -21.128  1.00  0.00     0.079 A 
ATOM      3  C   UNL     1      10.610 -54.250 -21.169  1.00  0.00     0.309 A 
ATOM      4  N   UNL     1      10.177 -53.699 -22.326  1.00  0.00    -0.201 N 
ATOM      5  C   UNL     1      10.139 -54.430 -23.464  1.00  0.00     0.309 A 
ATOM      6  C   UNL     1      10.547 -55.759 -23.469  1.00  0.00     0.079 A 
ENDROOT
BRANCH   1   7
ATOM      7  C   UNL     1      11.395 -57.751 -22.224  1.00  0.00     0.016 C 
BRANCH   7   8
ATOM      8  C   UNL     1      10.780 -58.758 -22.860  1.00  0.00     0.005 C 
ATOM      9  C   UNL     1       8.441 -62.205 -25.058  1.00  0.00     0.161 A 
ATOM     10  C   UNL     1       8.481 -61.526 -23.830  1.00  0.00     0.055 A 
ATOM     11  C   UNL     1       9.349 -61.864 -26.102  1.00  0.00     0.161 A 
ATOM     12  C   UNL     1       9.417 -60.519 -23.657  1.00  0.00    -0.028 A 
ATOM     13  C   UNL     1      10.288 -60.846 -25.914  1.00  0.00     0.063 A 
ATOM     14  C   UNL     1      10.296 -60.201 -24.691  1.00  0.00     0.030 A 
ATOM     15  C   UNL     1       9.649 -59.666 -22.446  1.00  0.00     0.076 C 
ATOM     16  C   UNL     1      11.174 -59.111 -24.261  1.00  0.00     0.189 C 
ATOM     17  O   UNL     1      12.051 -58.589 -24.918  1.00  0.00    -0.289 OA
BRANCH   9  18
ATOM     18  O   UNL     1       7.560 -63.218 -25.348  1.00  0.00    -0.493 OA
ATOM     19  C   UNL     1       7.304 -64.191 -24.347  1.00  0.00     0.278 C 
ENDBRANCH   9  18
BRANCH  11  20
ATOM     20  O   UNL     1       9.224 -62.591 -27.261  1.00  0.00    -0.493 OA
ATOM     21  C   UNL     1       8.892 -61.888 -28.450  1.00  0.00     0.278 C 
ENDBRANCH  11  20
ENDBRANCH   7   8
ENDBRANCH   1   7
BRANCH   4  22
ATOM     22  C   UNL     1       9.733 -52.280 -22.342  1.00  0.00     0.396 C 
BRANCH  22  23
ATOM     23  C   UNL     1      10.882 -51.357 -22.620  1.00  0.00     0.052 A 
ATOM     24  C   UNL     1      12.120 -51.834 -23.074  1.00  0.00     0.013 A 
ATOM     25  C   UNL     1      10.730 -49.982 -22.419  1.00  0.00     0.132 A 
ATOM     26  C   UNL     1      13.171 -50.945 -23.309  1.00  0.00     0.001 A 
ATOM     27  C   UNL     1      11.771 -49.092 -22.650  1.00  0.00     0.040 A 
ATOM     28  C   UNL     1      12.998 -49.576 -23.097  1.00  0.00     0.003 A 
ATOM     29  F   UNL     1       9.552 -49.512 -21.987  1.00  0.00    -0.206 F 
ENDBRANCH  22  23
ENDBRANCH   4  22
TORSDOF 6
ENDMDL
MODEL 7
REMARK VINA RESULT:   -10.317      2.492      4.142
REMARK INTER + INTRA:         -14.644
REMARK INTER:                 -14.046
REMARK INTRA:                  -0.598
REMARK UNBOUND:                -0.708
REMARK SMILES COc1cc2c(cc1OC)C(=O)/C(=C/c1cc[n+](Cc3ccccc3F)cc1)C2
REMARK SMILES IDX 15 1 16 2 17 3 18 4 27 5 28 6 14 7 13 8 3 9 4 10 8 11 5 12
REMARK SMILES IDX 7 13 6 14 29 15 11 16 12 17 2 18 1 19 9 20 10 21 19 22 20 23
REMARK SMILES IDX 21 24 25 25 22 26 24 27 23 28 26 29
REMARK H PARENT
ROOT
ATOM      1  C   UNL     1      10.844 -53.385 -22.104  1.00  0.00    -0.013 A 
ATOM      2  C   UNL     1      11.044 -53.738 -23.436  1.00  0.00     0.079 A 
ATOM      3  C   UNL     1      11.232 -55.074 -23.775  1.00  0.00     0.309 A 
ATOM      4  N   UNL     1      11.214 -56.036 -22.823  1.00  0.00    -0.201 N 
ATOM      5  C   UNL     1      11.011 -55.714 -21.525  1.00  0.00     0.309 A 
ATOM      6  C   UNL     1      10.821 -54.391 -21.141  1.00  0.00     0.079 A 
ENDROOT
BRANCH   1   7
ATOM      7  C   UNL     1      10.596 -51.985 -21.766  1.00  0.00     0.016 C 
BRANCH   7   8
ATOM      8  C   UNL     1      11.159 -50.928 -22.370  1.00  0.00     0.005 C 
ATOM      9  C   UNL     1      13.164 -47.331 -24.655  1.00  0.00     0.161 A 
ATOM     10  C   UNL     1      13.405 -48.669 -24.304  1.00  0.00     0.055 A 
ATOM     11  C   UNL     1      11.954 -46.688 -24.265  1.00  0.00     0.161 A 
ATOM     12  C   UNL     1      12.442 -49.348 -23.573  1.00  0.00    -0.028 A 
ATOM     13  C   UNL     1      10.992 -47.385 -23.529  1.00  0.00     0.063 A 
ATOM     14  C   UNL     1      11.266 -48.700 -23.202  1.00  0.00     0.030 A 
ATOM     15  C   UNL     1      12.477 -50.764 -23.084  1.00  0.00     0.076 C 
ATOM     16  C   UNL     1      10.420 -49.628 -22.448  1.00  0.00     0.189 C 
ATOM     17  O   UNL     1       9.326 -49.389 -21.981  1.00  0.00    -0.289 OA
BRANCH   9  18
ATOM     18  O   UNL     1      14.040 -46.557 -25.376  1.00  0.00    -0.493 OA
ATOM     19  C   UNL     1      14.675 -47.137 -26.505  1.00  0.00     0.278 C 
ENDBRANCH   9  18
BRANCH  11  20
ATOM     20  O   UNL     1      11.821 -45.380 -24.662  1.00  0.00    -0.493 OA
ATOM     21  C   UNL     1      11.944 -44.371 -23.668  1.00  0.00     0.278 C 
ENDBRANCH  11  20
ENDBRANCH   7   8
ENDBRANCH   1   7
BRANCH   4  22
ATOM     22  C   UNL     1      11.412 -57.456 -23.212  1.00  0.00     0.396 C 
BRANCH  22  23
ATOM     23  C   UNL     1      10.138 -58.236 -23.080  1.00  0.00     0.052 A 
ATOM     24  C   UNL     1       8.907 -57.719 -23.508  1.00  0.00     0.013 A 
ATOM     25  C   UNL     1      10.163 -59.512 -22.509  1.00  0.00     0.132 A 
ATOM     26  C   UNL     1       7.739 -58.470 -23.356  1.00  0.00     0.001 A 
ATOM     27  C   UNL     1       9.005 -60.265 -22.353  1.00  0.00     0.040 A 
ATOM     28  C   UNL     1       7.788 -59.740 -22.779  1.00  0.00     0.003 A 
ATOM     29  F   UNL     1      11.333 -60.019 -22.096  1.00  0.00    -0.206 F 
ENDBRANCH  22  23
ENDBRANCH   4  22
TORSDOF 6
ENDMDL
MODEL 8
REMARK VINA RESULT:    -9.828      4.285     10.118
REMARK INTER + INTRA:         -13.984
REMARK INTER:                 -13.410
REMARK INTRA:                  -0.574
REMARK UNBOUND:                -0.708
REMARK SMILES COc1cc2c(cc1OC)C(=O)/C(=C/c1cc[n+](Cc3ccccc3F)cc1)C2
REMARK SMILES IDX 15 1 16 2 17 3 18 4 27 5 28 6 14 7 13 8 3 9 4 10 8 11 5 12
REMARK SMILES IDX 7 13 6 14 29 15 11 16 12 17 2 18 1 19 9 20 10 21 19 22 20 23
REMARK SMILES IDX 21 24 25 25 22 26 24 27 23 28 26 29
REMARK H PARENT
ROOT
ATOM      1  C   UNL     1      11.000 -56.292 -22.339  1.00  0.00    -0.013 A 
ATOM      2  C   UNL     1      10.556 -55.617 -23.473  1.00  0.00     0.079 A 
ATOM      3  C   UNL     1      10.193 -54.278 -23.381  1.00  0.00     0.309 A 
ATOM      4  N   UNL     1      10.274 -53.621 -22.202  1.00  0.00    -0.201 N 
ATOM      5  C   UNL     1      10.714 -54.256 -21.090  1.00  0.00     0.309 A 
ATOM      6  C   UNL     1      11.085 -55.595 -21.136  1.00  0.00     0.079 A 
ENDROOT
BRANCH   1   7
ATOM      7  C   UNL     1      11.429 -57.684 -22.459  1.00  0.00     0.016 C 
BRANCH   7   8
ATOM      8  C   UNL     1      10.967 -58.565 -23.358  1.00  0.00     0.005 C 
ATOM      9  C   UNL     1       9.525 -61.750 -26.514  1.00  0.00     0.161 A 
ATOM     10  C   UNL     1      10.546 -60.809 -26.303  1.00  0.00     0.055 A 
ATOM     11  C   UNL     1       8.494 -61.926 -25.546  1.00  0.00     0.161 A 
ATOM     12  C   UNL     1      10.529 -60.060 -25.137  1.00  0.00    -0.028 A 
ATOM     13  C   UNL     1       8.490 -61.164 -24.375  1.00  0.00     0.063 A 
ATOM     14  C   UNL     1       9.512 -60.249 -24.204  1.00  0.00     0.030 A 
ATOM     15  C   UNL     1      11.499 -59.005 -24.699  1.00  0.00     0.076 C 
ATOM     16  C   UNL     1       9.723 -59.347 -23.069  1.00  0.00     0.189 C 
ATOM     17  O   UNL     1       9.025 -59.257 -22.081  1.00  0.00    -0.289 OA
BRANCH   9  18
ATOM     18  O   UNL     1       9.435 -62.550 -27.627  1.00  0.00    -0.493 OA
ATOM     19  C   UNL     1       8.948 -61.973 -28.829  1.00  0.00     0.278 C 
ENDBRANCH   9  18
BRANCH  11  20
ATOM     20  O   UNL     1       7.546 -62.872 -25.853  1.00  0.00    -0.493 OA
ATOM     21  C   UNL     1       6.965 -63.598 -24.779  1.00  0.00     0.278 C 
ENDBRANCH  11  20
ENDBRANCH   7   8
ENDBRANCH   1   7
BRANCH   4  22
ATOM     22  C   UNL     1       9.884 -52.188 -22.131  1.00  0.00     0.396 C 
BRANCH  22  23
ATOM     23  C   UNL     1      11.019 -51.298 -22.546  1.00  0.00     0.052 A 
ATOM     24  C   UNL     1      12.241 -51.819 -22.994  1.00  0.00     0.013 A 
ATOM     25  C   UNL     1      10.868 -49.910 -22.482  1.00  0.00     0.132 A 
ATOM     26  C   UNL     1      13.279 -50.958 -23.360  1.00  0.00     0.001 A 
ATOM     27  C   UNL     1      11.896 -49.047 -22.843  1.00  0.00     0.040 A 
ATOM     28  C   UNL     1      13.107 -49.575 -23.283  1.00  0.00     0.003 A 
ATOM     29  F   UNL     1       9.705 -49.399 -22.057  1.00  0.00    -0.206 F 
ENDBRANCH  22  23
ENDBRANCH   4  22
TORSDOF 6
ENDMDL
MODEL 9
REMARK VINA RESULT:    -9.674      1.710      2.740
REMARK INTER + INTRA:         -13.776
REMARK INTER:                 -13.366
REMARK INTRA:                  -0.409
REMARK UNBOUND:                -0.708
REMARK SMILES COc1cc2c(cc1OC)C(=O)/C(=C/c1cc[n+](Cc3ccccc3F)cc1)C2
REMARK SMILES IDX 15 1 16 2 17 3 18 4 27 5 28 6 14 7 13 8 3 9 4 10 8 11 5 12
REMARK SMILES IDX 7 13 6 14 29 15 11 16 12 17 2 18 1 19 9 20 10 21 19 22 20 23
REMARK SMILES IDX 21 24 25 25 22 26 24 27 23 28 26 29
REMARK H PARENT
ROOT
ATOM      1  C   UNL     1      10.106 -55.357 -22.534  1.00  0.00    -0.013 A 
ATOM      2  C   UNL     1      11.153 -55.637 -21.660  1.00  0.00     0.079 A 
ATOM      3  C   UNL     1      11.469 -56.959 -21.364  1.00  0.00     0.309 A 
ATOM      4  N   UNL     1      10.774 -57.976 -21.923  1.00  0.00    -0.201 N 
ATOM      5  C   UNL     1       9.760 -57.724 -22.784  1.00  0.00     0.309 A 
ATOM      6  C   UNL     1       9.409 -56.418 -23.107  1.00  0.00     0.079 A 
ENDROOT
BRANCH   1   7
ATOM      7  C   UNL     1       9.818 -53.966 -22.879  1.00  0.00     0.016 C 
BRANCH   7   8
ATOM      8  C   UNL     1      10.723 -52.979 -22.952  1.00  0.00     0.005 C 
ATOM      9  C   UNL     1      13.916 -49.547 -23.407  1.00  0.00     0.161 A 
ATOM     10  C   UNL     1      13.731 -50.909 -23.697  1.00  0.00     0.055 A 
ATOM     11  C   UNL     1      12.894 -48.802 -22.753  1.00  0.00     0.161 A 
ATOM     12  C   UNL     1      12.534 -51.508 -23.336  1.00  0.00    -0.028 A 
ATOM     13  C   UNL     1      11.692 -49.419 -22.395  1.00  0.00     0.063 A 
ATOM     14  C   UNL     1      11.547 -50.760 -22.697  1.00  0.00     0.030 A 
ATOM     15  C   UNL     1      12.113 -52.932 -23.535  1.00  0.00     0.076 C 
ATOM     16  C   UNL     1      10.389 -51.617 -22.428  1.00  0.00     0.189 C 
ATOM     17  O   UNL     1       9.355 -51.283 -21.888  1.00  0.00    -0.289 OA
BRANCH   9  18
ATOM     18  O   UNL     1      15.055 -48.844 -23.716  1.00  0.00    -0.493 OA
ATOM     19  C   UNL     1      15.521 -48.878 -25.056  1.00  0.00     0.278 C 
ENDBRANCH   9  18
BRANCH  11  20
ATOM     20  O   UNL     1      13.180 -47.479 -22.518  1.00  0.00    -0.493 OA
ATOM     21  C   UNL     1      13.206 -47.037 -21.168  1.00  0.00     0.278 C 
ENDBRANCH  11  20
ENDBRANCH   7   8
ENDBRANCH   1   7
BRANCH   4  22
ATOM     22  C   UNL     1      11.135 -59.380 -21.594  1.00  0.00     0.396 C 
BRANCH  22  23
ATOM     23  C   UNL     1      10.821 -60.301 -22.736  1.00  0.00     0.052 A 
ATOM     24  C   UNL     1      11.321 -60.075 -24.026  1.00  0.00     0.013 A 
ATOM     25  C   UNL     1      10.003 -61.414 -22.522  1.00  0.00     0.132 A 
ATOM     26  C   UNL     1      10.996 -60.948 -25.067  1.00  0.00     0.001 A 
ATOM     27  C   UNL     1       9.674 -62.286 -23.553  1.00  0.00     0.040 A 
ATOM     28  C   UNL     1      10.174 -62.051 -24.831  1.00  0.00     0.003 A 
ATOM     29  F   UNL     1       9.519 -61.642 -21.294  1.00  0.00    -0.206 F 
ENDBRANCH  22  23
ENDBRANCH   4  22
TORSDOF 6
ENDMDL
