MODEL 1
REMARK VINA RESULT:   -11.093      0.000      0.000
REMARK INTER + INTRA:         -15.516
REMARK INTER:                 -14.984
REMARK INTRA:                  -0.533
REMARK UNBOUND:                -0.533
REMARK SMILES COc1cccc2c(CC[C@H]3CC[N@@H+](Cc4ccccc4)CC3)noc12
REMARK SMILES IDX 10 1 11 2 13 3 14 4 12 5 22 6 23 7 15 9 16 10 17 11 21 12
REMARK SMILES IDX 18 13 20 14 19 15 9 16 8 17 7 18 24 19 6 20 26 21 25 22 5 23
REMARK SMILES IDX 3 24 4 25 2 26 1 27
REMARK H PARENT 14 8
ROOT
ATOM      1  C   UNL     1      11.378 -56.557 -23.255  1.00  0.00     0.010 C 
ENDROOT
BRANCH   1   2
ATOM      2  C   UNL     1      10.592 -57.452 -22.264  1.00  0.00     0.000 C 
ATOM      3  C   UNL     1      11.767 -59.695 -22.594  1.00  0.00     0.262 C 
ATOM      4  N   UNL     1      10.494 -60.255 -23.191  1.00  0.00    -0.331 N 
ATOM      5  C   UNL     1      11.413 -58.576 -21.620  1.00  0.00     0.065 C 
ATOM      6  C   UNL     1       9.690 -59.198 -23.902  1.00  0.00     0.262 C 
ATOM      7  C   UNL     1       9.352 -58.064 -22.939  1.00  0.00     0.065 C 
ATOM      8  H   UNL     1       9.932 -60.615 -22.411  1.00  0.00     0.348 HD
BRANCH   4   9
ATOM      9  C   UNL     1      10.763 -61.441 -24.095  1.00  0.00     0.299 C 
BRANCH   9  10
ATOM     10  C   UNL     1       9.552 -62.308 -24.303  1.00  0.00     0.006 A 
ATOM     11  C   UNL     1       9.059 -63.108 -23.261  1.00  0.00     0.009 A 
ATOM     12  C   UNL     1       8.883 -62.313 -25.538  1.00  0.00     0.009 A 
ATOM     13  C   UNL     1       7.918 -63.890 -23.450  1.00  0.00     0.001 A 
ATOM     14  C   UNL     1       7.744 -63.097 -25.722  1.00  0.00     0.001 A 
ATOM     15  C   UNL     1       7.262 -63.882 -24.678  1.00  0.00     0.000 A 
ENDBRANCH   9  10
ENDBRANCH   4   9
ENDBRANCH   1   2
BRANCH   1  16
ATOM     16  C   UNL     1      10.896 -55.096 -23.322  1.00  0.00     0.061 C 
BRANCH  16  17
ATOM     17  C   UNL     1      11.717 -54.231 -24.224  1.00  0.00     0.092 A 
ATOM     18  C   UNL     1      12.097 -52.875 -24.039  1.00  0.00     0.049 A 
ATOM     19  N   UNL     1      12.201 -54.720 -25.375  1.00  0.00    -0.084 NA
ATOM     20  C   UNL     1      11.908 -51.876 -23.072  1.00  0.00     0.014 A 
ATOM     21  C   UNL     1      12.840 -52.577 -25.169  1.00  0.00     0.208 A 
ATOM     22  O   UNL     1      12.898 -53.681 -25.965  1.00  0.00    -0.352 OA
ATOM     23  C   UNL     1      12.482 -50.618 -23.298  1.00  0.00     0.005 A 
ATOM     24  C   UNL     1      13.432 -51.338 -25.436  1.00  0.00     0.164 A 
ATOM     25  C   UNL     1      13.227 -50.355 -24.456  1.00  0.00     0.050 A 
BRANCH  24  26
ATOM     26  O   UNL     1      14.131 -51.191 -26.597  1.00  0.00    -0.493 OA
ATOM     27  C   UNL     1      14.511 -49.868 -26.957  1.00  0.00     0.278 C 
ENDBRANCH  24  26
ENDBRANCH  16  17
ENDBRANCH   1  16
TORSDOF 6
ENDMDL
MODEL 2
REMARK VINA RESULT:   -10.948      2.004      2.601
REMARK INTER + INTRA:         -15.321
REMARK INTER:                 -14.707
REMARK INTRA:                  -0.615
REMARK UNBOUND:                -0.533
REMARK SMILES COc1cccc2c(CC[C@H]3CC[N@@H+](Cc4ccccc4)CC3)noc12
REMARK SMILES IDX 10 1 11 2 13 3 14 4 12 5 22 6 23 7 15 9 16 10 17 11 21 12
REMARK SMILES IDX 18 13 20 14 19 15 9 16 8 17 7 18 24 19 6 20 26 21 25 22 5 23
REMARK SMILES IDX 3 24 4 25 2 26 1 27
REMARK H PARENT 14 8
ROOT
ATOM      1  C   UNL     1      11.195 -56.706 -22.933  1.00  0.00     0.010 C 
ENDROOT
BRANCH   1   2
ATOM      2  C   UNL     1      11.028 -57.976 -22.061  1.00  0.00     0.000 C 
ATOM      3  C   UNL     1      12.081 -59.747 -23.569  1.00  0.00     0.262 C 
ATOM      4  N   UNL     1      10.722 -60.394 -23.729  1.00  0.00    -0.331 N 
ATOM      5  C   UNL     1      12.136 -59.023 -22.228  1.00  0.00     0.065 C 
ATOM      6  C   UNL     1       9.603 -59.388 -23.648  1.00  0.00     0.262 C 
ATOM      7  C   UNL     1       9.666 -58.644 -22.319  1.00  0.00     0.065 C 
ATOM      8  H   UNL     1      10.614 -61.058 -22.953  1.00  0.00     0.348 HD
BRANCH   4   9
ATOM      9  C   UNL     1      10.630 -61.218 -24.998  1.00  0.00     0.299 C 
BRANCH   9  10
ATOM     10  C   UNL     1       9.440 -62.138 -25.016  1.00  0.00     0.006 A 
ATOM     11  C   UNL     1       8.724 -62.357 -26.203  1.00  0.00     0.009 A 
ATOM     12  C   UNL     1       9.042 -62.811 -23.849  1.00  0.00     0.009 A 
ATOM     13  C   UNL     1       7.638 -63.233 -26.222  1.00  0.00     0.001 A 
ATOM     14  C   UNL     1       7.955 -63.685 -23.873  1.00  0.00     0.001 A 
ATOM     15  C   UNL     1       7.257 -63.897 -25.058  1.00  0.00     0.000 A 
ENDBRANCH   9  10
ENDBRANCH   4   9
ENDBRANCH   1   2
BRANCH   1  16
ATOM     16  C   UNL     1       9.971 -55.770 -22.947  1.00  0.00     0.061 C 
BRANCH  16  17
ATOM     17  C   UNL     1      10.300 -54.345 -22.638  1.00  0.00     0.092 A 
ATOM     18  C   UNL     1      11.216 -53.487 -23.303  1.00  0.00     0.049 A 
ATOM     19  N   UNL     1       9.693 -53.715 -21.621  1.00  0.00    -0.084 NA
ATOM     20  C   UNL     1      12.100 -53.569 -24.391  1.00  0.00     0.014 A 
ATOM     21  C   UNL     1      11.126 -52.294 -22.606  1.00  0.00     0.208 A 
ATOM     22  O   UNL     1      10.217 -52.435 -21.602  1.00  0.00    -0.352 OA
ATOM     23  C   UNL     1      12.852 -52.435 -24.719  1.00  0.00     0.005 A 
ATOM     24  C   UNL     1      11.857 -51.137 -22.898  1.00  0.00     0.164 A 
ATOM     25  C   UNL     1      12.733 -51.245 -23.989  1.00  0.00     0.050 A 
BRANCH  24  26
ATOM     26  O   UNL     1      11.666 -50.036 -22.117  1.00  0.00    -0.493 OA
ATOM     27  C   UNL     1      10.960 -48.948 -22.701  1.00  0.00     0.278 C 
ENDBRANCH  24  26
ENDBRANCH  16  17
ENDBRANCH   1  16
TORSDOF 6
ENDMDL
MODEL 3
REMARK VINA RESULT:   -10.354      3.142     10.112
REMARK INTER + INTRA:         -14.519
REMARK INTER:                 -13.682
REMARK INTRA:                  -0.836
REMARK UNBOUND:                -0.533
REMARK SMILES COc1cccc2c(CC[C@H]3CC[N@@H+](Cc4ccccc4)CC3)noc12
REMARK SMILES IDX 10 1 11 2 13 3 14 4 12 5 22 6 23 7 15 9 16 10 17 11 21 12
REMARK SMILES IDX 18 13 20 14 19 15 9 16 8 17 7 18 24 19 6 20 26 21 25 22 5 23
REMARK SMILES IDX 3 24 4 25 2 26 1 27
REMARK H PARENT 14 8
ROOT
ATOM      1  C   UNL     1      10.977 -56.152 -22.068  1.00  0.00     0.010 C 
ENDROOT
BRANCH   1   2
ATOM      2  C   UNL     1      10.033 -55.063 -22.637  1.00  0.00     0.000 C 
ATOM      3  C   UNL     1      11.698 -53.570 -23.871  1.00  0.00     0.262 C 
ATOM      4  N   UNL     1      11.414 -52.463 -22.878  1.00  0.00    -0.331 N 
ATOM      5  C   UNL     1      10.471 -54.469 -23.982  1.00  0.00     0.065 C 
ATOM      6  C   UNL     1      11.053 -53.001 -21.518  1.00  0.00     0.262 C 
ATOM      7  C   UNL     1       9.840 -53.919 -21.626  1.00  0.00     0.065 C 
ATOM      8  H   UNL     1      10.609 -51.937 -23.240  1.00  0.00     0.348 HD
BRANCH   4   9
ATOM      9  C   UNL     1      12.556 -51.470 -22.792  1.00  0.00     0.299 C 
BRANCH   9  10
ATOM     10  C   UNL     1      12.157 -50.078 -23.199  1.00  0.00     0.006 A 
ATOM     11  C   UNL     1      11.053 -49.449 -22.604  1.00  0.00     0.009 A 
ATOM     12  C   UNL     1      12.898 -49.379 -24.165  1.00  0.00     0.009 A 
ATOM     13  C   UNL     1      10.702 -48.147 -22.965  1.00  0.00     0.001 A 
ATOM     14  C   UNL     1      12.544 -48.078 -24.523  1.00  0.00     0.001 A 
ATOM     15  C   UNL     1      11.449 -47.463 -23.921  1.00  0.00     0.000 A 
ENDBRANCH   9  10
ENDBRANCH   4   9
ENDBRANCH   1   2
BRANCH   1  16
ATOM     16  C   UNL     1      11.463 -57.185 -23.102  1.00  0.00     0.061 C 
BRANCH  16  17
ATOM     17  C   UNL     1      10.710 -58.476 -23.064  1.00  0.00     0.092 A 
ATOM     18  C   UNL     1       9.318 -58.689 -23.249  1.00  0.00     0.049 A 
ATOM     19  N   UNL     1      11.355 -59.630 -22.838  1.00  0.00    -0.084 NA
ATOM     20  C   UNL     1       8.182 -57.908 -23.512  1.00  0.00     0.014 A 
ATOM     21  C   UNL     1       9.167 -60.059 -23.108  1.00  0.00     0.208 A 
ATOM     22  O   UNL     1      10.385 -60.616 -22.861  1.00  0.00    -0.352 OA
ATOM     23  C   UNL     1       6.944 -58.554 -23.619  1.00  0.00     0.005 A 
ATOM     24  C   UNL     1       7.952 -60.746 -23.207  1.00  0.00     0.164 A 
ATOM     25  C   UNL     1       6.832 -59.943 -23.469  1.00  0.00     0.050 A 
BRANCH  24  26
ATOM     26  O   UNL     1       7.958 -62.099 -23.038  1.00  0.00    -0.493 OA
ATOM     27  C   UNL     1       7.805 -62.894 -24.207  1.00  0.00     0.278 C 
ENDBRANCH  24  26
ENDBRANCH  16  17
ENDBRANCH   1  16
TORSDOF 6
ENDMDL
MODEL 4
REMARK VINA RESULT:    -9.848      3.050      9.587
REMARK INTER + INTRA:         -13.834
REMARK INTER:                 -13.573
REMARK INTRA:                  -0.261
REMARK UNBOUND:                -0.533
REMARK SMILES COc1cccc2c(CC[C@H]3CC[N@@H+](Cc4ccccc4)CC3)noc12
REMARK SMILES IDX 10 1 11 2 13 3 14 4 12 5 22 6 23 7 15 9 16 10 17 11 21 12
REMARK SMILES IDX 18 13 20 14 19 15 9 16 8 17 7 18 24 19 6 20 26 21 25 22 5 23
REMARK SMILES IDX 3 24 4 25 2 26 1 27
REMARK H PARENT 14 8
ROOT
ATOM      1  C   UNL     1      10.998 -56.196 -22.001  1.00  0.00     0.010 C 
ENDROOT
BRANCH   1   2
ATOM      2  C   UNL     1      10.053 -55.162 -22.663  1.00  0.00     0.000 C 
ATOM      3  C   UNL     1      11.740 -53.542 -23.686  1.00  0.00     0.262 C 
ATOM      4  N   UNL     1      11.273 -52.473 -22.722  1.00  0.00    -0.331 N 
ATOM      5  C   UNL     1      10.597 -54.517 -23.943  1.00  0.00     0.065 C 
ATOM      6  C   UNL     1      10.800 -53.056 -21.416  1.00  0.00     0.262 C 
ATOM      7  C   UNL     1       9.672 -54.051 -21.668  1.00  0.00     0.065 C 
ATOM      8  H   UNL     1      10.480 -51.995 -23.166  1.00  0.00     0.348 HD
BRANCH   4   9
ATOM      9  C   UNL     1      12.329 -51.408 -22.497  1.00  0.00     0.299 C 
BRANCH   9  10
ATOM     10  C   UNL     1      13.321 -51.318 -23.624  1.00  0.00     0.006 A 
ATOM     11  C   UNL     1      14.694 -51.474 -23.381  1.00  0.00     0.009 A 
ATOM     12  C   UNL     1      12.885 -51.098 -24.941  1.00  0.00     0.009 A 
ATOM     13  C   UNL     1      15.609 -51.417 -24.433  1.00  0.00     0.001 A 
ATOM     14  C   UNL     1      13.804 -51.041 -25.989  1.00  0.00     0.001 A 
ATOM     15  C   UNL     1      15.163 -51.203 -25.735  1.00  0.00     0.000 A 
ENDBRANCH   9  10
ENDBRANCH   4   9
ENDBRANCH   1   2
BRANCH   1  16
ATOM     16  C   UNL     1      11.560 -57.260 -22.963  1.00  0.00     0.061 C 
BRANCH  16  17
ATOM     17  C   UNL     1      10.774 -58.532 -22.981  1.00  0.00     0.092 A 
ATOM     18  C   UNL     1       9.385 -58.705 -23.221  1.00  0.00     0.049 A 
ATOM     19  N   UNL     1      11.380 -59.706 -22.757  1.00  0.00    -0.084 NA
ATOM     20  C   UNL     1       8.279 -57.888 -23.508  1.00  0.00     0.014 A 
ATOM     21  C   UNL     1       9.194 -60.072 -23.116  1.00  0.00     0.208 A 
ATOM     22  O   UNL     1      10.387 -60.666 -22.837  1.00  0.00    -0.352 OA
ATOM     23  C   UNL     1       7.030 -58.500 -23.674  1.00  0.00     0.005 A 
ATOM     24  C   UNL     1       7.966 -60.725 -23.273  1.00  0.00     0.164 A 
ATOM     25  C   UNL     1       6.877 -59.888 -23.558  1.00  0.00     0.050 A 
BRANCH  24  26
ATOM     26  O   UNL     1       7.932 -62.081 -23.134  1.00  0.00    -0.493 OA
ATOM     27  C   UNL     1       7.865 -62.849 -24.330  1.00  0.00     0.278 C 
ENDBRANCH  24  26
ENDBRANCH  16  17
ENDBRANCH   1  16
TORSDOF 6
ENDMDL
MODEL 5
REMARK VINA RESULT:    -9.848      3.029      9.676
REMARK INTER + INTRA:         -13.834
REMARK INTER:                 -13.198
REMARK INTRA:                  -0.636
REMARK UNBOUND:                -0.533
REMARK SMILES COc1cccc2c(CC[C@H]3CC[N@@H+](Cc4ccccc4)CC3)noc12
REMARK SMILES IDX 10 1 11 2 13 3 14 4 12 5 22 6 23 7 15 9 16 10 17 11 21 12
REMARK SMILES IDX 18 13 20 14 19 15 9 16 8 17 7 18 24 19 6 20 26 21 25 22 5 23
REMARK SMILES IDX 3 24 4 25 2 26 1 27
REMARK H PARENT 14 8
ROOT
ATOM      1  C   UNL     1      10.321 -59.718 -22.124  1.00  0.00     0.010 C 
ENDROOT
BRANCH   1   2
ATOM      2  C   UNL     1      11.635 -58.915 -21.957  1.00  0.00     0.000 C 
ATOM      3  C   UNL     1      10.756 -56.519 -22.036  1.00  0.00     0.262 C 
ATOM      4  N   UNL     1      11.488 -56.312 -23.345  1.00  0.00    -0.331 N 
ATOM      5  C   UNL     1      11.484 -57.579 -21.218  1.00  0.00     0.065 C 
ATOM      6  C   UNL     1      11.592 -57.585 -24.142  1.00  0.00     0.262 C 
ATOM      7  C   UNL     1      12.300 -58.658 -23.321  1.00  0.00     0.065 C 
ATOM      8  H   UNL     1      12.438 -56.001 -23.110  1.00  0.00     0.348 HD
BRANCH   4   9
ATOM      9  C   UNL     1      10.876 -55.196 -24.169  1.00  0.00     0.299 C 
BRANCH   9  10
ATOM     10  C   UNL     1      11.683 -53.928 -24.132  1.00  0.00     0.006 A 
ATOM     11  C   UNL     1      11.522 -53.009 -23.083  1.00  0.00     0.009 A 
ATOM     12  C   UNL     1      12.626 -53.654 -25.136  1.00  0.00     0.009 A 
ATOM     13  C   UNL     1      12.293 -51.847 -23.038  1.00  0.00     0.001 A 
ATOM     14  C   UNL     1      13.394 -52.490 -25.087  1.00  0.00     0.001 A 
ATOM     15  C   UNL     1      13.229 -51.590 -24.038  1.00  0.00     0.000 A 
ENDBRANCH   9  10
ENDBRANCH   4   9
ENDBRANCH   1   2
BRANCH   1  16
ATOM     16  C   UNL     1      10.514 -61.183 -22.560  1.00  0.00     0.061 C 
BRANCH  16  17
ATOM     17  C   UNL     1       9.936 -61.493 -23.904  1.00  0.00     0.092 A 
ATOM     18  C   UNL     1       8.927 -62.436 -24.232  1.00  0.00     0.049 A 
ATOM     19  N   UNL     1      10.367 -60.840 -24.993  1.00  0.00    -0.084 NA
ATOM     20  C   UNL     1       8.126 -63.368 -23.552  1.00  0.00     0.014 A 
ATOM     21  C   UNL     1       8.784 -62.312 -25.604  1.00  0.00     0.208 A 
ATOM     22  O   UNL     1       9.647 -61.359 -26.054  1.00  0.00    -0.352 OA
ATOM     23  C   UNL     1       7.219 -64.131 -24.297  1.00  0.00     0.005 A 
ATOM     24  C   UNL     1       7.892 -63.051 -26.388  1.00  0.00     0.164 A 
ATOM     25  C   UNL     1       7.105 -63.976 -25.686  1.00  0.00     0.050 A 
BRANCH  24  26
ATOM     26  O   UNL     1       7.869 -62.823 -27.732  1.00  0.00    -0.493 OA
ATOM     27  C   UNL     1       8.797 -63.553 -28.525  1.00  0.00     0.278 C 
ENDBRANCH  24  26
ENDBRANCH  16  17
ENDBRANCH   1  16
TORSDOF 6
ENDMDL
MODEL 6
REMARK VINA RESULT:    -9.833      1.320      2.140
REMARK INTER + INTRA:         -13.815
REMARK INTER:                 -14.830
REMARK INTRA:                   1.015
REMARK UNBOUND:                -0.533
REMARK SMILES COc1cccc2c(CC[C@H]3CC[N@@H+](Cc4ccccc4)CC3)noc12
REMARK SMILES IDX 10 1 11 2 13 3 14 4 12 5 22 6 23 7 15 9 16 10 17 11 21 12
REMARK SMILES IDX 18 13 20 14 19 15 9 16 8 17 7 18 24 19 6 20 26 21 25 22 5 23
REMARK SMILES IDX 3 24 4 25 2 26 1 27
REMARK H PARENT 14 8
ROOT
ATOM      1  C   UNL     1      10.379 -57.790 -23.179  1.00  0.00     0.010 C 
ENDROOT
BRANCH   1   2
ATOM      2  C   UNL     1      11.439 -58.638 -22.432  1.00  0.00     0.000 C 
ATOM      3  C   UNL     1      11.182 -60.890 -23.610  1.00  0.00     0.262 C 
ATOM      4  N   UNL     1      10.656 -61.484 -22.321  1.00  0.00    -0.331 N 
ATOM      5  C   UNL     1      12.110 -59.726 -23.281  1.00  0.00     0.065 C 
ATOM      6  C   UNL     1       9.920 -60.468 -21.488  1.00  0.00     0.262 C 
ATOM      7  C   UNL     1      10.836 -59.289 -21.175  1.00  0.00     0.065 C 
ATOM      8  H   UNL     1      11.471 -61.808 -21.787  1.00  0.00     0.348 HD
BRANCH   4   9
ATOM      9  C   UNL     1       9.803 -62.713 -22.568  1.00  0.00     0.299 C 
BRANCH   9  10
ATOM     10  C   UNL     1       9.142 -62.708 -23.920  1.00  0.00     0.006 A 
ATOM     11  C   UNL     1       9.733 -62.036 -25.000  1.00  0.00     0.009 A 
ATOM     12  C   UNL     1       7.936 -63.396 -24.124  1.00  0.00     0.009 A 
ATOM     13  C   UNL     1       9.130 -62.057 -26.259  1.00  0.00     0.001 A 
ATOM     14  C   UNL     1       7.337 -63.414 -25.384  1.00  0.00     0.001 A 
ATOM     15  C   UNL     1       7.935 -62.747 -26.450  1.00  0.00     0.000 A 
ENDBRANCH   9  10
ENDBRANCH   4   9
ENDBRANCH   1   2
BRANCH   1  16
ATOM     16  C   UNL     1      10.092 -56.416 -22.545  1.00  0.00     0.061 C 
BRANCH  16  17
ATOM     17  C   UNL     1      10.872 -55.296 -23.155  1.00  0.00     0.092 A 
ATOM     18  C   UNL     1      11.027 -53.968 -22.678  1.00  0.00     0.049 A 
ATOM     19  N   UNL     1      11.548 -55.486 -24.298  1.00  0.00    -0.084 NA
ATOM     20  C   UNL     1      10.587 -53.209 -21.582  1.00  0.00     0.014 A 
ATOM     21  C   UNL     1      11.839 -53.363 -23.623  1.00  0.00     0.208 A 
ATOM     22  O   UNL     1      12.146 -54.273 -24.590  1.00  0.00    -0.352 OA
ATOM     23  C   UNL     1      10.991 -51.871 -21.497  1.00  0.00     0.005 A 
ATOM     24  C   UNL     1      12.267 -52.032 -23.579  1.00  0.00     0.164 A 
ATOM     25  C   UNL     1      11.813 -51.296 -22.475  1.00  0.00     0.050 A 
BRANCH  24  26
ATOM     26  O   UNL     1      13.062 -51.575 -24.588  1.00  0.00    -0.493 OA
ATOM     27  C   UNL     1      14.368 -51.139 -24.231  1.00  0.00     0.278 C 
ENDBRANCH  24  26
ENDBRANCH  16  17
ENDBRANCH   1  16
TORSDOF 6
ENDMDL
MODEL 7
REMARK VINA RESULT:    -9.632      2.543      4.320
REMARK INTER + INTRA:         -13.543
REMARK INTER:                 -13.011
REMARK INTRA:                  -0.532
REMARK UNBOUND:                -0.533
REMARK SMILES COc1cccc2c(CC[C@H]3CC[N@@H+](Cc4ccccc4)CC3)noc12
REMARK SMILES IDX 10 1 11 2 13 3 14 4 12 5 22 6 23 7 15 9 16 10 17 11 21 12
REMARK SMILES IDX 18 13 20 14 19 15 9 16 8 17 7 18 24 19 6 20 26 21 25 22 5 23
REMARK SMILES IDX 3 24 4 25 2 26 1 27
REMARK H PARENT 14 8
ROOT
ATOM      1  C   UNL     1      11.595 -52.183 -22.045  1.00  0.00     0.010 C 
ENDROOT
BRANCH   1   2
ATOM      2  C   UNL     1      10.261 -52.971 -22.052  1.00  0.00     0.000 C 
ATOM      3  C   UNL     1      11.060 -55.292 -21.350  1.00  0.00     0.262 C 
ATOM      4  N   UNL     1      10.695 -55.815 -22.723  1.00  0.00    -0.331 N 
ATOM      5  C   UNL     1      10.172 -54.099 -21.016  1.00  0.00     0.065 C 
ATOM      6  C   UNL     1      10.841 -54.759 -23.787  1.00  0.00     0.262 C 
ATOM      7  C   UNL     1       9.973 -53.552 -23.448  1.00  0.00     0.065 C 
ATOM      8  H   UNL     1       9.707 -56.095 -22.682  1.00  0.00     0.348 HD
BRANCH   4   9
ATOM      9  C   UNL     1      11.470 -57.067 -23.080  1.00  0.00     0.299 C 
BRANCH   9  10
ATOM     10  C   UNL     1      10.754 -58.332 -22.693  1.00  0.00     0.006 A 
ATOM     11  C   UNL     1       9.803 -58.904 -23.551  1.00  0.00     0.009 A 
ATOM     12  C   UNL     1      11.044 -58.972 -21.477  1.00  0.00     0.009 A 
ATOM     13  C   UNL     1       9.160 -60.093 -23.201  1.00  0.00     0.001 A 
ATOM     14  C   UNL     1      10.399 -60.159 -21.131  1.00  0.00     0.001 A 
ATOM     15  C   UNL     1       9.461 -60.720 -21.994  1.00  0.00     0.000 A 
ENDBRANCH   9  10
ENDBRANCH   4   9
ENDBRANCH   1   2
BRANCH   1  16
ATOM     16  C   UNL     1      11.438 -50.653 -21.969  1.00  0.00     0.061 C 
BRANCH  16  17
ATOM     17  C   UNL     1      12.153 -49.918 -23.057  1.00  0.00     0.092 A 
ATOM     18  C   UNL     1      12.759 -50.448 -24.227  1.00  0.00     0.049 A 
ATOM     19  N   UNL     1      12.281 -48.585 -23.003  1.00  0.00    -0.084 NA
ATOM     20  C   UNL     1      12.937 -51.712 -24.813  1.00  0.00     0.014 A 
ATOM     21  C   UNL     1      13.272 -49.336 -24.873  1.00  0.00     0.208 A 
ATOM     22  O   UNL     1      12.986 -48.226 -24.138  1.00  0.00    -0.352 OA
ATOM     23  C   UNL     1      13.630 -51.787 -26.028  1.00  0.00     0.005 A 
ATOM     24  C   UNL     1      13.969 -49.363 -26.086  1.00  0.00     0.164 A 
ATOM     25  C   UNL     1      14.135 -50.637 -26.650  1.00  0.00     0.050 A 
BRANCH  24  26
ATOM     26  O   UNL     1      14.422 -48.184 -26.599  1.00  0.00    -0.493 OA
ATOM     27  C   UNL     1      15.234 -48.259 -27.765  1.00  0.00     0.278 C 
ENDBRANCH  24  26
ENDBRANCH  16  17
ENDBRANCH   1  16
TORSDOF 6
ENDMDL
MODEL 8
REMARK VINA RESULT:    -9.622      2.133      3.089
REMARK INTER + INTRA:         -13.530
REMARK INTER:                 -13.046
REMARK INTRA:                  -0.484
REMARK UNBOUND:                -0.533
REMARK SMILES COc1cccc2c(CC[C@H]3CC[N@@H+](Cc4ccccc4)CC3)noc12
REMARK SMILES IDX 10 1 11 2 13 3 14 4 12 5 22 6 23 7 15 9 16 10 17 11 21 12
REMARK SMILES IDX 18 13 20 14 19 15 9 16 8 17 7 18 24 19 6 20 26 21 25 22 5 23
REMARK SMILES IDX 3 24 4 25 2 26 1 27
REMARK H PARENT 14 8
ROOT
ATOM      1  C   UNL     1      11.275 -56.626 -22.953  1.00  0.00     0.010 C 
ENDROOT
BRANCH   1   2
ATOM      2  C   UNL     1      10.543 -57.644 -22.044  1.00  0.00     0.000 C 
ATOM      3  C   UNL     1      11.738 -59.811 -22.677  1.00  0.00     0.262 C 
ATOM      4  N   UNL     1      10.450 -60.322 -23.287  1.00  0.00    -0.331 N 
ATOM      5  C   UNL     1      11.406 -58.820 -21.567  1.00  0.00     0.065 C 
ATOM      6  C   UNL     1       9.603 -59.206 -23.839  1.00  0.00     0.262 C 
ATOM      7  C   UNL     1       9.287 -58.198 -22.739  1.00  0.00     0.065 C 
ATOM      8  H   UNL     1       9.925 -60.782 -22.533  1.00  0.00     0.348 HD
BRANCH   4   9
ATOM      9  C   UNL     1      10.701 -61.391 -24.332  1.00  0.00     0.299 C 
BRANCH   9  10
ATOM     10  C   UNL     1      11.004 -60.823 -25.692  1.00  0.00     0.006 A 
ATOM     11  C   UNL     1      12.189 -60.107 -25.919  1.00  0.00     0.009 A 
ATOM     12  C   UNL     1      10.115 -61.022 -26.761  1.00  0.00     0.009 A 
ATOM     13  C   UNL     1      12.479 -59.606 -27.189  1.00  0.00     0.001 A 
ATOM     14  C   UNL     1      10.409 -60.518 -28.028  1.00  0.00     0.001 A 
ATOM     15  C   UNL     1      11.591 -59.814 -28.241  1.00  0.00     0.000 A 
ENDBRANCH   9  10
ENDBRANCH   4   9
ENDBRANCH   1   2
BRANCH   1  16
ATOM     16  C   UNL     1      10.393 -55.470 -23.464  1.00  0.00     0.061 C 
BRANCH  16  17
ATOM     17  C   UNL     1      11.002 -54.118 -23.275  1.00  0.00     0.092 A 
ATOM     18  C   UNL     1      11.924 -53.442 -24.117  1.00  0.00     0.049 A 
ATOM     19  N   UNL     1      10.689 -53.378 -22.202  1.00  0.00    -0.084 NA
ATOM     20  C   UNL     1      12.586 -53.692 -25.330  1.00  0.00     0.014 A 
ATOM     21  C   UNL     1      12.153 -52.240 -23.469  1.00  0.00     0.208 A 
ATOM     22  O   UNL     1      11.415 -52.207 -22.325  1.00  0.00    -0.352 OA
ATOM     23  C   UNL     1      13.452 -52.709 -25.826  1.00  0.00     0.005 A 
ATOM     24  C   UNL     1      13.007 -51.231 -23.926  1.00  0.00     0.164 A 
ATOM     25  C   UNL     1      13.658 -51.505 -25.139  1.00  0.00     0.050 A 
BRANCH  24  26
ATOM     26  O   UNL     1      13.137 -50.102 -23.174  1.00  0.00    -0.493 OA
ATOM     27  C   UNL     1      14.400 -49.448 -23.207  1.00  0.00     0.278 C 
ENDBRANCH  24  26
ENDBRANCH  16  17
ENDBRANCH   1  16
TORSDOF 6
ENDMDL
MODEL 9
REMARK VINA RESULT:    -9.567      2.460      4.185
REMARK INTER + INTRA:         -13.456
REMARK INTER:                 -12.608
REMARK INTRA:                  -0.848
REMARK UNBOUND:                -0.533
REMARK SMILES COc1cccc2c(CC[C@H]3CC[N@@H+](Cc4ccccc4)CC3)noc12
REMARK SMILES IDX 10 1 11 2 13 3 14 4 12 5 22 6 23 7 15 9 16 10 17 11 21 12
REMARK SMILES IDX 18 13 20 14 19 15 9 16 8 17 7 18 24 19 6 20 26 21 25 22 5 23
REMARK SMILES IDX 3 24 4 25 2 26 1 27
REMARK H PARENT 14 8
ROOT
ATOM      1  C   UNL     1      11.835 -52.285 -22.488  1.00  0.00     0.010 C 
ENDROOT
BRANCH   1   2
ATOM      2  C   UNL     1      10.463 -53.004 -22.536  1.00  0.00     0.000 C 
ATOM      3  C   UNL     1      10.973 -55.118 -21.196  1.00  0.00     0.262 C 
ATOM      4  N   UNL     1      10.785 -55.940 -22.453  1.00  0.00    -0.331 N 
ATOM      5  C   UNL     1      10.134 -53.848 -21.298  1.00  0.00     0.065 C 
ATOM      6  C   UNL     1      11.170 -55.175 -23.692  1.00  0.00     0.262 C 
ATOM      7  C   UNL     1      10.351 -53.892 -23.788  1.00  0.00     0.065 C 
ATOM      8  H   UNL     1       9.785 -56.167 -22.514  1.00  0.00     0.348 HD
BRANCH   4   9
ATOM      9  C   UNL     1      11.512 -57.268 -22.379  1.00  0.00     0.299 C 
BRANCH   9  10
ATOM     10  C   UNL     1      10.579 -58.447 -22.343  1.00  0.00     0.006 A 
ATOM     11  C   UNL     1       9.425 -58.469 -23.140  1.00  0.00     0.009 A 
ATOM     12  C   UNL     1      10.863 -59.554 -21.527  1.00  0.00     0.009 A 
ATOM     13  C   UNL     1       8.577 -59.577 -23.125  1.00  0.00     0.001 A 
ATOM     14  C   UNL     1      10.011 -60.660 -21.515  1.00  0.00     0.001 A 
ATOM     15  C   UNL     1       8.872 -60.671 -22.315  1.00  0.00     0.000 A 
ENDBRANCH   9  10
ENDBRANCH   4   9
ENDBRANCH   1   2
BRANCH   1  16
ATOM     16  C   UNL     1      12.100 -51.327 -23.665  1.00  0.00     0.061 C 
BRANCH  16  17
ATOM     17  C   UNL     1      13.355 -51.630 -24.418  1.00  0.00     0.092 A 
ATOM     18  C   UNL     1      14.699 -51.516 -23.974  1.00  0.00     0.049 A 
ATOM     19  N   UNL     1      13.295 -52.077 -25.682  1.00  0.00    -0.084 NA
ATOM     20  C   UNL     1      15.366 -51.128 -22.801  1.00  0.00     0.014 A 
ATOM     21  C   UNL     1      15.449 -51.918 -25.065  1.00  0.00     0.208 A 
ATOM     22  O   UNL     1      14.608 -52.250 -26.084  1.00  0.00    -0.352 OA
ATOM     23  C   UNL     1      16.766 -51.164 -22.793  1.00  0.00     0.005 A 
ATOM     24  C   UNL     1      16.847 -51.971 -25.103  1.00  0.00     0.164 A 
ATOM     25  C   UNL     1      17.490 -51.577 -23.920  1.00  0.00     0.050 A 
BRANCH  24  26
ATOM     26  O   UNL     1      17.449 -52.383 -26.255  1.00  0.00    -0.493 OA
ATOM     27  C   UNL     1      18.862 -52.238 -26.329  1.00  0.00     0.278 C 
ENDBRANCH  24  26
ENDBRANCH  16  17
ENDBRANCH   1  16
TORSDOF 6
ENDMDL
