MODEL 1
REMARK VINA RESULT:   -11.924      0.000      0.000
REMARK INTER + INTRA:         -17.669
REMARK INTER:                 -16.804
REMARK INTRA:                  -0.865
REMARK UNBOUND:                -0.865
REMARK SMILES O=C(Nc1cncc(OC[C@H]2CC[N@@H+](Cc3ccccc3)CC2)c1)c1ccnc2[nH]ccc12
REMARK SMILES IDX 9 1 10 2 11 3 13 4 14 5 12 6 22 7 23 8 15 10 16 11 17 12
REMARK SMILES IDX 21 13 18 14 20 15 19 16 8 17 7 18 24 19 6 20 4 21 5 22 3 23
REMARK SMILES IDX 2 24 1 26 25 27 26 28 33 29 27 30 32 31 29 32 28 33 31 34
REMARK SMILES IDX 30 35
REMARK H PARENT 14 9 3 25 30 36
ROOT
ATOM      1  O   UNL     1      11.444 -56.159 -22.727  1.00  0.00    -0.492 OA
ENDROOT
BRANCH   1   2
ATOM      2  C   UNL     1      10.725 -55.080 -22.132  1.00  0.00     0.233 C 
BRANCH   2   3
ATOM      3  C   UNL     1      10.278 -54.076 -23.213  1.00  0.00     0.038 C 
ATOM      4  C   UNL     1      10.130 -51.851 -21.927  1.00  0.00     0.262 C 
ATOM      5  N   UNL     1      11.218 -51.300 -22.819  1.00  0.00    -0.331 N 
ATOM      6  C   UNL     1       9.382 -52.962 -22.653  1.00  0.00     0.069 C 
ATOM      7  C   UNL     1      12.193 -52.361 -23.257  1.00  0.00     0.262 C 
ATOM      8  C   UNL     1      11.456 -53.472 -23.991  1.00  0.00     0.069 C 
ATOM      9  H   UNL     1      10.757 -50.928 -23.658  1.00  0.00     0.348 HD
BRANCH   5  10
ATOM     10  C   UNL     1      11.940 -50.125 -22.187  1.00  0.00     0.299 C 
BRANCH  10  11
ATOM     11  C   UNL     1      11.930 -48.893 -23.049  1.00  0.00     0.006 A 
ATOM     12  C   UNL     1      12.837 -48.760 -24.112  1.00  0.00     0.009 A 
ATOM     13  C   UNL     1      11.002 -47.867 -22.815  1.00  0.00     0.009 A 
ATOM     14  C   UNL     1      12.809 -47.627 -24.927  1.00  0.00     0.001 A 
ATOM     15  C   UNL     1      10.977 -46.737 -23.634  1.00  0.00     0.001 A 
ATOM     16  C   UNL     1      11.878 -46.619 -24.689  1.00  0.00     0.000 A 
ENDBRANCH  10  11
ENDBRANCH   5  10
ENDBRANCH   2   3
ENDBRANCH   1   2
BRANCH   1  17
ATOM     17  C   UNL     1      11.043 -57.423 -22.390  1.00  0.00     0.139 A 
ATOM     18  C   UNL     1      11.383 -57.852 -21.112  1.00  0.00     0.157 A 
ATOM     19  C   UNL     1      10.335 -58.310 -23.200  1.00  0.00     0.075 A 
ATOM     20  N   UNL     1      11.073 -59.065 -20.605  1.00  0.00    -0.259 NA
ATOM     21  C   UNL     1       9.985 -59.574 -22.718  1.00  0.00     0.063 A 
ATOM     22  C   UNL     1      10.382 -59.894 -21.421  1.00  0.00     0.137 A 
BRANCH  21  23
ATOM     23  N   UNL     1       9.273 -60.538 -23.466  1.00  0.00    -0.320 N 
ATOM     24  C   UNL     1       9.792 -61.429 -24.387  1.00  0.00     0.256 C 
ATOM     25  H   UNL     1       8.264 -60.537 -23.355  1.00  0.00     0.170 HD
ATOM     26  O   UNL     1      10.954 -61.483 -24.772  1.00  0.00    -0.269 OA
BRANCH  24  27
ATOM     27  C   UNL     1       8.807 -62.351 -24.995  1.00  0.00     0.052 A 
ATOM     28  C   UNL     1       7.960 -63.082 -24.153  1.00  0.00     0.035 A 
ATOM     29  C   UNL     1       8.672 -62.513 -26.388  1.00  0.00     0.031 A 
ATOM     30  C   UNL     1       7.056 -63.962 -24.722  1.00  0.00     0.114 A 
ATOM     31  C   UNL     1       9.237 -61.954 -27.572  1.00  0.00     0.030 A 
ATOM     32  C   UNL     1       7.720 -63.437 -26.810  1.00  0.00     0.138 A 
ATOM     33  N   UNL     1       6.908 -64.186 -26.046  1.00  0.00    -0.239 NA
ATOM     34  C   UNL     1       8.646 -62.570 -28.655  1.00  0.00     0.085 A 
ATOM     35  N   UNL     1       7.728 -63.469 -28.177  1.00  0.00    -0.346 N 
ATOM     36  H   UNL     1       7.121 -64.062 -28.726  1.00  0.00     0.167 HD
ENDBRANCH  24  27
ENDBRANCH  21  23
ENDBRANCH   1  17
TORSDOF 7
ENDMDL
MODEL 2
REMARK VINA RESULT:   -11.377      3.130     11.291
REMARK INTER + INTRA:         -16.898
REMARK INTER:                 -16.596
REMARK INTRA:                  -0.302
REMARK UNBOUND:                -0.865
REMARK SMILES O=C(Nc1cncc(OC[C@H]2CC[N@@H+](Cc3ccccc3)CC2)c1)c1ccnc2[nH]ccc12
REMARK SMILES IDX 9 1 10 2 11 3 13 4 14 5 12 6 22 7 23 8 15 10 16 11 17 12
REMARK SMILES IDX 21 13 18 14 20 15 19 16 8 17 7 18 24 19 6 20 4 21 5 22 3 23
REMARK SMILES IDX 2 24 1 26 25 27 26 28 33 29 27 30 32 31 29 32 28 33 31 34
REMARK SMILES IDX 30 35
REMARK H PARENT 14 9 3 25 30 36
ROOT
ATOM      1  O   UNL     1       9.523 -55.978 -23.594  1.00  0.00    -0.492 OA
ENDROOT
BRANCH   1   2
ATOM      2  C   UNL     1       9.632 -57.088 -22.705  1.00  0.00     0.233 C 
BRANCH   2   3
ATOM      3  C   UNL     1      11.113 -57.454 -22.487  1.00  0.00     0.038 C 
ATOM      4  C   UNL     1      11.040 -59.997 -22.091  1.00  0.00     0.262 C 
ATOM      5  N   UNL     1      11.874 -60.183 -23.337  1.00  0.00    -0.331 N 
ATOM      6  C   UNL     1      11.298 -58.616 -21.500  1.00  0.00     0.069 C 
ATOM      7  C   UNL     1      11.593 -59.130 -24.377  1.00  0.00     0.262 C 
ATOM      8  C   UNL     1      11.855 -57.746 -23.798  1.00  0.00     0.069 C 
ATOM      9  H   UNL     1      12.857 -60.094 -23.056  1.00  0.00     0.348 HD
BRANCH   5  10
ATOM     10  C   UNL     1      11.732 -61.575 -23.921  1.00  0.00     0.299 C 
BRANCH  10  11
ATOM     11  C   UNL     1      10.332 -62.115 -23.828  1.00  0.00     0.006 A 
ATOM     12  C   UNL     1       9.362 -61.745 -24.773  1.00  0.00     0.009 A 
ATOM     13  C   UNL     1       9.980 -63.010 -22.807  1.00  0.00     0.009 A 
ATOM     14  C   UNL     1       8.069 -62.268 -24.699  1.00  0.00     0.001 A 
ATOM     15  C   UNL     1       8.686 -63.530 -22.738  1.00  0.00     0.001 A 
ATOM     16  C   UNL     1       7.734 -63.161 -23.685  1.00  0.00     0.000 A 
ENDBRANCH  10  11
ENDBRANCH   5  10
ENDBRANCH   2   3
ENDBRANCH   1   2
BRANCH   1  17
ATOM     17  C   UNL     1      10.145 -54.821 -23.211  1.00  0.00     0.139 A 
ATOM     18  C   UNL     1       9.740 -54.283 -21.994  1.00  0.00     0.157 A 
ATOM     19  C   UNL     1      11.133 -54.139 -23.919  1.00  0.00     0.075 A 
ATOM     20  N   UNL     1      10.239 -53.151 -21.455  1.00  0.00    -0.259 NA
ATOM     21  C   UNL     1      11.686 -52.966 -23.400  1.00  0.00     0.063 A 
ATOM     22  C   UNL     1      11.200 -52.521 -22.171  1.00  0.00     0.137 A 
BRANCH  21  23
ATOM     23  N   UNL     1      12.688 -52.207 -24.046  1.00  0.00    -0.320 N 
ATOM     24  C   UNL     1      13.420 -52.571 -25.160  1.00  0.00     0.256 C 
ATOM     25  H   UNL     1      12.934 -51.324 -23.609  1.00  0.00     0.170 HD
ATOM     26  O   UNL     1      13.380 -53.652 -25.736  1.00  0.00    -0.269 OA
BRANCH  24  27
ATOM     27  C   UNL     1      14.383 -51.555 -25.640  1.00  0.00     0.052 A 
ATOM     28  C   UNL     1      13.905 -50.478 -26.395  1.00  0.00     0.035 A 
ATOM     29  C   UNL     1      15.761 -51.615 -25.355  1.00  0.00     0.031 A 
ATOM     30  C   UNL     1      14.810 -49.541 -26.864  1.00  0.00     0.114 A 
ATOM     31  C   UNL     1      16.644 -52.444 -24.601  1.00  0.00     0.030 A 
ATOM     32  C   UNL     1      16.547 -50.602 -25.897  1.00  0.00     0.138 A 
ATOM     33  N   UNL     1      16.143 -49.567 -26.653  1.00  0.00    -0.239 NA
ATOM     34  C   UNL     1      17.920 -51.936 -24.736  1.00  0.00     0.085 A 
ATOM     35  N   UNL     1      17.845 -50.819 -25.527  1.00  0.00    -0.346 N 
ATOM     36  H   UNL     1      18.611 -50.215 -25.794  1.00  0.00     0.167 HD
ENDBRANCH  24  27
ENDBRANCH  21  23
ENDBRANCH   1  17
TORSDOF 7
ENDMDL
MODEL 3
REMARK VINA RESULT:   -11.230      2.220     12.620
REMARK INTER + INTRA:         -16.690
REMARK INTER:                 -16.484
REMARK INTRA:                  -0.206
REMARK UNBOUND:                -0.865
REMARK SMILES O=C(Nc1cncc(OC[C@H]2CC[N@@H+](Cc3ccccc3)CC2)c1)c1ccnc2[nH]ccc12
REMARK SMILES IDX 9 1 10 2 11 3 13 4 14 5 12 6 22 7 23 8 15 10 16 11 17 12
REMARK SMILES IDX 21 13 18 14 20 15 19 16 8 17 7 18 24 19 6 20 4 21 5 22 3 23
REMARK SMILES IDX 2 24 1 26 25 27 26 28 33 29 27 30 32 31 29 32 28 33 31 34
REMARK SMILES IDX 30 35
REMARK H PARENT 14 9 3 25 30 36
ROOT
ATOM      1  O   UNL     1      10.698 -55.593 -23.618  1.00  0.00    -0.492 OA
ENDROOT
BRANCH   1   2
ATOM      2  C   UNL     1      11.487 -56.688 -23.157  1.00  0.00     0.233 C 
BRANCH   2   3
ATOM      3  C   UNL     1      10.622 -57.659 -22.330  1.00  0.00     0.038 C 
ATOM      4  C   UNL     1       9.688 -59.273 -24.105  1.00  0.00     0.262 C 
ATOM      5  N   UNL     1      10.420 -60.401 -23.419  1.00  0.00    -0.331 N 
ATOM      6  C   UNL     1       9.395 -58.164 -23.102  1.00  0.00     0.069 C 
ATOM      7  C   UNL     1      11.706 -59.947 -22.781  1.00  0.00     0.262 C 
ATOM      8  C   UNL     1      11.424 -58.843 -21.771  1.00  0.00     0.069 C 
ATOM      9  H   UNL     1       9.805 -60.749 -22.674  1.00  0.00     0.348 HD
BRANCH   5  10
ATOM     10  C   UNL     1      10.659 -61.579 -24.344  1.00  0.00     0.299 C 
BRANCH  10  11
ATOM     11  C   UNL     1       9.411 -62.370 -24.627  1.00  0.00     0.006 A 
ATOM     12  C   UNL     1       8.842 -62.368 -25.910  1.00  0.00     0.009 A 
ATOM     13  C   UNL     1       8.809 -63.136 -23.617  1.00  0.00     0.009 A 
ATOM     14  C   UNL     1       7.699 -63.124 -26.177  1.00  0.00     0.001 A 
ATOM     15  C   UNL     1       7.667 -63.890 -23.890  1.00  0.00     0.001 A 
ATOM     16  C   UNL     1       7.114 -63.885 -25.168  1.00  0.00     0.000 A 
ENDBRANCH  10  11
ENDBRANCH   5  10
ENDBRANCH   2   3
ENDBRANCH   1   2
BRANCH   1  17
ATOM     17  C   UNL     1      10.838 -54.409 -22.946  1.00  0.00     0.139 A 
ATOM     18  C   UNL     1      10.521 -54.432 -21.593  1.00  0.00     0.157 A 
ATOM     19  C   UNL     1      11.263 -53.196 -23.487  1.00  0.00     0.075 A 
ATOM     20  N   UNL     1      10.598 -53.364 -20.771  1.00  0.00    -0.259 NA
ATOM     21  C   UNL     1      11.365 -52.063 -22.676  1.00  0.00     0.063 A 
ATOM     22  C   UNL     1      11.019 -52.207 -21.334  1.00  0.00     0.137 A 
BRANCH  21  23
ATOM     23  N   UNL     1      11.783 -50.794 -23.135  1.00  0.00    -0.320 N 
ATOM     24  C   UNL     1      11.174 -49.577 -22.889  1.00  0.00     0.256 C 
ATOM     25  H   UNL     1      12.583 -50.783 -23.759  1.00  0.00     0.170 HD
ATOM     26  O   UNL     1      10.119 -49.398 -22.291  1.00  0.00    -0.269 OA
BRANCH  24  27
ATOM     27  C   UNL     1      11.857 -48.402 -23.473  1.00  0.00     0.052 A 
ATOM     28  C   UNL     1      12.906 -48.612 -24.377  1.00  0.00     0.035 A 
ATOM     29  C   UNL     1      11.486 -47.076 -23.174  1.00  0.00     0.031 A 
ATOM     30  C   UNL     1      13.559 -47.512 -24.905  1.00  0.00     0.114 A 
ATOM     31  C   UNL     1      10.484 -46.412 -22.406  1.00  0.00     0.030 A 
ATOM     32  C   UNL     1      12.238 -46.074 -23.780  1.00  0.00     0.138 A 
ATOM     33  N   UNL     1      13.272 -46.223 -24.626  1.00  0.00    -0.239 NA
ATOM     34  C   UNL     1      10.678 -45.054 -22.541  1.00  0.00     0.085 A 
ATOM     35  N   UNL     1      11.748 -44.863 -23.377  1.00  0.00    -0.346 N 
ATOM     36  H   UNL     1      12.125 -43.977 -23.683  1.00  0.00     0.167 HD
ENDBRANCH  24  27
ENDBRANCH  21  23
ENDBRANCH   1  17
TORSDOF 7
ENDMDL
MODEL 4
REMARK VINA RESULT:   -11.162      2.392     12.075
REMARK INTER + INTRA:         -16.595
REMARK INTER:                 -15.798
REMARK INTRA:                  -0.797
REMARK UNBOUND:                -0.865
REMARK SMILES O=C(Nc1cncc(OC[C@H]2CC[N@@H+](Cc3ccccc3)CC2)c1)c1ccnc2[nH]ccc12
REMARK SMILES IDX 9 1 10 2 11 3 13 4 14 5 12 6 22 7 23 8 15 10 16 11 17 12
REMARK SMILES IDX 21 13 18 14 20 15 19 16 8 17 7 18 24 19 6 20 4 21 5 22 3 23
REMARK SMILES IDX 2 24 1 26 25 27 26 28 33 29 27 30 32 31 29 32 28 33 31 34
REMARK SMILES IDX 30 35
REMARK H PARENT 14 9 3 25 30 36
ROOT
ATOM      1  O   UNL     1      10.514 -55.579 -23.537  1.00  0.00    -0.492 OA
ENDROOT
BRANCH   1   2
ATOM      2  C   UNL     1      11.388 -56.632 -23.136  1.00  0.00     0.233 C 
BRANCH   2   3
ATOM      3  C   UNL     1      10.635 -57.642 -22.247  1.00  0.00     0.038 C 
ATOM      4  C   UNL     1       9.657 -59.310 -23.946  1.00  0.00     0.262 C 
ATOM      5  N   UNL     1      10.493 -60.396 -23.313  1.00  0.00    -0.331 N 
ATOM      6  C   UNL     1       9.381 -58.211 -22.927  1.00  0.00     0.069 C 
ATOM      7  C   UNL     1      11.797 -59.874 -22.771  1.00  0.00     0.262 C 
ATOM      8  C   UNL     1      11.533 -58.781 -21.745  1.00  0.00     0.069 C 
ATOM      9  H   UNL     1       9.951 -60.771 -22.525  1.00  0.00     0.348 HD
BRANCH   5  10
ATOM     10  C   UNL     1      10.723 -61.566 -24.251  1.00  0.00     0.299 C 
BRANCH  10  11
ATOM     11  C   UNL     1       9.487 -62.392 -24.479  1.00  0.00     0.006 A 
ATOM     12  C   UNL     1       8.925 -63.136 -23.431  1.00  0.00     0.009 A 
ATOM     13  C   UNL     1       8.868 -62.415 -25.738  1.00  0.00     0.009 A 
ATOM     14  C   UNL     1       7.763 -63.882 -23.638  1.00  0.00     0.001 A 
ATOM     15  C   UNL     1       7.706 -63.162 -25.940  1.00  0.00     0.001 A 
ATOM     16  C   UNL     1       7.154 -63.892 -24.891  1.00  0.00     0.000 A 
ENDBRANCH  10  11
ENDBRANCH   5  10
ENDBRANCH   2   3
ENDBRANCH   1   2
BRANCH   1  17
ATOM     17  C   UNL     1      10.744 -54.348 -22.985  1.00  0.00     0.139 A 
ATOM     18  C   UNL     1      10.393 -54.201 -21.648  1.00  0.00     0.157 A 
ATOM     19  C   UNL     1      11.290 -53.239 -23.633  1.00  0.00     0.075 A 
ATOM     20  N   UNL     1      10.546 -53.063 -20.938  1.00  0.00    -0.259 NA
ATOM     21  C   UNL     1      11.474 -52.041 -22.938  1.00  0.00     0.063 A 
ATOM     22  C   UNL     1      11.083 -52.013 -21.601  1.00  0.00     0.137 A 
BRANCH  21  23
ATOM     23  N   UNL     1      12.016 -50.868 -23.511  1.00  0.00    -0.320 N 
ATOM     24  C   UNL     1      13.305 -50.686 -23.976  1.00  0.00     0.256 C 
ATOM     25  H   UNL     1      11.408 -50.055 -23.528  1.00  0.00     0.170 HD
ATOM     26  O   UNL     1      14.226 -51.492 -23.902  1.00  0.00    -0.269 OA
BRANCH  24  27
ATOM     27  C   UNL     1      13.582 -49.355 -24.559  1.00  0.00     0.052 A 
ATOM     28  C   UNL     1      13.281 -48.214 -23.805  1.00  0.00     0.035 A 
ATOM     29  C   UNL     1      14.155 -49.184 -25.835  1.00  0.00     0.031 A 
ATOM     30  C   UNL     1      13.519 -46.969 -24.360  1.00  0.00     0.114 A 
ATOM     31  C   UNL     1      14.668 -50.012 -26.877  1.00  0.00     0.030 A 
ATOM     32  C   UNL     1      14.333 -47.871 -26.258  1.00  0.00     0.138 A 
ATOM     33  N   UNL     1      14.031 -46.745 -25.590  1.00  0.00    -0.239 NA
ATOM     34  C   UNL     1      15.100 -49.190 -27.896  1.00  0.00     0.085 A 
ATOM     35  N   UNL     1      14.888 -47.893 -27.507  1.00  0.00    -0.346 N 
ATOM     36  H   UNL     1      15.119 -47.059 -28.032  1.00  0.00     0.167 HD
ENDBRANCH  24  27
ENDBRANCH  21  23
ENDBRANCH   1  17
TORSDOF 7
ENDMDL
MODEL 5
REMARK VINA RESULT:   -10.865      2.273     12.131
REMARK INTER + INTRA:         -16.177
REMARK INTER:                 -15.766
REMARK INTRA:                  -0.411
REMARK UNBOUND:                -0.865
REMARK SMILES O=C(Nc1cncc(OC[C@H]2CC[N@@H+](Cc3ccccc3)CC2)c1)c1ccnc2[nH]ccc12
REMARK SMILES IDX 9 1 10 2 11 3 13 4 14 5 12 6 22 7 23 8 15 10 16 11 17 12
REMARK SMILES IDX 21 13 18 14 20 15 19 16 8 17 7 18 24 19 6 20 4 21 5 22 3 23
REMARK SMILES IDX 2 24 1 26 25 27 26 28 33 29 27 30 32 31 29 32 28 33 31 34
REMARK SMILES IDX 30 35
REMARK H PARENT 14 9 3 25 30 36
ROOT
ATOM      1  O   UNL     1      10.420 -55.635 -23.476  1.00  0.00    -0.492 OA
ENDROOT
BRANCH   1   2
ATOM      2  C   UNL     1      11.353 -56.672 -23.178  1.00  0.00     0.233 C 
BRANCH   2   3
ATOM      3  C   UNL     1      10.709 -57.718 -22.247  1.00  0.00     0.038 C 
ATOM      4  C   UNL     1       9.631 -59.385 -23.886  1.00  0.00     0.262 C 
ATOM      5  N   UNL     1      10.550 -60.457 -23.351  1.00  0.00    -0.331 N 
ATOM      6  C   UNL     1       9.417 -58.313 -22.825  1.00  0.00     0.069 C 
ATOM      7  C   UNL     1      11.882 -59.907 -22.916  1.00  0.00     0.262 C 
ATOM      8  C   UNL     1      11.680 -58.840 -21.849  1.00  0.00     0.069 C 
ATOM      9  H   UNL     1      10.090 -60.861 -22.526  1.00  0.00     0.348 HD
BRANCH   5  10
ATOM     10  C   UNL     1      10.728 -61.603 -24.329  1.00  0.00     0.299 C 
BRANCH  10  11
ATOM     11  C   UNL     1       9.464 -62.384 -24.560  1.00  0.00     0.006 A 
ATOM     12  C   UNL     1       8.852 -62.391 -25.824  1.00  0.00     0.009 A 
ATOM     13  C   UNL     1       8.889 -63.132 -23.522  1.00  0.00     0.009 A 
ATOM     14  C   UNL     1       7.694 -63.138 -26.042  1.00  0.00     0.001 A 
ATOM     15  C   UNL     1       7.730 -63.877 -23.746  1.00  0.00     0.001 A 
ATOM     16  C   UNL     1       7.136 -63.882 -25.006  1.00  0.00     0.000 A 
ENDBRANCH  10  11
ENDBRANCH   5  10
ENDBRANCH   2   3
ENDBRANCH   1   2
BRANCH   1  17
ATOM     17  C   UNL     1      10.763 -54.370 -23.081  1.00  0.00     0.139 A 
ATOM     18  C   UNL     1      10.457 -54.035 -21.767  1.00  0.00     0.157 A 
ATOM     19  C   UNL     1      11.381 -53.397 -23.866  1.00  0.00     0.075 A 
ATOM     20  N   UNL     1      10.719 -52.837 -21.202  1.00  0.00    -0.259 NA
ATOM     21  C   UNL     1      11.679 -52.144 -23.326  1.00  0.00     0.063 A 
ATOM     22  C   UNL     1      11.324 -51.923 -21.996  1.00  0.00     0.137 A 
BRANCH  21  23
ATOM     23  N   UNL     1      12.300 -51.098 -24.044  1.00  0.00    -0.320 N 
ATOM     24  C   UNL     1      13.450 -51.179 -24.808  1.00  0.00     0.256 C 
ATOM     25  H   UNL     1      11.888 -50.176 -23.941  1.00  0.00     0.170 HD
ATOM     26  O   UNL     1      14.174 -52.161 -24.931  1.00  0.00    -0.269 OA
BRANCH  24  27
ATOM     27  C   UNL     1      13.851 -49.923 -25.478  1.00  0.00     0.052 A 
ATOM     28  C   UNL     1      14.688 -49.994 -26.598  1.00  0.00     0.035 A 
ATOM     29  C   UNL     1      13.411 -48.655 -25.049  1.00  0.00     0.031 A 
ATOM     30  C   UNL     1      15.082 -48.817 -27.210  1.00  0.00     0.114 A 
ATOM     31  C   UNL     1      12.537 -48.126 -24.054  1.00  0.00     0.030 A 
ATOM     32  C   UNL     1      13.893 -47.562 -25.764  1.00  0.00     0.138 A 
ATOM     33  N   UNL     1      14.722 -47.575 -26.821  1.00  0.00    -0.239 NA
ATOM     34  C   UNL     1      12.545 -46.752 -24.171  1.00  0.00     0.085 A 
ATOM     35  N   UNL     1      13.374 -46.424 -25.212  1.00  0.00    -0.346 N 
ATOM     36  H   UNL     1      13.572 -45.494 -25.557  1.00  0.00     0.167 HD
ENDBRANCH  24  27
ENDBRANCH  21  23
ENDBRANCH   1  17
TORSDOF 7
ENDMDL
MODEL 6
REMARK VINA RESULT:   -10.454      2.406     12.640
REMARK INTER + INTRA:         -15.597
REMARK INTER:                 -15.098
REMARK INTRA:                  -0.499
REMARK UNBOUND:                -0.865
REMARK SMILES O=C(Nc1cncc(OC[C@H]2CC[N@@H+](Cc3ccccc3)CC2)c1)c1ccnc2[nH]ccc12
REMARK SMILES IDX 9 1 10 2 11 3 13 4 14 5 12 6 22 7 23 8 15 10 16 11 17 12
REMARK SMILES IDX 21 13 18 14 20 15 19 16 8 17 7 18 24 19 6 20 4 21 5 22 3 23
REMARK SMILES IDX 2 24 1 26 25 27 26 28 33 29 27 30 32 31 29 32 28 33 31 34
REMARK SMILES IDX 30 35
REMARK H PARENT 14 9 3 25 30 36
ROOT
ATOM      1  O   UNL     1      10.758 -55.182 -23.511  1.00  0.00    -0.492 OA
ENDROOT
BRANCH   1   2
ATOM      2  C   UNL     1      11.378 -56.459 -23.370  1.00  0.00     0.233 C 
BRANCH   2   3
ATOM      3  C   UNL     1      10.544 -57.358 -22.437  1.00  0.00     0.038 C 
ATOM      4  C   UNL     1       9.708 -59.221 -24.004  1.00  0.00     0.262 C 
ATOM      5  N   UNL     1      10.479 -60.221 -23.174  1.00  0.00    -0.331 N 
ATOM      6  C   UNL     1       9.351 -58.010 -23.151  1.00  0.00     0.069 C 
ATOM      7  C   UNL     1      11.734 -59.632 -22.586  1.00  0.00     0.262 C 
ATOM      8  C   UNL     1      11.387 -58.425 -21.725  1.00  0.00     0.069 C 
ATOM      9  H   UNL     1       9.868 -60.501 -22.398  1.00  0.00     0.348 HD
BRANCH   5  10
ATOM     10  C   UNL     1      10.783 -61.493 -23.942  1.00  0.00     0.299 C 
BRANCH  10  11
ATOM     11  C   UNL     1       9.559 -62.321 -24.222  1.00  0.00     0.006 A 
ATOM     12  C   UNL     1       8.972 -63.089 -23.204  1.00  0.00     0.009 A 
ATOM     13  C   UNL     1       8.977 -62.323 -25.498  1.00  0.00     0.009 A 
ATOM     14  C   UNL     1       7.821 -63.837 -23.460  1.00  0.00     0.001 A 
ATOM     15  C   UNL     1       7.825 -63.072 -25.747  1.00  0.00     0.001 A 
ATOM     16  C   UNL     1       7.248 -63.825 -24.729  1.00  0.00     0.000 A 
ENDBRANCH  10  11
ENDBRANCH   5  10
ENDBRANCH   2   3
ENDBRANCH   1   2
BRANCH   1  17
ATOM     17  C   UNL     1      11.535 -54.175 -24.016  1.00  0.00     0.139 A 
ATOM     18  C   UNL     1      12.227 -54.465 -25.186  1.00  0.00     0.157 A 
ATOM     19  C   UNL     1      11.695 -52.901 -23.472  1.00  0.00     0.075 A 
ATOM     20  N   UNL     1      13.040 -53.599 -25.829  1.00  0.00    -0.259 NA
ATOM     21  C   UNL     1      12.521 -51.967 -24.103  1.00  0.00     0.063 A 
ATOM     22  C   UNL     1      13.165 -52.372 -25.271  1.00  0.00     0.137 A 
BRANCH  21  23
ATOM     23  N   UNL     1      12.746 -50.657 -23.625  1.00  0.00    -0.320 N 
ATOM     24  C   UNL     1      11.955 -49.943 -22.744  1.00  0.00     0.256 C 
ATOM     25  H   UNL     1      13.545 -50.167 -24.016  1.00  0.00     0.170 HD
ATOM     26  O   UNL     1      10.875 -50.299 -22.283  1.00  0.00    -0.269 OA
BRANCH  24  27
ATOM     27  C   UNL     1      12.459 -48.598 -22.393  1.00  0.00     0.052 A 
ATOM     28  C   UNL     1      13.308 -48.463 -21.287  1.00  0.00     0.035 A 
ATOM     29  C   UNL     1      12.137 -47.444 -23.135  1.00  0.00     0.031 A 
ATOM     30  C   UNL     1      13.760 -47.201 -20.945  1.00  0.00     0.114 A 
ATOM     31  C   UNL     1      11.406 -47.124 -24.317  1.00  0.00     0.030 A 
ATOM     32  C   UNL     1      12.665 -46.244 -22.667  1.00  0.00     0.138 A 
ATOM     33  N   UNL     1      13.455 -46.057 -21.596  1.00  0.00    -0.239 NA
ATOM     34  C   UNL     1      11.484 -45.760 -24.506  1.00  0.00     0.085 A 
ATOM     35  N   UNL     1      12.250 -45.239 -23.496  1.00  0.00    -0.346 N 
ATOM     36  H   UNL     1      12.504 -44.269 -23.370  1.00  0.00     0.167 HD
ENDBRANCH  24  27
ENDBRANCH  21  23
ENDBRANCH   1  17
TORSDOF 7
ENDMDL
MODEL 7
REMARK VINA RESULT:   -10.448      3.690      5.772
REMARK INTER + INTRA:         -15.589
REMARK INTER:                 -14.810
REMARK INTRA:                  -0.779
REMARK UNBOUND:                -0.865
REMARK SMILES O=C(Nc1cncc(OC[C@H]2CC[N@@H+](Cc3ccccc3)CC2)c1)c1ccnc2[nH]ccc12
REMARK SMILES IDX 9 1 10 2 11 3 13 4 14 5 12 6 22 7 23 8 15 10 16 11 17 12
REMARK SMILES IDX 21 13 18 14 20 15 19 16 8 17 7 18 24 19 6 20 4 21 5 22 3 23
REMARK SMILES IDX 2 24 1 26 25 27 26 28 33 29 27 30 32 31 29 32 28 33 31 34
REMARK SMILES IDX 30 35
REMARK H PARENT 14 9 3 25 30 36
ROOT
ATOM      1  O   UNL     1      12.219 -51.592 -23.747  1.00  0.00    -0.492 OA
ENDROOT
BRANCH   1   2
ATOM      2  C   UNL     1      13.641 -51.591 -23.636  1.00  0.00     0.233 C 
BRANCH   2   3
ATOM      3  C   UNL     1      14.276 -52.213 -24.895  1.00  0.00     0.038 C 
ATOM      4  C   UNL     1      14.087 -50.332 -26.642  1.00  0.00     0.262 C 
ATOM      5  N   UNL     1      15.595 -50.294 -26.718  1.00  0.00    -0.331 N 
ATOM      6  C   UNL     1      13.628 -51.714 -26.194  1.00  0.00     0.069 C 
ATOM      7  C   UNL     1      16.244 -50.639 -25.404  1.00  0.00     0.262 C 
ATOM      8  C   UNL     1      15.798 -52.023 -24.951  1.00  0.00     0.069 C 
ATOM      9  H   UNL     1      15.878 -51.002 -27.405  1.00  0.00     0.348 HD
BRANCH   5  10
ATOM     10  C   UNL     1      16.112 -48.971 -27.249  1.00  0.00     0.299 C 
BRANCH  10  11
ATOM     11  C   UNL     1      16.146 -48.910 -28.751  1.00  0.00     0.006 A 
ATOM     12  C   UNL     1      17.207 -49.491 -29.463  1.00  0.00     0.009 A 
ATOM     13  C   UNL     1      15.109 -48.288 -29.463  1.00  0.00     0.009 A 
ATOM     14  C   UNL     1      17.224 -49.456 -30.858  1.00  0.00     0.001 A 
ATOM     15  C   UNL     1      15.130 -48.257 -30.858  1.00  0.00     0.001 A 
ATOM     16  C   UNL     1      16.185 -48.842 -31.554  1.00  0.00     0.000 A 
ENDBRANCH  10  11
ENDBRANCH   5  10
ENDBRANCH   2   3
ENDBRANCH   1   2
BRANCH   1  17
ATOM     17  C   UNL     1      11.556 -52.621 -23.135  1.00  0.00     0.139 A 
ATOM     18  C   UNL     1      10.858 -52.296 -21.977  1.00  0.00     0.157 A 
ATOM     19  C   UNL     1      11.519 -53.950 -23.558  1.00  0.00     0.075 A 
ATOM     20  N   UNL     1      10.149 -53.177 -21.239  1.00  0.00    -0.259 NA
ATOM     21  C   UNL     1      10.792 -54.897 -22.832  1.00  0.00     0.063 A 
ATOM     22  C   UNL     1      10.134 -54.454 -21.686  1.00  0.00     0.137 A 
BRANCH  21  23
ATOM     23  N   UNL     1      10.699 -56.263 -23.181  1.00  0.00    -0.320 N 
ATOM     24  C   UNL     1      10.963 -57.351 -22.370  1.00  0.00     0.256 C 
ATOM     25  H   UNL     1      10.468 -56.464 -24.149  1.00  0.00     0.170 HD
ATOM     26  O   UNL     1      11.400 -57.316 -21.225  1.00  0.00    -0.269 OA
BRANCH  24  27
ATOM     27  C   UNL     1      10.746 -58.672 -22.998  1.00  0.00     0.052 A 
ATOM     28  C   UNL     1      11.855 -59.491 -23.246  1.00  0.00     0.035 A 
ATOM     29  C   UNL     1       9.467 -59.153 -23.343  1.00  0.00     0.031 A 
ATOM     30  C   UNL     1      11.653 -60.717 -23.855  1.00  0.00     0.114 A 
ATOM     31  C   UNL     1       8.113 -58.723 -23.218  1.00  0.00     0.030 A 
ATOM     32  C   UNL     1       9.423 -60.404 -23.951  1.00  0.00     0.138 A 
ATOM     33  N   UNL     1      10.457 -61.213 -24.240  1.00  0.00    -0.239 NA
ATOM     34  C   UNL     1       7.308 -59.693 -23.777  1.00  0.00     0.085 A 
ATOM     35  N   UNL     1       8.117 -60.707 -24.219  1.00  0.00    -0.346 N 
ATOM     36  H   UNL     1       7.822 -61.569 -24.658  1.00  0.00     0.167 HD
ENDBRANCH  24  27
ENDBRANCH  21  23
ENDBRANCH   1  17
TORSDOF 7
ENDMDL
MODEL 8
REMARK VINA RESULT:   -10.260      2.531      4.339
REMARK INTER + INTRA:         -15.324
REMARK INTER:                 -15.058
REMARK INTRA:                  -0.265
REMARK UNBOUND:                -0.865
REMARK SMILES O=C(Nc1cncc(OC[C@H]2CC[N@@H+](Cc3ccccc3)CC2)c1)c1ccnc2[nH]ccc12
REMARK SMILES IDX 9 1 10 2 11 3 13 4 14 5 12 6 22 7 23 8 15 10 16 11 17 12
REMARK SMILES IDX 21 13 18 14 20 15 19 16 8 17 7 18 24 19 6 20 4 21 5 22 3 23
REMARK SMILES IDX 2 24 1 26 25 27 26 28 33 29 27 30 32 31 29 32 28 33 31 34
REMARK SMILES IDX 30 35
REMARK H PARENT 14 9 3 25 30 36
ROOT
ATOM      1  O   UNL     1      12.515 -52.333 -24.197  1.00  0.00    -0.492 OA
ENDROOT
BRANCH   1   2
ATOM      2  C   UNL     1      13.091 -52.956 -25.343  1.00  0.00     0.233 C 
BRANCH   2   3
ATOM      3  C   UNL     1      14.344 -52.183 -25.799  1.00  0.00     0.038 C 
ATOM      4  C   UNL     1      13.654 -49.720 -25.512  1.00  0.00     0.262 C 
ATOM      5  N   UNL     1      14.753 -49.564 -24.487  1.00  0.00    -0.331 N 
ATOM      6  C   UNL     1      14.003 -50.847 -26.475  1.00  0.00     0.069 C 
ATOM      7  C   UNL     1      14.997 -50.832 -23.711  1.00  0.00     0.262 C 
ATOM      8  C   UNL     1      15.355 -51.964 -24.665  1.00  0.00     0.069 C 
ATOM      9  H   UNL     1      15.612 -49.339 -25.002  1.00  0.00     0.348 HD
BRANCH   5  10
ATOM     10  C   UNL     1      14.508 -48.394 -23.554  1.00  0.00     0.299 C 
BRANCH  10  11
ATOM     11  C   UNL     1      13.053 -48.036 -23.426  1.00  0.00     0.006 A 
ATOM     12  C   UNL     1      12.558 -46.853 -23.998  1.00  0.00     0.009 A 
ATOM     13  C   UNL     1      12.167 -48.886 -22.749  1.00  0.00     0.009 A 
ATOM     14  C   UNL     1      11.202 -46.536 -23.900  1.00  0.00     0.001 A 
ATOM     15  C   UNL     1      10.812 -48.564 -22.655  1.00  0.00     0.001 A 
ATOM     16  C   UNL     1      10.331 -47.391 -23.232  1.00  0.00     0.000 A 
ENDBRANCH  10  11
ENDBRANCH   5  10
ENDBRANCH   2   3
ENDBRANCH   1   2
BRANCH   1  17
ATOM     17  C   UNL     1      11.638 -53.086 -23.465  1.00  0.00     0.139 A 
ATOM     18  C   UNL     1      11.224 -52.540 -22.255  1.00  0.00     0.157 A 
ATOM     19  C   UNL     1      11.129 -54.337 -23.813  1.00  0.00     0.075 A 
ATOM     20  N   UNL     1      10.365 -53.136 -21.401  1.00  0.00    -0.259 NA
ATOM     21  C   UNL     1      10.233 -54.991 -22.966  1.00  0.00     0.063 A 
ATOM     22  C   UNL     1       9.891 -54.346 -21.778  1.00  0.00     0.137 A 
BRANCH  21  23
ATOM     23  N   UNL     1       9.668 -56.259 -23.234  1.00  0.00    -0.320 N 
ATOM     24  C   UNL     1      10.082 -57.478 -22.731  1.00  0.00     0.256 C 
ATOM     25  H   UNL     1       8.914 -56.280 -23.913  1.00  0.00     0.170 HD
ATOM     26  O   UNL     1      11.063 -57.679 -22.023  1.00  0.00    -0.269 OA
BRANCH  24  27
ATOM     27  C   UNL     1       9.277 -58.643 -23.161  1.00  0.00     0.052 A 
ATOM     28  C   UNL     1       7.916 -58.457 -23.431  1.00  0.00     0.035 A 
ATOM     29  C   UNL     1       9.825 -59.930 -23.329  1.00  0.00     0.031 A 
ATOM     30  C   UNL     1       7.158 -59.552 -23.810  1.00  0.00     0.114 A 
ATOM     31  C   UNL     1      11.109 -60.545 -23.246  1.00  0.00     0.030 A 
ATOM     32  C   UNL     1       8.938 -60.931 -23.712  1.00  0.00     0.138 A 
ATOM     33  N   UNL     1       7.621 -60.813 -23.951  1.00  0.00    -0.239 NA
ATOM     34  C   UNL     1      10.957 -61.884 -23.542  1.00  0.00     0.085 A 
ATOM     35  N   UNL     1       9.633 -62.104 -23.822  1.00  0.00    -0.346 N 
ATOM     36  H   UNL     1       9.210 -62.981 -24.092  1.00  0.00     0.167 HD
ENDBRANCH  24  27
ENDBRANCH  21  23
ENDBRANCH   1  17
TORSDOF 7
ENDMDL
MODEL 9
REMARK VINA RESULT:    -9.991      2.860      5.289
REMARK INTER + INTRA:         -14.945
REMARK INTER:                 -14.134
REMARK INTRA:                  -0.811
REMARK UNBOUND:                -0.865
REMARK SMILES O=C(Nc1cncc(OC[C@H]2CC[N@@H+](Cc3ccccc3)CC2)c1)c1ccnc2[nH]ccc12
REMARK SMILES IDX 9 1 10 2 11 3 13 4 14 5 12 6 22 7 23 8 15 10 16 11 17 12
REMARK SMILES IDX 21 13 18 14 20 15 19 16 8 17 7 18 24 19 6 20 4 21 5 22 3 23
REMARK SMILES IDX 2 24 1 26 25 27 26 28 33 29 27 30 32 31 29 32 28 33 31 34
REMARK SMILES IDX 30 35
REMARK H PARENT 14 9 3 25 30 36
ROOT
ATOM      1  O   UNL     1      12.846 -51.412 -23.022  1.00  0.00    -0.492 OA
ENDROOT
BRANCH   1   2
ATOM      2  C   UNL     1      13.090 -50.897 -24.329  1.00  0.00     0.233 C 
BRANCH   2   3
ATOM      3  C   UNL     1      13.888 -49.581 -24.245  1.00  0.00     0.038 C 
ATOM      4  C   UNL     1      12.063 -47.772 -24.406  1.00  0.00     0.262 C 
ATOM      5  N   UNL     1      12.444 -47.309 -23.020  1.00  0.00    -0.331 N 
ATOM      6  C   UNL     1      13.256 -48.450 -25.069  1.00  0.00     0.069 C 
ATOM      7  C   UNL     1      12.929 -48.439 -22.151  1.00  0.00     0.262 C 
ATOM      8  C   UNL     1      14.126 -49.119 -22.801  1.00  0.00     0.069 C 
ATOM      9  H   UNL     1      13.217 -46.642 -23.129  1.00  0.00     0.348 HD
BRANCH   5  10
ATOM     10  C   UNL     1      11.325 -46.542 -22.342  1.00  0.00     0.299 C 
BRANCH  10  11
ATOM     11  C   UNL     1      11.564 -45.058 -22.306  1.00  0.00     0.006 A 
ATOM     12  C   UNL     1      12.755 -44.541 -21.772  1.00  0.00     0.009 A 
ATOM     13  C   UNL     1      10.609 -44.170 -22.822  1.00  0.00     0.009 A 
ATOM     14  C   UNL     1      12.986 -43.164 -21.764  1.00  0.00     0.001 A 
ATOM     15  C   UNL     1      10.845 -42.794 -22.812  1.00  0.00     0.001 A 
ATOM     16  C   UNL     1      12.032 -42.293 -22.285  1.00  0.00     0.000 A 
ENDBRANCH  10  11
ENDBRANCH   5  10
ENDBRANCH   2   3
ENDBRANCH   1   2
BRANCH   1  17
ATOM     17  C   UNL     1      11.688 -52.119 -22.847  1.00  0.00     0.139 A 
ATOM     18  C   UNL     1      10.642 -51.440 -22.234  1.00  0.00     0.157 A 
ATOM     19  C   UNL     1      11.463 -53.444 -23.222  1.00  0.00     0.075 A 
ATOM     20  N   UNL     1       9.428 -51.973 -21.978  1.00  0.00    -0.259 NA
ATOM     21  C   UNL     1      10.222 -54.039 -22.985  1.00  0.00     0.063 A 
ATOM     22  C   UNL     1       9.249 -53.259 -22.361  1.00  0.00     0.137 A 
BRANCH  21  23
ATOM     23  N   UNL     1       9.904 -55.373 -23.326  1.00  0.00    -0.320 N 
ATOM     24  C   UNL     1      10.300 -56.520 -22.664  1.00  0.00     0.256 C 
ATOM     25  H   UNL     1       9.374 -55.503 -24.183  1.00  0.00     0.170 HD
ATOM     26  O   UNL     1      11.062 -56.580 -21.706  1.00  0.00    -0.269 OA
BRANCH  24  27
ATOM     27  C   UNL     1       9.784 -57.785 -23.231  1.00  0.00     0.052 A 
ATOM     28  C   UNL     1       8.419 -57.883 -23.529  1.00  0.00     0.035 A 
ATOM     29  C   UNL     1      10.612 -58.892 -23.505  1.00  0.00     0.031 A 
ATOM     30  C   UNL     1       7.934 -59.076 -24.038  1.00  0.00     0.114 A 
ATOM     31  C   UNL     1      12.000 -59.209 -23.437  1.00  0.00     0.030 A 
ATOM     32  C   UNL     1       9.979 -60.022 -24.013  1.00  0.00     0.138 A 
ATOM     33  N   UNL     1       8.672 -60.179 -24.284  1.00  0.00    -0.239 NA
ATOM     34  C   UNL     1      12.159 -60.510 -23.867  1.00  0.00     0.085 A 
ATOM     35  N   UNL     1      10.923 -60.992 -24.212  1.00  0.00    -0.346 N 
ATOM     36  H   UNL     1      10.713 -61.910 -24.580  1.00  0.00     0.167 HD
ENDBRANCH  24  27
ENDBRANCH  21  23
ENDBRANCH   1  17
TORSDOF 7
ENDMDL
