MODEL 1
REMARK VINA RESULT:    -8.873      0.000      0.000
REMARK INTER + INTRA:         -10.974
REMARK INTER:                 -10.688
REMARK INTRA:                  -0.286
REMARK UNBOUND:                -0.286
REMARK SMILES CN(C)S(=O)(=O)N[C@H]1CCc2cc(O)ccc2C1
REMARK SMILES IDX 7 1 4 3 5 4 6 5 2 6 1 7 3 8 8 9 9 10 18 11 10 12 17 13 11 14
REMARK SMILES IDX 16 15 12 16 15 17 13 18 14 19
REMARK H PARENT 7 2 14 20
ROOT
ATOM      1  N   UNL     1       9.992 -59.547 -23.284  1.00  0.00    -0.199 NA
ATOM      2  H   UNL     1       9.132 -59.437 -22.745  1.00  0.00     0.142 HD
ENDROOT
BRANCH   1   3
ATOM      3  S   UNL     1      10.929 -58.167 -23.167  1.00  0.00     0.279 S 
ATOM      4  O   UNL     1      11.355 -58.053 -21.794  1.00  0.00    -0.195 OA
ATOM      5  O   UNL     1      11.874 -58.175 -24.256  1.00  0.00    -0.195 OA
BRANCH   3   6
ATOM      6  N   UNL     1       9.756 -56.986 -23.470  1.00  0.00    -0.195 NA
ATOM      7  C   UNL     1       8.360 -57.470 -23.404  1.00  0.00     0.125 C 
ATOM      8  C   UNL     1       9.942 -55.761 -22.661  1.00  0.00     0.125 C 
ENDBRANCH   3   6
ENDBRANCH   1   3
BRANCH   1   9
ATOM      9  C   UNL     1      10.657 -60.864 -23.060  1.00  0.00     0.075 C 
ATOM     10  C   UNL     1       9.909 -61.648 -21.960  1.00  0.00     0.025 C 
ATOM     11  C   UNL     1      10.730 -61.590 -24.419  1.00  0.00     0.056 C 
ATOM     12  C   UNL     1       9.545 -63.083 -22.343  1.00  0.00     0.037 C 
ATOM     13  C   UNL     1       9.466 -62.351 -24.726  1.00  0.00    -0.043 A 
ATOM     14  C   UNL     1       8.882 -63.105 -23.693  1.00  0.00    -0.041 A 
ATOM     15  C   UNL     1       8.904 -62.366 -26.006  1.00  0.00     0.008 A 
ATOM     16  C   UNL     1       7.740 -63.871 -23.947  1.00  0.00     0.050 A 
ATOM     17  C   UNL     1       7.757 -63.121 -26.251  1.00  0.00     0.046 A 
ATOM     18  C   UNL     1       7.186 -63.865 -25.224  1.00  0.00     0.115 A 
BRANCH  18  19
ATOM     19  O   UNL     1       6.068 -64.592 -25.516  1.00  0.00    -0.508 OA
ATOM     20  H   UNL     1       5.785 -64.373 -26.419  1.00  0.00     0.293 HD
ENDBRANCH  18  19
ENDBRANCH   1   9
TORSDOF 4
ENDMDL
MODEL 2
REMARK VINA RESULT:    -8.153      3.995      8.595
REMARK INTER + INTRA:         -10.107
REMARK INTER:                  -9.794
REMARK INTRA:                  -0.313
REMARK UNBOUND:                -0.286
REMARK SMILES CN(C)S(=O)(=O)N[C@H]1CCc2cc(O)ccc2C1
REMARK SMILES IDX 7 1 4 3 5 4 6 5 2 6 1 7 3 8 8 9 9 10 18 11 10 12 17 13 11 14
REMARK SMILES IDX 16 15 12 16 15 17 13 18 14 19
REMARK H PARENT 7 2 14 20
ROOT
ATOM      1  N   UNL     1      11.449 -56.464 -22.197  1.00  0.00    -0.199 NA
ATOM      2  H   UNL     1      12.076 -56.260 -21.418  1.00  0.00     0.142 HD
ENDROOT
BRANCH   1   3
ATOM      3  S   UNL     1      10.986 -58.071 -22.162  1.00  0.00     0.279 S 
ATOM      4  O   UNL     1      11.250 -58.564 -20.833  1.00  0.00    -0.195 OA
ATOM      5  O   UNL     1       9.680 -58.174 -22.763  1.00  0.00    -0.195 OA
BRANCH   3   6
ATOM      6  N   UNL     1      12.128 -58.732 -23.220  1.00  0.00    -0.195 NA
ATOM      7  C   UNL     1      12.100 -60.208 -23.314  1.00  0.00     0.125 C 
ATOM      8  C   UNL     1      12.112 -58.105 -24.560  1.00  0.00     0.125 C 
ENDBRANCH   3   6
ENDBRANCH   1   3
BRANCH   1   9
ATOM      9  C   UNL     1      10.383 -55.435 -22.375  1.00  0.00     0.075 C 
ATOM     10  C   UNL     1      10.546 -54.325 -21.314  1.00  0.00     0.025 C 
ATOM     11  C   UNL     1      10.452 -54.935 -23.833  1.00  0.00     0.056 C 
ATOM     12  C   UNL     1      10.547 -52.905 -21.881  1.00  0.00     0.037 C 
ATOM     13  C   UNL     1      11.462 -53.831 -24.009  1.00  0.00    -0.043 A 
ATOM     14  C   UNL     1      11.501 -52.811 -23.040  1.00  0.00    -0.041 A 
ATOM     15  C   UNL     1      12.308 -53.771 -25.120  1.00  0.00     0.008 A 
ATOM     16  C   UNL     1      12.383 -51.737 -23.191  1.00  0.00     0.050 A 
ATOM     17  C   UNL     1      13.196 -52.704 -25.259  1.00  0.00     0.046 A 
ATOM     18  C   UNL     1      13.227 -51.699 -24.298  1.00  0.00     0.115 A 
BRANCH  18  19
ATOM     19  O   UNL     1      14.109 -50.675 -24.483  1.00  0.00    -0.508 OA
ATOM     20  H   UNL     1      14.909 -51.029 -24.905  1.00  0.00     0.293 HD
ENDBRANCH  18  19
ENDBRANCH   1   9
TORSDOF 4
ENDMDL
MODEL 3
REMARK VINA RESULT:    -7.850      1.741      2.605
REMARK INTER + INTRA:          -9.742
REMARK INTER:                  -9.533
REMARK INTRA:                  -0.209
REMARK UNBOUND:                -0.286
REMARK SMILES CN(C)S(=O)(=O)N[C@H]1CCc2cc(O)ccc2C1
REMARK SMILES IDX 7 1 4 3 5 4 6 5 2 6 1 7 3 8 8 9 9 10 18 11 10 12 17 13 11 14
REMARK SMILES IDX 16 15 12 16 15 17 13 18 14 19
REMARK H PARENT 7 2 14 20
ROOT
ATOM      1  N   UNL     1      10.304 -58.960 -24.354  1.00  0.00    -0.199 NA
ATOM      2  H   UNL     1      10.075 -58.765 -25.330  1.00  0.00     0.142 HD
ENDROOT
BRANCH   1   3
ATOM      3  S   UNL     1      11.698 -58.147 -23.915  1.00  0.00     0.279 S 
ATOM      4  O   UNL     1      12.477 -59.042 -23.096  1.00  0.00    -0.195 OA
ATOM      5  O   UNL     1      12.247 -57.529 -25.097  1.00  0.00    -0.195 OA
BRANCH   3   6
ATOM      6  N   UNL     1      11.040 -56.943 -22.925  1.00  0.00    -0.195 NA
ATOM      7  C   UNL     1      11.397 -57.057 -21.494  1.00  0.00     0.125 C 
ATOM      8  C   UNL     1      11.280 -55.575 -23.434  1.00  0.00     0.125 C 
ENDBRANCH   3   6
ENDBRANCH   1   3
BRANCH   1   9
ATOM      9  C   UNL     1       9.124 -58.864 -23.446  1.00  0.00     0.075 C 
ATOM     10  C   UNL     1       7.821 -58.993 -24.265  1.00  0.00     0.025 C 
ATOM     11  C   UNL     1       9.291 -59.932 -22.346  1.00  0.00     0.056 C 
ATOM     12  C   UNL     1       6.833 -60.026 -23.722  1.00  0.00     0.037 C 
ATOM     13  C   UNL     1       8.772 -61.280 -22.777  1.00  0.00    -0.043 A 
ATOM     14  C   UNL     1       7.539 -61.326 -23.453  1.00  0.00    -0.041 A 
ATOM     15  C   UNL     1       9.450 -62.464 -22.478  1.00  0.00     0.008 A 
ATOM     16  C   UNL     1       6.992 -62.559 -23.824  1.00  0.00     0.050 A 
ATOM     17  C   UNL     1       8.907 -63.690 -22.861  1.00  0.00     0.046 A 
ATOM     18  C   UNL     1       7.687 -63.729 -23.528  1.00  0.00     0.115 A 
BRANCH  18  19
ATOM     19  O   UNL     1       7.195 -64.953 -23.876  1.00  0.00    -0.508 OA
ATOM     20  H   UNL     1       7.630 -65.238 -24.696  1.00  0.00     0.293 HD
ENDBRANCH  18  19
ENDBRANCH   1   9
TORSDOF 4
ENDMDL
MODEL 4
REMARK VINA RESULT:    -7.695      1.809      3.145
REMARK INTER + INTRA:          -9.556
REMARK INTER:                  -9.602
REMARK INTRA:                   0.046
REMARK UNBOUND:                -0.286
REMARK SMILES CN(C)S(=O)(=O)N[C@H]1CCc2cc(O)ccc2C1
REMARK SMILES IDX 7 1 4 3 5 4 6 5 2 6 1 7 3 8 8 9 9 10 18 11 10 12 17 13 11 14
REMARK SMILES IDX 16 15 12 16 15 17 13 18 14 19
REMARK H PARENT 7 2 14 20
ROOT
ATOM      1  N   UNL     1      10.086 -58.541 -24.188  1.00  0.00    -0.199 NA
ATOM      2  H   UNL     1       9.786 -58.005 -25.004  1.00  0.00     0.142 HD
ENDROOT
BRANCH   1   3
ATOM      3  S   UNL     1      11.622 -58.075 -23.722  1.00  0.00     0.279 S 
ATOM      4  O   UNL     1      11.854 -56.759 -24.265  1.00  0.00    -0.195 OA
ATOM      5  O   UNL     1      11.766 -58.349 -22.314  1.00  0.00    -0.195 OA
BRANCH   3   6
ATOM      6  N   UNL     1      12.548 -59.191 -24.593  1.00  0.00    -0.195 NA
ATOM      7  C   UNL     1      12.754 -60.487 -23.911  1.00  0.00     0.125 C 
ATOM      8  C   UNL     1      12.077 -59.379 -25.983  1.00  0.00     0.125 C 
ENDBRANCH   3   6
ENDBRANCH   1   3
BRANCH   1   9
ATOM      9  C   UNL     1       9.035 -58.636 -23.133  1.00  0.00     0.075 C 
ATOM     10  C   UNL     1       7.635 -58.603 -23.783  1.00  0.00     0.025 C 
ATOM     11  C   UNL     1       9.319 -59.903 -22.300  1.00  0.00     0.056 C 
ATOM     12  C   UNL     1       6.702 -59.728 -23.333  1.00  0.00     0.037 C 
ATOM     13  C   UNL     1       8.718 -61.138 -22.922  1.00  0.00    -0.043 A 
ATOM     14  C   UNL     1       7.408 -61.053 -23.426  1.00  0.00    -0.041 A 
ATOM     15  C   UNL     1       9.403 -62.356 -22.957  1.00  0.00     0.008 A 
ATOM     16  C   UNL     1       6.790 -62.187 -23.961  1.00  0.00     0.050 A 
ATOM     17  C   UNL     1       8.788 -63.482 -23.504  1.00  0.00     0.046 A 
ATOM     18  C   UNL     1       7.491 -63.390 -24.000  1.00  0.00     0.115 A 
BRANCH  18  19
ATOM     19  O   UNL     1       6.931 -64.521 -24.519  1.00  0.00    -0.508 OA
ATOM     20  H   UNL     1       5.972 -64.485 -24.373  1.00  0.00     0.293 HD
ENDBRANCH  18  19
ENDBRANCH   1   9
TORSDOF 4
ENDMDL
MODEL 5
REMARK VINA RESULT:    -7.431      3.478      5.293
REMARK INTER + INTRA:          -9.237
REMARK INTER:                  -8.966
REMARK INTRA:                  -0.272
REMARK UNBOUND:                -0.286
REMARK SMILES CN(C)S(=O)(=O)N[C@H]1CCc2cc(O)ccc2C1
REMARK SMILES IDX 7 1 4 3 5 4 6 5 2 6 1 7 3 8 8 9 9 10 18 11 10 12 17 13 11 14
REMARK SMILES IDX 16 15 12 16 15 17 13 18 14 19
REMARK H PARENT 7 2 14 20
ROOT
ATOM      1  N   UNL     1       8.438 -60.324 -24.940  1.00  0.00    -0.199 NA
ATOM      2  H   UNL     1       7.968 -59.806 -25.684  1.00  0.00     0.142 HD
ENDROOT
BRANCH   1   3
ATOM      3  S   UNL     1       7.389 -60.585 -23.665  1.00  0.00     0.279 S 
ATOM      4  O   UNL     1       6.510 -61.663 -24.045  1.00  0.00    -0.195 OA
ATOM      5  O   UNL     1       8.164 -60.632 -22.450  1.00  0.00    -0.195 OA
BRANCH   3   6
ATOM      6  N   UNL     1       6.514 -59.137 -23.698  1.00  0.00    -0.195 NA
ATOM      7  C   UNL     1       5.589 -58.949 -22.560  1.00  0.00     0.125 C 
ATOM      8  C   UNL     1       7.367 -57.947 -23.904  1.00  0.00     0.125 C 
ENDBRANCH   3   6
ENDBRANCH   1   3
BRANCH   1   9
ATOM      9  C   UNL     1       9.225 -61.486 -25.446  1.00  0.00     0.075 C 
ATOM     10  C   UNL     1       8.710 -61.899 -26.842  1.00  0.00     0.025 C 
ATOM     11  C   UNL     1      10.716 -61.095 -25.409  1.00  0.00     0.056 C 
ATOM     12  C   UNL     1       9.804 -62.042 -27.902  1.00  0.00     0.037 C 
ATOM     13  C   UNL     1      11.140 -60.349 -26.648  1.00  0.00    -0.043 A 
ATOM     14  C   UNL     1      10.694 -60.829 -27.893  1.00  0.00    -0.041 A 
ATOM     15  C   UNL     1      11.994 -59.244 -26.591  1.00  0.00     0.008 A 
ATOM     16  C   UNL     1      11.106 -60.202 -29.072  1.00  0.00     0.050 A 
ATOM     17  C   UNL     1      12.392 -58.613 -27.769  1.00  0.00     0.046 A 
ATOM     18  C   UNL     1      11.948 -59.095 -28.996  1.00  0.00     0.115 A 
BRANCH  18  19
ATOM     19  O   UNL     1      12.370 -58.446 -30.120  1.00  0.00    -0.508 OA
ATOM     20  H   UNL     1      11.604 -58.017 -30.535  1.00  0.00     0.293 HD
ENDBRANCH  18  19
ENDBRANCH   1   9
TORSDOF 4
ENDMDL
MODEL 6
REMARK VINA RESULT:    -7.421      8.265     10.249
REMARK INTER + INTRA:          -9.226
REMARK INTER:                  -8.920
REMARK INTRA:                  -0.306
REMARK UNBOUND:                -0.286
REMARK SMILES CN(C)S(=O)(=O)N[C@H]1CCc2cc(O)ccc2C1
REMARK SMILES IDX 7 1 4 3 5 4 6 5 2 6 1 7 3 8 8 9 9 10 18 11 10 12 17 13 11 14
REMARK SMILES IDX 16 15 12 16 15 17 13 18 14 19
REMARK H PARENT 7 2 14 20
ROOT
ATOM      1  N   UNL     1      15.435 -52.569 -24.887  1.00  0.00    -0.199 NA
ATOM      2  H   UNL     1      15.598 -53.401 -24.318  1.00  0.00     0.142 HD
ENDROOT
BRANCH   1   3
ATOM      3  S   UNL     1      16.858 -52.074 -25.611  1.00  0.00     0.279 S 
ATOM      4  O   UNL     1      17.492 -53.247 -26.160  1.00  0.00    -0.195 OA
ATOM      5  O   UNL     1      16.569 -50.919 -26.424  1.00  0.00    -0.195 OA
BRANCH   3   6
ATOM      6  N   UNL     1      17.728 -51.578 -24.247  1.00  0.00    -0.195 NA
ATOM      7  C   UNL     1      18.553 -50.367 -24.448  1.00  0.00     0.125 C 
ATOM      8  C   UNL     1      16.891 -51.466 -23.032  1.00  0.00     0.125 C 
ENDBRANCH   3   6
ENDBRANCH   1   3
BRANCH   1   9
ATOM      9  C   UNL     1      14.217 -52.678 -25.743  1.00  0.00     0.075 C 
ATOM     10  C   UNL     1      13.736 -54.145 -25.786  1.00  0.00     0.025 C 
ATOM     11  C   UNL     1      13.172 -51.682 -25.200  1.00  0.00     0.056 C 
ATOM     12  C   UNL     1      12.251 -54.332 -25.475  1.00  0.00     0.037 C 
ATOM     13  C   UNL     1      12.357 -52.270 -24.076  1.00  0.00    -0.043 A 
ATOM     14  C   UNL     1      11.888 -53.588 -24.219  1.00  0.00    -0.041 A 
ATOM     15  C   UNL     1      12.020 -51.528 -22.940  1.00  0.00     0.008 A 
ATOM     16  C   UNL     1      11.083 -54.155 -23.226  1.00  0.00     0.050 A 
ATOM     17  C   UNL     1      11.228 -52.102 -21.946  1.00  0.00     0.046 A 
ATOM     18  C   UNL     1      10.767 -53.406 -22.096  1.00  0.00     0.115 A 
BRANCH  18  19
ATOM     19  O   UNL     1       9.990 -53.920 -21.099  1.00  0.00    -0.508 OA
ATOM     20  H   UNL     1       9.823 -53.220 -20.446  1.00  0.00     0.293 HD
ENDBRANCH  18  19
ENDBRANCH   1   9
TORSDOF 4
ENDMDL
MODEL 7
REMARK VINA RESULT:    -7.360      2.653      5.202
REMARK INTER + INTRA:          -9.152
REMARK INTER:                 -10.536
REMARK INTRA:                   1.384
REMARK UNBOUND:                -0.286
REMARK SMILES CN(C)S(=O)(=O)N[C@H]1CCc2cc(O)ccc2C1
REMARK SMILES IDX 7 1 4 3 5 4 6 5 2 6 1 7 3 8 8 9 9 10 18 11 10 12 17 13 11 14
REMARK SMILES IDX 16 15 12 16 15 17 13 18 14 19
REMARK H PARENT 7 2 14 20
ROOT
ATOM      1  N   UNL     1       8.064 -61.241 -22.424  1.00  0.00    -0.199 NA
ATOM      2  H   UNL     1       7.870 -60.386 -21.901  1.00  0.00     0.142 HD
ENDROOT
BRANCH   1   3
ATOM      3  S   UNL     1       7.501 -61.101 -23.992  1.00  0.00     0.279 S 
ATOM      4  O   UNL     1       8.652 -60.968 -24.850  1.00  0.00    -0.195 OA
ATOM      5  O   UNL     1       6.510 -62.127 -24.205  1.00  0.00    -0.195 OA
BRANCH   3   6
ATOM      6  N   UNL     1       6.723 -59.602 -23.895  1.00  0.00    -0.195 NA
ATOM      7  C   UNL     1       5.921 -59.401 -22.669  1.00  0.00     0.125 C 
ATOM      8  C   UNL     1       7.628 -58.459 -24.142  1.00  0.00     0.125 C 
ENDBRANCH   3   6
ENDBRANCH   1   3
BRANCH   1   9
ATOM      9  C   UNL     1       9.453 -61.747 -22.223  1.00  0.00     0.075 C 
ATOM     10  C   UNL     1      10.057 -62.173 -23.579  1.00  0.00     0.025 C 
ATOM     11  C   UNL     1      10.251 -60.649 -21.490  1.00  0.00     0.056 C 
ATOM     12  C   UNL     1      11.437 -61.583 -23.870  1.00  0.00     0.037 C 
ATOM     13  C   UNL     1      10.825 -59.631 -22.442  1.00  0.00    -0.043 A 
ATOM     14  C   UNL     1      11.428 -60.099 -23.624  1.00  0.00    -0.041 A 
ATOM     15  C   UNL     1      10.820 -58.263 -22.155  1.00  0.00     0.008 A 
ATOM     16  C   UNL     1      12.022 -59.196 -24.510  1.00  0.00     0.050 A 
ATOM     17  C   UNL     1      11.403 -57.365 -23.049  1.00  0.00     0.046 A 
ATOM     18  C   UNL     1      11.998 -57.836 -24.215  1.00  0.00     0.115 A 
BRANCH  18  19
ATOM     19  O   UNL     1      12.559 -56.917 -25.053  1.00  0.00    -0.508 OA
ATOM     20  H   UNL     1      13.522 -57.046 -25.051  1.00  0.00     0.293 HD
ENDBRANCH  18  19
ENDBRANCH   1   9
TORSDOF 4
ENDMDL
MODEL 8
REMARK VINA RESULT:    -7.327      8.401     10.438
REMARK INTER + INTRA:          -9.112
REMARK INTER:                  -8.870
REMARK INTRA:                  -0.242
REMARK UNBOUND:                -0.286
REMARK SMILES CN(C)S(=O)(=O)N[C@H]1CCc2cc(O)ccc2C1
REMARK SMILES IDX 7 1 4 3 5 4 6 5 2 6 1 7 3 8 8 9 9 10 18 11 10 12 17 13 11 14
REMARK SMILES IDX 16 15 12 16 15 17 13 18 14 19
REMARK H PARENT 7 2 14 20
ROOT
ATOM      1  N   UNL     1      15.642 -52.267 -24.747  1.00  0.00    -0.199 NA
ATOM      2  H   UNL     1      15.636 -52.963 -24.000  1.00  0.00     0.142 HD
ENDROOT
BRANCH   1   3
ATOM      3  S   UNL     1      17.172 -52.144 -25.410  1.00  0.00     0.279 S 
ATOM      4  O   UNL     1      18.078 -51.808 -24.340  1.00  0.00    -0.195 OA
ATOM      5  O   UNL     1      17.388 -53.293 -26.254  1.00  0.00    -0.195 OA
BRANCH   3   6
ATOM      6  N   UNL     1      16.962 -50.780 -26.389  1.00  0.00    -0.195 NA
ATOM      7  C   UNL     1      16.586 -49.549 -25.660  1.00  0.00     0.125 C 
ATOM      8  C   UNL     1      18.099 -50.541 -27.305  1.00  0.00     0.125 C 
ENDBRANCH   3   6
ENDBRANCH   1   3
BRANCH   1   9
ATOM      9  C   UNL     1      14.485 -52.402 -25.680  1.00  0.00     0.075 C 
ATOM     10  C   UNL     1      14.066 -53.884 -25.784  1.00  0.00     0.025 C 
ATOM     11  C   UNL     1      13.369 -51.459 -25.183  1.00  0.00     0.056 C 
ATOM     12  C   UNL     1      12.573 -54.135 -25.571  1.00  0.00     0.037 C 
ATOM     13  C   UNL     1      12.511 -52.103 -24.125  1.00  0.00    -0.043 A 
ATOM     14  C   UNL     1      12.104 -53.435 -24.325  1.00  0.00    -0.041 A 
ATOM     15  C   UNL     1      12.075 -51.401 -22.998  1.00  0.00     0.008 A 
ATOM     16  C   UNL     1      11.261 -54.055 -23.397  1.00  0.00     0.050 A 
ATOM     17  C   UNL     1      11.245 -52.028 -22.068  1.00  0.00     0.046 A 
ATOM     18  C   UNL     1      10.846 -53.344 -22.273  1.00  0.00     0.115 A 
BRANCH  18  19
ATOM     19  O   UNL     1      10.030 -53.911 -21.338  1.00  0.00    -0.508 OA
ATOM     20  H   UNL     1      10.005 -54.870 -21.490  1.00  0.00     0.293 HD
ENDBRANCH  18  19
ENDBRANCH   1   9
TORSDOF 4
ENDMDL
MODEL 9
REMARK VINA RESULT:    -7.225      2.615      6.236
REMARK INTER + INTRA:          -8.989
REMARK INTER:                  -9.061
REMARK INTRA:                   0.072
REMARK UNBOUND:                -0.286
REMARK SMILES CN(C)S(=O)(=O)N[C@H]1CCc2cc(O)ccc2C1
REMARK SMILES IDX 7 1 4 3 5 4 6 5 2 6 1 7 3 8 8 9 9 10 18 11 10 12 17 13 11 14
REMARK SMILES IDX 16 15 12 16 15 17 13 18 14 19
REMARK H PARENT 7 2 14 20
ROOT
ATOM      1  N   UNL     1       8.727 -61.352 -23.181  1.00  0.00    -0.199 NA
ATOM      2  H   UNL     1       8.644 -60.746 -23.999  1.00  0.00     0.142 HD
ENDROOT
BRANCH   1   3
ATOM      3  S   UNL     1       7.948 -62.806 -23.459  1.00  0.00     0.279 S 
ATOM      4  O   UNL     1       8.904 -63.858 -23.216  1.00  0.00    -0.195 OA
ATOM      5  O   UNL     1       6.675 -62.768 -22.782  1.00  0.00    -0.195 OA
BRANCH   3   6
ATOM      6  N   UNL     1       7.685 -62.688 -25.126  1.00  0.00    -0.195 NA
ATOM      7  C   UNL     1       8.882 -62.329 -25.916  1.00  0.00     0.125 C 
ATOM      8  C   UNL     1       6.999 -63.871 -25.691  1.00  0.00     0.125 C 
ENDBRANCH   3   6
ENDBRANCH   1   3
BRANCH   1   9
ATOM      9  C   UNL     1      10.110 -61.396 -22.624  1.00  0.00     0.075 C 
ATOM     10  C   UNL     1      11.136 -61.472 -23.776  1.00  0.00     0.025 C 
ATOM     11  C   UNL     1      10.283 -60.173 -21.700  1.00  0.00     0.056 C 
ATOM     12  C   UNL     1      12.262 -60.442 -23.688  1.00  0.00     0.037 C 
ATOM     13  C   UNL     1      10.695 -58.939 -22.460  1.00  0.00    -0.043 A 
ATOM     14  C   UNL     1      11.692 -59.072 -23.444  1.00  0.00    -0.041 A 
ATOM     15  C   UNL     1      10.157 -57.681 -22.176  1.00  0.00     0.008 A 
ATOM     16  C   UNL     1      12.145 -57.944 -24.136  1.00  0.00     0.050 A 
ATOM     17  C   UNL     1      10.602 -56.561 -22.878  1.00  0.00     0.046 A 
ATOM     18  C   UNL     1      11.589 -56.700 -23.848  1.00  0.00     0.115 A 
BRANCH  18  19
ATOM     19  O   UNL     1      11.995 -55.574 -24.503  1.00  0.00    -0.508 OA
ATOM     20  H   UNL     1      12.913 -55.383 -24.248  1.00  0.00     0.293 HD
ENDBRANCH  18  19
ENDBRANCH   1   9
TORSDOF 4
ENDMDL
