MODEL 1
REMARK VINA RESULT:   -12.244      0.000      0.000
REMARK INTER + INTRA:         -16.685
REMARK INTER:                 -16.539
REMARK INTRA:                  -0.146
REMARK UNBOUND:                -0.146
REMARK SMILES COc1cc2c(cc1OC)C(=O)[C@H](C[C@H]1CC[N@H+](Cc3ccccc3)CC1)C2
REMARK SMILES IDX 14 1 15 2 17 3 18 4 16 5 26 6 27 7 19 9 20 10 21 11 25 12
REMARK SMILES IDX 22 13 24 14 23 15 13 16 11 17 28 18 6 19 5 20 7 21 4 22 8 23
REMARK SMILES IDX 3 24 12 25 9 26 10 27 2 28 1 29
REMARK H PARENT 18 8
ROOT
ATOM      1  C   UNL     1      11.172 -56.227 -21.811  1.00  0.00     0.016 C 
ENDROOT
BRANCH   1   2
ATOM      2  C   UNL     1      10.835 -57.595 -22.439  1.00  0.00     0.001 C 
ATOM      3  C   UNL     1      10.774 -60.110 -22.080  1.00  0.00     0.262 C 
ATOM      4  N   UNL     1      11.727 -60.277 -23.232  1.00  0.00    -0.331 N 
ATOM      5  C   UNL     1      10.977 -58.746 -21.433  1.00  0.00     0.065 C 
ATOM      6  C   UNL     1      11.538 -59.208 -24.280  1.00  0.00     0.262 C 
ATOM      7  C   UNL     1      11.754 -57.840 -23.649  1.00  0.00     0.065 C 
ATOM      8  H   UNL     1      12.683 -60.177 -22.869  1.00  0.00     0.348 HD
BRANCH   4   9
ATOM      9  C   UNL     1      11.653 -61.678 -23.810  1.00  0.00     0.299 C 
BRANCH   9  10
ATOM     10  C   UNL     1      10.269 -62.265 -23.758  1.00  0.00     0.006 A 
ATOM     11  C   UNL     1       9.346 -62.008 -24.782  1.00  0.00     0.009 A 
ATOM     12  C   UNL     1       9.887 -63.095 -22.690  1.00  0.00     0.009 A 
ATOM     13  C   UNL     1       8.071 -62.576 -24.744  1.00  0.00     0.001 A 
ATOM     14  C   UNL     1       8.612 -63.660 -22.657  1.00  0.00     0.001 A 
ATOM     15  C   UNL     1       7.706 -63.402 -23.684  1.00  0.00     0.000 A 
ENDBRANCH   9  10
ENDBRANCH   4   9
ENDBRANCH   1   2
BRANCH   1  16
ATOM     16  C   UNL     1      10.634 -55.011 -22.572  1.00  0.00     0.066 C 
ATOM     17  C   UNL     1      10.697 -53.768 -21.701  1.00  0.00     0.166 C 
ATOM     18  C   UNL     1      11.453 -54.644 -23.831  1.00  0.00     0.048 C 
ATOM     19  C   UNL     1      11.333 -52.689 -22.441  1.00  0.00     0.025 A 
ATOM     20  C   UNL     1      11.746 -53.186 -23.670  1.00  0.00    -0.033 A 
ATOM     21  C   UNL     1      11.516 -51.374 -22.059  1.00  0.00     0.062 A 
ATOM     22  C   UNL     1      12.388 -52.348 -24.570  1.00  0.00     0.055 A 
ATOM     23  C   UNL     1      12.140 -50.523 -22.973  1.00  0.00     0.161 A 
ATOM     24  C   UNL     1      12.614 -51.012 -24.209  1.00  0.00     0.161 A 
ATOM     25  O   UNL     1      10.268 -53.669 -20.566  1.00  0.00    -0.294 OA
BRANCH  23  26
ATOM     26  O   UNL     1      12.297 -49.214 -22.600  1.00  0.00    -0.493 OA
ATOM     27  C   UNL     1      11.092 -48.486 -22.852  1.00  0.00     0.278 C 
ENDBRANCH  23  26
BRANCH  24  28
ATOM     28  O   UNL     1      13.260 -50.262 -25.155  1.00  0.00    -0.493 OA
ATOM     29  C   UNL     1      13.974 -51.033 -26.120  1.00  0.00     0.278 C 
ENDBRANCH  24  28
ENDBRANCH   1  16
TORSDOF 6
ENDMDL
MODEL 2
REMARK VINA RESULT:   -11.804      1.272      2.566
REMARK INTER + INTRA:         -16.090
REMARK INTER:                 -15.539
REMARK INTRA:                  -0.551
REMARK UNBOUND:                -0.146
REMARK SMILES COc1cc2c(cc1OC)C(=O)[C@H](C[C@H]1CC[N@H+](Cc3ccccc3)CC1)C2
REMARK SMILES IDX 14 1 15 2 17 3 18 4 16 5 26 6 27 7 19 9 20 10 21 11 25 12
REMARK SMILES IDX 22 13 24 14 23 15 13 16 11 17 28 18 6 19 5 20 7 21 4 22 8 23
REMARK SMILES IDX 3 24 12 25 9 26 10 27 2 28 1 29
REMARK H PARENT 18 8
ROOT
ATOM      1  C   UNL     1       9.866 -55.962 -22.922  1.00  0.00     0.016 C 
ENDROOT
BRANCH   1   2
ATOM      2  C   UNL     1      10.036 -57.462 -22.606  1.00  0.00     0.001 C 
ATOM      3  C   UNL     1      11.551 -59.491 -22.820  1.00  0.00     0.262 C 
ATOM      4  N   UNL     1      10.465 -60.196 -23.584  1.00  0.00    -0.331 N 
ATOM      5  C   UNL     1      11.423 -57.985 -23.008  1.00  0.00     0.065 C 
ATOM      6  C   UNL     1       9.089 -59.765 -23.137  1.00  0.00     0.262 C 
ATOM      7  C   UNL     1       8.943 -58.263 -23.334  1.00  0.00     0.065 C 
ATOM      8  H   UNL     1      10.554 -59.936 -24.575  1.00  0.00     0.348 HD
BRANCH   4   9
ATOM      9  C   UNL     1      10.647 -61.702 -23.539  1.00  0.00     0.299 C 
BRANCH   9  10
ATOM     10  C   UNL     1       9.439 -62.457 -24.022  1.00  0.00     0.006 A 
ATOM     11  C   UNL     1       8.729 -63.300 -23.154  1.00  0.00     0.009 A 
ATOM     12  C   UNL     1       8.994 -62.315 -25.347  1.00  0.00     0.009 A 
ATOM     13  C   UNL     1       7.594 -63.978 -23.599  1.00  0.00     0.001 A 
ATOM     14  C   UNL     1       7.858 -62.995 -25.787  1.00  0.00     0.001 A 
ATOM     15  C   UNL     1       7.158 -63.825 -24.913  1.00  0.00     0.000 A 
ENDBRANCH   9  10
ENDBRANCH   4   9
ENDBRANCH   1   2
BRANCH   1  16
ATOM     16  C   UNL     1      11.070 -55.082 -22.569  1.00  0.00     0.066 C 
ATOM     17  C   UNL     1      11.681 -54.487 -23.826  1.00  0.00     0.166 C 
ATOM     18  C   UNL     1      10.719 -53.858 -21.692  1.00  0.00     0.048 C 
ATOM     19  C   UNL     1      11.855 -53.053 -23.649  1.00  0.00     0.025 A 
ATOM     20  C   UNL     1      11.323 -52.698 -22.416  1.00  0.00    -0.033 A 
ATOM     21  C   UNL     1      12.448 -52.145 -24.505  1.00  0.00     0.062 A 
ATOM     22  C   UNL     1      11.364 -51.373 -22.007  1.00  0.00     0.055 A 
ATOM     23  C   UNL     1      12.511 -50.817 -24.084  1.00  0.00     0.161 A 
ATOM     24  C   UNL     1      11.936 -50.417 -22.859  1.00  0.00     0.161 A 
ATOM     25  O   UNL     1      11.999 -55.103 -24.827  1.00  0.00    -0.294 OA
BRANCH  23  26
ATOM     26  O   UNL     1      13.122 -49.924 -24.925  1.00  0.00    -0.493 OA
ATOM     27  C   UNL     1      13.839 -50.625 -25.945  1.00  0.00     0.278 C 
ENDBRANCH  23  26
BRANCH  24  28
ATOM     28  O   UNL     1      11.925 -49.136 -22.375  1.00  0.00    -0.493 OA
ATOM     29  C   UNL     1      10.763 -48.390 -22.733  1.00  0.00     0.278 C 
ENDBRANCH  24  28
ENDBRANCH   1  16
TORSDOF 6
ENDMDL
MODEL 3
REMARK VINA RESULT:   -11.291      3.998      8.909
REMARK INTER + INTRA:         -15.396
REMARK INTER:                 -14.947
REMARK INTRA:                  -0.450
REMARK UNBOUND:                -0.146
REMARK SMILES COc1cc2c(cc1OC)C(=O)[C@H](C[C@H]1CC[N@H+](Cc3ccccc3)CC1)C2
REMARK SMILES IDX 14 1 15 2 17 3 18 4 16 5 26 6 27 7 19 9 20 10 21 11 25 12
REMARK SMILES IDX 22 13 24 14 23 15 13 16 11 17 28 18 6 19 5 20 7 21 4 22 8 23
REMARK SMILES IDX 3 24 12 25 9 26 10 27 2 28 1 29
REMARK H PARENT 18 8
ROOT
ATOM      1  C   UNL     1      10.972 -59.775 -22.156  1.00  0.00     0.016 C 
ENDROOT
BRANCH   1   2
ATOM      2  C   UNL     1      11.034 -58.264 -22.459  1.00  0.00     0.001 C 
ATOM      3  C   UNL     1      11.298 -55.936 -21.474  1.00  0.00     0.262 C 
ATOM      4  N   UNL     1       9.945 -55.573 -22.021  1.00  0.00    -0.331 N 
ATOM      5  C   UNL     1      11.365 -57.435 -21.210  1.00  0.00     0.065 C 
ATOM      6  C   UNL     1       9.641 -56.307 -23.304  1.00  0.00     0.262 C 
ATOM      7  C   UNL     1       9.689 -57.808 -23.050  1.00  0.00     0.065 C 
ATOM      8  H   UNL     1       9.238 -55.862 -21.334  1.00  0.00     0.348 HD
BRANCH   4   9
ATOM      9  C   UNL     1       9.792 -54.070 -22.160  1.00  0.00     0.299 C 
BRANCH   9  10
ATOM     10  C   UNL     1      10.898 -53.436 -22.960  1.00  0.00     0.006 A 
ATOM     11  C   UNL     1      11.388 -54.058 -24.118  1.00  0.00     0.009 A 
ATOM     12  C   UNL     1      11.443 -52.202 -22.567  1.00  0.00     0.009 A 
ATOM     13  C   UNL     1      12.395 -53.454 -24.872  1.00  0.00     0.001 A 
ATOM     14  C   UNL     1      12.450 -51.603 -23.324  1.00  0.00     0.001 A 
ATOM     15  C   UNL     1      12.924 -52.228 -24.477  1.00  0.00     0.000 A 
ENDBRANCH   9  10
ENDBRANCH   4   9
ENDBRANCH   1   2
BRANCH   1  16
ATOM     16  C   UNL     1      11.384 -60.688 -23.316  1.00  0.00     0.066 C 
ATOM     17  C   UNL     1      10.156 -61.214 -24.039  1.00  0.00     0.166 C 
ATOM     18  C   UNL     1      12.206 -59.977 -24.416  1.00  0.00     0.048 C 
ATOM     19  C   UNL     1      10.309 -61.006 -25.471  1.00  0.00     0.025 A 
ATOM     20  C   UNL     1      11.496 -60.317 -25.687  1.00  0.00    -0.033 A 
ATOM     21  C   UNL     1       9.473 -61.407 -26.495  1.00  0.00     0.062 A 
ATOM     22  C   UNL     1      11.875 -59.990 -26.981  1.00  0.00     0.055 A 
ATOM     23  C   UNL     1       9.865 -61.101 -27.798  1.00  0.00     0.161 A 
ATOM     24  C   UNL     1      11.040 -60.360 -28.046  1.00  0.00     0.161 A 
ATOM     25  O   UNL     1       9.193 -61.748 -23.518  1.00  0.00    -0.294 OA
BRANCH  23  26
ATOM     26  O   UNL     1       9.045 -61.523 -28.812  1.00  0.00    -0.493 OA
ATOM     27  C   UNL     1       8.413 -62.754 -28.450  1.00  0.00     0.278 C 
ENDBRANCH  23  26
BRANCH  24  28
ATOM     28  O   UNL     1      11.491 -59.989 -29.284  1.00  0.00    -0.493 OA
ATOM     29  C   UNL     1      12.042 -58.674 -29.334  1.00  0.00     0.278 C 
ENDBRANCH  24  28
ENDBRANCH   1  16
TORSDOF 6
ENDMDL
MODEL 4
REMARK VINA RESULT:   -10.960      4.319      9.741
REMARK INTER + INTRA:         -14.950
REMARK INTER:                 -14.685
REMARK INTRA:                  -0.265
REMARK UNBOUND:                -0.146
REMARK SMILES COc1cc2c(cc1OC)C(=O)[C@H](C[C@H]1CC[N@H+](Cc3ccccc3)CC1)C2
REMARK SMILES IDX 14 1 15 2 17 3 18 4 16 5 26 6 27 7 19 9 20 10 21 11 25 12
REMARK SMILES IDX 22 13 24 14 23 15 13 16 11 17 28 18 6 19 5 20 7 21 4 22 8 23
REMARK SMILES IDX 3 24 12 25 9 26 10 27 2 28 1 29
REMARK H PARENT 18 8
ROOT
ATOM      1  C   UNL     1      10.939 -60.088 -21.958  1.00  0.00     0.016 C 
ENDROOT
BRANCH   1   2
ATOM      2  C   UNL     1      10.917 -58.658 -22.535  1.00  0.00     0.001 C 
ATOM      3  C   UNL     1      11.355 -56.199 -22.065  1.00  0.00     0.262 C 
ATOM      4  N   UNL     1       9.912 -55.905 -22.372  1.00  0.00    -0.331 N 
ATOM      5  C   UNL     1      11.495 -57.628 -21.554  1.00  0.00     0.065 C 
ATOM      6  C   UNL     1       9.352 -56.849 -23.407  1.00  0.00     0.262 C 
ATOM      7  C   UNL     1       9.471 -58.280 -22.902  1.00  0.00     0.065 C 
ATOM      8  H   UNL     1       9.370 -56.047 -21.511  1.00  0.00     0.348 HD
BRANCH   4   9
ATOM      9  C   UNL     1       9.715 -54.448 -22.745  1.00  0.00     0.299 C 
BRANCH   9  10
ATOM     10  C   UNL     1      10.883 -53.867 -23.494  1.00  0.00     0.006 A 
ATOM     11  C   UNL     1      11.422 -54.535 -24.604  1.00  0.00     0.009 A 
ATOM     12  C   UNL     1      11.440 -52.638 -23.104  1.00  0.00     0.009 A 
ATOM     13  C   UNL     1      12.489 -53.981 -25.313  1.00  0.00     0.001 A 
ATOM     14  C   UNL     1      12.506 -52.088 -23.816  1.00  0.00     0.001 A 
ATOM     15  C   UNL     1      13.029 -52.758 -24.921  1.00  0.00     0.000 A 
ENDBRANCH   9  10
ENDBRANCH   4   9
ENDBRANCH   1   2
BRANCH   1  16
ATOM     16  C   UNL     1      11.044 -61.209 -22.998  1.00  0.00     0.066 C 
ATOM     17  C   UNL     1       9.821 -62.106 -22.938  1.00  0.00     0.166 C 
ATOM     18  C   UNL     1      11.085 -60.707 -24.460  1.00  0.00     0.048 C 
ATOM     19  C   UNL     1       9.281 -62.282 -24.278  1.00  0.00     0.025 A 
ATOM     20  C   UNL     1      10.020 -61.497 -25.153  1.00  0.00    -0.033 A 
ATOM     21  C   UNL     1       8.230 -63.082 -24.685  1.00  0.00     0.062 A 
ATOM     22  C   UNL     1       9.701 -61.485 -26.503  1.00  0.00     0.055 A 
ATOM     23  C   UNL     1       7.924 -63.090 -26.047  1.00  0.00     0.161 A 
ATOM     24  C   UNL     1       8.626 -62.266 -26.952  1.00  0.00     0.161 A 
ATOM     25  O   UNL     1       9.362 -62.624 -21.935  1.00  0.00    -0.294 OA
BRANCH  23  26
ATOM     26  O   UNL     1       6.898 -63.904 -26.451  1.00  0.00    -0.493 OA
ATOM     27  C   UNL     1       6.289 -64.523 -25.314  1.00  0.00     0.278 C 
ENDBRANCH  23  26
BRANCH  24  28
ATOM     28  O   UNL     1       8.381 -62.186 -28.297  1.00  0.00    -0.493 OA
ATOM     29  C   UNL     1       8.882 -63.291 -29.047  1.00  0.00     0.278 C 
ENDBRANCH  24  28
ENDBRANCH   1  16
TORSDOF 6
ENDMDL
MODEL 5
REMARK VINA RESULT:   -10.201      3.465     10.194
REMARK INTER + INTRA:         -13.924
REMARK INTER:                 -13.210
REMARK INTRA:                  -0.715
REMARK UNBOUND:                -0.146
REMARK SMILES COc1cc2c(cc1OC)C(=O)[C@H](C[C@H]1CC[N@H+](Cc3ccccc3)CC1)C2
REMARK SMILES IDX 14 1 15 2 17 3 18 4 16 5 26 6 27 7 19 9 20 10 21 11 25 12
REMARK SMILES IDX 22 13 24 14 23 15 13 16 11 17 28 18 6 19 5 20 7 21 4 22 8 23
REMARK SMILES IDX 3 24 12 25 9 26 10 27 2 28 1 29
REMARK H PARENT 18 8
ROOT
ATOM      1  C   UNL     1       9.748 -55.057 -23.123  1.00  0.00     0.016 C 
ENDROOT
BRANCH   1   2
ATOM      2  C   UNL     1      10.840 -54.019 -22.792  1.00  0.00     0.001 C 
ATOM      3  C   UNL     1      11.320 -51.713 -21.838  1.00  0.00     0.262 C 
ATOM      4  N   UNL     1      11.920 -51.314 -23.159  1.00  0.00    -0.331 N 
ATOM      5  C   UNL     1      10.273 -52.799 -22.052  1.00  0.00     0.065 C 
ATOM      6  C   UNL     1      12.567 -52.484 -23.860  1.00  0.00     0.262 C 
ATOM      7  C   UNL     1      11.527 -53.570 -24.093  1.00  0.00     0.065 C 
ATOM      8  H   UNL     1      11.159 -50.984 -23.765  1.00  0.00     0.348 HD
BRANCH   4   9
ATOM      9  C   UNL     1      12.862 -50.135 -23.003  1.00  0.00     0.299 C 
BRANCH   9  10
ATOM     10  C   UNL     1      12.253 -48.832 -23.447  1.00  0.00     0.006 A 
ATOM     11  C   UNL     1      11.180 -48.269 -22.741  1.00  0.00     0.009 A 
ATOM     12  C   UNL     1      12.764 -48.153 -24.565  1.00  0.00     0.009 A 
ATOM     13  C   UNL     1      10.636 -47.047 -23.140  1.00  0.00     0.001 A 
ATOM     14  C   UNL     1      12.216 -46.932 -24.960  1.00  0.00     0.001 A 
ATOM     15  C   UNL     1      11.154 -46.379 -24.246  1.00  0.00     0.000 A 
ENDBRANCH   9  10
ENDBRANCH   4   9
ENDBRANCH   1   2
BRANCH   1  16
ATOM     16  C   UNL     1       9.934 -56.429 -22.466  1.00  0.00     0.066 C 
ATOM     17  C   UNL     1       9.112 -57.481 -23.189  1.00  0.00     0.166 C 
ATOM     18  C   UNL     1      11.384 -56.963 -22.524  1.00  0.00     0.048 C 
ATOM     19  C   UNL     1       9.951 -58.630 -23.492  1.00  0.00     0.025 A 
ATOM     20  C   UNL     1      11.249 -58.341 -23.090  1.00  0.00    -0.033 A 
ATOM     21  C   UNL     1       9.590 -59.835 -24.064  1.00  0.00     0.062 A 
ATOM     22  C   UNL     1      12.251 -59.282 -23.273  1.00  0.00     0.055 A 
ATOM     23  C   UNL     1      10.592 -60.793 -24.225  1.00  0.00     0.161 A 
ATOM     24  C   UNL     1      11.928 -60.509 -23.871  1.00  0.00     0.161 A 
ATOM     25  O   UNL     1       7.928 -57.400 -23.463  1.00  0.00    -0.294 OA
BRANCH  23  26
ATOM     26  O   UNL     1      10.224 -61.996 -24.769  1.00  0.00    -0.493 OA
ATOM     27  C   UNL     1       8.868 -61.934 -25.219  1.00  0.00     0.278 C 
ENDBRANCH  23  26
BRANCH  24  28
ATOM     28  O   UNL     1      12.981 -61.372 -24.018  1.00  0.00    -0.493 OA
ATOM     29  C   UNL     1      14.057 -60.851 -24.797  1.00  0.00     0.278 C 
ENDBRANCH  24  28
ENDBRANCH   1  16
TORSDOF 6
ENDMDL
MODEL 6
REMARK VINA RESULT:    -9.804      2.569      4.424
REMARK INTER + INTRA:         -13.389
REMARK INTER:                 -12.692
REMARK INTRA:                  -0.697
REMARK UNBOUND:                -0.146
REMARK SMILES COc1cc2c(cc1OC)C(=O)[C@H](C[C@H]1CC[N@H+](Cc3ccccc3)CC1)C2
REMARK SMILES IDX 14 1 15 2 17 3 18 4 16 5 26 6 27 7 19 9 20 10 21 11 25 12
REMARK SMILES IDX 22 13 24 14 23 15 13 16 11 17 28 18 6 19 5 20 7 21 4 22 8 23
REMARK SMILES IDX 3 24 12 25 9 26 10 27 2 28 1 29
REMARK H PARENT 18 8
ROOT
ATOM      1  C   UNL     1      10.916 -51.874 -21.675  1.00  0.00     0.016 C 
ENDROOT
BRANCH   1   2
ATOM      2  C   UNL     1      11.348 -53.308 -22.046  1.00  0.00     0.001 C 
ATOM      3  C   UNL     1      11.245 -55.140 -23.804  1.00  0.00     0.262 C 
ATOM      4  N   UNL     1      10.583 -56.040 -22.797  1.00  0.00    -0.331 N 
ATOM      5  C   UNL     1      10.939 -53.684 -23.478  1.00  0.00     0.065 C 
ATOM      6  C   UNL     1      11.045 -55.749 -21.391  1.00  0.00     0.262 C 
ATOM      7  C   UNL     1      10.730 -54.300 -21.046  1.00  0.00     0.065 C 
ATOM      8  H   UNL     1       9.572 -55.857 -22.826  1.00  0.00     0.348 HD
BRANCH   4   9
ATOM      9  C   UNL     1      10.745 -57.501 -23.174  1.00  0.00     0.299 C 
BRANCH   9  10
ATOM     10  C   UNL     1       9.451 -58.268 -23.135  1.00  0.00     0.006 A 
ATOM     11  C   UNL     1       8.247 -57.655 -23.513  1.00  0.00     0.009 A 
ATOM     12  C   UNL     1       9.434 -59.614 -22.736  1.00  0.00     0.009 A 
ATOM     13  C   UNL     1       7.053 -58.376 -23.500  1.00  0.00     0.001 A 
ATOM     14  C   UNL     1       8.237 -60.331 -22.726  1.00  0.00     0.001 A 
ATOM     15  C   UNL     1       7.048 -59.713 -23.109  1.00  0.00     0.000 A 
ENDBRANCH   9  10
ENDBRANCH   4   9
ENDBRANCH   1   2
BRANCH   1  16
ATOM     16  C   UNL     1      10.787 -50.907 -22.858  1.00  0.00     0.066 C 
ATOM     17  C   UNL     1      10.110 -49.620 -22.420  1.00  0.00     0.166 C 
ATOM     18  C   UNL     1      12.141 -50.452 -23.449  1.00  0.00     0.048 C 
ATOM     19  C   UNL     1      10.894 -48.481 -22.872  1.00  0.00     0.025 A 
ATOM     20  C   UNL     1      12.047 -48.959 -23.481  1.00  0.00    -0.033 A 
ATOM     21  C   UNL     1      10.601 -47.136 -22.763  1.00  0.00     0.062 A 
ATOM     22  C   UNL     1      12.972 -48.065 -24.001  1.00  0.00     0.055 A 
ATOM     23  C   UNL     1      11.518 -46.235 -23.307  1.00  0.00     0.161 A 
ATOM     24  C   UNL     1      12.721 -46.690 -23.888  1.00  0.00     0.161 A 
ATOM     25  O   UNL     1       9.063 -49.537 -21.804  1.00  0.00    -0.294 OA
BRANCH  23  26
ATOM     26  O   UNL     1      11.212 -44.902 -23.219  1.00  0.00    -0.493 OA
ATOM     27  C   UNL     1      11.721 -44.364 -21.996  1.00  0.00     0.278 C 
ENDBRANCH  23  26
BRANCH  24  28
ATOM     28  O   UNL     1      13.691 -45.884 -24.422  1.00  0.00    -0.493 OA
ATOM     29  C   UNL     1      14.926 -45.908 -23.707  1.00  0.00     0.278 C 
ENDBRANCH  24  28
ENDBRANCH   1  16
TORSDOF 6
ENDMDL
MODEL 7
REMARK VINA RESULT:    -9.769      1.934      3.967
REMARK INTER + INTRA:         -13.342
REMARK INTER:                 -12.689
REMARK INTRA:                  -0.652
REMARK UNBOUND:                -0.146
REMARK SMILES COc1cc2c(cc1OC)C(=O)[C@H](C[C@H]1CC[N@H+](Cc3ccccc3)CC1)C2
REMARK SMILES IDX 14 1 15 2 17 3 18 4 16 5 26 6 27 7 19 9 20 10 21 11 25 12
REMARK SMILES IDX 22 13 24 14 23 15 13 16 11 17 28 18 6 19 5 20 7 21 4 22 8 23
REMARK SMILES IDX 3 24 12 25 9 26 10 27 2 28 1 29
REMARK H PARENT 18 8
ROOT
ATOM      1  C   UNL     1      10.484 -52.965 -22.783  1.00  0.00     0.016 C 
ENDROOT
BRANCH   1   2
ATOM      2  C   UNL     1      11.188 -54.311 -22.515  1.00  0.00     0.001 C 
ATOM      3  C   UNL     1      11.461 -56.723 -23.270  1.00  0.00     0.262 C 
ATOM      4  N   UNL     1      10.972 -57.179 -21.923  1.00  0.00    -0.331 N 
ATOM      5  C   UNL     1      10.877 -55.354 -23.598  1.00  0.00     0.065 C 
ATOM      6  C   UNL     1      11.353 -56.212 -20.828  1.00  0.00     0.262 C 
ATOM      7  C   UNL     1      10.761 -54.844 -21.136  1.00  0.00     0.065 C 
ATOM      8  H   UNL     1       9.946 -57.210 -21.953  1.00  0.00     0.348 HD
BRANCH   4   9
ATOM      9  C   UNL     1      11.418 -58.598 -21.627  1.00  0.00     0.299 C 
BRANCH   9  10
ATOM     10  C   UNL     1      10.683 -59.628 -22.441  1.00  0.00     0.006 A 
ATOM     11  C   UNL     1      11.382 -60.658 -23.088  1.00  0.00     0.009 A 
ATOM     12  C   UNL     1       9.283 -59.584 -22.549  1.00  0.00     0.009 A 
ATOM     13  C   UNL     1      10.694 -61.627 -23.820  1.00  0.00     0.001 A 
ATOM     14  C   UNL     1       8.600 -60.555 -23.282  1.00  0.00     0.001 A 
ATOM     15  C   UNL     1       9.306 -61.577 -23.915  1.00  0.00     0.000 A 
ENDBRANCH   9  10
ENDBRANCH   4   9
ENDBRANCH   1   2
BRANCH   1  16
ATOM     16  C   UNL     1      11.229 -51.728 -22.270  1.00  0.00     0.066 C 
ATOM     17  C   UNL     1      12.264 -51.272 -23.284  1.00  0.00     0.166 C 
ATOM     18  C   UNL     1      10.324 -50.493 -22.056  1.00  0.00     0.048 C 
ATOM     19  C   UNL     1      12.115 -49.844 -23.521  1.00  0.00     0.025 A 
ATOM     20  C   UNL     1      11.016 -49.394 -22.799  1.00  0.00    -0.033 A 
ATOM     21  C   UNL     1      12.897 -49.014 -24.300  1.00  0.00     0.062 A 
ATOM     22  C   UNL     1      10.657 -48.056 -22.858  1.00  0.00     0.055 A 
ATOM     23  C   UNL     1      12.551 -47.662 -24.340  1.00  0.00     0.161 A 
ATOM     24  C   UNL     1      11.413 -47.186 -23.657  1.00  0.00     0.161 A 
ATOM     25  O   UNL     1      13.107 -51.975 -23.811  1.00  0.00    -0.294 OA
BRANCH  23  26
ATOM     26  O   UNL     1      13.344 -46.837 -25.095  1.00  0.00    -0.493 OA
ATOM     27  C   UNL     1      14.555 -46.545 -24.390  1.00  0.00     0.278 C 
ENDBRANCH  23  26
BRANCH  24  28
ATOM     28  O   UNL     1      10.980 -45.886 -23.659  1.00  0.00    -0.493 OA
ATOM     29  C   UNL     1      10.258 -45.511 -22.487  1.00  0.00     0.278 C 
ENDBRANCH  24  28
ENDBRANCH   1  16
TORSDOF 6
ENDMDL
MODEL 8
REMARK VINA RESULT:    -9.634      2.634      5.003
REMARK INTER + INTRA:         -13.159
REMARK INTER:                 -12.825
REMARK INTRA:                  -0.334
REMARK UNBOUND:                -0.146
REMARK SMILES COc1cc2c(cc1OC)C(=O)[C@H](C[C@H]1CC[N@H+](Cc3ccccc3)CC1)C2
REMARK SMILES IDX 14 1 15 2 17 3 18 4 16 5 26 6 27 7 19 9 20 10 21 11 25 12
REMARK SMILES IDX 22 13 24 14 23 15 13 16 11 17 28 18 6 19 5 20 7 21 4 22 8 23
REMARK SMILES IDX 3 24 12 25 9 26 10 27 2 28 1 29
REMARK H PARENT 18 8
ROOT
ATOM      1  C   UNL     1      11.292 -51.500 -21.950  1.00  0.00     0.016 C 
ENDROOT
BRANCH   1   2
ATOM      2  C   UNL     1      10.832 -52.810 -22.621  1.00  0.00     0.001 C 
ATOM      3  C   UNL     1      10.291 -55.269 -22.270  1.00  0.00     0.262 C 
ATOM      4  N   UNL     1      11.372 -55.626 -23.253  1.00  0.00    -0.331 N 
ATOM      5  C   UNL     1      10.617 -53.939 -21.602  1.00  0.00     0.065 C 
ATOM      6  C   UNL     1      11.534 -54.572 -24.320  1.00  0.00     0.262 C 
ATOM      7  C   UNL     1      11.876 -53.240 -23.666  1.00  0.00     0.065 C 
ATOM      8  H   UNL     1      12.262 -55.675 -22.741  1.00  0.00     0.348 HD
BRANCH   4   9
ATOM      9  C   UNL     1      11.155 -57.012 -23.830  1.00  0.00     0.299 C 
BRANCH   9  10
ATOM     10  C   UNL     1      10.837 -58.044 -22.783  1.00  0.00     0.006 A 
ATOM     11  C   UNL     1       9.936 -59.085 -23.057  1.00  0.00     0.009 A 
ATOM     12  C   UNL     1      11.452 -57.991 -21.521  1.00  0.00     0.009 A 
ATOM     13  C   UNL     1       9.664 -60.055 -22.093  1.00  0.00     0.001 A 
ATOM     14  C   UNL     1      11.176 -58.964 -20.561  1.00  0.00     0.001 A 
ATOM     15  C   UNL     1      10.284 -59.996 -20.847  1.00  0.00     0.000 A 
ENDBRANCH   9  10
ENDBRANCH   4   9
ENDBRANCH   1   2
BRANCH   1  16
ATOM     16  C   UNL     1      11.507 -50.321 -22.905  1.00  0.00     0.066 C 
ATOM     17  C   UNL     1      10.580 -49.172 -22.549  1.00  0.00     0.166 C 
ATOM     18  C   UNL     1      12.925 -49.709 -22.839  1.00  0.00     0.048 C 
ATOM     19  C   UNL     1      11.347 -47.939 -22.460  1.00  0.00     0.025 A 
ATOM     20  C   UNL     1      12.688 -48.245 -22.648  1.00  0.00    -0.033 A 
ATOM     21  C   UNL     1      10.889 -46.653 -22.243  1.00  0.00     0.062 A 
ATOM     22  C   UNL     1      13.636 -47.233 -22.608  1.00  0.00     0.055 A 
ATOM     23  C   UNL     1      11.839 -45.631 -22.227  1.00  0.00     0.161 A 
ATOM     24  C   UNL     1      13.213 -45.917 -22.367  1.00  0.00     0.161 A 
ATOM     25  O   UNL     1       9.376 -49.250 -22.381  1.00  0.00    -0.294 OA
BRANCH  23  26
ATOM     26  O   UNL     1      11.378 -44.354 -22.037  1.00  0.00    -0.493 OA
ATOM     27  C   UNL     1      10.524 -43.977 -23.120  1.00  0.00     0.278 C 
ENDBRANCH  23  26
BRANCH  24  28
ATOM     28  O   UNL     1      14.218 -44.987 -22.337  1.00  0.00    -0.493 OA
ATOM     29  C   UNL     1      15.478 -45.505 -21.910  1.00  0.00     0.278 C 
ENDBRANCH  24  28
ENDBRANCH   1  16
TORSDOF 6
ENDMDL
MODEL 9
REMARK VINA RESULT:    -9.283      4.325      7.112
REMARK INTER + INTRA:         -12.685
REMARK INTER:                 -11.816
REMARK INTRA:                  -0.869
REMARK UNBOUND:                -0.146
REMARK SMILES COc1cc2c(cc1OC)C(=O)[C@H](C[C@H]1CC[N@H+](Cc3ccccc3)CC1)C2
REMARK SMILES IDX 14 1 15 2 17 3 18 4 16 5 26 6 27 7 19 9 20 10 21 11 25 12
REMARK SMILES IDX 22 13 24 14 23 15 13 16 11 17 28 18 6 19 5 20 7 21 4 22 8 23
REMARK SMILES IDX 3 24 12 25 9 26 10 27 2 28 1 29
REMARK H PARENT 18 8
ROOT
ATOM      1  C   UNL     1      14.221 -51.608 -25.396  1.00  0.00     0.016 C 
ENDROOT
BRANCH   1   2
ATOM      2  C   UNL     1      12.852 -52.123 -24.907  1.00  0.00     0.001 C 
ATOM      3  C   UNL     1      11.320 -52.426 -22.902  1.00  0.00     0.262 C 
ATOM      4  N   UNL     1      11.331 -53.910 -23.143  1.00  0.00    -0.331 N 
ATOM      5  C   UNL     1      12.610 -51.806 -23.424  1.00  0.00     0.065 C 
ATOM      6  C   UNL     1      11.473 -54.242 -24.609  1.00  0.00     0.262 C 
ATOM      7  C   UNL     1      12.767 -53.641 -25.139  1.00  0.00     0.065 C 
ATOM      8  H   UNL     1      12.152 -54.302 -22.665  1.00  0.00     0.348 HD
BRANCH   4   9
ATOM      9  C   UNL     1      10.128 -54.581 -22.508  1.00  0.00     0.299 C 
BRANCH   9  10
ATOM     10  C   UNL     1      10.235 -56.082 -22.481  1.00  0.00     0.006 A 
ATOM     11  C   UNL     1       9.298 -56.876 -23.160  1.00  0.00     0.009 A 
ATOM     12  C   UNL     1      11.286 -56.708 -21.792  1.00  0.00     0.009 A 
ATOM     13  C   UNL     1       9.416 -58.266 -23.155  1.00  0.00     0.001 A 
ATOM     14  C   UNL     1      11.399 -58.099 -21.790  1.00  0.00     0.001 A 
ATOM     15  C   UNL     1      10.466 -58.877 -22.473  1.00  0.00     0.000 A 
ENDBRANCH   9  10
ENDBRANCH   4   9
ENDBRANCH   1   2
BRANCH   1  16
ATOM     16  C   UNL     1      15.415 -52.002 -24.519  1.00  0.00     0.066 C 
ATOM     17  C   UNL     1      16.509 -52.633 -25.363  1.00  0.00     0.166 C 
ATOM     18  C   UNL     1      16.105 -50.807 -23.821  1.00  0.00     0.048 C 
ATOM     19  C   UNL     1      17.783 -51.997 -25.062  1.00  0.00     0.025 A 
ATOM     20  C   UNL     1      17.553 -50.965 -24.161  1.00  0.00    -0.033 A 
ATOM     21  C   UNL     1      19.039 -52.317 -25.538  1.00  0.00     0.062 A 
ATOM     22  C   UNL     1      18.616 -50.196 -23.712  1.00  0.00     0.055 A 
ATOM     23  C   UNL     1      20.113 -51.560 -25.068  1.00  0.00     0.161 A 
ATOM     24  C   UNL     1      19.904 -50.475 -24.191  1.00  0.00     0.161 A 
ATOM     25  O   UNL     1      16.363 -53.543 -26.159  1.00  0.00    -0.294 OA
BRANCH  23  26
ATOM     26  O   UNL     1      21.361 -51.896 -25.523  1.00  0.00    -0.493 OA
ATOM     27  C   UNL     1      21.436 -51.696 -26.938  1.00  0.00     0.278 C 
ENDBRANCH  23  26
BRANCH  24  28
ATOM     28  O   UNL     1      20.889 -49.659 -23.699  1.00  0.00    -0.493 OA
ATOM     29  C   UNL     1      21.133 -49.817 -22.302  1.00  0.00     0.278 C 
ENDBRANCH  24  28
ENDBRANCH   1  16
TORSDOF 6
ENDMDL
