MODEL 1
REMARK VINA RESULT:    -8.858      0.000      0.000
REMARK INTER + INTRA:         -13.593
REMARK INTER:                 -12.223
REMARK INTRA:                  -1.370
REMARK UNBOUND:                -1.370
REMARK SMILES COc1ccc([C@H]2CC(c3cc(F)cc(F)c3)=NN2c2ccc(S(N)(=O)=O)cc2)cc1OC
REMARK SMILES IDX 20 1 21 2 22 3 23 4 28 5 29 6 19 7 7 8 8 9 9 10 18 11 6 12
REMARK SMILES IDX 3 13 4 14 31 15 5 16 30 17 2 18 1 19 32 20 33 21 10 22 11 23
REMARK SMILES IDX 17 24 12 25 15 26 14 27 13 28 16 29 24 30 26 31 27 32 25 33
REMARK H PARENT 25 34 25 35
ROOT
ATOM      1  C   UNL     1      12.243 -52.217 -23.270  1.00  0.00     0.060 A 
ATOM      2  C   UNL     1      11.498 -52.746 -22.202  1.00  0.00     0.029 A 
ATOM      3  C   UNL     1      11.003 -54.055 -22.226  1.00  0.00     0.024 A 
ATOM      4  C   UNL     1      11.253 -54.866 -23.331  1.00  0.00     0.082 A 
ATOM      5  C   UNL     1      11.973 -54.373 -24.417  1.00  0.00     0.024 A 
ATOM      6  C   UNL     1      12.462 -53.063 -24.374  1.00  0.00     0.029 A 
ENDROOT
BRANCH   1   7
ATOM      7  N   UNL     1      12.751 -50.919 -23.257  1.00  0.00    -0.257 N 
ATOM      8  C   UNL     1      14.112 -50.529 -22.881  1.00  0.00     0.144 C 
ATOM      9  C   UNL     1      13.997 -49.012 -22.720  1.00  0.00     0.091 C 
ATOM     10  C   UNL     1      12.643 -48.780 -23.334  1.00  0.00     0.071 C 
ATOM     11  N   UNL     1      11.964 -49.855 -23.593  1.00  0.00    -0.176 NA
BRANCH   8  12
ATOM     12  C   UNL     1      15.154 -50.889 -23.931  1.00  0.00    -0.019 A 
ATOM     13  C   UNL     1      17.144 -51.558 -25.821  1.00  0.00     0.160 A 
ATOM     14  C   UNL     1      17.114 -52.182 -24.570  1.00  0.00     0.051 A 
ATOM     15  C   UNL     1      16.174 -50.586 -26.133  1.00  0.00     0.161 A 
ATOM     16  C   UNL     1      16.131 -51.850 -23.634  1.00  0.00     0.010 A 
ATOM     17  C   UNL     1      15.196 -50.257 -25.187  1.00  0.00     0.056 A 
BRANCH  13  18
ATOM     18  O   UNL     1      18.072 -51.821 -26.798  1.00  0.00    -0.493 OA
ATOM     19  C   UNL     1      19.437 -51.883 -26.413  1.00  0.00     0.278 C 
ENDBRANCH  13  18
BRANCH  15  20
ATOM     20  O   UNL     1      16.270 -50.014 -27.377  1.00  0.00    -0.493 OA
ATOM     21  C   UNL     1      15.159 -49.260 -27.842  1.00  0.00     0.278 C 
ENDBRANCH  15  20
ENDBRANCH   8  12
BRANCH  10  22
ATOM     22  C   UNL     1      12.121 -47.419 -23.589  1.00  0.00     0.004 A 
ATOM     23  C   UNL     1      11.032 -46.959 -22.838  1.00  0.00     0.049 A 
ATOM     24  C   UNL     1      12.690 -46.587 -24.557  1.00  0.00     0.049 A 
ATOM     25  C   UNL     1      10.527 -45.683 -23.065  1.00  0.00     0.126 A 
ATOM     26  C   UNL     1      12.164 -45.313 -24.761  1.00  0.00     0.126 A 
ATOM     27  C   UNL     1      11.084 -44.850 -24.024  1.00  0.00     0.078 A 
ATOM     28  F   UNL     1       9.484 -45.250 -22.345  1.00  0.00    -0.207 F 
ATOM     29  F   UNL     1      12.714 -44.521 -25.690  1.00  0.00    -0.207 F 
ENDBRANCH  10  22
ENDBRANCH   1   7
BRANCH   4  30
ATOM     30  S   UNL     1      10.629 -56.522 -23.356  1.00  0.00     0.238 S 
ATOM     31  O   UNL     1      11.457 -57.315 -24.236  1.00  0.00    -0.207 OA
ATOM     32  O   UNL     1       9.192 -56.468 -23.481  1.00  0.00    -0.207 OA
BRANCH  30  33
ATOM     33  N   UNL     1      10.997 -57.042 -21.797  1.00  0.00    -0.225 NA
ATOM     34  H   UNL     1      10.217 -56.944 -21.148  1.00  0.00     0.137 HD
ATOM     35  H   UNL     1      11.825 -56.540 -21.472  1.00  0.00     0.137 HD
ENDBRANCH  30  33
ENDBRANCH   4  30
TORSDOF 7
ENDMDL
MODEL 2
REMARK VINA RESULT:    -8.728      5.074      8.806
REMARK INTER + INTRA:         -13.414
REMARK INTER:                 -11.939
REMARK INTRA:                  -1.476
REMARK UNBOUND:                -1.370
REMARK SMILES COc1ccc([C@H]2CC(c3cc(F)cc(F)c3)=NN2c2ccc(S(N)(=O)=O)cc2)cc1OC
REMARK SMILES IDX 20 1 21 2 22 3 23 4 28 5 29 6 19 7 7 8 8 9 9 10 18 11 6 12
REMARK SMILES IDX 3 13 4 14 31 15 5 16 30 17 2 18 1 19 32 20 33 21 10 22 11 23
REMARK SMILES IDX 17 24 12 25 15 26 14 27 13 28 16 29 24 30 26 31 27 32 25 33
REMARK H PARENT 25 34 25 35
ROOT
ATOM      1  C   UNL     1      15.403 -48.968 -28.121  1.00  0.00     0.060 A 
ATOM      2  C   UNL     1      16.713 -49.221 -28.560  1.00  0.00     0.029 A 
ATOM      3  C   UNL     1      17.207 -48.683 -29.754  1.00  0.00     0.024 A 
ATOM      4  C   UNL     1      16.386 -47.869 -30.534  1.00  0.00     0.082 A 
ATOM      5  C   UNL     1      15.076 -47.609 -30.141  1.00  0.00     0.024 A 
ATOM      6  C   UNL     1      14.601 -48.154 -28.943  1.00  0.00     0.029 A 
ENDROOT
BRANCH   1   7
ATOM      7  N   UNL     1      14.899 -49.489 -26.930  1.00  0.00    -0.257 N 
ATOM      8  C   UNL     1      15.073 -48.912 -25.594  1.00  0.00     0.144 C 
ATOM      9  C   UNL     1      14.630 -50.051 -24.674  1.00  0.00     0.091 C 
ATOM     10  C   UNL     1      13.994 -50.975 -25.677  1.00  0.00     0.071 C 
ATOM     11  N   UNL     1      14.187 -50.654 -26.920  1.00  0.00    -0.176 NA
BRANCH   8  12
ATOM     12  C   UNL     1      14.230 -47.664 -25.363  1.00  0.00    -0.019 A 
ATOM     13  C   UNL     1      12.735 -45.312 -24.907  1.00  0.00     0.160 A 
ATOM     14  C   UNL     1      14.017 -45.242 -25.461  1.00  0.00     0.051 A 
ATOM     15  C   UNL     1      12.193 -46.568 -24.572  1.00  0.00     0.161 A 
ATOM     16  C   UNL     1      14.758 -46.406 -25.685  1.00  0.00     0.010 A 
ATOM     17  C   UNL     1      12.945 -47.728 -24.796  1.00  0.00     0.056 A 
BRANCH  13  18
ATOM     18  O   UNL     1      11.939 -44.223 -24.652  1.00  0.00    -0.493 OA
ATOM     19  C   UNL     1      12.345 -43.335 -23.621  1.00  0.00     0.278 C 
ENDBRANCH  13  18
BRANCH  15  20
ATOM     20  O   UNL     1      10.932 -46.557 -24.029  1.00  0.00    -0.493 OA
ATOM     21  C   UNL     1      10.800 -46.927 -22.664  1.00  0.00     0.278 C 
ENDBRANCH  15  20
ENDBRANCH   8  12
BRANCH  10  22
ATOM     22  C   UNL     1      13.236 -52.177 -25.266  1.00  0.00     0.004 A 
ATOM     23  C   UNL     1      12.447 -52.117 -24.109  1.00  0.00     0.049 A 
ATOM     24  C   UNL     1      13.288 -53.363 -26.004  1.00  0.00     0.049 A 
ATOM     25  C   UNL     1      11.728 -53.238 -23.706  1.00  0.00     0.126 A 
ATOM     26  C   UNL     1      12.556 -54.468 -25.577  1.00  0.00     0.126 A 
ATOM     27  C   UNL     1      11.774 -54.420 -24.431  1.00  0.00     0.078 A 
ATOM     28  F   UNL     1      10.978 -53.176 -22.599  1.00  0.00    -0.207 F 
ATOM     29  F   UNL     1      12.610 -55.601 -26.289  1.00  0.00    -0.207 F 
ENDBRANCH  10  22
ENDBRANCH   1   7
BRANCH   4  30
ATOM     30  S   UNL     1      17.015 -47.186 -32.041  1.00  0.00     0.238 S 
ATOM     31  O   UNL     1      16.455 -47.922 -33.152  1.00  0.00    -0.207 OA
ATOM     32  O   UNL     1      18.434 -46.970 -31.889  1.00  0.00    -0.207 OA
BRANCH  30  33
ATOM     33  N   UNL     1      16.259 -45.681 -32.067  1.00  0.00    -0.225 NA
ATOM     34  H   UNL     1      16.856 -44.940 -32.433  1.00  0.00     0.137 HD
ATOM     35  H   UNL     1      15.922 -45.468 -31.127  1.00  0.00     0.137 HD
ENDBRANCH  30  33
ENDBRANCH   4  30
TORSDOF 7
ENDMDL
MODEL 3
REMARK VINA RESULT:    -8.714      5.201      8.592
REMARK INTER + INTRA:         -13.396
REMARK INTER:                 -12.255
REMARK INTRA:                  -1.140
REMARK UNBOUND:                -1.370
REMARK SMILES COc1ccc([C@H]2CC(c3cc(F)cc(F)c3)=NN2c2ccc(S(N)(=O)=O)cc2)cc1OC
REMARK SMILES IDX 20 1 21 2 22 3 23 4 28 5 29 6 19 7 7 8 8 9 9 10 18 11 6 12
REMARK SMILES IDX 3 13 4 14 31 15 5 16 30 17 2 18 1 19 32 20 33 21 10 22 11 23
REMARK SMILES IDX 17 24 12 25 15 26 14 27 13 28 16 29 24 30 26 31 27 32 25 33
REMARK H PARENT 25 34 25 35
ROOT
ATOM      1  C   UNL     1      14.431 -48.711 -26.484  1.00  0.00     0.060 A 
ATOM      2  C   UNL     1      14.619 -47.322 -26.591  1.00  0.00     0.029 A 
ATOM      3  C   UNL     1      15.111 -46.733 -27.762  1.00  0.00     0.024 A 
ATOM      4  C   UNL     1      15.422 -47.536 -28.858  1.00  0.00     0.082 A 
ATOM      5  C   UNL     1      15.267 -48.918 -28.785  1.00  0.00     0.024 A 
ATOM      6  C   UNL     1      14.771 -49.488 -27.607  1.00  0.00     0.029 A 
ENDROOT
BRANCH   1   7
ATOM      7  N   UNL     1      13.934 -49.311 -25.328  1.00  0.00    -0.257 N 
ATOM      8  C   UNL     1      14.064 -48.795 -23.963  1.00  0.00     0.144 C 
ATOM      9  C   UNL     1      13.656 -49.995 -23.108  1.00  0.00     0.091 C 
ATOM     10  C   UNL     1      13.074 -50.893 -24.165  1.00  0.00     0.071 C 
ATOM     11  N   UNL     1      13.270 -50.503 -25.388  1.00  0.00    -0.176 NA
BRANCH   8  12
ATOM     12  C   UNL     1      13.167 -47.596 -23.685  1.00  0.00    -0.019 A 
ATOM     13  C   UNL     1      11.476 -45.377 -23.244  1.00  0.00     0.160 A 
ATOM     14  C   UNL     1      11.011 -46.498 -23.939  1.00  0.00     0.051 A 
ATOM     15  C   UNL     1      12.801 -45.359 -22.766  1.00  0.00     0.161 A 
ATOM     16  C   UNL     1      11.849 -47.595 -24.159  1.00  0.00     0.010 A 
ATOM     17  C   UNL     1      13.633 -46.461 -22.995  1.00  0.00     0.056 A 
BRANCH  13  18
ATOM     18  O   UNL     1      10.725 -44.258 -22.984  1.00  0.00    -0.493 OA
ATOM     19  C   UNL     1      10.579 -43.304 -24.026  1.00  0.00     0.278 C 
ENDBRANCH  13  18
BRANCH  15  20
ATOM     20  O   UNL     1      13.187 -44.224 -22.097  1.00  0.00    -0.493 OA
ATOM     21  C   UNL     1      14.143 -43.383 -22.725  1.00  0.00     0.278 C 
ENDBRANCH  15  20
ENDBRANCH   8  12
BRANCH  10  22
ATOM     22  C   UNL     1      12.360 -52.144 -23.826  1.00  0.00     0.004 A 
ATOM     23  C   UNL     1      12.474 -53.244 -24.686  1.00  0.00     0.049 A 
ATOM     24  C   UNL     1      11.581 -52.251 -22.670  1.00  0.00     0.049 A 
ATOM     25  C   UNL     1      11.809 -54.428 -24.384  1.00  0.00     0.126 A 
ATOM     26  C   UNL     1      10.928 -53.450 -22.393  1.00  0.00     0.126 A 
ATOM     27  C   UNL     1      11.032 -54.544 -23.240  1.00  0.00     0.078 A 
ATOM     28  F   UNL     1      11.920 -55.475 -25.211  1.00  0.00    -0.207 F 
ATOM     29  F   UNL     1      10.184 -53.546 -21.284  1.00  0.00    -0.207 F 
ENDBRANCH  10  22
ENDBRANCH   1   7
BRANCH   4  30
ATOM     30  S   UNL     1      16.040 -46.788 -30.339  1.00  0.00     0.238 S 
ATOM     31  O   UNL     1      16.570 -47.825 -31.195  1.00  0.00    -0.207 OA
ATOM     32  O   UNL     1      16.801 -45.616 -29.976  1.00  0.00    -0.207 OA
BRANCH  30  33
ATOM     33  N   UNL     1      14.614 -46.276 -31.075  1.00  0.00    -0.225 NA
ATOM     34  H   UNL     1      13.833 -46.201 -30.424  1.00  0.00     0.137 HD
ATOM     35  H   UNL     1      14.402 -46.906 -31.851  1.00  0.00     0.137 HD
ENDBRANCH  30  33
ENDBRANCH   4  30
TORSDOF 7
ENDMDL
MODEL 4
REMARK VINA RESULT:    -8.700      4.632      7.523
REMARK INTER + INTRA:         -13.376
REMARK INTER:                 -12.029
REMARK INTRA:                  -1.347
REMARK UNBOUND:                -1.370
REMARK SMILES COc1ccc([C@H]2CC(c3cc(F)cc(F)c3)=NN2c2ccc(S(N)(=O)=O)cc2)cc1OC
REMARK SMILES IDX 20 1 21 2 22 3 23 4 28 5 29 6 19 7 7 8 8 9 9 10 18 11 6 12
REMARK SMILES IDX 3 13 4 14 31 15 5 16 30 17 2 18 1 19 32 20 33 21 10 22 11 23
REMARK SMILES IDX 17 24 12 25 15 26 14 27 13 28 16 29 24 30 26 31 27 32 25 33
REMARK H PARENT 25 34 25 35
ROOT
ATOM      1  C   UNL     1      12.275 -48.222 -23.854  1.00  0.00     0.060 A 
ATOM      2  C   UNL     1      12.803 -47.271 -24.744  1.00  0.00     0.029 A 
ATOM      3  C   UNL     1      12.575 -45.900 -24.579  1.00  0.00     0.024 A 
ATOM      4  C   UNL     1      11.809 -45.454 -23.503  1.00  0.00     0.082 A 
ATOM      5  C   UNL     1      11.253 -46.366 -22.609  1.00  0.00     0.024 A 
ATOM      6  C   UNL     1      11.494 -47.733 -22.790  1.00  0.00     0.029 A 
ENDROOT
BRANCH   1   7
ATOM      7  N   UNL     1      12.501 -49.589 -24.000  1.00  0.00    -0.257 N 
ATOM      8  C   UNL     1      13.378 -50.218 -24.991  1.00  0.00     0.144 C 
ATOM      9  C   UNL     1      12.973 -51.691 -24.915  1.00  0.00     0.091 C 
ATOM     10  C   UNL     1      12.137 -51.675 -23.664  1.00  0.00     0.071 C 
ATOM     11  N   UNL     1      11.867 -50.494 -23.197  1.00  0.00    -0.176 NA
BRANCH   8  12
ATOM     12  C   UNL     1      14.858 -50.042 -24.683  1.00  0.00    -0.019 A 
ATOM     13  C   UNL     1      17.623 -49.766 -24.174  1.00  0.00     0.160 A 
ATOM     14  C   UNL     1      17.138 -49.754 -25.485  1.00  0.00     0.051 A 
ATOM     15  C   UNL     1      16.721 -49.922 -23.103  1.00  0.00     0.161 A 
ATOM     16  C   UNL     1      15.770 -49.892 -25.737  1.00  0.00     0.010 A 
ATOM     17  C   UNL     1      15.353 -50.064 -23.366  1.00  0.00     0.056 A 
BRANCH  13  18
ATOM     18  O   UNL     1      18.947 -49.638 -23.834  1.00  0.00    -0.493 OA
ATOM     19  C   UNL     1      19.856 -50.602 -24.345  1.00  0.00     0.278 C 
ENDBRANCH  13  18
BRANCH  15  20
ATOM     20  O   UNL     1      17.271 -49.928 -21.845  1.00  0.00    -0.493 OA
ATOM     21  C   UNL     1      17.042 -48.793 -21.022  1.00  0.00     0.278 C 
ENDBRANCH  15  20
ENDBRANCH   8  12
BRANCH  10  22
ATOM     22  C   UNL     1      11.637 -52.920 -23.038  1.00  0.00     0.004 A 
ATOM     23  C   UNL     1      11.232 -52.889 -21.697  1.00  0.00     0.049 A 
ATOM     24  C   UNL     1      11.559 -54.118 -23.754  1.00  0.00     0.049 A 
ATOM     25  C   UNL     1      10.761 -54.050 -21.092  1.00  0.00     0.126 A 
ATOM     26  C   UNL     1      11.082 -55.264 -23.122  1.00  0.00     0.126 A 
ATOM     27  C   UNL     1      10.681 -55.244 -21.794  1.00  0.00     0.078 A 
ATOM     28  F   UNL     1      10.379 -54.015 -19.810  1.00  0.00    -0.207 F 
ATOM     29  F   UNL     1      11.009 -56.408 -23.814  1.00  0.00    -0.207 F 
ENDBRANCH  10  22
ENDBRANCH   1   7
BRANCH   4  30
ATOM     30  S   UNL     1      11.526 -43.719 -23.295  1.00  0.00     0.238 S 
ATOM     31  O   UNL     1      11.804 -43.051 -24.546  1.00  0.00    -0.207 OA
ATOM     32  O   UNL     1      12.118 -43.306 -22.045  1.00  0.00    -0.207 OA
BRANCH  30  33
ATOM     33  N   UNL     1       9.852 -43.672 -23.119  1.00  0.00    -0.225 NA
ATOM     34  H   UNL     1       9.353 -43.873 -23.985  1.00  0.00     0.137 HD
ATOM     35  H   UNL     1       9.588 -42.765 -22.732  1.00  0.00     0.137 HD
ENDBRANCH  30  33
ENDBRANCH   4  30
TORSDOF 7
ENDMDL
MODEL 5
REMARK VINA RESULT:    -8.604      2.012      2.911
REMARK INTER + INTRA:         -13.244
REMARK INTER:                 -12.130
REMARK INTRA:                  -1.114
REMARK UNBOUND:                -1.370
REMARK SMILES COc1ccc([C@H]2CC(c3cc(F)cc(F)c3)=NN2c2ccc(S(N)(=O)=O)cc2)cc1OC
REMARK SMILES IDX 20 1 21 2 22 3 23 4 28 5 29 6 19 7 7 8 8 9 9 10 18 11 6 12
REMARK SMILES IDX 3 13 4 14 31 15 5 16 30 17 2 18 1 19 32 20 33 21 10 22 11 23
REMARK SMILES IDX 17 24 12 25 15 26 14 27 13 28 16 29 24 30 26 31 27 32 25 33
REMARK H PARENT 25 34 25 35
ROOT
ATOM      1  C   UNL     1      12.407 -50.419 -22.797  1.00  0.00     0.060 A 
ATOM      2  C   UNL     1      11.564 -50.826 -21.749  1.00  0.00     0.029 A 
ATOM      3  C   UNL     1      10.972 -52.095 -21.730  1.00  0.00     0.024 A 
ATOM      4  C   UNL     1      11.222 -52.986 -22.772  1.00  0.00     0.082 A 
ATOM      5  C   UNL     1      12.037 -52.614 -23.837  1.00  0.00     0.024 A 
ATOM      6  C   UNL     1      12.622 -51.342 -23.838  1.00  0.00     0.029 A 
ENDROOT
BRANCH   1   7
ATOM      7  N   UNL     1      13.011 -49.163 -22.826  1.00  0.00    -0.257 N 
ATOM      8  C   UNL     1      14.443 -48.898 -22.986  1.00  0.00     0.144 C 
ATOM      9  C   UNL     1      14.559 -47.422 -22.601  1.00  0.00     0.091 C 
ATOM     10  C   UNL     1      13.105 -47.036 -22.580  1.00  0.00     0.071 C 
ATOM     11  N   UNL     1      12.270 -48.025 -22.676  1.00  0.00    -0.176 NA
BRANCH   8  12
ATOM     12  C   UNL     1      14.944 -49.133 -24.405  1.00  0.00    -0.019 A 
ATOM     13  C   UNL     1      15.797 -49.560 -27.063  1.00  0.00     0.160 A 
ATOM     14  C   UNL     1      14.860 -48.565 -26.769  1.00  0.00     0.051 A 
ATOM     15  C   UNL     1      16.313 -50.355 -26.021  1.00  0.00     0.161 A 
ATOM     16  C   UNL     1      14.436 -48.355 -25.454  1.00  0.00     0.010 A 
ATOM     17  C   UNL     1      15.879 -50.140 -24.708  1.00  0.00     0.056 A 
BRANCH  13  18
ATOM     18  O   UNL     1      16.268 -49.836 -28.323  1.00  0.00    -0.493 OA
ATOM     19  C   UNL     1      15.886 -48.963 -29.376  1.00  0.00     0.278 C 
ENDBRANCH  13  18
BRANCH  15  20
ATOM     20  O   UNL     1      17.226 -51.313 -26.387  1.00  0.00    -0.493 OA
ATOM     21  C   UNL     1      17.749 -52.148 -25.364  1.00  0.00     0.278 C 
ENDBRANCH  15  20
ENDBRANCH   8  12
BRANCH  10  22
ATOM     22  C   UNL     1      12.669 -45.629 -22.427  1.00  0.00     0.004 A 
ATOM     23  C   UNL     1      13.528 -44.719 -21.797  1.00  0.00     0.049 A 
ATOM     24  C   UNL     1      11.427 -45.193 -22.896  1.00  0.00     0.049 A 
ATOM     25  C   UNL     1      13.135 -43.393 -21.643  1.00  0.00     0.126 A 
ATOM     26  C   UNL     1      11.061 -43.859 -22.729  1.00  0.00     0.126 A 
ATOM     27  C   UNL     1      11.903 -42.951 -22.105  1.00  0.00     0.078 A 
ATOM     28  F   UNL     1      13.959 -42.529 -21.038  1.00  0.00    -0.207 F 
ATOM     29  F   UNL     1       9.870 -43.448 -23.182  1.00  0.00    -0.207 F 
ENDBRANCH  10  22
ENDBRANCH   1   7
BRANCH   4  30
ATOM     30  S   UNL     1      10.475 -54.591 -22.742  1.00  0.00     0.238 S 
ATOM     31  O   UNL     1      11.384 -55.513 -22.101  1.00  0.00    -0.207 OA
ATOM     32  O   UNL     1       9.892 -54.849 -24.037  1.00  0.00    -0.207 OA
BRANCH  30  33
ATOM     33  N   UNL     1       9.219 -54.356 -21.644  1.00  0.00    -0.225 NA
ATOM     34  H   UNL     1       8.300 -54.547 -22.041  1.00  0.00     0.137 HD
ATOM     35  H   UNL     1       9.282 -53.406 -21.273  1.00  0.00     0.137 HD
ENDBRANCH  30  33
ENDBRANCH   4  30
TORSDOF 7
ENDMDL
MODEL 6
REMARK VINA RESULT:    -8.580      1.292      1.743
REMARK INTER + INTRA:         -13.210
REMARK INTER:                 -11.820
REMARK INTRA:                  -1.390
REMARK UNBOUND:                -1.370
REMARK SMILES COc1ccc([C@H]2CC(c3cc(F)cc(F)c3)=NN2c2ccc(S(N)(=O)=O)cc2)cc1OC
REMARK SMILES IDX 20 1 21 2 22 3 23 4 28 5 29 6 19 7 7 8 8 9 9 10 18 11 6 12
REMARK SMILES IDX 3 13 4 14 31 15 5 16 30 17 2 18 1 19 32 20 33 21 10 22 11 23
REMARK SMILES IDX 17 24 12 25 15 26 14 27 13 28 16 29 24 30 26 31 27 32 25 33
REMARK H PARENT 25 34 25 35
ROOT
ATOM      1  C   UNL     1      12.473 -50.894 -23.181  1.00  0.00     0.060 A 
ATOM      2  C   UNL     1      12.542 -51.968 -24.085  1.00  0.00     0.029 A 
ATOM      3  C   UNL     1      11.820 -53.150 -23.881  1.00  0.00     0.024 A 
ATOM      4  C   UNL     1      11.006 -53.274 -22.757  1.00  0.00     0.082 A 
ATOM      5  C   UNL     1      10.925 -52.239 -21.828  1.00  0.00     0.024 A 
ATOM      6  C   UNL     1      11.652 -51.064 -22.051  1.00  0.00     0.029 A 
ENDROOT
BRANCH   1   7
ATOM      7  N   UNL     1      13.178 -49.707 -23.375  1.00  0.00    -0.257 N 
ATOM      8  C   UNL     1      14.590 -49.482 -23.058  1.00  0.00     0.144 C 
ATOM      9  C   UNL     1      14.717 -47.959 -23.145  1.00  0.00     0.091 C 
ATOM     10  C   UNL     1      13.404 -47.618 -23.797  1.00  0.00     0.071 C 
ATOM     11  N   UNL     1      12.560 -48.600 -23.883  1.00  0.00    -0.176 NA
BRANCH   8  12
ATOM     12  C   UNL     1      15.542 -50.165 -24.031  1.00  0.00    -0.019 A 
ATOM     13  C   UNL     1      17.363 -51.440 -25.773  1.00  0.00     0.160 A 
ATOM     14  C   UNL     1      17.175 -51.914 -24.472  1.00  0.00     0.051 A 
ATOM     15  C   UNL     1      16.638 -50.315 -26.212  1.00  0.00     0.161 A 
ATOM     16  C   UNL     1      16.276 -51.282 -23.609  1.00  0.00     0.010 A 
ATOM     17  C   UNL     1      15.743 -49.686 -25.338  1.00  0.00     0.056 A 
BRANCH  13  18
ATOM     18  O   UNL     1      18.223 -51.997 -26.687  1.00  0.00    -0.493 OA
ATOM     19  C   UNL     1      19.601 -52.056 -26.345  1.00  0.00     0.278 C 
ENDBRANCH  13  18
BRANCH  15  20
ATOM     20  O   UNL     1      16.877 -49.906 -27.500  1.00  0.00    -0.493 OA
ATOM     21  C   UNL     1      15.845 -49.192 -28.167  1.00  0.00     0.278 C 
ENDBRANCH  15  20
ENDBRANCH   8  12
BRANCH  10  22
ATOM     22  C   UNL     1      13.097 -46.250 -24.272  1.00  0.00     0.004 A 
ATOM     23  C   UNL     1      11.963 -45.598 -23.770  1.00  0.00     0.049 A 
ATOM     24  C   UNL     1      13.911 -45.599 -25.203  1.00  0.00     0.049 A 
ATOM     25  C   UNL     1      11.658 -44.312 -24.206  1.00  0.00     0.126 A 
ATOM     26  C   UNL     1      13.581 -44.311 -25.619  1.00  0.00     0.126 A 
ATOM     27  C   UNL     1      12.458 -43.658 -25.131  1.00  0.00     0.078 A 
ATOM     28  F   UNL     1      10.571 -43.695 -23.725  1.00  0.00    -0.207 F 
ATOM     29  F   UNL     1      14.365 -43.693 -26.511  1.00  0.00    -0.207 F 
ENDBRANCH  10  22
ENDBRANCH   1   7
BRANCH   4  30
ATOM     30  S   UNL     1      10.092 -54.769 -22.504  1.00  0.00     0.238 S 
ATOM     31  O   UNL     1       9.864 -55.395 -23.787  1.00  0.00    -0.207 OA
ATOM     32  O   UNL     1       9.025 -54.501 -21.570  1.00  0.00    -0.207 OA
BRANCH  30  33
ATOM     33  N   UNL     1      11.235 -55.733 -21.727  1.00  0.00    -0.225 NA
ATOM     34  H   UNL     1      10.999 -55.927 -20.754  1.00  0.00     0.137 HD
ATOM     35  H   UNL     1      12.150 -55.289 -21.813  1.00  0.00     0.137 HD
ENDBRANCH  30  33
ENDBRANCH   4  30
TORSDOF 7
ENDMDL
MODEL 7
REMARK VINA RESULT:    -8.443      4.485      7.574
REMARK INTER + INTRA:         -13.022
REMARK INTER:                 -11.782
REMARK INTRA:                  -1.239
REMARK UNBOUND:                -1.370
REMARK SMILES COc1ccc([C@H]2CC(c3cc(F)cc(F)c3)=NN2c2ccc(S(N)(=O)=O)cc2)cc1OC
REMARK SMILES IDX 20 1 21 2 22 3 23 4 28 5 29 6 19 7 7 8 8 9 9 10 18 11 6 12
REMARK SMILES IDX 3 13 4 14 31 15 5 16 30 17 2 18 1 19 32 20 33 21 10 22 11 23
REMARK SMILES IDX 17 24 12 25 15 26 14 27 13 28 16 29 24 30 26 31 27 32 25 33
REMARK H PARENT 25 34 25 35
ROOT
ATOM      1  C   UNL     1      13.110 -48.397 -25.001  1.00  0.00     0.060 A 
ATOM      2  C   UNL     1      14.093 -47.617 -25.633  1.00  0.00     0.029 A 
ATOM      3  C   UNL     1      14.018 -46.219 -25.664  1.00  0.00     0.024 A 
ATOM      4  C   UNL     1      12.946 -45.574 -25.051  1.00  0.00     0.082 A 
ATOM      5  C   UNL     1      11.942 -46.312 -24.429  1.00  0.00     0.024 A 
ATOM      6  C   UNL     1      12.035 -47.708 -24.406  1.00  0.00     0.029 A 
ENDROOT
BRANCH   1   7
ATOM      7  N   UNL     1      13.175 -49.788 -24.954  1.00  0.00    -0.257 N 
ATOM      8  C   UNL     1      13.977 -50.644 -25.832  1.00  0.00     0.144 C 
ATOM      9  C   UNL     1      13.403 -52.036 -25.563  1.00  0.00     0.091 C 
ATOM     10  C   UNL     1      12.569 -51.752 -24.343  1.00  0.00     0.071 C 
ATOM     11  N   UNL     1      12.436 -50.495 -24.048  1.00  0.00    -0.176 NA
BRANCH   8  12
ATOM     12  C   UNL     1      15.467 -50.599 -25.520  1.00  0.00    -0.019 A 
ATOM     13  C   UNL     1      18.245 -50.552 -25.013  1.00  0.00     0.160 A 
ATOM     14  C   UNL     1      17.751 -50.262 -26.289  1.00  0.00     0.051 A 
ATOM     15  C   UNL     1      17.345 -50.873 -23.979  1.00  0.00     0.161 A 
ATOM     16  C   UNL     1      16.377 -50.287 -26.540  1.00  0.00     0.010 A 
ATOM     17  C   UNL     1      15.971 -50.899 -24.241  1.00  0.00     0.056 A 
BRANCH  13  18
ATOM     18  O   UNL     1      19.577 -50.551 -24.678  1.00  0.00    -0.493 OA
ATOM     19  C   UNL     1      20.395 -51.575 -25.224  1.00  0.00     0.278 C 
ENDBRANCH  13  18
BRANCH  15  20
ATOM     20  O   UNL     1      17.904 -51.148 -22.755  1.00  0.00    -0.493 OA
ATOM     21  C   UNL     1      17.533 -50.322 -21.661  1.00  0.00     0.278 C 
ENDBRANCH  15  20
ENDBRANCH   8  12
BRANCH  10  22
ATOM     22  C   UNL     1      11.925 -52.832 -23.563  1.00  0.00     0.004 A 
ATOM     23  C   UNL     1      11.832 -54.112 -24.127  1.00  0.00     0.049 A 
ATOM     24  C   UNL     1      11.413 -52.605 -22.283  1.00  0.00     0.049 A 
ATOM     25  C   UNL     1      11.229 -55.139 -23.410  1.00  0.00     0.126 A 
ATOM     26  C   UNL     1      10.816 -53.654 -21.588  1.00  0.00     0.126 A 
ATOM     27  C   UNL     1      10.717 -54.924 -22.139  1.00  0.00     0.078 A 
ATOM     28  F   UNL     1      11.141 -56.359 -23.955  1.00  0.00    -0.207 F 
ATOM     29  F   UNL     1      10.328 -53.430 -20.361  1.00  0.00    -0.207 F 
ENDBRANCH  10  22
ENDBRANCH   1   7
BRANCH   4  30
ATOM     30  S   UNL     1      12.856 -43.806 -25.087  1.00  0.00     0.238 S 
ATOM     31  O   UNL     1      11.958 -43.366 -24.044  1.00  0.00    -0.207 OA
ATOM     32  O   UNL     1      12.718 -43.383 -26.460  1.00  0.00    -0.207 OA
BRANCH  30  33
ATOM     33  N   UNL     1      14.400 -43.382 -24.565  1.00  0.00    -0.225 NA
ATOM     34  H   UNL     1      14.466 -43.282 -23.552  1.00  0.00     0.137 HD
ATOM     35  H   UNL     1      14.688 -42.531 -25.049  1.00  0.00     0.137 HD
ENDBRANCH  30  33
ENDBRANCH   4  30
TORSDOF 7
ENDMDL
MODEL 8
REMARK VINA RESULT:    -8.298      3.719      5.247
REMARK INTER + INTRA:         -12.821
REMARK INTER:                 -11.566
REMARK INTRA:                  -1.255
REMARK UNBOUND:                -1.370
REMARK SMILES COc1ccc([C@H]2CC(c3cc(F)cc(F)c3)=NN2c2ccc(S(N)(=O)=O)cc2)cc1OC
REMARK SMILES IDX 20 1 21 2 22 3 23 4 28 5 29 6 19 7 7 8 8 9 9 10 18 11 6 12
REMARK SMILES IDX 3 13 4 14 31 15 5 16 30 17 2 18 1 19 32 20 33 21 10 22 11 23
REMARK SMILES IDX 17 24 12 25 15 26 14 27 13 28 16 29 24 30 26 31 27 32 25 33
REMARK H PARENT 25 34 25 35
ROOT
ATOM      1  C   UNL     1      13.079 -51.666 -24.588  1.00  0.00     0.060 A 
ATOM      2  C   UNL     1      12.339 -51.468 -23.410  1.00  0.00     0.029 A 
ATOM      3  C   UNL     1      11.537 -52.479 -22.866  1.00  0.00     0.024 A 
ATOM      4  C   UNL     1      11.466 -53.718 -23.500  1.00  0.00     0.082 A 
ATOM      5  C   UNL     1      12.171 -53.947 -24.679  1.00  0.00     0.024 A 
ATOM      6  C   UNL     1      12.969 -52.926 -25.207  1.00  0.00     0.029 A 
ENDROOT
BRANCH   1   7
ATOM      7  N   UNL     1      13.890 -50.673 -25.137  1.00  0.00    -0.257 N 
ATOM      8  C   UNL     1      14.369 -49.472 -24.448  1.00  0.00     0.144 C 
ATOM      9  C   UNL     1      14.896 -48.611 -25.597  1.00  0.00     0.091 C 
ATOM     10  C   UNL     1      14.892 -49.621 -26.713  1.00  0.00     0.071 C 
ATOM     11  N   UNL     1      14.301 -50.743 -26.438  1.00  0.00    -0.176 NA
BRANCH   8  12
ATOM     12  C   UNL     1      15.466 -49.758 -23.432  1.00  0.00    -0.019 A 
ATOM     13  C   UNL     1      17.470 -50.362 -21.536  1.00  0.00     0.160 A 
ATOM     14  C   UNL     1      17.077 -51.314 -22.481  1.00  0.00     0.051 A 
ATOM     15  C   UNL     1      16.855 -49.095 -21.531  1.00  0.00     0.161 A 
ATOM     16  C   UNL     1      16.084 -51.016 -23.418  1.00  0.00     0.010 A 
ATOM     17  C   UNL     1      15.859 -48.808 -22.471  1.00  0.00     0.056 A 
BRANCH  13  18
ATOM     18  O   UNL     1      18.434 -50.569 -20.580  1.00  0.00    -0.493 OA
ATOM     19  C   UNL     1      19.791 -50.577 -21.002  1.00  0.00     0.278 C 
ENDBRANCH  13  18
BRANCH  15  20
ATOM     20  O   UNL     1      17.291 -48.215 -20.572  1.00  0.00    -0.493 OA
ATOM     21  C   UNL     1      17.974 -47.049 -21.010  1.00  0.00     0.278 C 
ENDBRANCH  15  20
ENDBRANCH   8  12
BRANCH  10  22
ATOM     22  C   UNL     1      15.493 -49.332 -28.034  1.00  0.00     0.004 A 
ATOM     23  C   UNL     1      16.850 -49.614 -28.238  1.00  0.00     0.049 A 
ATOM     24  C   UNL     1      14.738 -48.789 -29.078  1.00  0.00     0.049 A 
ATOM     25  C   UNL     1      17.432 -49.348 -29.473  1.00  0.00     0.126 A 
ATOM     26  C   UNL     1      15.348 -48.535 -30.304  1.00  0.00     0.126 A 
ATOM     27  C   UNL     1      16.692 -48.808 -30.514  1.00  0.00     0.078 A 
ATOM     28  F   UNL     1      18.730 -49.618 -29.660  1.00  0.00    -0.207 F 
ATOM     29  F   UNL     1      14.619 -48.015 -31.300  1.00  0.00    -0.207 F 
ENDBRANCH  10  22
ENDBRANCH   1   7
BRANCH   4  30
ATOM     30  S   UNL     1      10.453 -54.994 -22.807  1.00  0.00     0.238 S 
ATOM     31  O   UNL     1      11.289 -55.871 -22.020  1.00  0.00    -0.207 OA
ATOM     32  O   UNL     1       9.565 -55.482 -23.835  1.00  0.00    -0.207 OA
BRANCH  30  33
ATOM     33  N   UNL     1       9.535 -54.125 -21.695  1.00  0.00    -0.225 NA
ATOM     34  H   UNL     1       8.673 -53.751 -22.092  1.00  0.00     0.137 HD
ATOM     35  H   UNL     1      10.117 -53.389 -21.293  1.00  0.00     0.137 HD
ENDBRANCH  30  33
ENDBRANCH   4  30
TORSDOF 7
ENDMDL
MODEL 9
REMARK VINA RESULT:    -8.207      4.803      7.500
REMARK INTER + INTRA:         -12.695
REMARK INTER:                 -11.237
REMARK INTRA:                  -1.458
REMARK UNBOUND:                -1.370
REMARK SMILES COc1ccc([C@H]2CC(c3cc(F)cc(F)c3)=NN2c2ccc(S(N)(=O)=O)cc2)cc1OC
REMARK SMILES IDX 20 1 21 2 22 3 23 4 28 5 29 6 19 7 7 8 8 9 9 10 18 11 6 12
REMARK SMILES IDX 3 13 4 14 31 15 5 16 30 17 2 18 1 19 32 20 33 21 10 22 11 23
REMARK SMILES IDX 17 24 12 25 15 26 14 27 13 28 16 29 24 30 26 31 27 32 25 33
REMARK H PARENT 25 34 25 35
ROOT
ATOM      1  C   UNL     1      12.430 -48.202 -23.712  1.00  0.00     0.060 A 
ATOM      2  C   UNL     1      12.362 -47.298 -24.786  1.00  0.00     0.029 A 
ATOM      3  C   UNL     1      12.221 -45.920 -24.581  1.00  0.00     0.024 A 
ATOM      4  C   UNL     1      12.149 -45.421 -23.282  1.00  0.00     0.082 A 
ATOM      5  C   UNL     1      12.196 -46.287 -22.192  1.00  0.00     0.024 A 
ATOM      6  C   UNL     1      12.340 -47.660 -22.416  1.00  0.00     0.029 A 
ENDROOT
BRANCH   1   7
ATOM      7  N   UNL     1      12.580 -49.575 -23.900  1.00  0.00    -0.257 N 
ATOM      8  C   UNL     1      13.349 -50.222 -24.967  1.00  0.00     0.144 C 
ATOM      9  C   UNL     1      12.882 -51.676 -24.885  1.00  0.00     0.091 C 
ATOM     10  C   UNL     1      12.146 -51.649 -23.574  1.00  0.00     0.071 C 
ATOM     11  N   UNL     1      11.967 -50.467 -23.067  1.00  0.00    -0.176 NA
BRANCH   8  12
ATOM     12  C   UNL     1      14.855 -50.120 -24.770  1.00  0.00    -0.019 A 
ATOM     13  C   UNL     1      17.640 -49.955 -24.328  1.00  0.00     0.160 A 
ATOM     14  C   UNL     1      16.903 -51.030 -23.823  1.00  0.00     0.051 A 
ATOM     15  C   UNL     1      16.982 -48.947 -25.060  1.00  0.00     0.161 A 
ATOM     16  C   UNL     1      15.525 -51.110 -24.040  1.00  0.00     0.010 A 
ATOM     17  C   UNL     1      15.600 -49.035 -25.268  1.00  0.00     0.056 A 
BRANCH  13  18
ATOM     18  O   UNL     1      18.994 -49.794 -24.164  1.00  0.00    -0.493 OA
ATOM     19  C   UNL     1      19.499 -49.775 -22.836  1.00  0.00     0.278 C 
ENDBRANCH  13  18
BRANCH  15  20
ATOM     20  O   UNL     1      17.770 -47.922 -25.522  1.00  0.00    -0.493 OA
ATOM     21  C   UNL     1      17.175 -46.982 -26.405  1.00  0.00     0.278 C 
ENDBRANCH  15  20
ENDBRANCH   8  12
BRANCH  10  22
ATOM     22  C   UNL     1      11.638 -52.883 -22.934  1.00  0.00     0.004 A 
ATOM     23  C   UNL     1      11.545 -54.054 -23.697  1.00  0.00     0.049 A 
ATOM     24  C   UNL     1      11.252 -52.904 -21.590  1.00  0.00     0.049 A 
ATOM     25  C   UNL     1      11.069 -55.223 -23.113  1.00  0.00     0.126 A 
ATOM     26  C   UNL     1      10.780 -54.090 -21.032  1.00  0.00     0.126 A 
ATOM     27  C   UNL     1      10.683 -55.254 -21.781  1.00  0.00     0.078 A 
ATOM     28  F   UNL     1      10.980 -56.338 -23.849  1.00  0.00    -0.207 F 
ATOM     29  F   UNL     1      10.413 -54.105 -19.744  1.00  0.00    -0.207 F 
ENDBRANCH  10  22
ENDBRANCH   1   7
BRANCH   4  30
ATOM     30  S   UNL     1      11.975 -43.678 -23.026  1.00  0.00     0.238 S 
ATOM     31  O   UNL     1      13.013 -43.237 -22.122  1.00  0.00    -0.207 OA
ATOM     32  O   UNL     1      10.579 -43.384 -22.810  1.00  0.00    -0.207 OA
BRANCH  30  33
ATOM     33  N   UNL     1      12.406 -43.074 -24.539  1.00  0.00    -0.225 NA
ATOM     34  H   UNL     1      12.164 -43.702 -25.304  1.00  0.00     0.137 HD
ATOM     35  H   UNL     1      13.403 -42.853 -24.531  1.00  0.00     0.137 HD
ENDBRANCH  30  33
ENDBRANCH   4  30
TORSDOF 7
ENDMDL
