MODEL 1
REMARK VINA RESULT:    -9.889      0.000      0.000
REMARK INTER + INTRA:         -15.091
REMARK INTER:                 -13.646
REMARK INTRA:                  -1.445
REMARK UNBOUND:                -1.445
REMARK SMILES COc1ccc(OC)c([C@@H]2CC(c3cc(F)ccc3F)=NN2c2ccc(S(N)(=O)=O)cc2)c1
REMARK SMILES IDX 23 1 24 2 25 3 26 4 31 5 32 6 22 7 10 8 11 9 12 10 21 11
REMARK SMILES IDX 9 12 3 13 4 14 33 15 5 16 6 17 2 18 1 19 7 20 8 21 13 22
REMARK SMILES IDX 14 23 19 24 15 25 18 26 17 27 20 28 16 29 27 30 29 31 30 32
REMARK SMILES IDX 28 33
REMARK H PARENT 28 34 28 35
ROOT
ATOM      1  C   UNL     1      12.055 -52.333 -23.766  1.00  0.00     0.060 A 
ATOM      2  C   UNL     1      11.388 -52.685 -22.577  1.00  0.00     0.029 A 
ATOM      3  C   UNL     1      10.988 -53.998 -22.311  1.00  0.00     0.024 A 
ATOM      4  C   UNL     1      11.263 -54.995 -23.242  1.00  0.00     0.082 A 
ATOM      5  C   UNL     1      11.905 -54.683 -24.440  1.00  0.00     0.024 A 
ATOM      6  C   UNL     1      12.295 -53.363 -24.691  1.00  0.00     0.029 A 
ENDROOT
BRANCH   1   7
ATOM      7  N   UNL     1      12.451 -51.016 -23.994  1.00  0.00    -0.257 N 
ATOM      8  C   UNL     1      13.353 -50.560 -25.056  1.00  0.00     0.148 C 
ATOM      9  C   UNL     1      13.129 -49.046 -25.048  1.00  0.00     0.091 C 
ATOM     10  C   UNL     1      12.385 -48.887 -23.748  1.00  0.00     0.074 C 
ATOM     11  N   UNL     1      11.988 -49.999 -23.210  1.00  0.00    -0.176 NA
BRANCH   8  12
ATOM     12  C   UNL     1      14.821 -50.889 -24.808  1.00  0.00     0.023 A 
ATOM     13  C   UNL     1      16.643 -51.491 -23.286  1.00  0.00     0.119 A 
ATOM     14  C   UNL     1      17.538 -51.450 -24.352  1.00  0.00     0.050 A 
ATOM     15  C   UNL     1      15.297 -51.206 -23.519  1.00  0.00     0.056 A 
ATOM     16  C   UNL     1      17.090 -51.119 -25.636  1.00  0.00     0.050 A 
ATOM     17  C   UNL     1      15.742 -50.833 -25.873  1.00  0.00     0.124 A 
BRANCH  13  18
ATOM     18  O   UNL     1      16.951 -51.788 -21.989  1.00  0.00    -0.497 OA
ATOM     19  C   UNL     1      17.786 -50.869 -21.295  1.00  0.00     0.278 C 
ENDBRANCH  13  18
BRANCH  17  20
ATOM     20  O   UNL     1      15.225 -50.478 -27.091  1.00  0.00    -0.496 OA
ATOM     21  C   UNL     1      15.794 -49.346 -27.740  1.00  0.00     0.278 C 
ENDBRANCH  17  20
ENDBRANCH   8  12
BRANCH  10  22
ATOM     22  C   UNL     1      12.108 -47.552 -23.173  1.00  0.00     0.037 A 
ATOM     23  C   UNL     1      11.252 -46.660 -23.831  1.00  0.00     0.052 A 
ATOM     24  C   UNL     1      12.693 -47.160 -21.963  1.00  0.00     0.132 A 
ATOM     25  C   UNL     1      11.000 -45.408 -23.274  1.00  0.00     0.124 A 
ATOM     26  C   UNL     1      12.433 -45.903 -21.414  1.00  0.00     0.043 A 
ATOM     27  C   UNL     1      11.580 -45.021 -22.072  1.00  0.00     0.042 A 
ATOM     28  F   UNL     1      13.532 -47.964 -21.294  1.00  0.00    -0.206 F 
ATOM     29  F   UNL     1      10.178 -44.563 -23.909  1.00  0.00    -0.207 F 
ENDBRANCH  10  22
ENDBRANCH   1   7
BRANCH   4  30
ATOM     30  S   UNL     1      10.787 -56.668 -22.914  1.00  0.00     0.238 S 
ATOM     31  O   UNL     1       9.418 -56.850 -23.334  1.00  0.00    -0.207 OA
ATOM     32  O   UNL     1      11.251 -57.032 -21.595  1.00  0.00    -0.207 OA
BRANCH  30  33
ATOM     33  N   UNL     1      11.774 -57.509 -23.991  1.00  0.00    -0.225 NA
ATOM     34  H   UNL     1      12.453 -58.107 -23.521  1.00  0.00     0.137 HD
ATOM     35  H   UNL     1      11.180 -58.042 -24.629  1.00  0.00     0.137 HD
ENDBRANCH  30  33
ENDBRANCH   4  30
TORSDOF 7
ENDMDL
MODEL 2
REMARK VINA RESULT:    -9.440      1.095      1.270
REMARK INTER + INTRA:         -14.473
REMARK INTER:                 -12.858
REMARK INTRA:                  -1.615
REMARK UNBOUND:                -1.445
REMARK SMILES COc1ccc(OC)c([C@@H]2CC(c3cc(F)ccc3F)=NN2c2ccc(S(N)(=O)=O)cc2)c1
REMARK SMILES IDX 23 1 24 2 25 3 26 4 31 5 32 6 22 7 10 8 11 9 12 10 21 11
REMARK SMILES IDX 9 12 3 13 4 14 33 15 5 16 6 17 2 18 1 19 7 20 8 21 13 22
REMARK SMILES IDX 14 23 19 24 15 25 18 26 17 27 20 28 16 29 27 30 29 31 30 32
REMARK SMILES IDX 28 33
REMARK H PARENT 28 34 28 35
ROOT
ATOM      1  C   UNL     1      12.058 -52.142 -23.601  1.00  0.00     0.060 A 
ATOM      2  C   UNL     1      11.427 -52.528 -22.403  1.00  0.00     0.029 A 
ATOM      3  C   UNL     1      10.994 -53.840 -22.181  1.00  0.00     0.024 A 
ATOM      4  C   UNL     1      11.201 -54.800 -23.167  1.00  0.00     0.082 A 
ATOM      5  C   UNL     1      11.806 -54.452 -24.374  1.00  0.00     0.024 A 
ATOM      6  C   UNL     1      12.229 -53.134 -24.580  1.00  0.00     0.029 A 
ENDROOT
BRANCH   1   7
ATOM      7  N   UNL     1      12.487 -50.829 -23.784  1.00  0.00    -0.257 N 
ATOM      8  C   UNL     1      13.604 -50.398 -24.631  1.00  0.00     0.148 C 
ATOM      9  C   UNL     1      13.375 -48.888 -24.734  1.00  0.00     0.091 C 
ATOM     10  C   UNL     1      12.354 -48.693 -23.643  1.00  0.00     0.074 C 
ATOM     11  N   UNL     1      11.852 -49.790 -23.166  1.00  0.00    -0.176 NA
BRANCH   8  12
ATOM     12  C   UNL     1      14.979 -50.696 -24.044  1.00  0.00     0.023 A 
ATOM     13  C   UNL     1      16.743 -50.239 -22.408  1.00  0.00     0.119 A 
ATOM     14  C   UNL     1      17.535 -51.221 -22.997  1.00  0.00     0.050 A 
ATOM     15  C   UNL     1      15.478 -49.981 -22.936  1.00  0.00     0.056 A 
ATOM     16  C   UNL     1      17.067 -51.932 -24.109  1.00  0.00     0.050 A 
ATOM     17  C   UNL     1      15.799 -51.674 -24.640  1.00  0.00     0.124 A 
BRANCH  13  18
ATOM     18  O   UNL     1      17.084 -49.471 -21.331  1.00  0.00    -0.497 OA
ATOM     19  C   UNL     1      18.338 -48.801 -21.384  1.00  0.00     0.278 C 
ENDBRANCH  13  18
BRANCH  17  20
ATOM     20  O   UNL     1      15.275 -52.304 -25.738  1.00  0.00    -0.496 OA
ATOM     21  C   UNL     1      15.466 -53.711 -25.841  1.00  0.00     0.278 C 
ENDBRANCH  17  20
ENDBRANCH   8  12
BRANCH  10  22
ATOM     22  C   UNL     1      11.946 -47.342 -23.199  1.00  0.00     0.037 A 
ATOM     23  C   UNL     1      11.072 -46.573 -23.977  1.00  0.00     0.052 A 
ATOM     24  C   UNL     1      12.423 -46.812 -21.993  1.00  0.00     0.132 A 
ATOM     25  C   UNL     1      10.696 -45.304 -23.542  1.00  0.00     0.124 A 
ATOM     26  C   UNL     1      12.039 -45.540 -21.567  1.00  0.00     0.043 A 
ATOM     27  C   UNL     1      11.169 -44.780 -22.344  1.00  0.00     0.042 A 
ATOM     28  F   UNL     1      13.273 -47.495 -21.213  1.00  0.00    -0.206 F 
ATOM     29  F   UNL     1       9.858 -44.577 -24.292  1.00  0.00    -0.207 F 
ENDBRANCH  10  22
ENDBRANCH   1   7
BRANCH   4  30
ATOM     30  S   UNL     1      10.684 -56.471 -22.896  1.00  0.00     0.238 S 
ATOM     31  O   UNL     1       9.303 -56.599 -23.298  1.00  0.00    -0.207 OA
ATOM     32  O   UNL     1      11.160 -56.900 -21.600  1.00  0.00    -0.207 OA
BRANCH  30  33
ATOM     33  N   UNL     1      11.630 -57.295 -24.023  1.00  0.00    -0.225 NA
ATOM     34  H   UNL     1      11.100 -57.587 -24.844  1.00  0.00     0.137 HD
ATOM     35  H   UNL     1      12.424 -56.704 -24.276  1.00  0.00     0.137 HD
ENDBRANCH  30  33
ENDBRANCH   4  30
TORSDOF 7
ENDMDL
MODEL 3
REMARK VINA RESULT:    -9.243      7.335     11.532
REMARK INTER + INTRA:         -14.201
REMARK INTER:                 -12.925
REMARK INTRA:                  -1.276
REMARK UNBOUND:                -1.445
REMARK SMILES COc1ccc(OC)c([C@@H]2CC(c3cc(F)ccc3F)=NN2c2ccc(S(N)(=O)=O)cc2)c1
REMARK SMILES IDX 23 1 24 2 25 3 26 4 31 5 32 6 22 7 10 8 11 9 12 10 21 11
REMARK SMILES IDX 9 12 3 13 4 14 33 15 5 16 6 17 2 18 1 19 7 20 8 21 13 22
REMARK SMILES IDX 14 23 19 24 15 25 18 26 17 27 20 28 16 29 27 30 29 31 30 32
REMARK SMILES IDX 28 33
REMARK H PARENT 28 34 28 35
ROOT
ATOM      1  C   UNL     1      10.360 -57.892 -23.273  1.00  0.00     0.060 A 
ATOM      2  C   UNL     1      11.335 -57.435 -22.366  1.00  0.00     0.029 A 
ATOM      3  C   UNL     1      11.325 -56.131 -21.859  1.00  0.00     0.024 A 
ATOM      4  C   UNL     1      10.316 -55.256 -22.253  1.00  0.00     0.082 A 
ATOM      5  C   UNL     1       9.343 -55.666 -23.164  1.00  0.00     0.024 A 
ATOM      6  C   UNL     1       9.372 -56.973 -23.663  1.00  0.00     0.029 A 
ENDROOT
BRANCH   1   7
ATOM      7  N   UNL     1      10.393 -59.201 -23.749  1.00  0.00    -0.257 N 
ATOM      8  C   UNL     1      11.488 -59.815 -24.506  1.00  0.00     0.148 C 
ATOM      9  C   UNL     1      11.147 -61.305 -24.429  1.00  0.00     0.091 C 
ATOM     10  C   UNL     1       9.729 -61.233 -23.923  1.00  0.00     0.074 C 
ATOM     11  N   UNL     1       9.357 -60.059 -23.516  1.00  0.00    -0.176 NA
BRANCH   8  12
ATOM     12  C   UNL     1      11.573 -59.355 -25.958  1.00  0.00     0.023 A 
ATOM     13  C   UNL     1      11.198 -59.753 -28.345  1.00  0.00     0.119 A 
ATOM     14  C   UNL     1      11.776 -58.520 -28.634  1.00  0.00     0.050 A 
ATOM     15  C   UNL     1      11.106 -60.163 -27.014  1.00  0.00     0.056 A 
ATOM     16  C   UNL     1      12.264 -57.709 -27.602  1.00  0.00     0.050 A 
ATOM     17  C   UNL     1      12.172 -58.118 -26.268  1.00  0.00     0.124 A 
BRANCH  13  18
ATOM     18  O   UNL     1      10.696 -60.639 -29.255  1.00  0.00    -0.497 OA
ATOM     19  C   UNL     1       9.749 -61.588 -28.781  1.00  0.00     0.278 C 
ENDBRANCH  13  18
BRANCH  17  20
ATOM     20  O   UNL     1      12.644 -57.400 -25.201  1.00  0.00    -0.496 OA
ATOM     21  C   UNL     1      12.723 -55.986 -25.346  1.00  0.00     0.278 C 
ENDBRANCH  17  20
ENDBRANCH   8  12
BRANCH  10  22
ATOM     22  C   UNL     1       8.866 -62.434 -23.870  1.00  0.00     0.037 A 
ATOM     23  C   UNL     1       8.034 -62.759 -24.947  1.00  0.00     0.052 A 
ATOM     24  C   UNL     1       8.871 -63.266 -22.743  1.00  0.00     0.132 A 
ATOM     25  C   UNL     1       7.231 -63.895 -24.881  1.00  0.00     0.124 A 
ATOM     26  C   UNL     1       8.062 -64.402 -22.687  1.00  0.00     0.043 A 
ATOM     27  C   UNL     1       7.237 -64.721 -23.763  1.00  0.00     0.042 A 
ATOM     28  F   UNL     1       9.635 -62.999 -21.674  1.00  0.00    -0.206 F 
ATOM     29  F   UNL     1       6.440 -64.199 -25.918  1.00  0.00    -0.207 F 
ENDBRANCH  10  22
ENDBRANCH   1   7
BRANCH   4  30
ATOM     30  S   UNL     1      10.270 -53.610 -21.605  1.00  0.00     0.238 S 
ATOM     31  O   UNL     1      10.701 -53.643 -20.227  1.00  0.00    -0.207 OA
ATOM     32  O   UNL     1       9.037 -52.982 -22.020  1.00  0.00    -0.207 OA
BRANCH  30  33
ATOM     33  N   UNL     1      11.485 -52.866 -22.509  1.00  0.00    -0.225 NA
ATOM     34  H   UNL     1      11.323 -52.927 -23.514  1.00  0.00     0.137 HD
ATOM     35  H   UNL     1      11.573 -51.897 -22.198  1.00  0.00     0.137 HD
ENDBRANCH  30  33
ENDBRANCH   4  30
TORSDOF 7
ENDMDL
MODEL 4
REMARK VINA RESULT:    -8.541      4.256      7.027
REMARK INTER + INTRA:         -13.231
REMARK INTER:                 -11.479
REMARK INTRA:                  -1.753
REMARK UNBOUND:                -1.445
REMARK SMILES COc1ccc(OC)c([C@@H]2CC(c3cc(F)ccc3F)=NN2c2ccc(S(N)(=O)=O)cc2)c1
REMARK SMILES IDX 23 1 24 2 25 3 26 4 31 5 32 6 22 7 10 8 11 9 12 10 21 11
REMARK SMILES IDX 9 12 3 13 4 14 33 15 5 16 6 17 2 18 1 19 7 20 8 21 13 22
REMARK SMILES IDX 14 23 19 24 15 25 18 26 17 27 20 28 16 29 27 30 29 31 30 32
REMARK SMILES IDX 28 33
REMARK H PARENT 28 34 28 35
ROOT
ATOM      1  C   UNL     1      16.866 -51.311 -25.046  1.00  0.00     0.060 A 
ATOM      2  C   UNL     1      17.552 -50.373 -24.251  1.00  0.00     0.029 A 
ATOM      3  C   UNL     1      18.949 -50.337 -24.183  1.00  0.00     0.024 A 
ATOM      4  C   UNL     1      19.690 -51.248 -24.931  1.00  0.00     0.082 A 
ATOM      5  C   UNL     1      19.047 -52.204 -25.716  1.00  0.00     0.024 A 
ATOM      6  C   UNL     1      17.648 -52.227 -25.768  1.00  0.00     0.029 A 
ENDROOT
BRANCH   1   7
ATOM      7  N   UNL     1      15.474 -51.311 -25.099  1.00  0.00    -0.257 N 
ATOM      8  C   UNL     1      14.655 -50.846 -26.223  1.00  0.00     0.148 C 
ATOM      9  C   UNL     1      13.276 -51.413 -25.881  1.00  0.00     0.091 C 
ATOM     10  C   UNL     1      13.495 -51.816 -24.446  1.00  0.00     0.074 C 
ATOM     11  N   UNL     1      14.732 -51.786 -24.056  1.00  0.00    -0.176 NA
BRANCH   8  12
ATOM     12  C   UNL     1      14.595 -49.328 -26.361  1.00  0.00     0.023 A 
ATOM     13  C   UNL     1      13.787 -47.148 -25.591  1.00  0.00     0.119 A 
ATOM     14  C   UNL     1      14.452 -46.535 -26.649  1.00  0.00     0.050 A 
ATOM     15  C   UNL     1      13.858 -48.535 -25.458  1.00  0.00     0.056 A 
ATOM     16  C   UNL     1      15.176 -47.305 -27.568  1.00  0.00     0.050 A 
ATOM     17  C   UNL     1      15.249 -48.695 -27.436  1.00  0.00     0.124 A 
BRANCH  13  18
ATOM     18  O   UNL     1      13.041 -46.517 -24.636  1.00  0.00    -0.497 OA
ATOM     19  C   UNL     1      11.712 -46.982 -24.440  1.00  0.00     0.278 C 
ENDBRANCH  13  18
BRANCH  17  20
ATOM     20  O   UNL     1      15.912 -49.524 -28.303  1.00  0.00    -0.496 OA
ATOM     21  C   UNL     1      17.331 -49.419 -28.354  1.00  0.00     0.278 C 
ENDBRANCH  17  20
ENDBRANCH   8  12
BRANCH  10  22
ATOM     22  C   UNL     1      12.371 -52.246 -23.584  1.00  0.00     0.037 A 
ATOM     23  C   UNL     1      11.736 -53.474 -23.805  1.00  0.00     0.052 A 
ATOM     24  C   UNL     1      11.929 -51.434 -22.531  1.00  0.00     0.132 A 
ATOM     25  C   UNL     1      10.683 -53.864 -22.981  1.00  0.00     0.124 A 
ATOM     26  C   UNL     1      10.872 -51.836 -21.712  1.00  0.00     0.043 A 
ATOM     27  C   UNL     1      10.245 -53.059 -21.936  1.00  0.00     0.042 A 
ATOM     28  F   UNL     1      12.488 -50.242 -22.279  1.00  0.00    -0.206 F 
ATOM     29  F   UNL     1      10.083 -55.041 -23.200  1.00  0.00    -0.207 F 
ENDBRANCH  10  22
ENDBRANCH   1   7
BRANCH   4  30
ATOM     30  S   UNL     1      21.458 -51.203 -24.879  1.00  0.00     0.238 S 
ATOM     31  O   UNL     1      21.889 -51.473 -23.528  1.00  0.00    -0.207 OA
ATOM     32  O   UNL     1      21.916 -50.054 -25.626  1.00  0.00    -0.207 OA
BRANCH  30  33
ATOM     33  N   UNL     1      21.850 -52.544 -25.824  1.00  0.00    -0.225 NA
ATOM     34  H   UNL     1      21.160 -53.292 -25.754  1.00  0.00     0.137 HD
ATOM     35  H   UNL     1      21.975 -52.235 -26.790  1.00  0.00     0.137 HD
ENDBRANCH  30  33
ENDBRANCH   4  30
TORSDOF 7
ENDMDL
MODEL 5
REMARK VINA RESULT:    -8.295      2.112      2.853
REMARK INTER + INTRA:         -12.892
REMARK INTER:                 -11.321
REMARK INTRA:                  -1.571
REMARK UNBOUND:                -1.445
REMARK SMILES COc1ccc(OC)c([C@@H]2CC(c3cc(F)ccc3F)=NN2c2ccc(S(N)(=O)=O)cc2)c1
REMARK SMILES IDX 23 1 24 2 25 3 26 4 31 5 32 6 22 7 10 8 11 9 12 10 21 11
REMARK SMILES IDX 9 12 3 13 4 14 33 15 5 16 6 17 2 18 1 19 7 20 8 21 13 22
REMARK SMILES IDX 14 23 19 24 15 25 18 26 17 27 20 28 16 29 27 30 29 31 30 32
REMARK SMILES IDX 28 33
REMARK H PARENT 28 34 28 35
ROOT
ATOM      1  C   UNL     1      12.542 -50.645 -23.248  1.00  0.00     0.060 A 
ATOM      2  C   UNL     1      12.710 -51.703 -24.162  1.00  0.00     0.029 A 
ATOM      3  C   UNL     1      12.081 -52.940 -23.990  1.00  0.00     0.024 A 
ATOM      4  C   UNL     1      11.253 -53.135 -22.889  1.00  0.00     0.082 A 
ATOM      5  C   UNL     1      11.075 -52.118 -21.952  1.00  0.00     0.024 A 
ATOM      6  C   UNL     1      11.716 -50.888 -22.137  1.00  0.00     0.029 A 
ENDROOT
BRANCH   1   7
ATOM      7  N   UNL     1      13.174 -49.421 -23.456  1.00  0.00    -0.257 N 
ATOM      8  C   UNL     1      14.528 -49.230 -23.985  1.00  0.00     0.148 C 
ATOM      9  C   UNL     1      14.537 -47.740 -24.333  1.00  0.00     0.091 C 
ATOM     10  C   UNL     1      13.291 -47.286 -23.619  1.00  0.00     0.074 C 
ATOM     11  N   UNL     1      12.536 -48.246 -23.180  1.00  0.00    -0.176 NA
BRANCH   8  12
ATOM     12  C   UNL     1      15.636 -49.560 -22.991  1.00  0.00     0.023 A 
ATOM     13  C   UNL     1      17.036 -48.944 -21.078  1.00  0.00     0.119 A 
ATOM     14  C   UNL     1      17.711 -50.156 -21.191  1.00  0.00     0.050 A 
ATOM     15  C   UNL     1      16.010 -48.653 -21.978  1.00  0.00     0.056 A 
ATOM     16  C   UNL     1      17.369 -51.064 -22.200  1.00  0.00     0.050 A 
ATOM     17  C   UNL     1      16.341 -50.774 -23.103  1.00  0.00     0.124 A 
BRANCH  13  18
ATOM     18  O   UNL     1      17.278 -47.971 -20.149  1.00  0.00    -0.497 OA
ATOM     19  C   UNL     1      18.363 -48.186 -19.255  1.00  0.00     0.278 C 
ENDBRANCH  13  18
BRANCH  17  20
ATOM     20  O   UNL     1      15.959 -51.593 -24.133  1.00  0.00    -0.496 OA
ATOM     21  C   UNL     1      16.891 -52.576 -24.571  1.00  0.00     0.278 C 
ENDBRANCH  17  20
ENDBRANCH   8  12
BRANCH  10  22
ATOM     22  C   UNL     1      12.958 -45.851 -23.481  1.00  0.00     0.037 A 
ATOM     23  C   UNL     1      12.565 -45.103 -24.597  1.00  0.00     0.052 A 
ATOM     24  C   UNL     1      13.027 -45.219 -22.233  1.00  0.00     0.132 A 
ATOM     25  C   UNL     1      12.252 -43.754 -24.448  1.00  0.00     0.124 A 
ATOM     26  C   UNL     1      12.711 -43.866 -22.095  1.00  0.00     0.043 A 
ATOM     27  C   UNL     1      12.320 -43.128 -23.208  1.00  0.00     0.042 A 
ATOM     28  F   UNL     1      13.411 -45.879 -21.131  1.00  0.00    -0.206 F 
ATOM     29  F   UNL     1      11.875 -43.047 -25.521  1.00  0.00    -0.207 F 
ENDBRANCH  10  22
ENDBRANCH   1   7
BRANCH   4  30
ATOM     30  S   UNL     1      10.428 -54.685 -22.666  1.00  0.00     0.238 S 
ATOM     31  O   UNL     1      11.303 -55.575 -21.940  1.00  0.00    -0.207 OA
ATOM     32  O   UNL     1       9.797 -55.059 -23.912  1.00  0.00    -0.207 OA
BRANCH  30  33
ATOM     33  N   UNL     1       9.169 -54.243 -21.635  1.00  0.00    -0.225 NA
ATOM     34  H   UNL     1       8.395 -54.907 -21.648  1.00  0.00     0.137 HD
ATOM     35  H   UNL     1       9.547 -54.123 -20.693  1.00  0.00     0.137 HD
ENDBRANCH  30  33
ENDBRANCH   4  30
TORSDOF 7
ENDMDL
MODEL 6
REMARK VINA RESULT:    -8.116      3.361      6.082
REMARK INTER + INTRA:         -12.645
REMARK INTER:                 -11.186
REMARK INTRA:                  -1.459
REMARK UNBOUND:                -1.445
REMARK SMILES COc1ccc(OC)c([C@@H]2CC(c3cc(F)ccc3F)=NN2c2ccc(S(N)(=O)=O)cc2)c1
REMARK SMILES IDX 23 1 24 2 25 3 26 4 31 5 32 6 22 7 10 8 11 9 12 10 21 11
REMARK SMILES IDX 9 12 3 13 4 14 33 15 5 16 6 17 2 18 1 19 7 20 8 21 13 22
REMARK SMILES IDX 14 23 19 24 15 25 18 26 17 27 20 28 16 29 27 30 29 31 30 32
REMARK SMILES IDX 28 33
REMARK H PARENT 28 34 28 35
ROOT
ATOM      1  C   UNL     1      13.148 -50.368 -24.173  1.00  0.00     0.060 A 
ATOM      2  C   UNL     1      13.076 -51.735 -24.506  1.00  0.00     0.029 A 
ATOM      3  C   UNL     1      12.179 -52.606 -23.879  1.00  0.00     0.024 A 
ATOM      4  C   UNL     1      11.321 -52.111 -22.902  1.00  0.00     0.082 A 
ATOM      5  C   UNL     1      11.374 -50.768 -22.532  1.00  0.00     0.024 A 
ATOM      6  C   UNL     1      12.281 -49.911 -23.167  1.00  0.00     0.029 A 
ENDROOT
BRANCH   1   7
ATOM      7  N   UNL     1      14.045 -49.526 -24.826  1.00  0.00    -0.257 N 
ATOM      8  C   UNL     1      15.024 -48.644 -24.182  1.00  0.00     0.148 C 
ATOM      9  C   UNL     1      15.943 -48.267 -25.346  1.00  0.00     0.091 C 
ATOM     10  C   UNL     1      15.113 -48.740 -26.512  1.00  0.00     0.074 C 
ATOM     11  N   UNL     1      14.090 -49.471 -26.190  1.00  0.00    -0.176 NA
BRANCH   8  12
ATOM     12  C   UNL     1      14.415 -47.397 -23.550  1.00  0.00     0.023 A 
ATOM     13  C   UNL     1      13.191 -45.285 -23.753  1.00  0.00     0.119 A 
ATOM     14  C   UNL     1      13.335 -45.079 -22.384  1.00  0.00     0.050 A 
ATOM     15  C   UNL     1      13.735 -46.436 -24.325  1.00  0.00     0.056 A 
ATOM     16  C   UNL     1      14.022 -46.011 -21.597  1.00  0.00     0.050 A 
ATOM     17  C   UNL     1      14.567 -47.165 -22.169  1.00  0.00     0.124 A 
BRANCH  13  18
ATOM     18  O   UNL     1      12.557 -44.452 -24.630  1.00  0.00    -0.497 OA
ATOM     19  C   UNL     1      11.368 -43.816 -24.174  1.00  0.00     0.278 C 
ENDBRANCH  13  18
BRANCH  17  20
ATOM     20  O   UNL     1      15.273 -48.115 -21.478  1.00  0.00    -0.496 OA
ATOM     21  C   UNL     1      16.455 -47.694 -20.807  1.00  0.00     0.278 C 
ENDBRANCH  17  20
ENDBRANCH   8  12
BRANCH  10  22
ATOM     22  C   UNL     1      15.485 -48.416 -27.907  1.00  0.00     0.037 A 
ATOM     23  C   UNL     1      14.780 -47.439 -28.621  1.00  0.00     0.052 A 
ATOM     24  C   UNL     1      16.548 -49.077 -28.534  1.00  0.00     0.132 A 
ATOM     25  C   UNL     1      15.146 -47.144 -29.932  1.00  0.00     0.124 A 
ATOM     26  C   UNL     1      16.906 -48.774 -29.849  1.00  0.00     0.043 A 
ATOM     27  C   UNL     1      16.203 -47.800 -30.553  1.00  0.00     0.042 A 
ATOM     28  F   UNL     1      17.250 -50.032 -27.908  1.00  0.00    -0.206 F 
ATOM     29  F   UNL     1      14.468 -46.206 -30.605  1.00  0.00    -0.207 F 
ENDBRANCH  10  22
ENDBRANCH   1   7
BRANCH   4  30
ATOM     30  S   UNL     1      10.161 -53.191 -22.114  1.00  0.00     0.238 S 
ATOM     31  O   UNL     1      10.545 -53.351 -20.731  1.00  0.00    -0.207 OA
ATOM     32  O   UNL     1       9.907 -54.315 -22.986  1.00  0.00    -0.207 OA
BRANCH  30  33
ATOM     33  N   UNL     1       8.759 -52.256 -22.157  1.00  0.00    -0.225 NA
ATOM     34  H   UNL     1       8.602 -51.820 -23.065  1.00  0.00     0.137 HD
ATOM     35  H   UNL     1       7.969 -52.841 -21.877  1.00  0.00     0.137 HD
ENDBRANCH  30  33
ENDBRANCH   4  30
TORSDOF 7
ENDMDL
MODEL 7
REMARK VINA RESULT:    -7.867      4.007      6.946
REMARK INTER + INTRA:         -12.301
REMARK INTER:                 -10.885
REMARK INTRA:                  -1.416
REMARK UNBOUND:                -1.445
REMARK SMILES COc1ccc(OC)c([C@@H]2CC(c3cc(F)ccc3F)=NN2c2ccc(S(N)(=O)=O)cc2)c1
REMARK SMILES IDX 23 1 24 2 25 3 26 4 31 5 32 6 22 7 10 8 11 9 12 10 21 11
REMARK SMILES IDX 9 12 3 13 4 14 33 15 5 16 6 17 2 18 1 19 7 20 8 21 13 22
REMARK SMILES IDX 14 23 19 24 15 25 18 26 17 27 20 28 16 29 27 30 29 31 30 32
REMARK SMILES IDX 28 33
REMARK H PARENT 28 34 28 35
ROOT
ATOM      1  C   UNL     1      15.148 -48.301 -26.248  1.00  0.00     0.060 A 
ATOM      2  C   UNL     1      15.305 -49.264 -27.263  1.00  0.00     0.029 A 
ATOM      3  C   UNL     1      15.162 -48.946 -28.618  1.00  0.00     0.024 A 
ATOM      4  C   UNL     1      14.865 -47.635 -28.980  1.00  0.00     0.082 A 
ATOM      5  C   UNL     1      14.684 -46.657 -28.004  1.00  0.00     0.024 A 
ATOM      6  C   UNL     1      14.827 -46.995 -26.653  1.00  0.00     0.029 A 
ENDROOT
BRANCH   1   7
ATOM      7  N   UNL     1      15.309 -48.650 -24.909  1.00  0.00    -0.257 N 
ATOM      8  C   UNL     1      15.646 -49.984 -24.401  1.00  0.00     0.148 C 
ATOM      9  C   UNL     1      16.045 -49.693 -22.953  1.00  0.00     0.091 C 
ATOM     10  C   UNL     1      15.534 -48.283 -22.808  1.00  0.00     0.074 C 
ATOM     11  N   UNL     1      15.171 -47.720 -23.920  1.00  0.00    -0.176 NA
BRANCH   8  12
ATOM     12  C   UNL     1      14.492 -50.979 -24.454  1.00  0.00     0.023 A 
ATOM     13  C   UNL     1      12.268 -51.705 -23.730  1.00  0.00     0.119 A 
ATOM     14  C   UNL     1      12.389 -52.843 -24.522  1.00  0.00     0.050 A 
ATOM     15  C   UNL     1      13.319 -50.787 -23.697  1.00  0.00     0.056 A 
ATOM     16  C   UNL     1      13.553 -53.063 -25.269  1.00  0.00     0.050 A 
ATOM     17  C   UNL     1      14.607 -52.145 -25.238  1.00  0.00     0.124 A 
BRANCH  13  18
ATOM     18  O   UNL     1      11.196 -51.378 -22.949  1.00  0.00    -0.497 OA
ATOM     19  C   UNL     1      10.630 -52.417 -22.159  1.00  0.00     0.278 C 
ENDBRANCH  13  18
BRANCH  17  20
ATOM     20  O   UNL     1      15.787 -52.294 -25.916  1.00  0.00    -0.496 OA
ATOM     21  C   UNL     1      16.661 -53.335 -25.492  1.00  0.00     0.278 C 
ENDBRANCH  17  20
ENDBRANCH   8  12
BRANCH  10  22
ATOM     22  C   UNL     1      15.498 -47.604 -21.493  1.00  0.00     0.037 A 
ATOM     23  C   UNL     1      16.681 -47.155 -20.894  1.00  0.00     0.052 A 
ATOM     24  C   UNL     1      14.282 -47.398 -20.830  1.00  0.00     0.132 A 
ATOM     25  C   UNL     1      16.629 -46.515 -19.658  1.00  0.00     0.124 A 
ATOM     26  C   UNL     1      14.241 -46.755 -19.591  1.00  0.00     0.043 A 
ATOM     27  C   UNL     1      15.421 -46.309 -19.001  1.00  0.00     0.042 A 
ATOM     28  F   UNL     1      13.119 -47.818 -21.346  1.00  0.00    -0.206 F 
ATOM     29  F   UNL     1      17.765 -46.087 -19.094  1.00  0.00    -0.207 F 
ENDBRANCH  10  22
ENDBRANCH   1   7
BRANCH   4  30
ATOM     30  S   UNL     1      14.705 -47.206 -30.690  1.00  0.00     0.238 S 
ATOM     31  O   UNL     1      14.472 -48.411 -31.450  1.00  0.00    -0.207 OA
ATOM     32  O   UNL     1      15.743 -46.260 -31.030  1.00  0.00    -0.207 OA
BRANCH  30  33
ATOM     33  N   UNL     1      13.270 -46.320 -30.674  1.00  0.00    -0.225 NA
ATOM     34  H   UNL     1      13.079 -45.862 -31.565  1.00  0.00     0.137 HD
ATOM     35  H   UNL     1      12.507 -46.941 -30.397  1.00  0.00     0.137 HD
ENDBRANCH  30  33
ENDBRANCH   4  30
TORSDOF 7
ENDMDL
MODEL 8
REMARK VINA RESULT:    -7.817      4.070      7.047
REMARK INTER + INTRA:         -12.233
REMARK INTER:                 -10.541
REMARK INTRA:                  -1.692
REMARK UNBOUND:                -1.445
REMARK SMILES COc1ccc(OC)c([C@@H]2CC(c3cc(F)ccc3F)=NN2c2ccc(S(N)(=O)=O)cc2)c1
REMARK SMILES IDX 23 1 24 2 25 3 26 4 31 5 32 6 22 7 10 8 11 9 12 10 21 11
REMARK SMILES IDX 9 12 3 13 4 14 33 15 5 16 6 17 2 18 1 19 7 20 8 21 13 22
REMARK SMILES IDX 14 23 19 24 15 25 18 26 17 27 20 28 16 29 27 30 29 31 30 32
REMARK SMILES IDX 28 33
REMARK H PARENT 28 34 28 35
ROOT
ATOM      1  C   UNL     1      16.478 -50.681 -23.835  1.00  0.00     0.060 A 
ATOM      2  C   UNL     1      16.817 -50.031 -22.633  1.00  0.00     0.029 A 
ATOM      3  C   UNL     1      18.147 -49.818 -22.253  1.00  0.00     0.024 A 
ATOM      4  C   UNL     1      19.170 -50.251 -23.090  1.00  0.00     0.082 A 
ATOM      5  C   UNL     1      18.875 -50.915 -24.280  1.00  0.00     0.024 A 
ATOM      6  C   UNL     1      17.539 -51.123 -24.642  1.00  0.00     0.029 A 
ENDROOT
BRANCH   1   7
ATOM      7  N   UNL     1      15.143 -50.866 -24.188  1.00  0.00    -0.257 N 
ATOM      8  C   UNL     1      14.527 -50.477 -25.460  1.00  0.00     0.148 C 
ATOM      9  C   UNL     1      13.198 -51.236 -25.428  1.00  0.00     0.091 C 
ATOM     10  C   UNL     1      13.159 -51.653 -23.980  1.00  0.00     0.074 C 
ATOM     11  N   UNL     1      14.268 -51.471 -23.332  1.00  0.00    -0.176 NA
BRANCH   8  12
ATOM     12  C   UNL     1      14.289 -48.978 -25.603  1.00  0.00     0.023 A 
ATOM     13  C   UNL     1      13.028 -46.956 -25.034  1.00  0.00     0.119 A 
ATOM     14  C   UNL     1      13.827 -46.221 -25.905  1.00  0.00     0.050 A 
ATOM     15  C   UNL     1      13.260 -48.325 -24.893  1.00  0.00     0.056 A 
ATOM     16  C   UNL     1      14.843 -46.852 -26.634  1.00  0.00     0.050 A 
ATOM     17  C   UNL     1      15.077 -48.224 -26.494  1.00  0.00     0.124 A 
BRANCH  13  18
ATOM     18  O   UNL     1      12.002 -46.466 -24.277  1.00  0.00    -0.497 OA
ATOM     19  C   UNL     1      12.014 -46.781 -22.890  1.00  0.00     0.278 C 
ENDBRANCH  13  18
BRANCH  17  20
ATOM     20  O   UNL     1      16.032 -48.923 -27.185  1.00  0.00    -0.496 OA
ATOM     21  C   UNL     1      15.874 -49.030 -28.595  1.00  0.00     0.278 C 
ENDBRANCH  17  20
ENDBRANCH   8  12
BRANCH  10  22
ATOM     22  C   UNL     1      11.947 -52.258 -23.383  1.00  0.00     0.037 A 
ATOM     23  C   UNL     1      11.579 -53.570 -23.702  1.00  0.00     0.052 A 
ATOM     24  C   UNL     1      11.154 -51.530 -22.487  1.00  0.00     0.132 A 
ATOM     25  C   UNL     1      10.438 -54.125 -23.127  1.00  0.00     0.124 A 
ATOM     26  C   UNL     1      10.012 -52.096 -21.917  1.00  0.00     0.043 A 
ATOM     27  C   UNL     1       9.651 -53.403 -22.237  1.00  0.00     0.042 A 
ATOM     28  F   UNL     1      11.448 -50.265 -22.155  1.00  0.00    -0.206 F 
ATOM     29  F   UNL     1      10.094 -55.382 -23.437  1.00  0.00    -0.207 F 
ENDBRANCH  10  22
ENDBRANCH   1   7
BRANCH   4  30
ATOM     30  S   UNL     1      20.859 -49.970 -22.640  1.00  0.00     0.238 S 
ATOM     31  O   UNL     1      21.036 -48.563 -22.366  1.00  0.00    -0.207 OA
ATOM     32  O   UNL     1      21.710 -50.697 -23.554  1.00  0.00    -0.207 OA
BRANCH  30  33
ATOM     33  N   UNL     1      20.952 -50.798 -21.175  1.00  0.00    -0.225 NA
ATOM     34  H   UNL     1      20.483 -50.308 -20.413  1.00  0.00     0.137 HD
ATOM     35  H   UNL     1      20.575 -51.738 -21.308  1.00  0.00     0.137 HD
ENDBRANCH  30  33
ENDBRANCH   4  30
TORSDOF 7
ENDMDL
MODEL 9
REMARK VINA RESULT:    -7.807      3.668      6.261
REMARK INTER + INTRA:         -12.219
REMARK INTER:                 -10.769
REMARK INTRA:                  -1.450
REMARK UNBOUND:                -1.445
REMARK SMILES COc1ccc(OC)c([C@@H]2CC(c3cc(F)ccc3F)=NN2c2ccc(S(N)(=O)=O)cc2)c1
REMARK SMILES IDX 23 1 24 2 25 3 26 4 31 5 32 6 22 7 10 8 11 9 12 10 21 11
REMARK SMILES IDX 9 12 3 13 4 14 33 15 5 16 6 17 2 18 1 19 7 20 8 21 13 22
REMARK SMILES IDX 14 23 19 24 15 25 18 26 17 27 20 28 16 29 27 30 29 31 30 32
REMARK SMILES IDX 28 33
REMARK H PARENT 28 34 28 35
ROOT
ATOM      1  C   UNL     1      15.569 -48.533 -22.100  1.00  0.00     0.060 A 
ATOM      2  C   UNL     1      16.037 -47.856 -20.957  1.00  0.00     0.029 A 
ATOM      3  C   UNL     1      17.152 -48.298 -20.237  1.00  0.00     0.024 A 
ATOM      4  C   UNL     1      17.830 -49.435 -20.663  1.00  0.00     0.082 A 
ATOM      5  C   UNL     1      17.387 -50.144 -21.779  1.00  0.00     0.024 A 
ATOM      6  C   UNL     1      16.267 -49.690 -22.486  1.00  0.00     0.029 A 
ENDROOT
BRANCH   1   7
ATOM      7  N   UNL     1      14.463 -48.059 -22.801  1.00  0.00    -0.257 N 
ATOM      8  C   UNL     1      13.230 -48.805 -23.072  1.00  0.00     0.148 C 
ATOM      9  C   UNL     1      12.272 -47.702 -23.526  1.00  0.00     0.091 C 
ATOM     10  C   UNL     1      13.244 -46.573 -23.752  1.00  0.00     0.074 C 
ATOM     11  N   UNL     1      14.441 -46.789 -23.301  1.00  0.00    -0.176 NA
BRANCH   8  12
ATOM     12  C   UNL     1      13.374 -49.873 -24.151  1.00  0.00     0.023 A 
ATOM     13  C   UNL     1      14.152 -50.575 -26.365  1.00  0.00     0.119 A 
ATOM     14  C   UNL     1      13.595 -51.833 -26.154  1.00  0.00     0.050 A 
ATOM     15  C   UNL     1      14.033 -49.606 -25.368  1.00  0.00     0.056 A 
ATOM     16  C   UNL     1      12.920 -52.115 -24.960  1.00  0.00     0.050 A 
ATOM     17  C   UNL     1      12.800 -51.145 -23.960  1.00  0.00     0.124 A 
BRANCH  13  18
ATOM     18  O   UNL     1      14.823 -50.170 -27.483  1.00  0.00    -0.497 OA
ATOM     19  C   UNL     1      14.935 -48.769 -27.700  1.00  0.00     0.278 C 
ENDBRANCH  13  18
BRANCH  17  20
ATOM     20  O   UNL     1      12.137 -51.329 -22.775  1.00  0.00    -0.496 OA
ATOM     21  C   UNL     1      11.395 -52.533 -22.618  1.00  0.00     0.278 C 
ENDBRANCH  17  20
ENDBRANCH   8  12
BRANCH  10  22
ATOM     22  C   UNL     1      12.825 -45.312 -24.404  1.00  0.00     0.037 A 
ATOM     23  C   UNL     1      11.902 -44.463 -23.781  1.00  0.00     0.052 A 
ATOM     24  C   UNL     1      13.349 -44.945 -25.650  1.00  0.00     0.132 A 
ATOM     25  C   UNL     1      11.523 -43.278 -24.407  1.00  0.00     0.124 A 
ATOM     26  C   UNL     1      12.961 -43.755 -26.269  1.00  0.00     0.043 A 
ATOM     27  C   UNL     1      12.044 -42.914 -25.644  1.00  0.00     0.042 A 
ATOM     28  F   UNL     1      14.224 -45.723 -26.302  1.00  0.00    -0.206 F 
ATOM     29  F   UNL     1      10.641 -42.472 -23.803  1.00  0.00    -0.207 F 
ENDBRANCH  10  22
ENDBRANCH   1   7
BRANCH   4  30
ATOM     30  S   UNL     1      19.258 -49.997 -19.780  1.00  0.00     0.238 S 
ATOM     31  O   UNL     1      19.802 -48.890 -19.030  1.00  0.00    -0.207 OA
ATOM     32  O   UNL     1      20.062 -50.807 -20.665  1.00  0.00    -0.207 OA
BRANCH  30  33
ATOM     33  N   UNL     1      18.564 -51.074 -18.683  1.00  0.00    -0.225 NA
ATOM     34  H   UNL     1      18.344 -50.638 -17.788  1.00  0.00     0.137 HD
ATOM     35  H   UNL     1      17.737 -51.490 -19.115  1.00  0.00     0.137 HD
ENDBRANCH  30  33
ENDBRANCH   4  30
TORSDOF 7
ENDMDL
