MODEL 1
REMARK VINA RESULT:   -10.819      0.000      0.000
REMARK INTER + INTRA:         -16.974
REMARK INTER:                 -15.879
REMARK INTRA:                  -1.095
REMARK UNBOUND:                -1.095
REMARK SMILES C[N@H+](CCC(=O)N1CC[NH+](CCN=c2c3c([nH]c4ccccc24)CCCC3)CC1)C1CCCCC1
REMARK SMILES IDX 10 1 9 2 8 3 7 4 5 5 6 6 29 7 28 8 11 10 12 11 13 12 14 13
REMARK SMILES IDX 17 14 16 15 18 16 15 17 24 18 19 19 23 20 27 21 25 22 20 23
REMARK SMILES IDX 22 24 26 25 21 26 4 28 3 29 2 30 1 31 30 33 31 34 35 35
REMARK SMILES IDX 32 36 34 37 33 38
REMARK H PARENT 10 9 17 27 2 32
ROOT
ATOM      1  N   UNL     1      10.526 -56.063 -23.338  1.00  0.00    -0.330 N 
ATOM      2  C   UNL     1      11.750 -55.473 -24.030  1.00  0.00     0.284 C 
ATOM      3  C   UNL     1      11.639 -53.946 -24.208  1.00  0.00     0.181 C 
ATOM      4  N   UNL     1      11.414 -53.238 -22.937  1.00  0.00    -0.331 N 
ATOM      5  C   UNL     1      11.765 -51.923 -22.683  1.00  0.00     0.228 C 
ATOM      6  O   UNL     1      11.636 -51.417 -21.566  1.00  0.00    -0.275 OA
ATOM      7  C   UNL     1      10.777 -54.014 -21.860  1.00  0.00     0.181 C 
ATOM      8  C   UNL     1       9.818 -55.085 -22.397  1.00  0.00     0.284 C 
ATOM      9  H   UNL     1       9.834 -56.293 -24.065  1.00  0.00     0.348 HD
ENDROOT
BRANCH   1  10
ATOM     10  C   UNL     1      10.829 -57.384 -22.640  1.00  0.00     0.286 C 
BRANCH  10  11
ATOM     11  C   UNL     1       9.855 -58.500 -23.056  1.00  0.00     0.204 C 
BRANCH  11  12
ATOM     12  N   UNL     1      10.651 -59.671 -23.345  1.00  0.00    -0.278 NA
BRANCH  12  13
ATOM     13  C   UNL     1      10.436 -60.492 -24.323  1.00  0.00     0.072 A 
ATOM     14  N   UNL     1       8.979 -61.815 -26.315  1.00  0.00    -0.358 N 
ATOM     15  C   UNL     1       8.932 -62.289 -25.016  1.00  0.00     0.021 A 
ATOM     16  C   UNL     1      10.049 -60.999 -26.720  1.00  0.00     0.048 A 
ATOM     17  C   UNL     1       9.633 -61.726 -24.012  1.00  0.00    -0.003 A 
ATOM     18  C   UNL     1       8.037 -63.487 -24.771  1.00  0.00     0.054 C 
ATOM     19  C   UNL     1      10.324 -60.815 -28.080  1.00  0.00     0.027 A 
ATOM     20  C   UNL     1      10.839 -60.342 -25.759  1.00  0.00     0.024 A 
ATOM     21  C   UNL     1       9.610 -62.219 -22.592  1.00  0.00     0.039 C 
ATOM     22  C   UNL     1       7.745 -63.750 -23.292  1.00  0.00     0.007 C 
ATOM     23  C   UNL     1      11.429 -60.065 -28.480  1.00  0.00     0.002 A 
ATOM     24  C   UNL     1      11.980 -59.643 -26.165  1.00  0.00     0.012 A 
ATOM     25  C   UNL     1       9.010 -63.618 -22.454  1.00  0.00     0.005 C 
ATOM     26  C   UNL     1      12.270 -59.500 -27.524  1.00  0.00     0.001 A 
ATOM     27  H   UNL     1       8.596 -62.433 -27.025  1.00  0.00     0.166 HD
ENDBRANCH  12  13
ENDBRANCH  11  12
ENDBRANCH  10  11
ENDBRANCH   1  10
BRANCH   5  28
ATOM     28  C   UNL     1      12.378 -51.104 -23.802  1.00  0.00     0.161 C 
BRANCH  28  29
ATOM     29  C   UNL     1      13.666 -50.392 -23.356  1.00  0.00     0.272 C 
BRANCH  29  30
ATOM     30  N   UNL     1      13.426 -49.134 -22.523  1.00  0.00    -0.335 N 
ATOM     31  C   UNL     1      14.690 -48.325 -22.370  1.00  0.00     0.332 C 
ATOM     32  H   UNL     1      13.160 -49.465 -21.574  1.00  0.00     0.348 HD
BRANCH  30  33
ATOM     33  C   UNL     1      12.211 -48.319 -23.027  1.00  0.00     0.183 C 
ATOM     34  C   UNL     1      12.569 -47.475 -24.262  1.00  0.00     0.065 C 
ATOM     35  C   UNL     1      11.717 -47.398 -21.894  1.00  0.00     0.065 C 
ATOM     36  C   UNL     1      11.404 -46.590 -24.705  1.00  0.00     0.006 C 
ATOM     37  C   UNL     1      10.552 -46.517 -22.342  1.00  0.00     0.006 C 
ATOM     38  C   UNL     1      10.910 -45.697 -23.574  1.00  0.00     0.000 C 
ENDBRANCH  30  33
ENDBRANCH  29  30
ENDBRANCH  28  29
ENDBRANCH   5  28
TORSDOF 8
ENDMDL
MODEL 2
REMARK VINA RESULT:   -10.569      2.002     11.908
REMARK INTER + INTRA:         -16.607
REMARK INTER:                 -15.553
REMARK INTRA:                  -1.054
REMARK UNBOUND:                -1.095
REMARK SMILES C[N@H+](CCC(=O)N1CC[NH+](CCN=c2c3c([nH]c4ccccc24)CCCC3)CC1)C1CCCCC1
REMARK SMILES IDX 10 1 9 2 8 3 7 4 5 5 6 6 29 7 28 8 11 10 12 11 13 12 14 13
REMARK SMILES IDX 17 14 16 15 18 16 15 17 24 18 19 19 23 20 27 21 25 22 20 23
REMARK SMILES IDX 22 24 26 25 21 26 4 28 3 29 2 30 1 31 30 33 31 34 35 35
REMARK SMILES IDX 32 36 34 37 33 38
REMARK H PARENT 10 9 17 27 2 32
ROOT
ATOM      1  N   UNL     1      10.495 -53.181 -21.996  1.00  0.00    -0.330 N 
ATOM      2  C   UNL     1      10.680 -54.389 -21.085  1.00  0.00     0.284 C 
ATOM      3  C   UNL     1      10.342 -55.713 -21.798  1.00  0.00     0.181 C 
ATOM      4  N   UNL     1      11.122 -55.914 -23.029  1.00  0.00    -0.331 N 
ATOM      5  C   UNL     1      11.426 -57.142 -23.591  1.00  0.00     0.228 C 
ATOM      6  O   UNL     1      12.165 -57.247 -24.572  1.00  0.00    -0.275 OA
ATOM      7  C   UNL     1      11.620 -54.697 -23.693  1.00  0.00     0.181 C 
ATOM      8  C   UNL     1      10.693 -53.493 -23.482  1.00  0.00     0.284 C 
ATOM      9  H   UNL     1       9.518 -52.868 -21.909  1.00  0.00     0.348 HD
ENDROOT
BRANCH   1  10
ATOM     10  C   UNL     1      11.338 -51.987 -21.562  1.00  0.00     0.286 C 
BRANCH  10  11
ATOM     11  C   UNL     1      10.795 -50.658 -22.117  1.00  0.00     0.204 C 
BRANCH  11  12
ATOM     12  N   UNL     1      11.926 -49.769 -22.266  1.00  0.00    -0.278 NA
BRANCH  12  13
ATOM     13  C   UNL     1      12.211 -49.106 -23.341  1.00  0.00     0.072 A 
ATOM     14  N   UNL     1      13.563 -47.266 -24.962  1.00  0.00    -0.358 N 
ATOM     15  C   UNL     1      12.533 -46.823 -24.152  1.00  0.00     0.021 A 
ATOM     16  C   UNL     1      13.640 -48.625 -25.311  1.00  0.00     0.048 A 
ATOM     17  C   UNL     1      11.814 -47.654 -23.371  1.00  0.00    -0.003 A 
ATOM     18  C   UNL     1      12.248 -45.334 -24.180  1.00  0.00     0.054 C 
ATOM     19  C   UNL     1      14.421 -49.033 -26.398  1.00  0.00     0.027 A 
ATOM     20  C   UNL     1      12.948 -49.588 -24.554  1.00  0.00     0.024 A 
ATOM     21  C   UNL     1      10.685 -47.209 -22.485  1.00  0.00     0.039 C 
ATOM     22  C   UNL     1      11.361 -44.852 -23.031  1.00  0.00     0.007 C 
ATOM     23  C   UNL     1      14.439 -50.371 -26.789  1.00  0.00     0.002 A 
ATOM     24  C   UNL     1      12.921 -50.917 -24.989  1.00  0.00     0.012 A 
ATOM     25  C   UNL     1      10.190 -45.799 -22.811  1.00  0.00     0.005 C 
ATOM     26  C   UNL     1      13.671 -51.308 -26.100  1.00  0.00     0.001 A 
ATOM     27  H   UNL     1      13.888 -46.606 -25.663  1.00  0.00     0.166 HD
ENDBRANCH  12  13
ENDBRANCH  11  12
ENDBRANCH  10  11
ENDBRANCH   1  10
BRANCH   5  28
ATOM     28  C   UNL     1      10.878 -58.397 -22.939  1.00  0.00     0.161 C 
BRANCH  28  29
ATOM     29  C   UNL     1      11.860 -59.576 -23.039  1.00  0.00     0.272 C 
BRANCH  29  30
ATOM     30  N   UNL     1      11.882 -60.254 -24.408  1.00  0.00    -0.335 N 
ATOM     31  C   UNL     1      13.294 -60.492 -24.881  1.00  0.00     0.332 C 
ATOM     32  H   UNL     1      11.448 -59.579 -25.069  1.00  0.00     0.348 HD
BRANCH  30  33
ATOM     33  C   UNL     1      10.979 -61.509 -24.455  1.00  0.00     0.183 C 
ATOM     34  C   UNL     1       9.683 -61.245 -25.240  1.00  0.00     0.065 C 
ATOM     35  C   UNL     1      10.635 -61.937 -23.014  1.00  0.00     0.065 C 
ATOM     36  C   UNL     1       8.739 -62.447 -25.205  1.00  0.00     0.006 C 
ATOM     37  C   UNL     1       9.693 -63.140 -22.986  1.00  0.00     0.006 C 
ATOM     38  C   UNL     1       8.420 -62.874 -23.779  1.00  0.00     0.000 C 
ENDBRANCH  30  33
ENDBRANCH  29  30
ENDBRANCH  28  29
ENDBRANCH   5  28
TORSDOF 8
ENDMDL
MODEL 3
REMARK VINA RESULT:   -10.206      1.821     11.710
REMARK INTER + INTRA:         -16.075
REMARK INTER:                 -14.964
REMARK INTRA:                  -1.110
REMARK UNBOUND:                -1.095
REMARK SMILES C[N@H+](CCC(=O)N1CC[NH+](CCN=c2c3c([nH]c4ccccc24)CCCC3)CC1)C1CCCCC1
REMARK SMILES IDX 10 1 9 2 8 3 7 4 5 5 6 6 29 7 28 8 11 10 12 11 13 12 14 13
REMARK SMILES IDX 17 14 16 15 18 16 15 17 24 18 19 19 23 20 27 21 25 22 20 23
REMARK SMILES IDX 22 24 26 25 21 26 4 28 3 29 2 30 1 31 30 33 31 34 35 35
REMARK SMILES IDX 32 36 34 37 33 38
REMARK H PARENT 10 9 17 27 2 32
ROOT
ATOM      1  N   UNL     1      10.413 -53.372 -21.887  1.00  0.00    -0.330 N 
ATOM      2  C   UNL     1      10.995 -54.471 -21.005  1.00  0.00     0.284 C 
ATOM      3  C   UNL     1      10.752 -55.876 -21.589  1.00  0.00     0.181 C 
ATOM      4  N   UNL     1      11.277 -56.025 -22.955  1.00  0.00    -0.331 N 
ATOM      5  C   UNL     1      11.667 -57.221 -23.536  1.00  0.00     0.228 C 
ATOM      6  O   UNL     1      12.189 -57.266 -24.651  1.00  0.00    -0.275 OA
ATOM      7  C   UNL     1      11.402 -54.789 -23.745  1.00  0.00     0.181 C 
ATOM      8  C   UNL     1      10.344 -53.743 -23.371  1.00  0.00     0.284 C 
ATOM      9  H   UNL     1       9.436 -53.220 -21.597  1.00  0.00     0.348 HD
ENDROOT
BRANCH   1  10
ATOM     10  C   UNL     1      11.106 -52.029 -21.682  1.00  0.00     0.286 C 
BRANCH  10  11
ATOM     11  C   UNL     1      10.162 -50.841 -21.941  1.00  0.00     0.204 C 
BRANCH  11  12
ATOM     12  N   UNL     1      10.720 -50.090 -23.043  1.00  0.00    -0.278 NA
BRANCH  12  13
ATOM     13  C   UNL     1      11.969 -49.774 -23.167  1.00  0.00     0.072 A 
ATOM     14  N   UNL     1      14.630 -49.392 -22.383  1.00  0.00    -0.358 N 
ATOM     15  C   UNL     1      13.705 -48.393 -22.140  1.00  0.00     0.021 A 
ATOM     16  C   UNL     1      14.373 -50.355 -23.373  1.00  0.00     0.048 A 
ATOM     17  C   UNL     1      12.415 -48.490 -22.520  1.00  0.00    -0.003 A 
ATOM     18  C   UNL     1      14.216 -47.165 -21.413  1.00  0.00     0.054 C 
ATOM     19  C   UNL     1      15.414 -51.132 -23.892  1.00  0.00     0.027 A 
ATOM     20  C   UNL     1      13.059 -50.561 -23.832  1.00  0.00     0.024 A 
ATOM     21  C   UNL     1      11.385 -47.423 -22.279  1.00  0.00     0.039 C 
ATOM     22  C   UNL     1      13.108 -46.265 -20.864  1.00  0.00     0.007 C 
ATOM     23  C   UNL     1      15.170 -52.036 -24.926  1.00  0.00     0.002 A 
ATOM     24  C   UNL     1      12.832 -51.423 -24.909  1.00  0.00     0.012 A 
ATOM     25  C   UNL     1      11.998 -46.077 -21.890  1.00  0.00     0.005 C 
ATOM     26  C   UNL     1      13.886 -52.164 -25.450  1.00  0.00     0.001 A 
ATOM     27  H   UNL     1      15.605 -49.131 -22.257  1.00  0.00     0.166 HD
ENDBRANCH  12  13
ENDBRANCH  11  12
ENDBRANCH  10  11
ENDBRANCH   1  10
BRANCH   5  28
ATOM     28  C   UNL     1      11.497 -58.503 -22.744  1.00  0.00     0.161 C 
BRANCH  28  29
ATOM     29  C   UNL     1      11.689 -59.752 -23.620  1.00  0.00     0.272 C 
BRANCH  29  30
ATOM     30  N   UNL     1      10.477 -60.101 -24.482  1.00  0.00    -0.335 N 
ATOM     31  C   UNL     1      10.892 -60.531 -25.867  1.00  0.00     0.332 C 
ATOM     32  H   UNL     1       9.936 -59.220 -24.585  1.00  0.00     0.348 HD
BRANCH  30  33
ATOM     33  C   UNL     1       9.519 -61.088 -23.774  1.00  0.00     0.183 C 
ATOM     34  C   UNL     1      10.269 -62.320 -23.240  1.00  0.00     0.065 C 
ATOM     35  C   UNL     1       8.430 -61.535 -24.769  1.00  0.00     0.065 C 
ATOM     36  C   UNL     1       9.317 -63.348 -22.629  1.00  0.00     0.006 C 
ATOM     37  C   UNL     1       7.480 -62.561 -24.152  1.00  0.00     0.006 C 
ATOM     38  C   UNL     1       8.233 -63.769 -23.613  1.00  0.00     0.000 C 
ENDBRANCH  30  33
ENDBRANCH  29  30
ENDBRANCH  28  29
ENDBRANCH   5  28
TORSDOF 8
ENDMDL
MODEL 4
REMARK VINA RESULT:   -10.036      1.847     11.638
REMARK INTER + INTRA:         -15.824
REMARK INTER:                 -14.842
REMARK INTRA:                  -0.982
REMARK UNBOUND:                -1.095
REMARK SMILES C[N@H+](CCC(=O)N1CC[NH+](CCN=c2c3c([nH]c4ccccc24)CCCC3)CC1)C1CCCCC1
REMARK SMILES IDX 10 1 9 2 8 3 7 4 5 5 6 6 29 7 28 8 11 10 12 11 13 12 14 13
REMARK SMILES IDX 17 14 16 15 18 16 15 17 24 18 19 19 23 20 27 21 25 22 20 23
REMARK SMILES IDX 22 24 26 25 21 26 4 28 3 29 2 30 1 31 30 33 31 34 35 35
REMARK SMILES IDX 32 36 34 37 33 38
REMARK H PARENT 10 9 17 27 2 32
ROOT
ATOM      1  N   UNL     1      10.733 -52.943 -22.428  1.00  0.00    -0.330 N 
ATOM      2  C   UNL     1      10.977 -53.492 -23.829  1.00  0.00     0.284 C 
ATOM      3  C   UNL     1      11.745 -54.829 -23.804  1.00  0.00     0.181 C 
ATOM      4  N   UNL     1      11.074 -55.857 -22.992  1.00  0.00    -0.331 N 
ATOM      5  C   UNL     1      11.205 -57.224 -23.167  1.00  0.00     0.228 C 
ATOM      6  O   UNL     1      10.542 -58.033 -22.514  1.00  0.00    -0.275 OA
ATOM      7  C   UNL     1      10.187 -55.369 -21.923  1.00  0.00     0.181 C 
ATOM      8  C   UNL     1      10.647 -54.023 -21.348  1.00  0.00     0.284 C 
ATOM      9  H   UNL     1      11.545 -52.363 -22.172  1.00  0.00     0.348 HD
ENDROOT
BRANCH   1  10
ATOM     10  C   UNL     1       9.535 -52.002 -22.370  1.00  0.00     0.286 C 
BRANCH  10  11
ATOM     11  C   UNL     1       9.942 -50.562 -22.011  1.00  0.00     0.204 C 
BRANCH  11  12
ATOM     12  N   UNL     1      11.376 -50.474 -22.174  1.00  0.00    -0.278 NA
BRANCH  12  13
ATOM     13  C   UNL     1      11.988 -49.585 -22.888  1.00  0.00     0.072 A 
ATOM     14  N   UNL     1      12.819 -48.256 -25.209  1.00  0.00    -0.358 N 
ATOM     15  C   UNL     1      13.514 -49.374 -24.785  1.00  0.00     0.021 A 
ATOM     16  C   UNL     1      12.024 -47.542 -24.295  1.00  0.00     0.048 A 
ATOM     17  C   UNL     1      13.196 -50.044 -23.660  1.00  0.00    -0.003 A 
ATOM     18  C   UNL     1      14.668 -49.818 -25.662  1.00  0.00     0.054 C 
ATOM     19  C   UNL     1      11.619 -46.234 -24.581  1.00  0.00     0.027 A 
ATOM     20  C   UNL     1      11.612 -48.149 -23.095  1.00  0.00     0.024 A 
ATOM     21  C   UNL     1      13.933 -51.257 -23.167  1.00  0.00     0.039 C 
ATOM     22  C   UNL     1      15.171 -51.230 -25.354  1.00  0.00     0.007 C 
ATOM     23  C   UNL     1      10.893 -45.500 -23.644  1.00  0.00     0.002 A 
ATOM     24  C   UNL     1      10.937 -47.388 -22.134  1.00  0.00     0.012 A 
ATOM     25  C   UNL     1      15.287 -51.453 -23.852  1.00  0.00     0.005 C 
ATOM     26  C   UNL     1      10.573 -46.068 -22.412  1.00  0.00     0.001 A 
ATOM     27  H   UNL     1      13.268 -47.704 -25.935  1.00  0.00     0.166 HD
ENDBRANCH  12  13
ENDBRANCH  11  12
ENDBRANCH  10  11
ENDBRANCH   1  10
BRANCH   5  28
ATOM     28  C   UNL     1      12.153 -57.734 -24.235  1.00  0.00     0.161 C 
BRANCH  28  29
ATOM     29  C   UNL     1      12.162 -59.269 -24.315  1.00  0.00     0.272 C 
BRANCH  29  30
ATOM     30  N   UNL     1      11.200 -59.845 -25.353  1.00  0.00    -0.335 N 
ATOM     31  C   UNL     1      11.777 -59.761 -26.744  1.00  0.00     0.332 C 
ATOM     32  H   UNL     1      10.359 -59.235 -25.333  1.00  0.00     0.348 HD
BRANCH  30  33
ATOM     33  C   UNL     1      10.692 -61.253 -24.963  1.00  0.00     0.183 C 
ATOM     34  C   UNL     1       9.206 -61.437 -25.315  1.00  0.00     0.065 C 
ATOM     35  C   UNL     1      10.895 -61.462 -23.448  1.00  0.00     0.065 C 
ATOM     36  C   UNL     1       8.668 -62.787 -24.841  1.00  0.00     0.006 C 
ATOM     37  C   UNL     1      10.358 -62.813 -22.981  1.00  0.00     0.006 C 
ATOM     38  C   UNL     1       8.891 -62.991 -23.349  1.00  0.00     0.000 C 
ENDBRANCH  30  33
ENDBRANCH  29  30
ENDBRANCH  28  29
ENDBRANCH   5  28
TORSDOF 8
ENDMDL
MODEL 5
REMARK VINA RESULT:    -9.843      2.230     11.200
REMARK INTER + INTRA:         -15.541
REMARK INTER:                 -14.212
REMARK INTRA:                  -1.329
REMARK UNBOUND:                -1.095
REMARK SMILES C[N@H+](CCC(=O)N1CC[NH+](CCN=c2c3c([nH]c4ccccc24)CCCC3)CC1)C1CCCCC1
REMARK SMILES IDX 10 1 9 2 8 3 7 4 5 5 6 6 29 7 28 8 11 10 12 11 13 12 14 13
REMARK SMILES IDX 17 14 16 15 18 16 15 17 24 18 19 19 23 20 27 21 25 22 20 23
REMARK SMILES IDX 22 24 26 25 21 26 4 28 3 29 2 30 1 31 30 33 31 34 35 35
REMARK SMILES IDX 32 36 34 37 33 38
REMARK H PARENT 10 9 17 27 2 32
ROOT
ATOM      1  N   UNL     1       9.995 -53.557 -22.127  1.00  0.00    -0.330 N 
ATOM      2  C   UNL     1      10.871 -54.422 -21.227  1.00  0.00     0.284 C 
ATOM      3  C   UNL     1      10.834 -55.908 -21.633  1.00  0.00     0.181 C 
ATOM      4  N   UNL     1      11.220 -56.126 -23.036  1.00  0.00    -0.331 N 
ATOM      5  C   UNL     1      11.761 -57.295 -23.544  1.00  0.00     0.228 C 
ATOM      6  O   UNL     1      12.152 -57.382 -24.710  1.00  0.00    -0.275 OA
ATOM      7  C   UNL     1      11.018 -54.992 -23.953  1.00  0.00     0.181 C 
ATOM      8  C   UNL     1       9.830 -54.111 -23.544  1.00  0.00     0.284 C 
ATOM      9  H   UNL     1       9.047 -53.545 -21.725  1.00  0.00     0.348 HD
ENDROOT
BRANCH   1  10
ATOM     10  C   UNL     1      10.439 -52.099 -22.148  1.00  0.00     0.286 C 
BRANCH  10  11
ATOM     11  C   UNL     1      11.968 -51.957 -22.250  1.00  0.00     0.204 C 
BRANCH  11  12
ATOM     12  N   UNL     1      12.261 -51.495 -23.589  1.00  0.00    -0.278 NA
BRANCH  12  13
ATOM     13  C   UNL     1      12.827 -50.367 -23.877  1.00  0.00     0.072 A 
ATOM     14  N   UNL     1      13.853 -48.329 -25.499  1.00  0.00    -0.358 N 
ATOM     15  C   UNL     1      14.646 -49.425 -25.210  1.00  0.00     0.021 A 
ATOM     16  C   UNL     1      12.765 -48.016 -24.667  1.00  0.00     0.048 A 
ATOM     17  C   UNL     1      14.234 -50.428 -24.409  1.00  0.00    -0.003 A 
ATOM     18  C   UNL     1      16.020 -49.448 -25.850  1.00  0.00     0.054 C 
ATOM     19  C   UNL     1      12.187 -46.743 -24.706  1.00  0.00     0.027 A 
ATOM     20  C   UNL     1      12.235 -48.992 -23.803  1.00  0.00     0.024 A 
ATOM     21  C   UNL     1      15.070 -51.629 -24.068  1.00  0.00     0.039 C 
ATOM     22  C   UNL     1      16.707 -50.813 -25.791  1.00  0.00     0.007 C 
ATOM     23  C   UNL     1      11.155 -46.411 -23.828  1.00  0.00     0.002 A 
ATOM     24  C   UNL     1      11.244 -48.634 -22.884  1.00  0.00     0.012 A 
ATOM     25  C   UNL     1      16.549 -51.446 -24.416  1.00  0.00     0.005 C 
ATOM     26  C   UNL     1      10.700 -47.347 -22.902  1.00  0.00     0.001 A 
ATOM     27  H   UNL     1      14.330 -47.538 -25.925  1.00  0.00     0.166 HD
ENDBRANCH  12  13
ENDBRANCH  11  12
ENDBRANCH  10  11
ENDBRANCH   1  10
BRANCH   5  28
ATOM     28  C   UNL     1      11.928 -58.483 -22.616  1.00  0.00     0.161 C 
BRANCH  28  29
ATOM     29  C   UNL     1      11.641 -59.816 -23.326  1.00  0.00     0.272 C 
BRANCH  29  30
ATOM     30  N   UNL     1      10.447 -59.770 -24.278  1.00  0.00    -0.335 N 
ATOM     31  C   UNL     1      10.624 -60.730 -25.429  1.00  0.00     0.332 C 
ATOM     32  H   UNL     1      10.438 -58.811 -24.679  1.00  0.00     0.348 HD
BRANCH  30  33
ATOM     33  C   UNL     1       9.099 -59.916 -23.535  1.00  0.00     0.183 C 
ATOM     34  C   UNL     1       8.227 -61.022 -24.154  1.00  0.00     0.065 C 
ATOM     35  C   UNL     1       8.346 -58.571 -23.587  1.00  0.00     0.065 C 
ATOM     36  C   UNL     1       6.852 -61.104 -23.491  1.00  0.00     0.006 C 
ATOM     37  C   UNL     1       6.974 -58.660 -22.922  1.00  0.00     0.006 C 
ATOM     38  C   UNL     1       6.124 -59.767 -23.531  1.00  0.00     0.000 C 
ENDBRANCH  30  33
ENDBRANCH  29  30
ENDBRANCH  28  29
ENDBRANCH   5  28
TORSDOF 8
ENDMDL
MODEL 6
REMARK VINA RESULT:    -9.711      2.282     11.770
REMARK INTER + INTRA:         -15.347
REMARK INTER:                 -14.573
REMARK INTRA:                  -0.774
REMARK UNBOUND:                -1.095
REMARK SMILES C[N@H+](CCC(=O)N1CC[NH+](CCN=c2c3c([nH]c4ccccc24)CCCC3)CC1)C1CCCCC1
REMARK SMILES IDX 10 1 9 2 8 3 7 4 5 5 6 6 29 7 28 8 11 10 12 11 13 12 14 13
REMARK SMILES IDX 17 14 16 15 18 16 15 17 24 18 19 19 23 20 27 21 25 22 20 23
REMARK SMILES IDX 22 24 26 25 21 26 4 28 3 29 2 30 1 31 30 33 31 34 35 35
REMARK SMILES IDX 32 36 34 37 33 38
REMARK H PARENT 10 9 17 27 2 32
ROOT
ATOM      1  N   UNL     1      10.210 -53.973 -21.876  1.00  0.00    -0.330 N 
ATOM      2  C   UNL     1      11.027 -55.017 -21.122  1.00  0.00     0.284 C 
ATOM      3  C   UNL     1      10.933 -56.411 -21.773  1.00  0.00     0.181 C 
ATOM      4  N   UNL     1      11.340 -56.409 -23.187  1.00  0.00    -0.331 N 
ATOM      5  C   UNL     1      11.841 -57.501 -23.877  1.00  0.00     0.228 C 
ATOM      6  O   UNL     1      12.253 -57.409 -25.035  1.00  0.00    -0.275 OA
ATOM      7  C   UNL     1      11.210 -55.128 -23.903  1.00  0.00     0.181 C 
ATOM      8  C   UNL     1      10.053 -54.273 -23.369  1.00  0.00     0.284 C 
ATOM      9  H   UNL     1       9.254 -53.984 -21.492  1.00  0.00     0.348 HD
ENDROOT
BRANCH   1  10
ATOM     10  C   UNL     1      10.719 -52.555 -21.645  1.00  0.00     0.286 C 
BRANCH  10  11
ATOM     11  C   UNL     1      11.243 -51.906 -22.938  1.00  0.00     0.204 C 
BRANCH  11  12
ATOM     12  N   UNL     1      12.498 -51.266 -22.611  1.00  0.00    -0.278 NA
BRANCH  12  13
ATOM     13  C   UNL     1      12.994 -50.246 -23.235  1.00  0.00     0.072 A 
ATOM     14  N   UNL     1      13.818 -48.701 -25.420  1.00  0.00    -0.358 N 
ATOM     15  C   UNL     1      14.675 -49.660 -24.910  1.00  0.00     0.021 A 
ATOM     16  C   UNL     1      12.777 -48.200 -24.621  1.00  0.00     0.048 A 
ATOM     17  C   UNL     1      14.362 -50.416 -23.839  1.00  0.00    -0.003 A 
ATOM     18  C   UNL     1      16.002 -49.823 -25.624  1.00  0.00     0.054 C 
ATOM     19  C   UNL     1      12.143 -46.999 -24.956  1.00  0.00     0.027 A 
ATOM     20  C   UNL     1      12.350 -48.916 -23.488  1.00  0.00     0.024 A 
ATOM     21  C   UNL     1      15.271 -51.461 -23.254  1.00  0.00     0.039 C 
ATOM     22  C   UNL     1      16.749 -51.106 -25.254  1.00  0.00     0.007 C 
ATOM     23  C   UNL     1      11.161 -46.464 -24.123  1.00  0.00     0.002 A 
ATOM     24  C   UNL     1      11.409 -48.345 -22.625  1.00  0.00     0.012 A 
ATOM     25  C   UNL     1      16.713 -51.345 -23.751  1.00  0.00     0.005 C 
ATOM     26  C   UNL     1      10.811 -47.124 -22.946  1.00  0.00     0.001 A 
ATOM     27  H   UNL     1      14.230 -48.045 -26.079  1.00  0.00     0.166 HD
ENDBRANCH  12  13
ENDBRANCH  11  12
ENDBRANCH  10  11
ENDBRANCH   1  10
BRANCH   5  28
ATOM     28  C   UNL     1      11.934 -58.833 -23.159  1.00  0.00     0.161 C 
BRANCH  28  29
ATOM     29  C   UNL     1      10.832 -59.808 -23.605  1.00  0.00     0.272 C 
BRANCH  29  30
ATOM     30  N   UNL     1      10.417 -60.812 -22.531  1.00  0.00    -0.335 N 
ATOM     31  C   UNL     1      10.381 -60.175 -21.164  1.00  0.00     0.332 C 
ATOM     32  H   UNL     1      11.163 -61.535 -22.511  1.00  0.00     0.348 HD
BRANCH  30  33
ATOM     33  C   UNL     1       9.123 -61.572 -22.908  1.00  0.00     0.183 C 
ATOM     34  C   UNL     1       9.164 -63.033 -22.430  1.00  0.00     0.065 C 
ATOM     35  C   UNL     1       8.942 -61.532 -24.438  1.00  0.00     0.065 C 
ATOM     36  C   UNL     1       7.935 -63.819 -22.886  1.00  0.00     0.006 C 
ATOM     37  C   UNL     1       7.711 -62.317 -24.888  1.00  0.00     0.006 C 
ATOM     38  C   UNL     1       7.754 -63.758 -24.397  1.00  0.00     0.000 C 
ENDBRANCH  30  33
ENDBRANCH  29  30
ENDBRANCH  28  29
ENDBRANCH   5  28
TORSDOF 8
ENDMDL
MODEL 7
REMARK VINA RESULT:    -9.629      2.265     11.232
REMARK INTER + INTRA:         -15.227
REMARK INTER:                 -14.627
REMARK INTRA:                  -0.600
REMARK UNBOUND:                -1.095
REMARK SMILES C[N@H+](CCC(=O)N1CC[NH+](CCN=c2c3c([nH]c4ccccc24)CCCC3)CC1)C1CCCCC1
REMARK SMILES IDX 10 1 9 2 8 3 7 4 5 5 6 6 29 7 28 8 11 10 12 11 13 12 14 13
REMARK SMILES IDX 17 14 16 15 18 16 15 17 24 18 19 19 23 20 27 21 25 22 20 23
REMARK SMILES IDX 22 24 26 25 21 26 4 28 3 29 2 30 1 31 30 33 31 34 35 35
REMARK SMILES IDX 32 36 34 37 33 38
REMARK H PARENT 10 9 17 27 2 32
ROOT
ATOM      1  N   UNL     1      10.560 -55.900 -22.545  1.00  0.00    -0.330 N 
ATOM      2  C   UNL     1       9.170 -56.483 -22.777  1.00  0.00     0.284 C 
ATOM      3  C   UNL     1       9.223 -57.967 -23.189  1.00  0.00     0.181 C 
ATOM      4  N   UNL     1       9.941 -58.805 -22.216  1.00  0.00    -0.331 N 
ATOM      5  C   UNL     1       9.739 -60.161 -22.025  1.00  0.00     0.228 C 
ATOM      6  O   UNL     1      10.306 -60.787 -21.127  1.00  0.00    -0.275 OA
ATOM      7  C   UNL     1      10.942 -58.121 -21.379  1.00  0.00     0.181 C 
ATOM      8  C   UNL     1      11.596 -56.934 -22.098  1.00  0.00     0.284 C 
ATOM      9  H   UNL     1      10.904 -55.539 -23.447  1.00  0.00     0.348 HD
ENDROOT
BRANCH   1  10
ATOM     10  C   UNL     1      10.540 -54.694 -21.613  1.00  0.00     0.286 C 
BRANCH  10  11
ATOM     11  C   UNL     1       9.931 -53.450 -22.282  1.00  0.00     0.204 C 
BRANCH  11  12
ATOM     12  N   UNL     1      10.871 -52.366 -22.097  1.00  0.00    -0.278 NA
BRANCH  12  13
ATOM     13  C   UNL     1      11.570 -51.823 -23.041  1.00  0.00     0.072 A 
ATOM     14  N   UNL     1      13.733 -50.485 -24.214  1.00  0.00    -0.358 N 
ATOM     15  C   UNL     1      12.732 -49.748 -23.608  1.00  0.00     0.021 A 
ATOM     16  C   UNL     1      13.474 -51.802 -24.632  1.00  0.00     0.048 A 
ATOM     17  C   UNL     1      11.643 -50.319 -23.054  1.00  0.00    -0.003 A 
ATOM     18  C   UNL     1      12.920 -48.244 -23.593  1.00  0.00     0.054 C 
ATOM     19  C   UNL     1      14.315 -52.429 -25.557  1.00  0.00     0.027 A 
ATOM     20  C   UNL     1      12.376 -52.506 -24.104  1.00  0.00     0.024 A 
ATOM     21  C   UNL     1      10.534 -49.549 -22.394  1.00  0.00     0.039 C 
ATOM     22  C   UNL     1      11.989 -47.513 -22.624  1.00  0.00     0.007 C 
ATOM     23  C   UNL     1      14.016 -53.708 -26.026  1.00  0.00     0.002 A 
ATOM     24  C   UNL     1      12.048 -53.762 -24.624  1.00  0.00     0.012 A 
ATOM     25  C   UNL     1      10.569 -48.055 -22.718  1.00  0.00     0.005 C 
ATOM     26  C   UNL     1      12.871 -54.364 -25.579  1.00  0.00     0.001 A 
ATOM     27  H   UNL     1      14.387 -49.957 -24.785  1.00  0.00     0.166 HD
ENDBRANCH  12  13
ENDBRANCH  11  12
ENDBRANCH  10  11
ENDBRANCH   1  10
BRANCH   5  28
ATOM     28  C   UNL     1       8.743 -60.880 -22.915  1.00  0.00     0.161 C 
BRANCH  28  29
ATOM     29  C   UNL     1       9.436 -61.667 -24.039  1.00  0.00     0.272 C 
BRANCH  29  30
ATOM     30  N   UNL     1       9.721 -60.844 -25.294  1.00  0.00    -0.335 N 
ATOM     31  C   UNL     1      11.202 -60.634 -25.491  1.00  0.00     0.332 C 
ATOM     32  H   UNL     1       9.300 -59.908 -25.123  1.00  0.00     0.348 HD
BRANCH  30  33
ATOM     33  C   UNL     1       8.990 -61.400 -26.538  1.00  0.00     0.183 C 
ATOM     34  C   UNL     1       8.457 -62.822 -26.293  1.00  0.00     0.065 C 
ATOM     35  C   UNL     1       9.963 -61.410 -27.733  1.00  0.00     0.065 C 
ATOM     36  C   UNL     1       7.823 -63.419 -27.550  1.00  0.00     0.006 C 
ATOM     37  C   UNL     1       9.323 -62.006 -28.986  1.00  0.00     0.006 C 
ATOM     38  C   UNL     1       8.786 -63.407 -28.729  1.00  0.00     0.000 C 
ENDBRANCH  30  33
ENDBRANCH  29  30
ENDBRANCH  28  29
ENDBRANCH   5  28
TORSDOF 8
ENDMDL
MODEL 8
REMARK VINA RESULT:    -9.502      2.711     11.139
REMARK INTER + INTRA:         -15.041
REMARK INTER:                 -13.977
REMARK INTRA:                  -1.064
REMARK UNBOUND:                -1.095
REMARK SMILES C[N@H+](CCC(=O)N1CC[NH+](CCN=c2c3c([nH]c4ccccc24)CCCC3)CC1)C1CCCCC1
REMARK SMILES IDX 10 1 9 2 8 3 7 4 5 5 6 6 29 7 28 8 11 10 12 11 13 12 14 13
REMARK SMILES IDX 17 14 16 15 18 16 15 17 24 18 19 19 23 20 27 21 25 22 20 23
REMARK SMILES IDX 22 24 26 25 21 26 4 28 3 29 2 30 1 31 30 33 31 34 35 35
REMARK SMILES IDX 32 36 34 37 33 38
REMARK H PARENT 10 9 17 27 2 32
ROOT
ATOM      1  N   UNL     1      12.323 -50.339 -22.648  1.00  0.00    -0.330 N 
ATOM      2  C   UNL     1      12.151 -51.213 -23.885  1.00  0.00     0.284 C 
ATOM      3  C   UNL     1      12.087 -52.713 -23.534  1.00  0.00     0.181 C 
ATOM      4  N   UNL     1      11.023 -53.028 -22.569  1.00  0.00    -0.331 N 
ATOM      5  C   UNL     1      10.393 -54.255 -22.445  1.00  0.00     0.228 C 
ATOM      6  O   UNL     1       9.442 -54.428 -21.681  1.00  0.00    -0.275 OA
ATOM      7  C   UNL     1      10.599 -51.931 -21.682  1.00  0.00     0.181 C 
ATOM      8  C   UNL     1      11.739 -50.953 -21.373  1.00  0.00     0.284 C 
ATOM      9  H   UNL     1      13.333 -50.243 -22.468  1.00  0.00     0.348 HD
ENDROOT
BRANCH   1  10
ATOM     10  C   UNL     1      11.818 -48.917 -22.862  1.00  0.00     0.286 C 
BRANCH  10  11
ATOM     11  C   UNL     1      12.434 -48.262 -24.111  1.00  0.00     0.204 C 
BRANCH  11  12
ATOM     12  N   UNL     1      13.870 -48.330 -23.959  1.00  0.00    -0.278 NA
BRANCH  12  13
ATOM     13  C   UNL     1      14.692 -48.750 -24.867  1.00  0.00     0.072 A 
ATOM     14  N   UNL     1      15.699 -50.437 -26.862  1.00  0.00    -0.358 N 
ATOM     15  C   UNL     1      15.952 -50.735 -25.535  1.00  0.00     0.021 A 
ATOM     16  C   UNL     1      15.352 -49.125 -27.229  1.00  0.00     0.048 A 
ATOM     17  C   UNL     1      15.531 -49.952 -24.522  1.00  0.00    -0.003 A 
ATOM     18  C   UNL     1      16.735 -52.005 -25.270  1.00  0.00     0.054 C 
ATOM     19  C   UNL     1      15.454 -48.713 -28.561  1.00  0.00     0.027 A 
ATOM     20  C   UNL     1      14.879 -48.224 -26.258  1.00  0.00     0.024 A 
ATOM     21  C   UNL     1      15.793 -50.241 -23.071  1.00  0.00     0.039 C 
ATOM     22  C   UNL     1      16.685 -52.469 -23.813  1.00  0.00     0.007 C 
ATOM     23  C   UNL     1      15.181 -47.391 -28.912  1.00  0.00     0.002 A 
ATOM     24  C   UNL     1      14.666 -46.886 -26.605  1.00  0.00     0.012 A 
ATOM     25  C   UNL     1      16.877 -51.298 -22.859  1.00  0.00     0.005 C 
ATOM     26  C   UNL     1      14.811 -46.473 -27.932  1.00  0.00     0.001 A 
ATOM     27  H   UNL     1      16.239 -50.963 -27.544  1.00  0.00     0.166 HD
ENDBRANCH  12  13
ENDBRANCH  11  12
ENDBRANCH  10  11
ENDBRANCH   1  10
BRANCH   5  28
ATOM     28  C   UNL     1      10.857 -55.402 -23.323  1.00  0.00     0.161 C 
BRANCH  28  29
ATOM     29  C   UNL     1      11.294 -56.622 -22.496  1.00  0.00     0.272 C 
BRANCH  29  30
ATOM     30  N   UNL     1      10.224 -57.704 -22.368  1.00  0.00    -0.335 N 
ATOM     31  C   UNL     1       9.089 -57.475 -23.336  1.00  0.00     0.332 C 
ATOM     32  H   UNL     1       9.832 -57.607 -21.410  1.00  0.00     0.348 HD
BRANCH  30  33
ATOM     33  C   UNL     1      10.822 -59.130 -22.421  1.00  0.00     0.183 C 
ATOM     34  C   UNL     1      11.561 -59.385 -23.746  1.00  0.00     0.065 C 
ATOM     35  C   UNL     1       9.687 -60.160 -22.254  1.00  0.00     0.065 C 
ATOM     36  C   UNL     1      12.067 -60.823 -23.851  1.00  0.00     0.006 C 
ATOM     37  C   UNL     1      10.200 -61.595 -22.357  1.00  0.00     0.006 C 
ATOM     38  C   UNL     1      10.943 -61.833 -23.665  1.00  0.00     0.000 C 
ENDBRANCH  30  33
ENDBRANCH  29  30
ENDBRANCH  28  29
ENDBRANCH   5  28
TORSDOF 8
ENDMDL
MODEL 9
REMARK VINA RESULT:    -9.414      2.258     12.191
REMARK INTER + INTRA:         -14.912
REMARK INTER:                 -14.063
REMARK INTRA:                  -0.849
REMARK UNBOUND:                -1.095
REMARK SMILES C[N@H+](CCC(=O)N1CC[NH+](CCN=c2c3c([nH]c4ccccc24)CCCC3)CC1)C1CCCCC1
REMARK SMILES IDX 10 1 9 2 8 3 7 4 5 5 6 6 29 7 28 8 11 10 12 11 13 12 14 13
REMARK SMILES IDX 17 14 16 15 18 16 15 17 24 18 19 19 23 20 27 21 25 22 20 23
REMARK SMILES IDX 22 24 26 25 21 26 4 28 3 29 2 30 1 31 30 33 31 34 35 35
REMARK SMILES IDX 32 36 34 37 33 38
REMARK H PARENT 10 9 17 27 2 32
ROOT
ATOM      1  N   UNL     1      10.999 -53.146 -22.888  1.00  0.00    -0.330 N 
ATOM      2  C   UNL     1      11.019 -54.078 -21.682  1.00  0.00     0.284 C 
ATOM      3  C   UNL     1      10.526 -55.496 -22.034  1.00  0.00     0.181 C 
ATOM      4  N   UNL     1      11.291 -56.110 -23.130  1.00  0.00    -0.331 N 
ATOM      5  C   UNL     1      11.447 -57.471 -23.332  1.00  0.00     0.228 C 
ATOM      6  O   UNL     1      12.180 -57.922 -24.214  1.00  0.00    -0.275 OA
ATOM      7  C   UNL     1      11.947 -55.184 -24.068  1.00  0.00     0.181 C 
ATOM      8  C   UNL     1      11.176 -53.867 -24.227  1.00  0.00     0.284 C 
ATOM      9  H   UNL     1      10.068 -52.709 -22.933  1.00  0.00     0.348 HD
ENDROOT
BRANCH   1  10
ATOM     10  C   UNL     1      11.979 -51.987 -22.747  1.00  0.00     0.286 C 
BRANCH  10  11
ATOM     11  C   UNL     1      12.475 -51.474 -24.111  1.00  0.00     0.204 C 
BRANCH  11  12
ATOM     12  N   UNL     1      13.307 -50.320 -23.851  1.00  0.00    -0.278 NA
BRANCH  12  13
ATOM     13  C   UNL     1      13.266 -49.212 -24.519  1.00  0.00     0.072 A 
ATOM     14  N   UNL     1      13.851 -46.545 -25.141  1.00  0.00    -0.358 N 
ATOM     15  C   UNL     1      12.844 -46.821 -24.234  1.00  0.00     0.021 A 
ATOM     16  C   UNL     1      14.259 -47.534 -26.053  1.00  0.00     0.048 A 
ATOM     17  C   UNL     1      12.483 -48.079 -23.912  1.00  0.00    -0.003 A 
ATOM     18  C   UNL     1      12.158 -45.624 -23.607  1.00  0.00     0.054 C 
ATOM     19  C   UNL     1      14.986 -47.185 -27.196  1.00  0.00     0.027 A 
ATOM     20  C   UNL     1      13.956 -48.886 -25.809  1.00  0.00     0.024 A 
ATOM     21  C   UNL     1      11.390 -48.416 -22.937  1.00  0.00     0.039 C 
ATOM     22  C   UNL     1      11.316 -45.968 -22.377  1.00  0.00     0.007 C 
ATOM     23  C   UNL     1      15.326 -48.156 -28.138  1.00  0.00     0.002 A 
ATOM     24  C   UNL     1      14.246 -49.844 -26.786  1.00  0.00     0.012 A 
ATOM     25  C   UNL     1      10.488 -47.223 -22.614  1.00  0.00     0.005 C 
ATOM     26  C   UNL     1      14.936 -49.480 -27.944  1.00  0.00     0.001 A 
ATOM     27  H   UNL     1      13.895 -45.586 -25.475  1.00  0.00     0.166 HD
ENDBRANCH  12  13
ENDBRANCH  11  12
ENDBRANCH  10  11
ENDBRANCH   1  10
BRANCH   5  28
ATOM     28  C   UNL     1      10.737 -58.431 -22.397  1.00  0.00     0.161 C 
BRANCH  28  29
ATOM     29  C   UNL     1       9.577 -59.162 -23.092  1.00  0.00     0.272 C 
BRANCH  29  30
ATOM     30  N   UNL     1      10.022 -60.250 -24.069  1.00  0.00    -0.335 N 
ATOM     31  C   UNL     1      11.057 -61.156 -23.449  1.00  0.00     0.332 C 
ATOM     32  H   UNL     1      10.483 -59.755 -24.858  1.00  0.00     0.348 HD
BRANCH  30  33
ATOM     33  C   UNL     1       8.823 -60.998 -24.699  1.00  0.00     0.183 C 
ATOM     34  C   UNL     1       8.072 -61.844 -23.657  1.00  0.00     0.065 C 
ATOM     35  C   UNL     1       9.336 -61.907 -25.834  1.00  0.00     0.065 C 
ATOM     36  C   UNL     1       6.949 -62.666 -24.290  1.00  0.00     0.006 C 
ATOM     37  C   UNL     1       8.209 -62.724 -26.463  1.00  0.00     0.006 C 
ATOM     38  C   UNL     1       7.462 -63.546 -25.422  1.00  0.00     0.000 C 
ENDBRANCH  30  33
ENDBRANCH  29  30
ENDBRANCH  28  29
ENDBRANCH   5  28
TORSDOF 8
ENDMDL
