MODEL 1
REMARK VINA RESULT:    -9.238      0.000      0.000
REMARK INTER + INTRA:         -15.879
REMARK INTER:                 -15.178
REMARK INTRA:                  -0.701
REMARK UNBOUND:                -0.701
REMARK SMILES C[N+](C)(CCNC(=O)C(=O)NCC[N+](C)(C)Cc1ccccc1Cl)Cc1ccccc1Cl
REMARK SMILES IDX 6 1 7 2 8 3 5 5 4 6 2 7 1 8 3 9 25 10 26 11 27 12 31 13
REMARK SMILES IDX 28 14 30 15 29 16 32 17 9 18 11 19 10 20 12 22 13 23 14 24
REMARK SMILES IDX 15 25 16 26 17 27 18 28 19 29 23 30 20 31 22 32 21 33 24 34
REMARK H PARENT 6 4 11 21
ROOT
ATOM      1  N   UNL     1       9.812 -56.880 -23.130  1.00  0.00    -0.342 N 
ATOM      2  C   UNL     1      10.690 -56.039 -22.478  1.00  0.00     0.309 C 
ATOM      3  O   UNL     1      11.329 -56.334 -21.479  1.00  0.00    -0.264 OA
ATOM      4  H   UNL     1       9.421 -56.532 -24.005  1.00  0.00     0.164 HD
ENDROOT
BRANCH   1   5
ATOM      5  C   UNL     1       9.706 -58.285 -22.781  1.00  0.00     0.177 C 
BRANCH   5   6
ATOM      6  C   UNL     1       9.948 -59.232 -23.979  1.00  0.00     0.285 C 
BRANCH   6   7
ATOM      7  N   UNL     1      11.411 -59.726 -24.135  1.00  0.00    -0.323 N 
ATOM      8  C   UNL     1      12.153 -58.873 -25.156  1.00  0.00     0.334 C 
ATOM      9  C   UNL     1      12.089 -59.516 -22.772  1.00  0.00     0.334 C 
BRANCH   7  10
ATOM     10  C   UNL     1      11.434 -61.229 -24.517  1.00  0.00     0.301 C 
BRANCH  10  11
ATOM     11  C   UNL     1      10.235 -62.068 -24.142  1.00  0.00     0.025 A 
ATOM     12  C   UNL     1      10.180 -62.660 -22.866  1.00  0.00     0.011 A 
ATOM     13  C   UNL     1       9.172 -62.317 -25.031  1.00  0.00     0.049 A 
ATOM     14  C   UNL     1       9.089 -63.443 -22.482  1.00  0.00     0.001 A 
ATOM     15  C   UNL     1       8.081 -63.100 -24.643  1.00  0.00     0.021 A 
ATOM     16  C   UNL     1       8.039 -63.659 -23.368  1.00  0.00     0.002 A 
ATOM     17  Cl  UNL     1       9.156 -61.680 -26.638  1.00  0.00    -0.084 Cl
ENDBRANCH  10  11
ENDBRANCH   7  10
ENDBRANCH   6   7
ENDBRANCH   5   6
ENDBRANCH   1   5
BRANCH   2  18
ATOM     18  C   UNL     1      10.823 -54.634 -23.113  1.00  0.00     0.309 C 
ATOM     19  N   UNL     1      10.969 -53.606 -22.203  1.00  0.00    -0.342 N 
ATOM     20  O   UNL     1      10.791 -54.494 -24.327  1.00  0.00    -0.264 OA
ATOM     21  H   UNL     1      10.857 -53.864 -21.222  1.00  0.00     0.164 HD
BRANCH  19  22
ATOM     22  C   UNL     1      10.860 -52.217 -22.610  1.00  0.00     0.177 C 
BRANCH  22  23
ATOM     23  C   UNL     1      12.079 -51.359 -22.200  1.00  0.00     0.285 C 
BRANCH  23  24
ATOM     24  N   UNL     1      12.071 -49.904 -22.741  1.00  0.00    -0.323 N 
ATOM     25  C   UNL     1      12.874 -48.996 -21.812  1.00  0.00     0.334 C 
ATOM     26  C   UNL     1      10.615 -49.424 -22.707  1.00  0.00     0.334 C 
BRANCH  24  27
ATOM     27  C   UNL     1      12.622 -49.863 -24.191  1.00  0.00     0.301 C 
BRANCH  27  28
ATOM     28  C   UNL     1      13.599 -50.936 -24.607  1.00  0.00     0.025 A 
ATOM     29  C   UNL     1      13.129 -52.046 -25.339  1.00  0.00     0.011 A 
ATOM     30  C   UNL     1      14.964 -50.903 -24.268  1.00  0.00     0.049 A 
ATOM     31  C   UNL     1      13.998 -53.061 -25.747  1.00  0.00     0.001 A 
ATOM     32  C   UNL     1      15.830 -51.920 -24.678  1.00  0.00     0.021 A 
ATOM     33  C   UNL     1      15.348 -52.995 -25.421  1.00  0.00     0.002 A 
ATOM     34  Cl  UNL     1      15.640 -49.629 -23.316  1.00  0.00    -0.084 Cl
ENDBRANCH  27  28
ENDBRANCH  24  27
ENDBRANCH  23  24
ENDBRANCH  22  23
ENDBRANCH  19  22
ENDBRANCH   2  18
TORSDOF 11
ENDMDL
MODEL 2
REMARK VINA RESULT:    -9.150      1.483     10.222
REMARK INTER + INTRA:         -15.735
REMARK INTER:                 -14.993
REMARK INTRA:                  -0.741
REMARK UNBOUND:                -0.701
REMARK SMILES C[N+](C)(CCNC(=O)C(=O)NCC[N+](C)(C)Cc1ccccc1Cl)Cc1ccccc1Cl
REMARK SMILES IDX 6 1 7 2 8 3 5 5 4 6 2 7 1 8 3 9 25 10 26 11 27 12 31 13
REMARK SMILES IDX 28 14 30 15 29 16 32 17 9 18 11 19 10 20 12 22 13 23 14 24
REMARK SMILES IDX 15 25 16 26 17 27 18 28 19 29 23 30 20 31 22 32 21 33 24 34
REMARK H PARENT 6 4 11 21
ROOT
ATOM      1  N   UNL     1      11.199 -52.566 -22.644  1.00  0.00    -0.342 N 
ATOM      2  C   UNL     1      10.713 -53.708 -22.043  1.00  0.00     0.309 C 
ATOM      3  O   UNL     1      10.293 -53.769 -20.897  1.00  0.00    -0.264 OA
ATOM      4  H   UNL     1      11.427 -52.641 -23.635  1.00  0.00     0.164 HD
ENDROOT
BRANCH   1   5
ATOM      5  C   UNL     1      11.082 -51.265 -22.011  1.00  0.00     0.177 C 
BRANCH   5   6
ATOM      6  C   UNL     1      12.384 -50.433 -22.080  1.00  0.00     0.285 C 
BRANCH   6   7
ATOM      7  N   UNL     1      12.236 -49.045 -22.758  1.00  0.00    -0.323 N 
ATOM      8  C   UNL     1      10.765 -48.663 -22.865  1.00  0.00     0.334 C 
ATOM      9  C   UNL     1      12.914 -48.030 -21.826  1.00  0.00     0.334 C 
BRANCH   7  10
ATOM     10  C   UNL     1      12.931 -49.046 -24.145  1.00  0.00     0.301 C 
BRANCH  10  11
ATOM     11  C   UNL     1      13.715 -50.276 -24.537  1.00  0.00     0.025 A 
ATOM     12  C   UNL     1      13.098 -51.264 -25.327  1.00  0.00     0.011 A 
ATOM     13  C   UNL     1      15.040 -50.500 -24.118  1.00  0.00     0.049 A 
ATOM     14  C   UNL     1      13.789 -52.416 -25.710  1.00  0.00     0.001 A 
ATOM     15  C   UNL     1      15.730 -51.652 -24.504  1.00  0.00     0.021 A 
ATOM     16  C   UNL     1      15.105 -52.608 -25.303  1.00  0.00     0.002 A 
ATOM     17  Cl  UNL     1      15.882 -49.378 -23.108  1.00  0.00    -0.084 Cl
ENDBRANCH  10  11
ENDBRANCH   7  10
ENDBRANCH   6   7
ENDBRANCH   5   6
ENDBRANCH   1   5
BRANCH   2  18
ATOM     18  C   UNL     1      10.734 -54.967 -22.943  1.00  0.00     0.309 C 
ATOM     19  N   UNL     1      11.050 -56.137 -22.283  1.00  0.00    -0.342 N 
ATOM     20  O   UNL     1      10.490 -54.881 -24.138  1.00  0.00    -0.264 OA
ATOM     21  H   UNL     1      11.346 -56.033 -21.312  1.00  0.00     0.164 HD
BRANCH  19  22
ATOM     22  C   UNL     1      11.352 -57.356 -23.012  1.00  0.00     0.177 C 
BRANCH  22  23
ATOM     23  C   UNL     1      11.468 -58.602 -22.105  1.00  0.00     0.285 C 
BRANCH  23  24
ATOM     24  N   UNL     1      10.506 -59.766 -22.461  1.00  0.00    -0.323 N 
ATOM     25  C   UNL     1       9.225 -59.215 -23.083  1.00  0.00     0.334 C 
ATOM     26  C   UNL     1      10.120 -60.444 -21.141  1.00  0.00     0.334 C 
BRANCH  24  27
ATOM     27  C   UNL     1      11.206 -60.778 -23.406  1.00  0.00     0.301 C 
BRANCH  27  28
ATOM     28  C   UNL     1      10.545 -61.085 -24.729  1.00  0.00     0.025 A 
ATOM     29  C   UNL     1      10.856 -60.291 -25.851  1.00  0.00     0.011 A 
ATOM     30  C   UNL     1       9.597 -62.112 -24.891  1.00  0.00     0.049 A 
ATOM     31  C   UNL     1      10.269 -60.540 -27.095  1.00  0.00     0.001 A 
ATOM     32  C   UNL     1       9.013 -62.358 -26.137  1.00  0.00     0.021 A 
ATOM     33  C   UNL     1       9.354 -61.576 -27.238  1.00  0.00     0.002 A 
ATOM     34  Cl  UNL     1       9.086 -63.105 -23.572  1.00  0.00    -0.084 Cl
ENDBRANCH  27  28
ENDBRANCH  24  27
ENDBRANCH  23  24
ENDBRANCH  22  23
ENDBRANCH  19  22
ENDBRANCH   2  18
TORSDOF 11
ENDMDL
MODEL 3
REMARK VINA RESULT:    -9.149      1.941      3.074
REMARK INTER + INTRA:         -15.734
REMARK INTER:                 -14.884
REMARK INTRA:                  -0.850
REMARK UNBOUND:                -0.701
REMARK SMILES C[N+](C)(CCNC(=O)C(=O)NCC[N+](C)(C)Cc1ccccc1Cl)Cc1ccccc1Cl
REMARK SMILES IDX 6 1 7 2 8 3 5 5 4 6 2 7 1 8 3 9 25 10 26 11 27 12 31 13
REMARK SMILES IDX 28 14 30 15 29 16 32 17 9 18 11 19 10 20 12 22 13 23 14 24
REMARK SMILES IDX 15 25 16 26 17 27 18 28 19 29 23 30 20 31 22 32 21 33 24 34
REMARK H PARENT 6 4 11 21
ROOT
ATOM      1  N   UNL     1      10.754 -53.582 -22.228  1.00  0.00    -0.342 N 
ATOM      2  C   UNL     1      10.004 -52.430 -22.121  1.00  0.00     0.309 C 
ATOM      3  O   UNL     1       8.792 -52.369 -22.267  1.00  0.00    -0.264 OA
ATOM      4  H   UNL     1      11.742 -53.500 -21.989  1.00  0.00     0.164 HD
ENDROOT
BRANCH   1   5
ATOM      5  C   UNL     1      10.129 -54.887 -22.346  1.00  0.00     0.177 C 
BRANCH   5   6
ATOM      6  C   UNL     1      11.032 -56.043 -21.855  1.00  0.00     0.285 C 
BRANCH   6   7
ATOM      7  N   UNL     1      10.965 -57.333 -22.714  1.00  0.00    -0.323 N 
ATOM      8  C   UNL     1       9.527 -57.623 -23.123  1.00  0.00     0.334 C 
ATOM      9  C   UNL     1      11.764 -57.045 -23.995  1.00  0.00     0.334 C 
BRANCH   7  10
ATOM     10  C   UNL     1      11.596 -58.524 -21.947  1.00  0.00     0.301 C 
BRANCH  10  11
ATOM     11  C   UNL     1      11.071 -59.909 -22.245  1.00  0.00     0.025 A 
ATOM     12  C   UNL     1      10.071 -60.460 -21.422  1.00  0.00     0.011 A 
ATOM     13  C   UNL     1      11.565 -60.698 -23.301  1.00  0.00     0.049 A 
ATOM     14  C   UNL     1       9.560 -61.737 -21.665  1.00  0.00     0.001 A 
ATOM     15  C   UNL     1      11.051 -61.976 -23.542  1.00  0.00     0.021 A 
ATOM     16  C   UNL     1      10.047 -62.492 -22.726  1.00  0.00     0.002 A 
ATOM     17  Cl  UNL     1      12.824 -60.144 -24.346  1.00  0.00    -0.084 Cl
ENDBRANCH  10  11
ENDBRANCH   7  10
ENDBRANCH   6   7
ENDBRANCH   5   6
ENDBRANCH   1   5
BRANCH   2  18
ATOM     18  C   UNL     1      10.824 -51.158 -21.796  1.00  0.00     0.309 C 
ATOM     19  N   UNL     1      10.430 -50.030 -22.488  1.00  0.00    -0.342 N 
ATOM     20  O   UNL     1      11.741 -51.199 -20.990  1.00  0.00    -0.264 OA
ATOM     21  H   UNL     1       9.729 -50.178 -23.215  1.00  0.00     0.164 HD
BRANCH  19  22
ATOM     22  C   UNL     1      11.239 -48.825 -22.488  1.00  0.00     0.177 C 
BRANCH  22  23
ATOM     23  C   UNL     1      11.862 -48.503 -23.865  1.00  0.00     0.285 C 
BRANCH  23  24
ATOM     24  N   UNL     1      13.414 -48.512 -23.903  1.00  0.00    -0.323 N 
ATOM     25  C   UNL     1      13.961 -47.263 -23.216  1.00  0.00     0.334 C 
ATOM     26  C   UNL     1      13.824 -48.441 -25.379  1.00  0.00     0.334 C 
BRANCH  24  27
ATOM     27  C   UNL     1      13.964 -49.807 -23.249  1.00  0.00     0.301 C 
BRANCH  27  28
ATOM     28  C   UNL     1      14.092 -51.037 -24.115  1.00  0.00     0.025 A 
ATOM     29  C   UNL     1      12.929 -51.745 -24.478  1.00  0.00     0.011 A 
ATOM     30  C   UNL     1      15.331 -51.539 -24.553  1.00  0.00     0.049 A 
ATOM     31  C   UNL     1      13.000 -52.887 -25.280  1.00  0.00     0.001 A 
ATOM     32  C   UNL     1      15.399 -52.682 -25.356  1.00  0.00     0.021 A 
ATOM     33  C   UNL     1      14.234 -53.352 -25.722  1.00  0.00     0.002 A 
ATOM     34  Cl  UNL     1      16.828 -50.796 -24.114  1.00  0.00    -0.084 Cl
ENDBRANCH  27  28
ENDBRANCH  24  27
ENDBRANCH  23  24
ENDBRANCH  22  23
ENDBRANCH  19  22
ENDBRANCH   2  18
TORSDOF 11
ENDMDL
MODEL 4
REMARK VINA RESULT:    -9.130      0.336     10.219
REMARK INTER + INTRA:         -15.702
REMARK INTER:                 -14.849
REMARK INTRA:                  -0.853
REMARK UNBOUND:                -0.701
REMARK SMILES C[N+](C)(CCNC(=O)C(=O)NCC[N+](C)(C)Cc1ccccc1Cl)Cc1ccccc1Cl
REMARK SMILES IDX 6 1 7 2 8 3 5 5 4 6 2 7 1 8 3 9 25 10 26 11 27 12 31 13
REMARK SMILES IDX 28 14 30 15 29 16 32 17 9 18 11 19 10 20 12 22 13 23 14 24
REMARK SMILES IDX 15 25 16 26 17 27 18 28 19 29 23 30 20 31 22 32 21 33 24 34
REMARK H PARENT 6 4 11 21
ROOT
ATOM      1  N   UNL     1      10.607 -53.506 -22.076  1.00  0.00    -0.342 N 
ATOM      2  C   UNL     1      10.316 -54.425 -23.061  1.00  0.00     0.309 C 
ATOM      3  O   UNL     1       9.905 -54.146 -24.178  1.00  0.00    -0.264 OA
ATOM      4  H   UNL     1      11.031 -53.877 -21.225  1.00  0.00     0.164 HD
ENDROOT
BRANCH   1   5
ATOM      5  C   UNL     1      10.624 -52.081 -22.347  1.00  0.00     0.177 C 
BRANCH   5   6
ATOM      6  C   UNL     1      12.048 -51.476 -22.352  1.00  0.00     0.285 C 
BRANCH   6   7
ATOM      7  N   UNL     1      12.132 -50.009 -22.849  1.00  0.00    -0.323 N 
ATOM      8  C   UNL     1      10.766 -49.340 -22.757  1.00  0.00     0.334 C 
ATOM      9  C   UNL     1      13.075 -49.275 -21.883  1.00  0.00     0.334 C 
BRANCH   7  10
ATOM     10  C   UNL     1      12.699 -49.960 -24.292  1.00  0.00     0.301 C 
BRANCH  10  11
ATOM     11  C   UNL     1      13.549 -51.120 -24.752  1.00  0.00     0.025 A 
ATOM     12  C   UNL     1      12.925 -52.268 -25.277  1.00  0.00     0.011 A 
ATOM     13  C   UNL     1      14.953 -51.122 -24.651  1.00  0.00     0.049 A 
ATOM     14  C   UNL     1      13.676 -53.361 -25.713  1.00  0.00     0.001 A 
ATOM     15  C   UNL     1      15.703 -52.217 -25.089  1.00  0.00     0.021 A 
ATOM     16  C   UNL     1      15.064 -53.334 -25.623  1.00  0.00     0.002 A 
ATOM     17  Cl  UNL     1      15.823 -49.788 -23.981  1.00  0.00    -0.084 Cl
ENDBRANCH  10  11
ENDBRANCH   7  10
ENDBRANCH   6   7
ENDBRANCH   5   6
ENDBRANCH   1   5
BRANCH   2  18
ATOM     18  C   UNL     1      10.546 -55.901 -22.652  1.00  0.00     0.309 C 
ATOM     19  N   UNL     1       9.754 -56.811 -23.323  1.00  0.00    -0.342 N 
ATOM     20  O   UNL     1      11.369 -56.187 -21.795  1.00  0.00    -0.264 OA
ATOM     21  H   UNL     1       9.030 -56.413 -23.922  1.00  0.00     0.164 HD
BRANCH  19  22
ATOM     22  C   UNL     1       9.665 -58.194 -22.892  1.00  0.00     0.177 C 
BRANCH  22  23
ATOM     23  C   UNL     1       9.936 -59.210 -24.026  1.00  0.00     0.285 C 
BRANCH  23  24
ATOM     24  N   UNL     1      11.396 -59.729 -24.109  1.00  0.00    -0.323 N 
ATOM     25  C   UNL     1      12.109 -59.502 -22.777  1.00  0.00     0.334 C 
ATOM     26  C   UNL     1      12.113 -58.878 -25.164  1.00  0.00     0.334 C 
BRANCH  24  27
ATOM     27  C   UNL     1      11.416 -61.226 -24.515  1.00  0.00     0.301 C 
BRANCH  27  28
ATOM     28  C   UNL     1      10.226 -62.077 -24.139  1.00  0.00     0.025 A 
ATOM     29  C   UNL     1      10.187 -62.679 -22.865  1.00  0.00     0.011 A 
ATOM     30  C   UNL     1       9.158 -62.331 -25.019  1.00  0.00     0.049 A 
ATOM     31  C   UNL     1       9.105 -63.472 -22.475  1.00  0.00     0.001 A 
ATOM     32  C   UNL     1       8.077 -63.124 -24.625  1.00  0.00     0.021 A 
ATOM     33  C   UNL     1       8.049 -63.690 -23.352  1.00  0.00     0.002 A 
ATOM     34  Cl  UNL     1       9.129 -61.704 -26.629  1.00  0.00    -0.084 Cl
ENDBRANCH  27  28
ENDBRANCH  24  27
ENDBRANCH  23  24
ENDBRANCH  22  23
ENDBRANCH  19  22
ENDBRANCH   2  18
TORSDOF 11
ENDMDL
MODEL 5
REMARK VINA RESULT:    -8.979      1.824      3.141
REMARK INTER + INTRA:         -15.454
REMARK INTER:                 -14.914
REMARK INTRA:                  -0.541
REMARK UNBOUND:                -0.701
REMARK SMILES C[N+](C)(CCNC(=O)C(=O)NCC[N+](C)(C)Cc1ccccc1Cl)Cc1ccccc1Cl
REMARK SMILES IDX 6 1 7 2 8 3 5 5 4 6 2 7 1 8 3 9 25 10 26 11 27 12 31 13
REMARK SMILES IDX 28 14 30 15 29 16 32 17 9 18 11 19 10 20 12 22 13 23 14 24
REMARK SMILES IDX 15 25 16 26 17 27 18 28 19 29 23 30 20 31 22 32 21 33 24 34
REMARK H PARENT 6 4 11 21
ROOT
ATOM      1  N   UNL     1       9.887 -56.791 -23.497  1.00  0.00    -0.342 N 
ATOM      2  C   UNL     1      10.779 -55.970 -22.840  1.00  0.00     0.309 C 
ATOM      3  O   UNL     1      11.178 -56.144 -21.698  1.00  0.00    -0.264 OA
ATOM      4  H   UNL     1       9.715 -56.576 -24.479  1.00  0.00     0.164 HD
ENDROOT
BRANCH   1   5
ATOM      5  C   UNL     1       9.474 -58.066 -22.939  1.00  0.00     0.177 C 
BRANCH   5   6
ATOM      6  C   UNL     1       9.791 -59.267 -23.860  1.00  0.00     0.285 C 
BRANCH   6   7
ATOM      7  N   UNL     1      11.266 -59.746 -23.822  1.00  0.00    -0.323 N 
ATOM      8  C   UNL     1      12.134 -58.855 -24.702  1.00  0.00     0.334 C 
ATOM      9  C   UNL     1      11.743 -59.576 -22.372  1.00  0.00     0.334 C 
BRANCH   7  10
ATOM     10  C   UNL     1      11.359 -61.236 -24.245  1.00  0.00     0.301 C 
BRANCH  10  11
ATOM     11  C   UNL     1      10.151 -62.111 -24.008  1.00  0.00     0.025 A 
ATOM     12  C   UNL     1      10.004 -62.764 -22.770  1.00  0.00     0.011 A 
ATOM     13  C   UNL     1       9.168 -62.332 -24.991  1.00  0.00     0.049 A 
ATOM     14  C   UNL     1       8.901 -63.582 -22.513  1.00  0.00     0.001 A 
ATOM     15  C   UNL     1       8.064 -63.150 -24.730  1.00  0.00     0.021 A 
ATOM     16  C   UNL     1       7.930 -63.771 -23.491  1.00  0.00     0.002 A 
ATOM     17  Cl  UNL     1       9.268 -61.619 -26.562  1.00  0.00    -0.084 Cl
ENDBRANCH  10  11
ENDBRANCH   7  10
ENDBRANCH   6   7
ENDBRANCH   5   6
ENDBRANCH   1   5
BRANCH   2  18
ATOM     18  C   UNL     1      11.265 -54.757 -23.669  1.00  0.00     0.309 C 
ATOM     19  N   UNL     1      11.608 -53.651 -22.917  1.00  0.00    -0.342 N 
ATOM     20  O   UNL     1      11.318 -54.818 -24.888  1.00  0.00    -0.264 OA
ATOM     21  H   UNL     1      11.396 -53.709 -21.921  1.00  0.00     0.164 HD
BRANCH  19  22
ATOM     22  C   UNL     1      11.846 -52.361 -23.540  1.00  0.00     0.177 C 
BRANCH  22  23
ATOM     23  C   UNL     1      12.489 -51.328 -22.586  1.00  0.00     0.285 C 
BRANCH  23  24
ATOM     24  N   UNL     1      13.481 -50.341 -23.258  1.00  0.00    -0.323 N 
ATOM     25  C   UNL     1      13.151 -50.197 -24.742  1.00  0.00     0.334 C 
ATOM     26  C   UNL     1      14.874 -50.973 -23.157  1.00  0.00     0.334 C 
BRANCH  24  27
ATOM     27  C   UNL     1      13.454 -48.969 -22.535  1.00  0.00     0.301 C 
BRANCH  27  28
ATOM     28  C   UNL     1      12.876 -47.789 -23.278  1.00  0.00     0.025 A 
ATOM     29  C   UNL     1      13.750 -46.855 -23.871  1.00  0.00     0.011 A 
ATOM     30  C   UNL     1      11.493 -47.552 -23.381  1.00  0.00     0.049 A 
ATOM     31  C   UNL     1      13.259 -45.750 -24.570  1.00  0.00     0.001 A 
ATOM     32  C   UNL     1      11.005 -46.445 -24.082  1.00  0.00     0.021 A 
ATOM     33  C   UNL     1      11.888 -45.548 -24.680  1.00  0.00     0.002 A 
ATOM     34  Cl  UNL     1      10.328 -48.589 -22.638  1.00  0.00    -0.084 Cl
ENDBRANCH  27  28
ENDBRANCH  24  27
ENDBRANCH  23  24
ENDBRANCH  22  23
ENDBRANCH  19  22
ENDBRANCH   2  18
TORSDOF 11
ENDMDL
MODEL 6
REMARK VINA RESULT:    -8.954      1.923      3.669
REMARK INTER + INTRA:         -15.412
REMARK INTER:                 -14.753
REMARK INTRA:                  -0.659
REMARK UNBOUND:                -0.701
REMARK SMILES C[N+](C)(CCNC(=O)C(=O)NCC[N+](C)(C)Cc1ccccc1Cl)Cc1ccccc1Cl
REMARK SMILES IDX 6 1 7 2 8 3 5 5 4 6 2 7 1 8 3 9 25 10 26 11 27 12 31 13
REMARK SMILES IDX 28 14 30 15 29 16 32 17 9 18 11 19 10 20 12 22 13 23 14 24
REMARK SMILES IDX 15 25 16 26 17 27 18 28 19 29 23 30 20 31 22 32 21 33 24 34
REMARK H PARENT 6 4 11 21
ROOT
ATOM      1  N   UNL     1      11.332 -56.361 -23.833  1.00  0.00    -0.342 N 
ATOM      2  C   UNL     1      11.225 -54.990 -23.931  1.00  0.00     0.309 C 
ATOM      3  O   UNL     1      10.503 -54.294 -23.233  1.00  0.00    -0.264 OA
ATOM      4  H   UNL     1      12.043 -56.801 -24.417  1.00  0.00     0.164 HD
ENDROOT
BRANCH   1   5
ATOM      5  C   UNL     1      10.715 -57.095 -22.743  1.00  0.00     0.177 C 
BRANCH   5   6
ATOM      6  C   UNL     1      11.441 -58.420 -22.411  1.00  0.00     0.285 C 
BRANCH   6   7
ATOM      7  N   UNL     1      10.574 -59.696 -22.571  1.00  0.00    -0.323 N 
ATOM      8  C   UNL     1      10.270 -60.304 -21.207  1.00  0.00     0.334 C 
ATOM      9  C   UNL     1       9.242 -59.244 -23.186  1.00  0.00     0.334 C 
BRANCH   7  10
ATOM     10  C   UNL     1      11.279 -60.712 -23.507  1.00  0.00     0.301 C 
BRANCH  10  11
ATOM     11  C   UNL     1      10.633 -61.006 -24.840  1.00  0.00     0.025 A 
ATOM     12  C   UNL     1      10.973 -60.223 -25.960  1.00  0.00     0.011 A 
ATOM     13  C   UNL     1       9.668 -62.016 -25.011  1.00  0.00     0.049 A 
ATOM     14  C   UNL     1      10.397 -60.463 -27.209  1.00  0.00     0.001 A 
ATOM     15  C   UNL     1       9.093 -62.255 -26.263  1.00  0.00     0.021 A 
ATOM     16  C   UNL     1       9.461 -61.481 -27.362  1.00  0.00     0.002 A 
ATOM     17  Cl  UNL     1       9.138 -63.007 -23.698  1.00  0.00    -0.084 Cl
ENDBRANCH  10  11
ENDBRANCH   7  10
ENDBRANCH   6   7
ENDBRANCH   5   6
ENDBRANCH   1   5
BRANCH   2  18
ATOM     18  C   UNL     1      12.111 -54.354 -25.030  1.00  0.00     0.309 C 
ATOM     19  N   UNL     1      12.842 -53.260 -24.614  1.00  0.00    -0.342 N 
ATOM     20  O   UNL     1      12.125 -54.815 -26.162  1.00  0.00    -0.264 OA
ATOM     21  H   UNL     1      12.636 -52.919 -23.675  1.00  0.00     0.164 HD
BRANCH  19  22
ATOM     22  C   UNL     1      13.527 -52.405 -25.567  1.00  0.00     0.177 C 
BRANCH  22  23
ATOM     23  C   UNL     1      13.220 -50.901 -25.374  1.00  0.00     0.285 C 
BRANCH  23  24
ATOM     24  N   UNL     1      14.374 -50.069 -24.754  1.00  0.00    -0.323 N 
ATOM     25  C   UNL     1      14.743 -48.913 -25.681  1.00  0.00     0.334 C 
ATOM     26  C   UNL     1      15.593 -50.994 -24.666  1.00  0.00     0.334 C 
BRANCH  24  27
ATOM     27  C   UNL     1      13.977 -49.560 -23.343  1.00  0.00     0.301 C 
BRANCH  27  28
ATOM     28  C   UNL     1      12.539 -49.725 -22.911  1.00  0.00     0.025 A 
ATOM     29  C   UNL     1      12.140 -50.932 -22.301  1.00  0.00     0.011 A 
ATOM     30  C   UNL     1      11.559 -48.738 -23.119  1.00  0.00     0.049 A 
ATOM     31  C   UNL     1      10.821 -51.127 -21.883  1.00  0.00     0.001 A 
ATOM     32  C   UNL     1      10.240 -48.937 -22.699  1.00  0.00     0.021 A 
ATOM     33  C   UNL     1       9.874 -50.128 -22.077  1.00  0.00     0.002 A 
ATOM     34  Cl  UNL     1      11.915 -47.248 -23.918  1.00  0.00    -0.084 Cl
ENDBRANCH  27  28
ENDBRANCH  24  27
ENDBRANCH  23  24
ENDBRANCH  22  23
ENDBRANCH  19  22
ENDBRANCH   2  18
TORSDOF 11
ENDMDL
MODEL 7
REMARK VINA RESULT:    -8.798      1.467      2.499
REMARK INTER + INTRA:         -15.156
REMARK INTER:                 -14.716
REMARK INTRA:                  -0.439
REMARK UNBOUND:                -0.701
REMARK SMILES C[N+](C)(CCNC(=O)C(=O)NCC[N+](C)(C)Cc1ccccc1Cl)Cc1ccccc1Cl
REMARK SMILES IDX 6 1 7 2 8 3 5 5 4 6 2 7 1 8 3 9 25 10 26 11 27 12 31 13
REMARK SMILES IDX 28 14 30 15 29 16 32 17 9 18 11 19 10 20 12 22 13 23 14 24
REMARK SMILES IDX 15 25 16 26 17 27 18 28 19 29 23 30 20 31 22 32 21 33 24 34
REMARK H PARENT 6 4 11 21
ROOT
ATOM      1  N   UNL     1      11.061 -56.512 -21.917  1.00  0.00    -0.342 N 
ATOM      2  C   UNL     1      11.052 -55.497 -22.850  1.00  0.00     0.309 C 
ATOM      3  O   UNL     1      11.433 -55.607 -24.006  1.00  0.00    -0.264 OA
ATOM      4  H   UNL     1      10.627 -56.302 -21.019  1.00  0.00     0.164 HD
ENDROOT
BRANCH   1   5
ATOM      5  C   UNL     1      11.362 -57.882 -22.287  1.00  0.00     0.177 C 
BRANCH   5   6
ATOM      6  C   UNL     1      10.226 -58.563 -23.086  1.00  0.00     0.285 C 
BRANCH   6   7
ATOM      7  N   UNL     1       9.959 -60.043 -22.706  1.00  0.00    -0.323 N 
ATOM      8  C   UNL     1      10.237 -60.269 -21.225  1.00  0.00     0.334 C 
ATOM      9  C   UNL     1       8.461 -60.290 -22.940  1.00  0.00     0.334 C 
BRANCH   7  10
ATOM     10  C   UNL     1      10.803 -60.990 -23.599  1.00  0.00     0.301 C 
BRANCH  10  11
ATOM     11  C   UNL     1      10.926 -60.648 -25.065  1.00  0.00     0.025 A 
ATOM     12  C   UNL     1      11.923 -59.745 -25.482  1.00  0.00     0.011 A 
ATOM     13  C   UNL     1      10.060 -61.170 -26.044  1.00  0.00     0.049 A 
ATOM     14  C   UNL     1      12.069 -59.404 -26.828  1.00  0.00     0.001 A 
ATOM     15  C   UNL     1      10.209 -60.827 -27.391  1.00  0.00     0.021 A 
ATOM     16  C   UNL     1      11.216 -59.947 -27.782  1.00  0.00     0.002 A 
ATOM     17  Cl  UNL     1       8.771 -62.250 -25.643  1.00  0.00    -0.084 Cl
ENDBRANCH  10  11
ENDBRANCH   7  10
ENDBRANCH   6   7
ENDBRANCH   5   6
ENDBRANCH   1   5
BRANCH   2  18
ATOM     18  C   UNL     1      10.510 -54.146 -22.324  1.00  0.00     0.309 C 
ATOM     19  N   UNL     1      11.074 -53.033 -22.916  1.00  0.00    -0.342 N 
ATOM     20  O   UNL     1       9.656 -54.116 -21.451  1.00  0.00    -0.264 OA
ATOM     21  H   UNL     1      11.858 -53.214 -23.543  1.00  0.00     0.164 HD
BRANCH  19  22
ATOM     22  C   UNL     1      10.862 -51.703 -22.375  1.00  0.00     0.177 C 
BRANCH  22  23
ATOM     23  C   UNL     1      12.173 -50.909 -22.167  1.00  0.00     0.285 C 
BRANCH  23  24
ATOM     24  N   UNL     1      12.168 -49.469 -22.747  1.00  0.00    -0.323 N 
ATOM     25  C   UNL     1      12.927 -48.527 -21.815  1.00  0.00     0.334 C 
ATOM     26  C   UNL     1      10.707 -49.006 -22.777  1.00  0.00     0.334 C 
BRANCH  24  27
ATOM     27  C   UNL     1      12.770 -49.459 -24.177  1.00  0.00     0.301 C 
BRANCH  27  28
ATOM     28  C   UNL     1      13.655 -50.615 -24.580  1.00  0.00     0.025 A 
ATOM     29  C   UNL     1      13.103 -51.672 -25.333  1.00  0.00     0.011 A 
ATOM     30  C   UNL     1      15.008 -50.709 -24.209  1.00  0.00     0.049 A 
ATOM     31  C   UNL     1      13.885 -52.760 -25.729  1.00  0.00     0.001 A 
ATOM     32  C   UNL     1      15.788 -51.799 -24.608  1.00  0.00     0.021 A 
ATOM     33  C   UNL     1      15.227 -52.820 -25.372  1.00  0.00     0.002 A 
ATOM     34  Cl  UNL     1      15.775 -49.509 -23.230  1.00  0.00    -0.084 Cl
ENDBRANCH  27  28
ENDBRANCH  24  27
ENDBRANCH  23  24
ENDBRANCH  22  23
ENDBRANCH  19  22
ENDBRANCH   2  18
TORSDOF 11
ENDMDL
MODEL 8
REMARK VINA RESULT:    -8.695      2.122      3.688
REMARK INTER + INTRA:         -14.988
REMARK INTER:                 -14.309
REMARK INTRA:                  -0.679
REMARK UNBOUND:                -0.701
REMARK SMILES C[N+](C)(CCNC(=O)C(=O)NCC[N+](C)(C)Cc1ccccc1Cl)Cc1ccccc1Cl
REMARK SMILES IDX 6 1 7 2 8 3 5 5 4 6 2 7 1 8 3 9 25 10 26 11 27 12 31 13
REMARK SMILES IDX 28 14 30 15 29 16 32 17 9 18 11 19 10 20 12 22 13 23 14 24
REMARK SMILES IDX 15 25 16 26 17 27 18 28 19 29 23 30 20 31 22 32 21 33 24 34
REMARK H PARENT 6 4 11 21
ROOT
ATOM      1  N   UNL     1      11.395 -55.721 -22.548  1.00  0.00    -0.342 N 
ATOM      2  C   UNL     1      10.562 -54.762 -23.084  1.00  0.00     0.309 C 
ATOM      3  O   UNL     1       9.675 -54.981 -23.895  1.00  0.00    -0.264 OA
ATOM      4  H   UNL     1      12.028 -55.408 -21.812  1.00  0.00     0.164 HD
ENDROOT
BRANCH   1   5
ATOM      5  C   UNL     1      11.166 -57.137 -22.769  1.00  0.00     0.177 C 
BRANCH   5   6
ATOM      6  C   UNL     1      11.947 -57.700 -23.979  1.00  0.00     0.285 C 
BRANCH   6   7
ATOM      7  N   UNL     1      11.570 -59.151 -24.381  1.00  0.00    -0.323 N 
ATOM      8  C   UNL     1      11.832 -59.375 -25.865  1.00  0.00     0.334 C 
ATOM      9  C   UNL     1      12.510 -60.079 -23.597  1.00  0.00     0.334 C 
BRANCH   7  10
ATOM     10  C   UNL     1      10.093 -59.446 -24.007  1.00  0.00     0.301 C 
BRANCH  10  11
ATOM     11  C   UNL     1       9.742 -60.854 -23.588  1.00  0.00     0.025 A 
ATOM     12  C   UNL     1       9.333 -61.783 -24.564  1.00  0.00     0.011 A 
ATOM     13  C   UNL     1       9.774 -61.278 -22.247  1.00  0.00     0.049 A 
ATOM     14  C   UNL     1       9.000 -63.093 -24.216  1.00  0.00     0.001 A 
ATOM     15  C   UNL     1       9.441 -62.592 -21.902  1.00  0.00     0.021 A 
ATOM     16  C   UNL     1       9.058 -63.499 -22.887  1.00  0.00     0.002 A 
ATOM     17  Cl  UNL     1      10.216 -60.213 -20.960  1.00  0.00    -0.084 Cl
ENDBRANCH  10  11
ENDBRANCH   7  10
ENDBRANCH   6   7
ENDBRANCH   5   6
ENDBRANCH   1   5
BRANCH   2  18
ATOM     18  C   UNL     1      10.830 -53.323 -22.579  1.00  0.00     0.309 C 
ATOM     19  N   UNL     1      11.823 -52.652 -23.264  1.00  0.00    -0.342 N 
ATOM     20  O   UNL     1      10.193 -52.864 -21.642  1.00  0.00    -0.264 OA
ATOM     21  H   UNL     1      12.347 -53.206 -23.941  1.00  0.00     0.164 HD
BRANCH  19  22
ATOM     22  C   UNL     1      12.365 -51.399 -22.769  1.00  0.00     0.177 C 
BRANCH  22  23
ATOM     23  C   UNL     1      12.429 -50.290 -23.843  1.00  0.00     0.285 C 
BRANCH  23  24
ATOM     24  N   UNL     1      13.860 -49.885 -24.287  1.00  0.00    -0.323 N 
ATOM     25  C   UNL     1      14.149 -50.431 -25.683  1.00  0.00     0.334 C 
ATOM     26  C   UNL     1      14.835 -50.563 -23.318  1.00  0.00     0.334 C 
BRANCH  24  27
ATOM     27  C   UNL     1      14.027 -48.343 -24.234  1.00  0.00     0.301 C 
BRANCH  27  28
ATOM     28  C   UNL     1      12.886 -47.526 -23.676  1.00  0.00     0.025 A 
ATOM     29  C   UNL     1      11.924 -46.999 -24.560  1.00  0.00     0.011 A 
ATOM     30  C   UNL     1      12.753 -47.232 -22.307  1.00  0.00     0.049 A 
ATOM     31  C   UNL     1      10.850 -46.239 -24.087  1.00  0.00     0.001 A 
ATOM     32  C   UNL     1      11.678 -46.473 -21.838  1.00  0.00     0.021 A 
ATOM     33  C   UNL     1      10.725 -45.981 -22.727  1.00  0.00     0.002 A 
ATOM     34  Cl  UNL     1      13.909 -47.767 -21.139  1.00  0.00    -0.084 Cl
ENDBRANCH  27  28
ENDBRANCH  24  27
ENDBRANCH  23  24
ENDBRANCH  22  23
ENDBRANCH  19  22
ENDBRANCH   2  18
TORSDOF 11
ENDMDL
MODEL 9
REMARK VINA RESULT:    -8.632      1.809      3.464
REMARK INTER + INTRA:         -14.883
REMARK INTER:                 -14.531
REMARK INTRA:                  -0.352
REMARK UNBOUND:                -0.701
REMARK SMILES C[N+](C)(CCNC(=O)C(=O)NCC[N+](C)(C)Cc1ccccc1Cl)Cc1ccccc1Cl
REMARK SMILES IDX 6 1 7 2 8 3 5 5 4 6 2 7 1 8 3 9 25 10 26 11 27 12 31 13
REMARK SMILES IDX 28 14 30 15 29 16 32 17 9 18 11 19 10 20 12 22 13 23 14 24
REMARK SMILES IDX 15 25 16 26 17 27 18 28 19 29 23 30 20 31 22 32 21 33 24 34
REMARK H PARENT 6 4 11 21
ROOT
ATOM      1  N   UNL     1      11.726 -56.611 -24.222  1.00  0.00    -0.342 N 
ATOM      2  C   UNL     1      11.700 -55.233 -24.198  1.00  0.00     0.309 C 
ATOM      3  O   UNL     1      11.141 -54.559 -23.345  1.00  0.00    -0.264 OA
ATOM      4  H   UNL     1      12.310 -57.038 -24.941  1.00  0.00     0.164 HD
ENDROOT
BRANCH   1   5
ATOM      5  C   UNL     1      11.233 -57.400 -23.108  1.00  0.00     0.177 C 
BRANCH   5   6
ATOM      6  C   UNL     1      11.681 -58.879 -23.161  1.00  0.00     0.285 C 
BRANCH   6   7
ATOM      7  N   UNL     1      10.577 -59.908 -22.803  1.00  0.00    -0.323 N 
ATOM      8  C   UNL     1      10.458 -60.053 -21.291  1.00  0.00     0.334 C 
ATOM      9  C   UNL     1       9.253 -59.325 -23.319  1.00  0.00     0.334 C 
BRANCH   7  10
ATOM     10  C   UNL     1      10.866 -61.269 -23.489  1.00  0.00     0.301 C 
BRANCH  10  11
ATOM     11  C   UNL     1       9.691 -62.172 -23.783  1.00  0.00     0.025 A 
ATOM     12  C   UNL     1       9.211 -63.031 -22.777  1.00  0.00     0.011 A 
ATOM     13  C   UNL     1       9.065 -62.218 -25.044  1.00  0.00     0.049 A 
ATOM     14  C   UNL     1       8.128 -63.880 -23.011  1.00  0.00     0.001 A 
ATOM     15  C   UNL     1       7.980 -63.069 -25.274  1.00  0.00     0.021 A 
ATOM     16  C   UNL     1       7.510 -63.896 -24.257  1.00  0.00     0.002 A 
ATOM     17  Cl  UNL     1       9.598 -61.243 -26.367  1.00  0.00    -0.084 Cl
ENDBRANCH  10  11
ENDBRANCH   7  10
ENDBRANCH   6   7
ENDBRANCH   5   6
ENDBRANCH   1   5
BRANCH   2  18
ATOM     18  C   UNL     1      12.451 -54.555 -25.370  1.00  0.00     0.309 C 
ATOM     19  N   UNL     1      12.955 -53.304 -25.080  1.00  0.00    -0.342 N 
ATOM     20  O   UNL     1      12.557 -55.120 -26.449  1.00  0.00    -0.264 OA
ATOM     21  H   UNL     1      12.683 -52.914 -24.177  1.00  0.00     0.164 HD
BRANCH  19  22
ATOM     22  C   UNL     1      13.466 -52.436 -26.126  1.00  0.00     0.177 C 
BRANCH  22  23
ATOM     23  C   UNL     1      13.537 -50.949 -25.710  1.00  0.00     0.285 C 
BRANCH  23  24
ATOM     24  N   UNL     1      14.748 -50.574 -24.814  1.00  0.00    -0.323 N 
ATOM     25  C   UNL     1      15.553 -49.452 -25.464  1.00  0.00     0.334 C 
ATOM     26  C   UNL     1      15.653 -51.810 -24.749  1.00  0.00     0.334 C 
BRANCH  24  27
ATOM     27  C   UNL     1      14.268 -50.178 -23.393  1.00  0.00     0.301 C 
BRANCH  27  28
ATOM     28  C   UNL     1      12.971 -49.413 -23.272  1.00  0.00     0.025 A 
ATOM     29  C   UNL     1      12.908 -48.090 -23.754  1.00  0.00     0.011 A 
ATOM     30  C   UNL     1      11.821 -49.947 -22.664  1.00  0.00     0.049 A 
ATOM     31  C   UNL     1      11.729 -47.345 -23.664  1.00  0.00     0.001 A 
ATOM     32  C   UNL     1      10.642 -49.200 -22.577  1.00  0.00     0.021 A 
ATOM     33  C   UNL     1      10.597 -47.902 -23.082  1.00  0.00     0.002 A 
ATOM     34  Cl  UNL     1      11.800 -51.532 -21.976  1.00  0.00    -0.084 Cl
ENDBRANCH  27  28
ENDBRANCH  24  27
ENDBRANCH  23  24
ENDBRANCH  22  23
ENDBRANCH  19  22
ENDBRANCH   2  18
TORSDOF 11
ENDMDL
