MODEL 1
REMARK VINA RESULT:    -9.844      0.000      0.000
REMARK INTER + INTRA:         -15.696
REMARK INTER:                 -15.024
REMARK INTRA:                  -0.672
REMARK UNBOUND:                -0.672
REMARK SMILES O=C(COc1cc(F)ccc1[N+](=O)[O-])NCC[N@H+]1CC[N@@H+](Cc2ccccc2)CC1
REMARK SMILES IDX 15 1 2 2 1 3 16 5 17 6 18 7 20 8 21 9 19 10 29 11 30 12
REMARK SMILES IDX 22 15 23 16 24 17 28 18 25 19 27 20 26 21 3 22 4 23 5 24
REMARK SMILES IDX 6 25 11 26 7 27 10 28 9 29 8 30 12 31 13 32 14 33
REMARK H PARENT 15 4 21 13 18 14
ROOT
ATOM      1  N   UNL     1      11.202 -58.420 -22.580  1.00  0.00    -0.347 N 
ATOM      2  C   UNL     1      11.792 -58.801 -23.766  1.00  0.00     0.258 C 
ATOM      3  O   UNL     1      11.757 -58.076 -24.761  1.00  0.00    -0.271 OA
ATOM      4  H   UNL     1      11.187 -59.091 -21.813  1.00  0.00     0.163 HD
ENDROOT
BRANCH   1   5
ATOM      5  C   UNL     1      10.481 -57.168 -22.449  1.00  0.00     0.177 C 
BRANCH   5   6
ATOM      6  C   UNL     1      11.354 -55.940 -22.799  1.00  0.00     0.284 C 
BRANCH   6   7
ATOM      7  N   UNL     1      10.668 -54.956 -23.752  1.00  0.00    -0.324 N 
ATOM      8  C   UNL     1      10.870 -52.718 -22.510  1.00  0.00     0.324 C 
ATOM      9  N   UNL     1      11.803 -52.200 -23.611  1.00  0.00    -0.322 N 
ATOM     10  C   UNL     1       9.918 -53.806 -23.065  1.00  0.00     0.324 C 
ATOM     11  C   UNL     1      12.576 -53.330 -24.275  1.00  0.00     0.324 C 
ATOM     12  C   UNL     1      11.620 -54.422 -24.823  1.00  0.00     0.324 C 
ATOM     13  H   UNL     1      11.227 -51.715 -24.314  1.00  0.00     0.348 HD
ATOM     14  H   UNL     1       9.953 -55.511 -24.248  1.00  0.00     0.348 HD
BRANCH   9  15
ATOM     15  C   UNL     1      12.749 -51.116 -23.092  1.00  0.00     0.299 C 
BRANCH  15  16
ATOM     16  C   UNL     1      12.255 -49.733 -23.405  1.00  0.00     0.006 A 
ATOM     17  C   UNL     1      12.932 -48.926 -24.333  1.00  0.00     0.009 A 
ATOM     18  C   UNL     1      11.123 -49.215 -22.753  1.00  0.00     0.009 A 
ATOM     19  C   UNL     1      12.493 -47.628 -24.594  1.00  0.00     0.001 A 
ATOM     20  C   UNL     1      10.688 -47.916 -23.018  1.00  0.00     0.001 A 
ATOM     21  C   UNL     1      11.376 -47.123 -23.934  1.00  0.00     0.000 A 
ENDBRANCH  15  16
ENDBRANCH   9  15
ENDBRANCH   6   7
ENDBRANCH   5   6
ENDBRANCH   1   5
BRANCH   2  22
ATOM     22  C   UNL     1      12.378 -60.205 -23.775  1.00  0.00     0.329 C 
BRANCH  22  23
ATOM     23  O   UNL     1      11.834 -60.821 -24.950  1.00  0.00    -0.477 OA
BRANCH  23  24
ATOM     24  C   UNL     1      10.711 -61.549 -24.670  1.00  0.00     0.200 A 
ATOM     25  C   UNL     1      10.720 -62.355 -23.531  1.00  0.00     0.093 A 
ATOM     26  C   UNL     1       9.547 -61.466 -25.448  1.00  0.00     0.311 A 
ATOM     27  C   UNL     1       9.584 -63.092 -23.207  1.00  0.00     0.127 A 
ATOM     28  C   UNL     1       8.409 -62.217 -25.123  1.00  0.00     0.093 A 
ATOM     29  C   UNL     1       8.435 -63.035 -23.992  1.00  0.00     0.046 A 
ATOM     30  F   UNL     1       9.599 -63.871 -22.120  1.00  0.00    -0.207 F 
BRANCH  26  31
ATOM     31  N   UNL     1       9.506 -60.629 -26.638  1.00  0.00     0.066 N 
ATOM     32  O   UNL     1       9.766 -61.162 -27.727  1.00  0.00    -0.258 OA
ATOM     33  O   UNL     1       9.238 -59.423 -26.520  1.00  0.00    -0.258 OA
ENDBRANCH  26  31
ENDBRANCH  23  24
ENDBRANCH  22  23
ENDBRANCH   2  22
TORSDOF 9
ENDMDL
MODEL 2
REMARK VINA RESULT:    -9.717      1.700      2.119
REMARK INTER + INTRA:         -15.501
REMARK INTER:                 -14.150
REMARK INTRA:                  -1.351
REMARK UNBOUND:                -0.672
REMARK SMILES O=C(COc1cc(F)ccc1[N+](=O)[O-])NCC[N@H+]1CC[N@@H+](Cc2ccccc2)CC1
REMARK SMILES IDX 15 1 2 2 1 3 16 5 17 6 18 7 20 8 21 9 19 10 29 11 30 12
REMARK SMILES IDX 22 15 23 16 24 17 28 18 25 19 27 20 26 21 3 22 4 23 5 24
REMARK SMILES IDX 6 25 11 26 7 27 10 28 9 29 8 30 12 31 13 32 14 33
REMARK H PARENT 15 4 21 13 18 14
ROOT
ATOM      1  N   UNL     1      10.309 -58.493 -22.870  1.00  0.00    -0.347 N 
ATOM      2  C   UNL     1       8.996 -58.537 -23.291  1.00  0.00     0.258 C 
ATOM      3  O   UNL     1       8.484 -57.592 -23.890  1.00  0.00    -0.271 OA
ATOM      4  H   UNL     1      10.659 -59.266 -22.305  1.00  0.00     0.163 HD
ENDROOT
BRANCH   1   5
ATOM      5  C   UNL     1      11.142 -57.325 -23.079  1.00  0.00     0.177 C 
BRANCH   5   6
ATOM      6  C   UNL     1      10.883 -56.216 -22.031  1.00  0.00     0.284 C 
BRANCH   6   7
ATOM      7  N   UNL     1       9.972 -55.096 -22.542  1.00  0.00    -0.324 N 
ATOM      8  C   UNL     1      11.019 -52.989 -21.514  1.00  0.00     0.324 C 
ATOM      9  N   UNL     1      11.399 -52.502 -22.918  1.00  0.00    -0.322 N 
ATOM     10  C   UNL     1       9.784 -53.921 -21.573  1.00  0.00     0.324 C 
ATOM     11  C   UNL     1      11.620 -53.661 -23.878  1.00  0.00     0.324 C 
ATOM     12  C   UNL     1      10.384 -54.597 -23.928  1.00  0.00     0.324 C 
ATOM     13  H   UNL     1      10.633 -51.907 -23.265  1.00  0.00     0.348 HD
ATOM     14  H   UNL     1       9.042 -55.531 -22.652  1.00  0.00     0.348 HD
BRANCH   9  15
ATOM     15  C   UNL     1      12.611 -51.571 -22.889  1.00  0.00     0.299 C 
BRANCH  15  16
ATOM     16  C   UNL     1      12.262 -50.168 -23.298  1.00  0.00     0.006 A 
ATOM     17  C   UNL     1      13.014 -49.503 -24.279  1.00  0.00     0.009 A 
ATOM     18  C   UNL     1      11.194 -49.491 -22.686  1.00  0.00     0.009 A 
ATOM     19  C   UNL     1      12.711 -48.187 -24.630  1.00  0.00     0.001 A 
ATOM     20  C   UNL     1      10.895 -48.176 -23.041  1.00  0.00     0.001 A 
ATOM     21  C   UNL     1      11.656 -47.525 -24.009  1.00  0.00     0.000 A 
ENDBRANCH  15  16
ENDBRANCH   9  15
ENDBRANCH   6   7
ENDBRANCH   5   6
ENDBRANCH   1   5
BRANCH   2  22
ATOM     22  C   UNL     1       8.221 -59.775 -22.863  1.00  0.00     0.329 C 
BRANCH  22  23
ATOM     23  O   UNL     1       9.129 -60.865 -23.070  1.00  0.00    -0.477 OA
BRANCH  23  24
ATOM     24  C   UNL     1       8.840 -61.558 -24.213  1.00  0.00     0.200 A 
ATOM     25  C   UNL     1       7.704 -62.367 -24.219  1.00  0.00     0.093 A 
ATOM     26  C   UNL     1       9.607 -61.435 -25.381  1.00  0.00     0.311 A 
ATOM     27  C   UNL     1       7.371 -63.069 -25.375  1.00  0.00     0.127 A 
ATOM     28  C   UNL     1       9.273 -62.151 -26.539  1.00  0.00     0.093 A 
ATOM     29  C   UNL     1       8.144 -62.974 -26.529  1.00  0.00     0.046 A 
ATOM     30  F   UNL     1       6.286 -63.852 -25.374  1.00  0.00    -0.207 F 
BRANCH  26  31
ATOM     31  N   UNL     1      10.793 -60.593 -25.407  1.00  0.00     0.066 N 
ATOM     32  O   UNL     1      11.824 -61.033 -24.875  1.00  0.00    -0.258 OA
ATOM     33  O   UNL     1      10.728 -59.472 -25.934  1.00  0.00    -0.258 OA
ENDBRANCH  26  31
ENDBRANCH  23  24
ENDBRANCH  22  23
ENDBRANCH   2  22
TORSDOF 9
ENDMDL
MODEL 3
REMARK VINA RESULT:    -9.665      3.954     10.784
REMARK INTER + INTRA:         -15.423
REMARK INTER:                 -14.486
REMARK INTRA:                  -0.937
REMARK UNBOUND:                -0.672
REMARK SMILES O=C(COc1cc(F)ccc1[N+](=O)[O-])NCC[N@H+]1CC[N@@H+](Cc2ccccc2)CC1
REMARK SMILES IDX 15 1 2 2 1 3 16 5 17 6 18 7 20 8 21 9 19 10 29 11 30 12
REMARK SMILES IDX 22 15 23 16 24 17 28 18 25 19 27 20 26 21 3 22 4 23 5 24
REMARK SMILES IDX 6 25 11 26 7 27 10 28 9 29 8 30 12 31 13 32 14 33
REMARK H PARENT 15 4 21 13 18 14
ROOT
ATOM      1  N   UNL     1      11.280 -54.270 -23.440  1.00  0.00    -0.347 N 
ATOM      2  C   UNL     1      11.888 -53.840 -24.601  1.00  0.00     0.258 C 
ATOM      3  O   UNL     1      11.769 -54.465 -25.655  1.00  0.00    -0.271 OA
ATOM      4  H   UNL     1      11.478 -53.764 -22.578  1.00  0.00     0.163 HD
ENDROOT
BRANCH   1   5
ATOM      5  C   UNL     1      10.502 -55.493 -23.389  1.00  0.00     0.177 C 
BRANCH   5   6
ATOM      6  C   UNL     1      11.377 -56.742 -23.130  1.00  0.00     0.284 C 
BRANCH   6   7
ATOM      7  N   UNL     1      10.697 -57.789 -22.241  1.00  0.00    -0.324 N 
ATOM      8  C   UNL     1       9.536 -59.322 -23.942  1.00  0.00     0.324 C 
ATOM      9  N   UNL     1      10.474 -60.467 -23.540  1.00  0.00    -0.322 N 
ATOM     10  C   UNL     1       9.360 -58.321 -22.774  1.00  0.00     0.324 C 
ATOM     11  C   UNL     1      11.816 -59.949 -23.042  1.00  0.00     0.324 C 
ATOM     12  C   UNL     1      11.635 -58.941 -21.877  1.00  0.00     0.324 C 
ATOM     13  H   UNL     1      10.013 -61.007 -22.794  1.00  0.00     0.348 HD
ATOM     14  H   UNL     1      10.482 -57.298 -21.359  1.00  0.00     0.348 HD
BRANCH   9  15
ATOM     15  C   UNL     1      10.659 -61.476 -24.673  1.00  0.00     0.299 C 
BRANCH  15  16
ATOM     16  C   UNL     1       9.430 -62.309 -24.899  1.00  0.00     0.006 A 
ATOM     17  C   UNL     1       8.841 -62.380 -26.171  1.00  0.00     0.009 A 
ATOM     18  C   UNL     1       8.836 -63.008 -23.835  1.00  0.00     0.009 A 
ATOM     19  C   UNL     1       7.678 -63.125 -26.370  1.00  0.00     0.001 A 
ATOM     20  C   UNL     1       7.673 -63.751 -24.040  1.00  0.00     0.001 A 
ATOM     21  C   UNL     1       7.094 -63.805 -25.305  1.00  0.00     0.000 A 
ENDBRANCH  15  16
ENDBRANCH   9  15
ENDBRANCH   6   7
ENDBRANCH   5   6
ENDBRANCH   1   5
BRANCH   2  22
ATOM     22  C   UNL     1      12.786 -52.622 -24.448  1.00  0.00     0.329 C 
BRANCH  22  23
ATOM     23  O   UNL     1      12.625 -52.217 -23.082  1.00  0.00    -0.477 OA
BRANCH  23  24
ATOM     24  C   UNL     1      11.980 -51.015 -22.980  1.00  0.00     0.200 A 
ATOM     25  C   UNL     1      12.584 -49.897 -23.556  1.00  0.00     0.093 A 
ATOM     26  C   UNL     1      10.722 -50.885 -22.374  1.00  0.00     0.311 A 
ATOM     27  C   UNL     1      11.944 -48.663 -23.487  1.00  0.00     0.127 A 
ATOM     28  C   UNL     1      10.085 -49.638 -22.299  1.00  0.00     0.093 A 
ATOM     29  C   UNL     1      10.707 -48.522 -22.862  1.00  0.00     0.046 A 
ATOM     30  F   UNL     1      12.531 -47.591 -24.032  1.00  0.00    -0.207 F 
BRANCH  26  31
ATOM     31  N   UNL     1      10.065 -52.034 -21.771  1.00  0.00     0.066 N 
ATOM     32  O   UNL     1      10.684 -52.658 -20.895  1.00  0.00    -0.258 OA
ATOM     33  O   UNL     1       8.933 -52.359 -22.162  1.00  0.00    -0.258 OA
ENDBRANCH  26  31
ENDBRANCH  23  24
ENDBRANCH  22  23
ENDBRANCH   2  22
TORSDOF 9
ENDMDL
MODEL 4
REMARK VINA RESULT:    -9.558      4.302     10.697
REMARK INTER + INTRA:         -15.259
REMARK INTER:                 -14.554
REMARK INTRA:                  -0.705
REMARK UNBOUND:                -0.672
REMARK SMILES O=C(COc1cc(F)ccc1[N+](=O)[O-])NCC[N@H+]1CC[N@@H+](Cc2ccccc2)CC1
REMARK SMILES IDX 15 1 2 2 1 3 16 5 17 6 18 7 20 8 21 9 19 10 29 11 30 12
REMARK SMILES IDX 22 15 23 16 24 17 28 18 25 19 27 20 26 21 3 22 4 23 5 24
REMARK SMILES IDX 6 25 11 26 7 27 10 28 9 29 8 30 12 31 13 32 14 33
REMARK H PARENT 15 4 21 13 18 14
ROOT
ATOM      1  N   UNL     1      11.069 -53.758 -22.104  1.00  0.00    -0.347 N 
ATOM      2  C   UNL     1      10.509 -52.500 -22.172  1.00  0.00     0.258 C 
ATOM      3  O   UNL     1       9.301 -52.327 -22.008  1.00  0.00    -0.271 OA
ATOM      4  H   UNL     1      12.058 -53.857 -22.330  1.00  0.00     0.163 HD
ENDROOT
BRANCH   1   5
ATOM      5  C   UNL     1      10.267 -54.944 -21.873  1.00  0.00     0.177 C 
BRANCH   5   6
ATOM      6  C   UNL     1      11.054 -56.252 -22.121  1.00  0.00     0.284 C 
BRANCH   6   7
ATOM      7  N   UNL     1      10.761 -56.891 -23.482  1.00  0.00    -0.324 N 
ATOM      8  C   UNL     1      11.933 -59.169 -23.313  1.00  0.00     0.324 C 
ATOM      9  N   UNL     1      10.569 -59.867 -23.365  1.00  0.00    -0.322 N 
ATOM     10  C   UNL     1      11.874 -57.796 -24.026  1.00  0.00     0.324 C 
ATOM     11  C   UNL     1       9.463 -58.990 -22.795  1.00  0.00     0.324 C 
ATOM     12  C   UNL     1       9.412 -57.612 -23.508  1.00  0.00     0.324 C 
ATOM     13  H   UNL     1      10.363 -60.088 -24.349  1.00  0.00     0.348 HD
ATOM     14  H   UNL     1      10.682 -56.102 -24.142  1.00  0.00     0.348 HD
BRANCH   9  15
ATOM     15  C   UNL     1      10.600 -61.231 -22.675  1.00  0.00     0.299 C 
BRANCH  15  16
ATOM     16  C   UNL     1       9.570 -62.173 -23.229  1.00  0.00     0.006 A 
ATOM     17  C   UNL     1       9.126 -62.044 -24.554  1.00  0.00     0.009 A 
ATOM     18  C   UNL     1       9.017 -63.181 -22.422  1.00  0.00     0.009 A 
ATOM     19  C   UNL     1       8.142 -62.897 -25.055  1.00  0.00     0.001 A 
ATOM     20  C   UNL     1       8.034 -64.031 -22.928  1.00  0.00     0.001 A 
ATOM     21  C   UNL     1       7.594 -63.885 -24.242  1.00  0.00     0.000 A 
ENDBRANCH  15  16
ENDBRANCH   9  15
ENDBRANCH   6   7
ENDBRANCH   5   6
ENDBRANCH   1   5
BRANCH   2  22
ATOM     22  C   UNL     1      11.466 -51.386 -22.567  1.00  0.00     0.329 C 
BRANCH  22  23
ATOM     23  O   UNL     1      12.432 -52.018 -23.418  1.00  0.00    -0.477 OA
BRANCH  23  24
ATOM     24  C   UNL     1      12.919 -51.158 -24.363  1.00  0.00     0.200 A 
ATOM     25  C   UNL     1      12.792 -49.789 -24.130  1.00  0.00     0.093 A 
ATOM     26  C   UNL     1      13.586 -51.603 -25.513  1.00  0.00     0.311 A 
ATOM     27  C   UNL     1      13.297 -48.887 -25.062  1.00  0.00     0.127 A 
ATOM     28  C   UNL     1      14.085 -50.692 -26.455  1.00  0.00     0.093 A 
ATOM     29  C   UNL     1      13.935 -49.323 -26.221  1.00  0.00     0.046 A 
ATOM     30  F   UNL     1      13.165 -47.574 -24.840  1.00  0.00    -0.207 F 
BRANCH  26  31
ATOM     31  N   UNL     1      13.739 -53.026 -25.780  1.00  0.00     0.066 N 
ATOM     32  O   UNL     1      12.708 -53.701 -25.919  1.00  0.00    -0.258 OA
ATOM     33  O   UNL     1      14.880 -53.511 -25.837  1.00  0.00    -0.258 OA
ENDBRANCH  26  31
ENDBRANCH  23  24
ENDBRANCH  22  23
ENDBRANCH   2  22
TORSDOF 9
ENDMDL
MODEL 5
REMARK VINA RESULT:    -9.374      2.354      3.235
REMARK INTER + INTRA:         -14.979
REMARK INTER:                 -13.888
REMARK INTRA:                  -1.091
REMARK UNBOUND:                -0.672
REMARK SMILES O=C(COc1cc(F)ccc1[N+](=O)[O-])NCC[N@H+]1CC[N@@H+](Cc2ccccc2)CC1
REMARK SMILES IDX 15 1 2 2 1 3 16 5 17 6 18 7 20 8 21 9 19 10 29 11 30 12
REMARK SMILES IDX 22 15 23 16 24 17 28 18 25 19 27 20 26 21 3 22 4 23 5 24
REMARK SMILES IDX 6 25 11 26 7 27 10 28 9 29 8 30 12 31 13 32 14 33
REMARK H PARENT 15 4 21 13 18 14
ROOT
ATOM      1  N   UNL     1       9.878 -57.890 -23.558  1.00  0.00    -0.347 N 
ATOM      2  C   UNL     1       9.159 -59.066 -23.502  1.00  0.00     0.258 C 
ATOM      3  O   UNL     1       9.003 -59.671 -22.441  1.00  0.00    -0.271 OA
ATOM      4  H   UNL     1      10.049 -57.474 -24.472  1.00  0.00     0.163 HD
ENDROOT
BRANCH   1   5
ATOM      5  C   UNL     1      10.516 -57.325 -22.384  1.00  0.00     0.177 C 
BRANCH   5   6
ATOM      6  C   UNL     1      11.287 -56.021 -22.697  1.00  0.00     0.284 C 
BRANCH   6   7
ATOM      7  N   UNL     1      10.443 -54.976 -23.434  1.00  0.00    -0.324 N 
ATOM      8  C   UNL     1      10.698 -52.888 -21.962  1.00  0.00     0.324 C 
ATOM      9  N   UNL     1      11.462 -52.192 -23.095  1.00  0.00    -0.322 N 
ATOM     10  C   UNL     1       9.735 -53.960 -22.528  1.00  0.00     0.324 C 
ATOM     11  C   UNL     1      12.195 -53.189 -23.979  1.00  0.00     0.324 C 
ATOM     12  C   UNL     1      11.228 -54.266 -24.538  1.00  0.00     0.324 C 
ATOM     13  H   UNL     1      10.780 -51.665 -23.660  1.00  0.00     0.348 HD
ATOM     14  H   UNL     1       9.697 -55.512 -23.905  1.00  0.00     0.348 HD
BRANCH   9  15
ATOM     15  C   UNL     1      12.415 -51.121 -22.564  1.00  0.00     0.299 C 
BRANCH  15  16
ATOM     16  C   UNL     1      12.166 -49.777 -23.189  1.00  0.00     0.006 A 
ATOM     17  C   UNL     1      13.003 -49.300 -24.210  1.00  0.00     0.009 A 
ATOM     18  C   UNL     1      11.108 -48.967 -22.743  1.00  0.00     0.009 A 
ATOM     19  C   UNL     1      12.793 -48.036 -24.762  1.00  0.00     0.001 A 
ATOM     20  C   UNL     1      10.902 -47.705 -23.299  1.00  0.00     0.001 A 
ATOM     21  C   UNL     1      11.747 -47.239 -24.304  1.00  0.00     0.000 A 
ENDBRANCH  15  16
ENDBRANCH   9  15
ENDBRANCH   6   7
ENDBRANCH   5   6
ENDBRANCH   1   5
BRANCH   2  22
ATOM     22  C   UNL     1       8.682 -59.597 -24.846  1.00  0.00     0.329 C 
BRANCH  22  23
ATOM     23  O   UNL     1       9.455 -60.784 -25.064  1.00  0.00    -0.477 OA
BRANCH  23  24
ATOM     24  C   UNL     1      10.533 -60.550 -25.873  1.00  0.00     0.200 A 
ATOM     25  C   UNL     1      10.299 -60.350 -27.233  1.00  0.00     0.093 A 
ATOM     26  C   UNL     1      11.839 -60.447 -25.374  1.00  0.00     0.311 A 
ATOM     27  C   UNL     1      11.373 -60.088 -28.080  1.00  0.00     0.127 A 
ATOM     28  C   UNL     1      12.919 -60.192 -26.231  1.00  0.00     0.093 A 
ATOM     29  C   UNL     1      12.677 -60.012 -27.594  1.00  0.00     0.046 A 
ATOM     30  F   UNL     1      11.147 -59.906 -29.386  1.00  0.00    -0.207 F 
BRANCH  26  31
ATOM     31  N   UNL     1      12.112 -60.644 -23.958  1.00  0.00     0.066 N 
ATOM     32  O   UNL     1      12.685 -59.729 -23.348  1.00  0.00    -0.258 OA
ATOM     33  O   UNL     1      11.784 -61.714 -23.422  1.00  0.00    -0.258 OA
ENDBRANCH  26  31
ENDBRANCH  23  24
ENDBRANCH  22  23
ENDBRANCH   2  22
TORSDOF 9
ENDMDL
MODEL 6
REMARK VINA RESULT:    -9.172      4.026     10.790
REMARK INTER + INTRA:         -14.671
REMARK INTER:                 -13.910
REMARK INTRA:                  -0.761
REMARK UNBOUND:                -0.672
REMARK SMILES O=C(COc1cc(F)ccc1[N+](=O)[O-])NCC[N@H+]1CC[N@@H+](Cc2ccccc2)CC1
REMARK SMILES IDX 15 1 2 2 1 3 16 5 17 6 18 7 20 8 21 9 19 10 29 11 30 12
REMARK SMILES IDX 22 15 23 16 24 17 28 18 25 19 27 20 26 21 3 22 4 23 5 24
REMARK SMILES IDX 6 25 11 26 7 27 10 28 9 29 8 30 12 31 13 32 14 33
REMARK H PARENT 15 4 21 13 18 14
ROOT
ATOM      1  N   UNL     1      10.334 -54.312 -23.340  1.00  0.00    -0.347 N 
ATOM      2  C   UNL     1      10.136 -53.503 -22.241  1.00  0.00     0.258 C 
ATOM      3  O   UNL     1       9.696 -53.954 -21.184  1.00  0.00    -0.271 OA
ATOM      4  H   UNL     1      10.621 -53.874 -24.214  1.00  0.00     0.163 HD
ENDROOT
BRANCH   1   5
ATOM      5  C   UNL     1      10.002 -55.724 -23.323  1.00  0.00     0.177 C 
BRANCH   5   6
ATOM      6  C   UNL     1      11.223 -56.618 -23.005  1.00  0.00     0.284 C 
BRANCH   6   7
ATOM      7  N   UNL     1      10.889 -57.807 -22.099  1.00  0.00    -0.324 N 
ATOM      8  C   UNL     1       9.500 -59.326 -23.634  1.00  0.00     0.324 C 
ATOM      9  N   UNL     1      10.615 -60.378 -23.590  1.00  0.00    -0.322 N 
ATOM     10  C   UNL     1       9.520 -58.452 -22.356  1.00  0.00     0.324 C 
ATOM     11  C   UNL     1      11.981 -59.745 -23.369  1.00  0.00     0.324 C 
ATOM     12  C   UNL     1      11.995 -58.863 -22.092  1.00  0.00     0.324 C 
ATOM     13  H   UNL     1      10.407 -61.029 -22.819  1.00  0.00     0.348 HD
ATOM     14  H   UNL     1      10.850 -57.419 -21.143  1.00  0.00     0.348 HD
BRANCH   9  15
ATOM     15  C   UNL     1      10.613 -61.263 -24.837  1.00  0.00     0.299 C 
BRANCH  15  16
ATOM     16  C   UNL     1       9.449 -62.212 -24.859  1.00  0.00     0.006 A 
ATOM     17  C   UNL     1       8.715 -62.412 -26.039  1.00  0.00     0.009 A 
ATOM     18  C   UNL     1       9.061 -62.893 -23.693  1.00  0.00     0.009 A 
ATOM     19  C   UNL     1       7.611 -63.265 -26.048  1.00  0.00     0.001 A 
ATOM     20  C   UNL     1       7.957 -63.746 -23.708  1.00  0.00     0.001 A 
ATOM     21  C   UNL     1       7.232 -63.927 -24.883  1.00  0.00     0.000 A 
ENDBRANCH  15  16
ENDBRANCH   9  15
ENDBRANCH   6   7
ENDBRANCH   5   6
ENDBRANCH   1   5
BRANCH   2  22
ATOM     22  C   UNL     1      10.396 -52.022 -22.474  1.00  0.00     0.329 C 
BRANCH  22  23
ATOM     23  O   UNL     1      11.806 -51.862 -22.272  1.00  0.00    -0.477 OA
BRANCH  23  24
ATOM     24  C   UNL     1      12.432 -51.394 -23.395  1.00  0.00     0.200 A 
ATOM     25  C   UNL     1      12.885 -52.326 -24.328  1.00  0.00     0.093 A 
ATOM     26  C   UNL     1      12.577 -50.024 -23.660  1.00  0.00     0.311 A 
ATOM     27  C   UNL     1      13.507 -51.881 -25.492  1.00  0.00     0.127 A 
ATOM     28  C   UNL     1      13.212 -49.581 -24.829  1.00  0.00     0.093 A 
ATOM     29  C   UNL     1      13.679 -50.523 -25.748  1.00  0.00     0.046 A 
ATOM     30  F   UNL     1      13.949 -52.778 -26.381  1.00  0.00    -0.207 F 
BRANCH  26  31
ATOM     31  N   UNL     1      12.108 -49.029 -22.708  1.00  0.00     0.066 N 
ATOM     32  O   UNL     1      10.998 -48.515 -22.911  1.00  0.00    -0.258 OA
ATOM     33  O   UNL     1      12.834 -48.719 -21.750  1.00  0.00    -0.258 OA
ENDBRANCH  26  31
ENDBRANCH  23  24
ENDBRANCH  22  23
ENDBRANCH   2  22
TORSDOF 9
ENDMDL
MODEL 7
REMARK VINA RESULT:    -9.122      4.521     11.180
REMARK INTER + INTRA:         -14.593
REMARK INTER:                 -13.784
REMARK INTRA:                  -0.809
REMARK UNBOUND:                -0.672
REMARK SMILES O=C(COc1cc(F)ccc1[N+](=O)[O-])NCC[N@H+]1CC[N@@H+](Cc2ccccc2)CC1
REMARK SMILES IDX 15 1 2 2 1 3 16 5 17 6 18 7 20 8 21 9 19 10 29 11 30 12
REMARK SMILES IDX 22 15 23 16 24 17 28 18 25 19 27 20 26 21 3 22 4 23 5 24
REMARK SMILES IDX 6 25 11 26 7 27 10 28 9 29 8 30 12 31 13 32 14 33
REMARK H PARENT 15 4 21 13 18 14
ROOT
ATOM      1  N   UNL     1      11.367 -53.956 -23.186  1.00  0.00    -0.347 N 
ATOM      2  C   UNL     1      10.897 -52.935 -22.387  1.00  0.00     0.258 C 
ATOM      3  O   UNL     1       9.787 -52.994 -21.859  1.00  0.00    -0.271 OA
ATOM      4  H   UNL     1      12.255 -53.821 -23.666  1.00  0.00     0.163 HD
ENDROOT
BRANCH   1   5
ATOM      5  C   UNL     1      10.568 -55.132 -23.475  1.00  0.00     0.177 C 
BRANCH   5   6
ATOM      6  C   UNL     1      11.373 -56.446 -23.335  1.00  0.00     0.284 C 
BRANCH   6   7
ATOM      7  N   UNL     1      10.764 -57.429 -22.331  1.00  0.00    -0.324 N 
ATOM      8  C   UNL     1       9.578 -59.133 -23.842  1.00  0.00     0.324 C 
ATOM      9  N   UNL     1      10.567 -60.214 -23.386  1.00  0.00    -0.322 N 
ATOM     10  C   UNL     1       9.422 -58.041 -22.756  1.00  0.00     0.324 C 
ATOM     11  C   UNL     1      11.912 -59.620 -22.995  1.00  0.00     0.324 C 
ATOM     12  C   UNL     1      11.751 -58.520 -21.912  1.00  0.00     0.324 C 
ATOM     13  H   UNL     1      10.155 -60.700 -22.577  1.00  0.00     0.348 HD
ATOM     14  H   UNL     1      10.572 -56.870 -21.485  1.00  0.00     0.348 HD
BRANCH   9  15
ATOM     15  C   UNL     1      10.734 -61.312 -24.437  1.00  0.00     0.299 C 
BRANCH  15  16
ATOM     16  C   UNL     1       9.527 -62.201 -24.527  1.00  0.00     0.006 A 
ATOM     17  C   UNL     1       9.127 -62.975 -23.426  1.00  0.00     0.009 A 
ATOM     18  C   UNL     1       8.796 -62.293 -25.724  1.00  0.00     0.009 A 
ATOM     19  C   UNL     1       8.028 -63.828 -23.525  1.00  0.00     0.001 A 
ATOM     20  C   UNL     1       7.697 -63.148 -25.816  1.00  0.00     0.001 A 
ATOM     21  C   UNL     1       7.317 -63.917 -24.719  1.00  0.00     0.000 A 
ENDBRANCH  15  16
ENDBRANCH   9  15
ENDBRANCH   6   7
ENDBRANCH   5   6
ENDBRANCH   1   5
BRANCH   2  22
ATOM     22  C   UNL     1      11.798 -51.711 -22.306  1.00  0.00     0.329 C 
BRANCH  22  23
ATOM     23  O   UNL     1      12.380 -51.599 -23.611  1.00  0.00    -0.477 OA
BRANCH  23  24
ATOM     24  C   UNL     1      12.550 -50.293 -23.983  1.00  0.00     0.200 A 
ATOM     25  C   UNL     1      11.872 -49.313 -23.258  1.00  0.00     0.093 A 
ATOM     26  C   UNL     1      13.418 -49.912 -25.016  1.00  0.00     0.311 A 
ATOM     27  C   UNL     1      12.041 -47.973 -23.597  1.00  0.00     0.127 A 
ATOM     28  C   UNL     1      13.577 -48.562 -25.361  1.00  0.00     0.093 A 
ATOM     29  C   UNL     1      12.879 -47.590 -24.641  1.00  0.00     0.046 A 
ATOM     30  F   UNL     1      11.382 -47.036 -22.906  1.00  0.00    -0.207 F 
BRANCH  26  31
ATOM     31  N   UNL     1      14.143 -50.912 -25.785  1.00  0.00     0.066 N 
ATOM     32  O   UNL     1      15.233 -51.302 -25.341  1.00  0.00    -0.258 OA
ATOM     33  O   UNL     1      13.661 -51.321 -26.853  1.00  0.00    -0.258 OA
ENDBRANCH  26  31
ENDBRANCH  23  24
ENDBRANCH  22  23
ENDBRANCH   2  22
TORSDOF 9
ENDMDL
MODEL 8
REMARK VINA RESULT:    -9.082      2.388      2.809
REMARK INTER + INTRA:         -14.533
REMARK INTER:                 -13.559
REMARK INTRA:                  -0.974
REMARK UNBOUND:                -0.672
REMARK SMILES O=C(COc1cc(F)ccc1[N+](=O)[O-])NCC[N@H+]1CC[N@@H+](Cc2ccccc2)CC1
REMARK SMILES IDX 15 1 2 2 1 3 16 5 17 6 18 7 20 8 21 9 19 10 29 11 30 12
REMARK SMILES IDX 22 15 23 16 24 17 28 18 25 19 27 20 26 21 3 22 4 23 5 24
REMARK SMILES IDX 6 25 11 26 7 27 10 28 9 29 8 30 12 31 13 32 14 33
REMARK H PARENT 15 4 21 13 18 14
ROOT
ATOM      1  N   UNL     1      10.034 -58.484 -22.863  1.00  0.00    -0.347 N 
ATOM      2  C   UNL     1       8.781 -58.261 -23.396  1.00  0.00     0.258 C 
ATOM      3  O   UNL     1       8.226 -57.168 -23.292  1.00  0.00    -0.271 OA
ATOM      4  H   UNL     1      10.412 -59.429 -22.904  1.00  0.00     0.163 HD
ENDROOT
BRANCH   1   5
ATOM      5  C   UNL     1      10.745 -57.459 -22.124  1.00  0.00     0.177 C 
BRANCH   5   6
ATOM      6  C   UNL     1      11.430 -56.426 -23.050  1.00  0.00     0.284 C 
BRANCH   6   7
ATOM      7  N   UNL     1      10.477 -55.342 -23.564  1.00  0.00    -0.324 N 
ATOM      8  C   UNL     1      10.996 -53.347 -22.033  1.00  0.00     0.324 C 
ATOM      9  N   UNL     1      11.556 -52.579 -23.237  1.00  0.00    -0.322 N 
ATOM     10  C   UNL     1       9.943 -54.387 -22.488  1.00  0.00     0.324 C 
ATOM     11  C   UNL     1      12.119 -53.517 -24.294  1.00  0.00     0.324 C 
ATOM     12  C   UNL     1      11.063 -54.562 -24.742  1.00  0.00     0.324 C 
ATOM     13  H   UNL     1      10.790 -52.021 -23.642  1.00  0.00     0.348 HD
ATOM     14  H   UNL     1       9.658 -55.852 -23.930  1.00  0.00     0.348 HD
BRANCH   9  15
ATOM     15  C   UNL     1      12.593 -51.538 -22.816  1.00  0.00     0.299 C 
BRANCH  15  16
ATOM     16  C   UNL     1      12.174 -50.140 -23.173  1.00  0.00     0.006 A 
ATOM     17  C   UNL     1      12.924 -49.383 -24.087  1.00  0.00     0.009 A 
ATOM     18  C   UNL     1      11.042 -49.560 -22.577  1.00  0.00     0.009 A 
ATOM     19  C   UNL     1      12.554 -48.072 -24.389  1.00  0.00     0.001 A 
ATOM     20  C   UNL     1      10.677 -48.249 -22.883  1.00  0.00     0.001 A 
ATOM     21  C   UNL     1      11.435 -47.505 -23.784  1.00  0.00     0.000 A 
ENDBRANCH  15  16
ENDBRANCH   9  15
ENDBRANCH   6   7
ENDBRANCH   5   6
ENDBRANCH   1   5
BRANCH   2  22
ATOM     22  C   UNL     1       8.113 -59.483 -24.010  1.00  0.00     0.329 C 
BRANCH  22  23
ATOM     23  O   UNL     1       9.168 -60.442 -24.155  1.00  0.00    -0.477 OA
BRANCH  23  24
ATOM     24  C   UNL     1       9.134 -61.058 -25.376  1.00  0.00     0.200 A 
ATOM     25  C   UNL     1       9.878 -60.496 -26.413  1.00  0.00     0.093 A 
ATOM     26  C   UNL     1       8.431 -62.251 -25.598  1.00  0.00     0.311 A 
ATOM     27  C   UNL     1       9.881 -61.110 -27.663  1.00  0.00     0.127 A 
ATOM     28  C   UNL     1       8.429 -62.860 -26.860  1.00  0.00     0.093 A 
ATOM     29  C   UNL     1       9.163 -62.279 -27.897  1.00  0.00     0.046 A 
ATOM     30  F   UNL     1      10.589 -60.563 -28.658  1.00  0.00    -0.207 F 
BRANCH  26  31
ATOM     31  N   UNL     1       7.651 -62.863 -24.533  1.00  0.00     0.066 N 
ATOM     32  O   UNL     1       6.463 -62.526 -24.422  1.00  0.00    -0.258 OA
ATOM     33  O   UNL     1       8.200 -63.674 -23.771  1.00  0.00    -0.258 OA
ENDBRANCH  26  31
ENDBRANCH  23  24
ENDBRANCH  22  23
ENDBRANCH   2  22
TORSDOF 9
ENDMDL
MODEL 9
REMARK VINA RESULT:    -8.838      1.892      3.148
REMARK INTER + INTRA:         -14.160
REMARK INTER:                 -13.405
REMARK INTRA:                  -0.755
REMARK UNBOUND:                -0.672
REMARK SMILES O=C(COc1cc(F)ccc1[N+](=O)[O-])NCC[N@H+]1CC[N@@H+](Cc2ccccc2)CC1
REMARK SMILES IDX 15 1 2 2 1 3 16 5 17 6 18 7 20 8 21 9 19 10 29 11 30 12
REMARK SMILES IDX 22 15 23 16 24 17 28 18 25 19 27 20 26 21 3 22 4 23 5 24
REMARK SMILES IDX 6 25 11 26 7 27 10 28 9 29 8 30 12 31 13 32 14 33
REMARK H PARENT 15 4 21 13 18 14
ROOT
ATOM      1  N   UNL     1      11.123 -55.217 -23.528  1.00  0.00    -0.347 N 
ATOM      2  C   UNL     1      11.317 -56.388 -22.825  1.00  0.00     0.258 C 
ATOM      3  O   UNL     1      11.315 -56.404 -21.594  1.00  0.00    -0.271 OA
ATOM      4  H   UNL     1      11.218 -55.243 -24.542  1.00  0.00     0.163 HD
ENDROOT
BRANCH   1   5
ATOM      5  C   UNL     1      10.942 -53.943 -22.859  1.00  0.00     0.177 C 
BRANCH   5   6
ATOM      6  C   UNL     1      11.721 -52.796 -23.545  1.00  0.00     0.284 C 
BRANCH   6   7
ATOM      7  N   UNL     1      12.418 -51.856 -22.557  1.00  0.00    -0.324 N 
ATOM      8  C   UNL     1      12.701 -49.697 -23.917  1.00  0.00     0.324 C 
ATOM      9  N   UNL     1      11.722 -48.984 -22.976  1.00  0.00    -0.322 N 
ATOM     10  C   UNL     1      13.407 -50.868 -23.189  1.00  0.00     0.324 C 
ATOM     11  C   UNL     1      10.716 -49.951 -22.370  1.00  0.00     0.324 C 
ATOM     12  C   UNL     1      11.426 -51.127 -21.648  1.00  0.00     0.324 C 
ATOM     13  H   UNL     1      12.270 -48.540 -22.226  1.00  0.00     0.348 HD
ATOM     14  H   UNL     1      12.976 -52.471 -21.944  1.00  0.00     0.348 HD
BRANCH   9  15
ATOM     15  C   UNL     1      11.017 -47.817 -23.666  1.00  0.00     0.299 C 
BRANCH  15  16
ATOM     16  C   UNL     1      11.594 -46.488 -23.268  1.00  0.00     0.006 A 
ATOM     17  C   UNL     1      12.866 -46.100 -23.717  1.00  0.00     0.009 A 
ATOM     18  C   UNL     1      10.881 -45.625 -22.420  1.00  0.00     0.009 A 
ATOM     19  C   UNL     1      13.416 -44.882 -23.316  1.00  0.00     0.001 A 
ATOM     20  C   UNL     1      11.435 -44.409 -22.022  1.00  0.00     0.001 A 
ATOM     21  C   UNL     1      12.702 -44.041 -22.466  1.00  0.00     0.000 A 
ENDBRANCH  15  16
ENDBRANCH   9  15
ENDBRANCH   6   7
ENDBRANCH   5   6
ENDBRANCH   1   5
BRANCH   2  22
ATOM     22  C   UNL     1      11.639 -57.607 -23.677  1.00  0.00     0.329 C 
BRANCH  22  23
ATOM     23  O   UNL     1      10.363 -58.168 -24.009  1.00  0.00    -0.477 OA
BRANCH  23  24
ATOM     24  C   UNL     1      10.317 -59.512 -23.761  1.00  0.00     0.200 A 
ATOM     25  C   UNL     1      10.061 -59.928 -22.454  1.00  0.00     0.093 A 
ATOM     26  C   UNL     1      10.459 -60.471 -24.775  1.00  0.00     0.311 A 
ATOM     27  C   UNL     1       9.987 -61.290 -22.172  1.00  0.00     0.127 A 
ATOM     28  C   UNL     1      10.393 -61.840 -24.485  1.00  0.00     0.093 A 
ATOM     29  C   UNL     1      10.155 -62.246 -23.171  1.00  0.00     0.046 A 
ATOM     30  F   UNL     1       9.751 -61.685 -20.916  1.00  0.00    -0.207 F 
BRANCH  26  31
ATOM     31  N   UNL     1      10.720 -60.066 -26.148  1.00  0.00     0.066 N 
ATOM     32  O   UNL     1      11.894 -60.101 -26.546  1.00  0.00    -0.258 OA
ATOM     33  O   UNL     1       9.775 -59.686 -26.857  1.00  0.00    -0.258 OA
ENDBRANCH  26  31
ENDBRANCH  23  24
ENDBRANCH  22  23
ENDBRANCH   2  22
TORSDOF 9
ENDMDL
