MODEL 1
REMARK VINA RESULT:   -13.210      0.000      0.000
REMARK INTER + INTRA:         -18.178
REMARK INTER:                 -17.458
REMARK INTRA:                  -0.721
REMARK UNBOUND:                -0.721
REMARK SMILES O=C1C(=NCCN=c2c3c([nH]c4cc(Cl)ccc24)CCCC3)CC(=O)c2c(O)cccc21
REMARK SMILES IDX 5 1 6 2 7 3 8 4 11 5 10 6 12 7 9 8 19 9 13 10 18 11 22 12
REMARK SMILES IDX 20 13 14 14 17 15 21 16 16 17 15 19 4 20 3 21 23 22 2 23
REMARK SMILES IDX 24 24 32 25 26 26 31 27 27 28 30 29 29 30 1 31 25 32 28 33
REMARK H PARENT 11 18 28 34
ROOT
ATOM      1  C   UNL     1      10.483 -57.731 -23.188  1.00  0.00     0.166 C 
ENDROOT
BRANCH   1   2
ATOM      2  C   UNL     1      11.160 -58.902 -22.468  1.00  0.00     0.166 C 
BRANCH   2   3
ATOM      3  N   UNL     1      11.670 -59.865 -23.424  1.00  0.00    -0.282 NA
BRANCH   3   4
ATOM      4  C   UNL     1      10.990 -60.648 -24.179  1.00  0.00     0.072 A 
ATOM      5  N   UNL     1       9.140 -61.652 -26.077  1.00  0.00    -0.358 N 
ATOM      6  C   UNL     1       9.112 -62.124 -24.780  1.00  0.00     0.021 A 
ATOM      7  C   UNL     1      10.260 -60.961 -26.558  1.00  0.00     0.049 A 
ATOM      8  C   UNL     1       9.978 -61.722 -23.820  1.00  0.00    -0.003 A 
ATOM      9  C   UNL     1       8.048 -63.173 -24.510  1.00  0.00     0.054 C 
ATOM     10  C   UNL     1      10.405 -60.703 -27.926  1.00  0.00     0.047 A 
ATOM     11  C   UNL     1      11.205 -60.451 -25.658  1.00  0.00     0.024 A 
ATOM     12  C   UNL     1      10.010 -62.367 -22.461  1.00  0.00     0.039 C 
ATOM     13  C   UNL     1       7.867 -63.524 -23.036  1.00  0.00     0.007 C 
ATOM     14  C   UNL     1      11.507 -59.982 -28.389  1.00  0.00     0.043 A 
ATOM     15  C   UNL     1      12.307 -59.722 -26.131  1.00  0.00     0.014 A 
ATOM     16  C   UNL     1       9.221 -63.674 -22.365  1.00  0.00     0.005 C 
ATOM     17  C   UNL     1      12.461 -59.494 -27.500  1.00  0.00     0.021 A 
ATOM     18  H   UNL     1       8.601 -62.174 -26.760  1.00  0.00     0.166 HD
ATOM     19  Cl  UNL     1      11.684 -59.686 -30.075  1.00  0.00    -0.084 Cl
ENDBRANCH   3   4
ENDBRANCH   2   3
ENDBRANCH   1   2
BRANCH   1  20
ATOM     20  N   UNL     1      11.488 -56.748 -23.593  1.00  0.00    -0.283 NA
BRANCH  20  21
ATOM     21  C   UNL     1      11.320 -55.492 -23.354  1.00  0.00     0.091 C 
ATOM     22  C   UNL     1      10.790 -54.903 -22.082  1.00  0.00     0.141 C 
ATOM     23  C   UNL     1      11.711 -54.513 -24.446  1.00  0.00     0.208 C 
ATOM     24  C   UNL     1      10.689 -53.407 -22.029  1.00  0.00     0.173 C 
ATOM     25  C   UNL     1      12.097 -53.153 -24.047  1.00  0.00     0.038 A 
ATOM     26  C   UNL     1      11.643 -52.618 -22.843  1.00  0.00     0.071 A 
ATOM     27  C   UNL     1      12.915 -52.401 -24.900  1.00  0.00     0.013 A 
ATOM     28  C   UNL     1      12.054 -51.331 -22.476  1.00  0.00     0.127 A 
ATOM     29  C   UNL     1      13.305 -51.114 -24.534  1.00  0.00     0.005 A 
ATOM     30  C   UNL     1      12.882 -50.581 -23.317  1.00  0.00     0.047 A 
ATOM     31  O   UNL     1      11.734 -54.856 -25.619  1.00  0.00    -0.287 OA
ATOM     32  O   UNL     1       9.852 -52.861 -21.317  1.00  0.00    -0.294 OA
BRANCH  28  33
ATOM     33  O   UNL     1      11.689 -50.804 -21.272  1.00  0.00    -0.507 OA
ATOM     34  H   UNL     1      12.188 -51.227 -20.553  1.00  0.00     0.293 HD
ENDBRANCH  28  33
ENDBRANCH  20  21
ENDBRANCH   1  20
TORSDOF 6
ENDMDL
MODEL 2
REMARK VINA RESULT:   -11.495      1.048      2.010
REMARK INTER + INTRA:         -15.912
REMARK INTER:                 -15.192
REMARK INTRA:                  -0.720
REMARK UNBOUND:                -0.721
REMARK SMILES O=C1C(=NCCN=c2c3c([nH]c4cc(Cl)ccc24)CCCC3)CC(=O)c2c(O)cccc21
REMARK SMILES IDX 5 1 6 2 7 3 8 4 11 5 10 6 12 7 9 8 19 9 13 10 18 11 22 12
REMARK SMILES IDX 20 13 14 14 17 15 21 16 16 17 15 19 4 20 3 21 23 22 2 23
REMARK SMILES IDX 24 24 32 25 26 26 31 27 27 28 30 29 29 30 1 31 25 32 28 33
REMARK H PARENT 11 18 28 34
ROOT
ATOM      1  C   UNL     1       9.894 -57.448 -23.597  1.00  0.00     0.166 C 
ENDROOT
BRANCH   1   2
ATOM      2  C   UNL     1      10.601 -58.457 -22.686  1.00  0.00     0.166 C 
BRANCH   2   3
ATOM      3  N   UNL     1      11.288 -59.462 -23.472  1.00  0.00    -0.282 NA
BRANCH   3   4
ATOM      4  C   UNL     1      10.759 -60.374 -24.203  1.00  0.00     0.072 A 
ATOM      5  N   UNL     1       9.176 -61.729 -26.124  1.00  0.00    -0.358 N 
ATOM      6  C   UNL     1       9.116 -62.110 -24.799  1.00  0.00     0.021 A 
ATOM      7  C   UNL     1      10.235 -60.939 -26.590  1.00  0.00     0.049 A 
ATOM      8  C   UNL     1       9.861 -61.538 -23.823  1.00  0.00    -0.003 A 
ATOM      9  C   UNL     1       8.169 -63.261 -24.512  1.00  0.00     0.054 C 
ATOM     10  C   UNL     1      10.442 -60.760 -27.962  1.00  0.00     0.047 A 
ATOM     11  C   UNL     1      11.050 -60.255 -25.678  1.00  0.00     0.024 A 
ATOM     12  C   UNL     1       9.878 -62.079 -22.419  1.00  0.00     0.039 C 
ATOM     13  C   UNL     1       7.932 -63.529 -23.029  1.00  0.00     0.007 C 
ATOM     14  C   UNL     1      11.478 -59.941 -28.414  1.00  0.00     0.043 A 
ATOM     15  C   UNL     1      12.086 -59.429 -26.139  1.00  0.00     0.014 A 
ATOM     16  C   UNL     1       9.246 -63.464 -22.269  1.00  0.00     0.005 C 
ATOM     17  C   UNL     1      12.305 -59.279 -27.510  1.00  0.00     0.021 A 
ATOM     18  H   UNL     1       8.751 -62.360 -26.796  1.00  0.00     0.166 HD
ATOM     19  Cl  UNL     1      11.732 -59.743 -30.104  1.00  0.00    -0.084 Cl
ENDBRANCH   3   4
ENDBRANCH   2   3
ENDBRANCH   1   2
BRANCH   1  20
ATOM     20  N   UNL     1       9.814 -56.147 -22.932  1.00  0.00    -0.283 NA
BRANCH  20  21
ATOM     21  C   UNL     1      10.658 -55.211 -23.206  1.00  0.00     0.091 C 
ATOM     22  C   UNL     1      11.370 -55.024 -24.511  1.00  0.00     0.141 C 
ATOM     23  C   UNL     1      10.946 -54.190 -22.120  1.00  0.00     0.208 C 
ATOM     24  C   UNL     1      12.304 -53.853 -24.600  1.00  0.00     0.173 C 
ATOM     25  C   UNL     1      11.387 -52.851 -22.533  1.00  0.00     0.038 A 
ATOM     26  C   UNL     1      12.011 -52.665 -23.766  1.00  0.00     0.071 A 
ATOM     27  C   UNL     1      11.185 -51.771 -21.664  1.00  0.00     0.013 A 
ATOM     28  C   UNL     1      12.391 -51.371 -24.143  1.00  0.00     0.127 A 
ATOM     29  C   UNL     1      11.584 -50.490 -22.042  1.00  0.00     0.005 A 
ATOM     30  C   UNL     1      12.179 -50.288 -23.286  1.00  0.00     0.047 A 
ATOM     31  O   UNL     1      10.786 -54.464 -20.940  1.00  0.00    -0.287 OA
ATOM     32  O   UNL     1      13.270 -53.879 -25.358  1.00  0.00    -0.294 OA
BRANCH  28  33
ATOM     33  O   UNL     1      12.937 -51.141 -25.373  1.00  0.00    -0.507 OA
ATOM     34  H   UNL     1      13.017 -51.974 -25.867  1.00  0.00     0.293 HD
ENDBRANCH  28  33
ENDBRANCH  20  21
ENDBRANCH   1  20
TORSDOF 6
ENDMDL
MODEL 3
REMARK VINA RESULT:   -11.387      1.888      3.893
REMARK INTER + INTRA:         -15.768
REMARK INTER:                 -15.671
REMARK INTRA:                  -0.097
REMARK UNBOUND:                -0.721
REMARK SMILES O=C1C(=NCCN=c2c3c([nH]c4cc(Cl)ccc24)CCCC3)CC(=O)c2c(O)cccc21
REMARK SMILES IDX 5 1 6 2 7 3 8 4 11 5 10 6 12 7 9 8 19 9 13 10 18 11 22 12
REMARK SMILES IDX 20 13 14 14 17 15 21 16 16 17 15 19 4 20 3 21 23 22 2 23
REMARK SMILES IDX 24 24 32 25 26 26 31 27 27 28 30 29 29 30 1 31 25 32 28 33
REMARK H PARENT 11 18 28 34
ROOT
ATOM      1  C   UNL     1      10.891 -57.708 -23.756  1.00  0.00     0.166 C 
ENDROOT
BRANCH   1   2
ATOM      2  C   UNL     1      12.020 -58.593 -24.294  1.00  0.00     0.166 C 
BRANCH   2   3
ATOM      3  N   UNL     1      11.500 -59.867 -24.748  1.00  0.00    -0.282 NA
BRANCH   3   4
ATOM      4  C   UNL     1      10.968 -60.130 -25.886  1.00  0.00     0.072 A 
ATOM      5  N   UNL     1      10.080 -61.475 -28.217  1.00  0.00    -0.358 N 
ATOM      6  C   UNL     1      10.897 -60.368 -28.336  1.00  0.00     0.021 A 
ATOM      7  C   UNL     1       9.408 -61.736 -27.016  1.00  0.00     0.049 A 
ATOM      8  C   UNL     1      11.340 -59.650 -27.277  1.00  0.00    -0.003 A 
ATOM      9  C   UNL     1      11.239 -59.984 -29.764  1.00  0.00     0.054 C 
ATOM     10  C   UNL     1       8.393 -62.698 -26.961  1.00  0.00     0.047 A 
ATOM     11  C   UNL     1       9.807 -61.091 -25.838  1.00  0.00     0.024 A 
ATOM     12  C   UNL     1      12.106 -58.366 -27.455  1.00  0.00     0.039 C 
ATOM     13  C   UNL     1      12.317 -58.910 -29.888  1.00  0.00     0.007 C 
ATOM     14  C   UNL     1       7.756 -62.976 -25.751  1.00  0.00     0.043 A 
ATOM     15  C   UNL     1       9.166 -61.380 -24.624  1.00  0.00     0.014 A 
ATOM     16  C   UNL     1      12.072 -57.804 -28.877  1.00  0.00     0.005 C 
ATOM     17  C   UNL     1       8.133 -62.319 -24.583  1.00  0.00     0.021 A 
ATOM     18  H   UNL     1       9.632 -61.800 -29.068  1.00  0.00     0.166 HD
ATOM     19  Cl  UNL     1       6.496 -64.148 -25.701  1.00  0.00    -0.084 Cl
ENDBRANCH   3   4
ENDBRANCH   2   3
ENDBRANCH   1   2
BRANCH   1  20
ATOM     20  N   UNL     1      11.433 -56.726 -22.817  1.00  0.00    -0.283 NA
BRANCH  20  21
ATOM     21  C   UNL     1      11.107 -55.480 -22.902  1.00  0.00     0.091 C 
ATOM     22  C   UNL     1      10.194 -54.745 -21.968  1.00  0.00     0.141 C 
ATOM     23  C   UNL     1      11.716 -54.673 -24.034  1.00  0.00     0.208 C 
ATOM     24  C   UNL     1       9.967 -53.292 -22.261  1.00  0.00     0.173 C 
ATOM     25  C   UNL     1      11.867 -53.225 -23.845  1.00  0.00     0.038 A 
ATOM     26  C   UNL     1      11.049 -52.544 -22.944  1.00  0.00     0.071 A 
ATOM     27  C   UNL     1      12.833 -52.539 -24.592  1.00  0.00     0.013 A 
ATOM     28  C   UNL     1      11.239 -51.169 -22.763  1.00  0.00     0.127 A 
ATOM     29  C   UNL     1      13.003 -51.167 -24.416  1.00  0.00     0.005 A 
ATOM     30  C   UNL     1      12.211 -50.482 -23.496  1.00  0.00     0.047 A 
ATOM     31  O   UNL     1      12.098 -55.218 -25.060  1.00  0.00    -0.287 OA
ATOM     32  O   UNL     1       8.923 -52.741 -21.927  1.00  0.00    -0.294 OA
BRANCH  28  33
ATOM     33  O   UNL     1      10.507 -50.485 -21.837  1.00  0.00    -0.507 OA
ATOM     34  H   UNL     1       9.702 -50.123 -22.243  1.00  0.00     0.293 HD
ENDBRANCH  28  33
ENDBRANCH  20  21
ENDBRANCH   1  20
TORSDOF 6
ENDMDL
MODEL 4
REMARK VINA RESULT:   -10.376      2.707      3.795
REMARK INTER + INTRA:         -14.432
REMARK INTER:                 -14.825
REMARK INTRA:                   0.393
REMARK UNBOUND:                -0.721
REMARK SMILES O=C1C(=NCCN=c2c3c([nH]c4cc(Cl)ccc24)CCCC3)CC(=O)c2c(O)cccc21
REMARK SMILES IDX 5 1 6 2 7 3 8 4 11 5 10 6 12 7 9 8 19 9 13 10 18 11 22 12
REMARK SMILES IDX 20 13 14 14 17 15 21 16 16 17 15 19 4 20 3 21 23 22 2 23
REMARK SMILES IDX 24 24 32 25 26 26 31 27 27 28 30 29 29 30 1 31 25 32 28 33
REMARK H PARENT 11 18 28 34
ROOT
ATOM      1  C   UNL     1      10.645 -57.483 -23.026  1.00  0.00     0.166 C 
ENDROOT
BRANCH   1   2
ATOM      2  C   UNL     1      10.931 -58.876 -23.597  1.00  0.00     0.166 C 
BRANCH   2   3
ATOM      3  N   UNL     1      10.266 -59.053 -24.873  1.00  0.00    -0.282 NA
BRANCH   3   4
ATOM      4  C   UNL     1       9.277 -59.828 -25.134  1.00  0.00     0.072 A 
ATOM      5  N   UNL     1       7.228 -61.773 -24.919  1.00  0.00    -0.358 N 
ATOM      6  C   UNL     1       8.178 -61.890 -25.913  1.00  0.00     0.021 A 
ATOM      7  C   UNL     1       7.048 -60.557 -24.246  1.00  0.00     0.049 A 
ATOM      8  C   UNL     1       9.171 -60.990 -26.105  1.00  0.00    -0.003 A 
ATOM      9  C   UNL     1       8.007 -63.099 -26.815  1.00  0.00     0.054 C 
ATOM     10  C   UNL     1       5.933 -60.355 -23.425  1.00  0.00     0.047 A 
ATOM     11  C   UNL     1       8.032 -59.563 -24.327  1.00  0.00     0.024 A 
ATOM     12  C   UNL     1      10.098 -61.073 -27.289  1.00  0.00     0.039 C 
ATOM     13  C   UNL     1       9.178 -63.351 -27.761  1.00  0.00     0.007 C 
ATOM     14  C   UNL     1       5.784 -59.154 -22.731  1.00  0.00     0.043 A 
ATOM     15  C   UNL     1       7.878 -58.360 -23.621  1.00  0.00     0.014 A 
ATOM     16  C   UNL     1       9.642 -62.044 -28.379  1.00  0.00     0.005 C 
ATOM     17  C   UNL     1       6.748 -58.152 -22.828  1.00  0.00     0.021 A 
ATOM     18  H   UNL     1       6.412 -62.371 -25.001  1.00  0.00     0.166 HD
ATOM     19  Cl  UNL     1       4.399 -58.909 -21.738  1.00  0.00    -0.084 Cl
ENDBRANCH   3   4
ENDBRANCH   2   3
ENDBRANCH   1   2
BRANCH   1  20
ATOM     20  N   UNL     1      11.454 -56.484 -23.723  1.00  0.00    -0.283 NA
BRANCH  20  21
ATOM     21  C   UNL     1      11.269 -55.223 -23.519  1.00  0.00     0.091 C 
ATOM     22  C   UNL     1      10.595 -54.616 -22.326  1.00  0.00     0.141 C 
ATOM     23  C   UNL     1      11.796 -54.260 -24.567  1.00  0.00     0.208 C 
ATOM     24  C   UNL     1      10.502 -53.119 -22.302  1.00  0.00     0.173 C 
ATOM     25  C   UNL     1      12.143 -52.899 -24.140  1.00  0.00     0.038 A 
ATOM     26  C   UNL     1      11.552 -52.346 -23.004  1.00  0.00     0.071 A 
ATOM     27  C   UNL     1      13.063 -52.163 -24.897  1.00  0.00     0.013 A 
ATOM     28  C   UNL     1      11.928 -51.057 -22.605  1.00  0.00     0.127 A 
ATOM     29  C   UNL     1      13.417 -50.874 -24.500  1.00  0.00     0.005 A 
ATOM     30  C   UNL     1      12.856 -50.323 -23.349  1.00  0.00     0.047 A 
ATOM     31  O   UNL     1      11.956 -54.617 -25.725  1.00  0.00    -0.287 OA
ATOM     32  O   UNL     1       9.590 -52.558 -21.701  1.00  0.00    -0.294 OA
BRANCH  28  33
ATOM     33  O   UNL     1      11.425 -50.514 -21.459  1.00  0.00    -0.507 OA
ATOM     34  H   UNL     1      10.608 -50.024 -21.648  1.00  0.00     0.293 HD
ENDBRANCH  28  33
ENDBRANCH  20  21
ENDBRANCH   1  20
TORSDOF 6
ENDMDL
MODEL 5
REMARK VINA RESULT:   -10.222      5.553      9.115
REMARK INTER + INTRA:         -14.229
REMARK INTER:                 -13.160
REMARK INTRA:                  -1.070
REMARK UNBOUND:                -0.721
REMARK SMILES O=C1C(=NCCN=c2c3c([nH]c4cc(Cl)ccc24)CCCC3)CC(=O)c2c(O)cccc21
REMARK SMILES IDX 5 1 6 2 7 3 8 4 11 5 10 6 12 7 9 8 19 9 13 10 18 11 22 12
REMARK SMILES IDX 20 13 14 14 17 15 21 16 16 17 15 19 4 20 3 21 23 22 2 23
REMARK SMILES IDX 24 24 32 25 26 26 31 27 27 28 30 29 29 30 1 31 25 32 28 33
REMARK H PARENT 11 18 28 34
ROOT
ATOM      1  C   UNL     1       9.799 -48.865 -22.849  1.00  0.00     0.166 C 
ENDROOT
BRANCH   1   2
ATOM      2  C   UNL     1       9.866 -50.129 -21.987  1.00  0.00     0.166 C 
BRANCH   2   3
ATOM      3  N   UNL     1      11.206 -50.683 -21.992  1.00  0.00    -0.282 NA
BRANCH   3   4
ATOM      4  C   UNL     1      11.649 -51.641 -22.721  1.00  0.00     0.072 A 
ATOM      5  N   UNL     1      12.204 -53.341 -24.920  1.00  0.00    -0.358 N 
ATOM      6  C   UNL     1      11.611 -53.861 -23.787  1.00  0.00     0.021 A 
ATOM      7  C   UNL     1      12.844 -52.095 -24.879  1.00  0.00     0.049 A 
ATOM      8  C   UNL     1      11.340 -53.127 -22.682  1.00  0.00    -0.003 A 
ATOM      9  C   UNL     1      11.313 -55.348 -23.854  1.00  0.00     0.054 C 
ATOM     10  C   UNL     1      13.657 -51.676 -25.938  1.00  0.00     0.047 A 
ATOM     11  C   UNL     1      12.605 -51.222 -23.809  1.00  0.00     0.024 A 
ATOM     12  C   UNL     1      10.830 -53.760 -21.415  1.00  0.00     0.039 C 
ATOM     13  C   UNL     1      10.457 -55.872 -22.704  1.00  0.00     0.007 C 
ATOM     14  C   UNL     1      14.259 -50.418 -25.903  1.00  0.00     0.043 A 
ATOM     15  C   UNL     1      13.210 -49.957 -23.784  1.00  0.00     0.014 A 
ATOM     16  C   UNL     1      10.935 -55.286 -21.387  1.00  0.00     0.005 C 
ATOM     17  C   UNL     1      14.045 -49.558 -24.829  1.00  0.00     0.021 A 
ATOM     18  H   UNL     1      12.559 -54.012 -25.593  1.00  0.00     0.166 HD
ATOM     19  Cl  UNL     1      15.273 -49.922 -27.202  1.00  0.00    -0.084 Cl
ENDBRANCH   3   4
ENDBRANCH   2   3
ENDBRANCH   1   2
BRANCH   1  20
ATOM     20  N   UNL     1      10.494 -47.767 -22.178  1.00  0.00    -0.283 NA
BRANCH  20  21
ATOM     21  C   UNL     1      11.183 -46.909 -22.853  1.00  0.00     0.091 C 
ATOM     22  C   UNL     1      11.428 -46.947 -24.331  1.00  0.00     0.141 C 
ATOM     23  C   UNL     1      11.787 -45.743 -22.091  1.00  0.00     0.208 C 
ATOM     24  C   UNL     1      12.258 -45.833 -24.898  1.00  0.00     0.173 C 
ATOM     25  C   UNL     1      12.042 -44.498 -22.827  1.00  0.00     0.038 A 
ATOM     26  C   UNL     1      12.227 -44.523 -24.208  1.00  0.00     0.071 A 
ATOM     27  C   UNL     1      12.111 -43.292 -22.118  1.00  0.00     0.013 A 
ATOM     28  C   UNL     1      12.437 -43.314 -24.884  1.00  0.00     0.127 A 
ATOM     29  C   UNL     1      12.338 -42.097 -22.798  1.00  0.00     0.005 A 
ATOM     30  C   UNL     1      12.492 -42.106 -24.183  1.00  0.00     0.047 A 
ATOM     31  O   UNL     1      12.025 -45.829 -20.895  1.00  0.00    -0.287 OA
ATOM     32  O   UNL     1      12.925 -46.005 -25.914  1.00  0.00    -0.294 OA
BRANCH  28  33
ATOM     33  O   UNL     1      12.548 -43.293 -26.244  1.00  0.00    -0.507 OA
ATOM     34  H   UNL     1      12.687 -44.192 -26.586  1.00  0.00     0.293 HD
ENDBRANCH  28  33
ENDBRANCH  20  21
ENDBRANCH   1  20
TORSDOF 6
ENDMDL
