MODEL 1
REMARK VINA RESULT:   -10.048      0.000      0.000
REMARK INTER + INTRA:         -15.771
REMARK INTER:                 -15.041
REMARK INTRA:                  -0.730
REMARK UNBOUND:                -0.730
REMARK SMILES COc1cc2c(cc1OC)S[C@@H](C(O)=CCc1cc[n+](Cc3ccsc3)cc1)C2
REMARK SMILES IDX 15 1 13 2 14 3 12 5 29 6 11 7 5 8 6 9 4 10 7 11 3 12 8 13
REMARK SMILES IDX 2 14 1 15 9 16 10 17 16 18 17 19 18 20 28 21 19 22 27 23
REMARK SMILES IDX 20 24 21 25 22 26 23 27 26 28 24 29 25 30
REMARK H PARENT 14 4
ROOT
ATOM      1  C   UNL     1      10.520 -55.375 -22.465  1.00  0.00     0.020 C 
ENDROOT
BRANCH   1   2
ATOM      2  C   UNL     1      10.338 -54.072 -22.195  1.00  0.00     0.102 C 
BRANCH   2   3
ATOM      3  O   UNL     1       9.136 -53.676 -21.618  1.00  0.00    -0.511 OA
ATOM      4  H   UNL     1       8.804 -52.918 -22.146  1.00  0.00     0.293 HD
ENDBRANCH   2   3
BRANCH   2   5
ATOM      5  C   UNL     1      11.357 -52.971 -22.445  1.00  0.00     0.121 C 
ATOM      6  C   UNL     1      11.920 -52.837 -23.876  1.00  0.00     0.059 C 
ATOM      7  S   UNL     1      10.637 -51.326 -22.056  1.00  0.00    -0.114 SA
ATOM      8  C   UNL     1      12.354 -51.408 -24.047  1.00  0.00    -0.029 A 
ATOM      9  C   UNL     1      11.725 -50.510 -23.187  1.00  0.00     0.015 A 
ATOM     10  C   UNL     1      13.243 -50.949 -25.014  1.00  0.00     0.055 A 
ATOM     11  C   UNL     1      11.968 -49.148 -23.258  1.00  0.00     0.065 A 
ATOM     12  C   UNL     1      13.512 -49.577 -25.100  1.00  0.00     0.161 A 
ATOM     13  C   UNL     1      12.870 -48.672 -24.217  1.00  0.00     0.161 A 
BRANCH  12  14
ATOM     14  O   UNL     1      14.376 -49.014 -26.007  1.00  0.00    -0.493 OA
ATOM     15  C   UNL     1      14.716 -49.770 -27.159  1.00  0.00     0.278 C 
ENDBRANCH  12  14
BRANCH  13  16
ATOM     16  O   UNL     1      13.197 -47.347 -24.379  1.00  0.00    -0.493 OA
ATOM     17  C   UNL     1      12.141 -46.397 -24.355  1.00  0.00     0.278 C 
ENDBRANCH  13  16
ENDBRANCH   2   5
ENDBRANCH   1   2
BRANCH   1  18
ATOM     18  C   UNL     1      11.307 -56.325 -21.607  1.00  0.00     0.067 C 
BRANCH  18  19
ATOM     19  C   UNL     1      11.318 -57.729 -22.166  1.00  0.00    -0.032 A 
ATOM     20  C   UNL     1      11.669 -57.948 -23.499  1.00  0.00     0.075 A 
ATOM     21  C   UNL     1      10.951 -58.823 -21.385  1.00  0.00     0.075 A 
ATOM     22  C   UNL     1      11.657 -59.237 -24.015  1.00  0.00     0.308 A 
ATOM     23  C   UNL     1      10.956 -60.098 -21.943  1.00  0.00     0.308 A 
ATOM     24  N   UNL     1      11.306 -60.287 -23.238  1.00  0.00    -0.201 N 
BRANCH  24  25
ATOM     25  C   UNL     1      11.300 -61.657 -23.805  1.00  0.00     0.394 C 
BRANCH  25  26
ATOM     26  C   UNL     1       9.924 -62.242 -23.730  1.00  0.00     0.027 A 
ATOM     27  C   UNL     1       9.520 -63.253 -22.791  1.00  0.00     0.022 A 
ATOM     28  C   UNL     1       8.868 -61.898 -24.555  1.00  0.00     0.075 A 
ATOM     29  C   UNL     1       8.197 -63.611 -22.932  1.00  0.00     0.065 A 
ATOM     30  S   UNL     1       7.430 -62.746 -24.187  1.00  0.00    -0.152 S 
ENDBRANCH  25  26
ENDBRANCH  24  25
ENDBRANCH  18  19
ENDBRANCH   1  18
TORSDOF 9
ENDMDL
MODEL 2
REMARK VINA RESULT:    -9.988      1.067      2.043
REMARK INTER + INTRA:         -15.681
REMARK INTER:                 -15.186
REMARK INTRA:                  -0.495
REMARK UNBOUND:                -0.730
REMARK SMILES COc1cc2c(cc1OC)S[C@@H](C(O)=CCc1cc[n+](Cc3ccsc3)cc1)C2
REMARK SMILES IDX 15 1 13 2 14 3 12 5 29 6 11 7 5 8 6 9 4 10 7 11 3 12 8 13
REMARK SMILES IDX 2 14 1 15 9 16 10 17 16 18 17 19 18 20 28 21 19 22 27 23
REMARK SMILES IDX 20 24 21 25 22 26 23 27 26 28 24 29 25 30
REMARK H PARENT 14 4
ROOT
ATOM      1  C   UNL     1      10.553 -55.427 -22.320  1.00  0.00     0.020 C 
ENDROOT
BRANCH   1   2
ATOM      2  C   UNL     1      10.596 -54.098 -22.134  1.00  0.00     0.102 C 
BRANCH   2   3
ATOM      3  O   UNL     1      10.332 -53.597 -20.864  1.00  0.00    -0.511 OA
ATOM      4  H   UNL     1       9.999 -52.682 -20.984  1.00  0.00     0.293 HD
ENDBRANCH   2   3
BRANCH   2   5
ATOM      5  C   UNL     1      10.938 -53.071 -23.203  1.00  0.00     0.121 C 
ATOM      6  C   UNL     1      11.582 -51.748 -22.737  1.00  0.00     0.059 C 
ATOM      7  S   UNL     1      12.119 -53.779 -24.420  1.00  0.00    -0.114 SA
ATOM      8  C   UNL     1      12.378 -51.214 -23.894  1.00  0.00    -0.029 A 
ATOM      9  C   UNL     1      12.761 -52.180 -24.823  1.00  0.00     0.015 A 
ATOM     10  C   UNL     1      12.795 -49.895 -24.041  1.00  0.00     0.055 A 
ATOM     11  C   UNL     1      13.552 -51.862 -25.915  1.00  0.00     0.065 A 
ATOM     12  C   UNL     1      13.587 -49.546 -25.142  1.00  0.00     0.161 A 
ATOM     13  C   UNL     1      13.968 -50.536 -26.084  1.00  0.00     0.161 A 
BRANCH  12  14
ATOM     14  O   UNL     1      14.048 -48.277 -25.393  1.00  0.00    -0.493 OA
ATOM     15  C   UNL     1      13.221 -47.184 -25.020  1.00  0.00     0.278 C 
ENDBRANCH  12  14
BRANCH  13  16
ATOM     16  O   UNL     1      14.746 -50.098 -27.129  1.00  0.00    -0.493 OA
ATOM     17  C   UNL     1      16.147 -50.000 -26.915  1.00  0.00     0.278 C 
ENDBRANCH  13  16
ENDBRANCH   2   5
ENDBRANCH   1   2
BRANCH   1  18
ATOM     18  C   UNL     1      11.247 -56.436 -21.448  1.00  0.00     0.067 C 
BRANCH  18  19
ATOM     19  C   UNL     1      11.272 -57.812 -22.071  1.00  0.00    -0.032 A 
ATOM     20  C   UNL     1      11.652 -57.969 -23.406  1.00  0.00     0.075 A 
ATOM     21  C   UNL     1      10.892 -58.943 -21.350  1.00  0.00     0.075 A 
ATOM     22  C   UNL     1      11.653 -59.233 -23.981  1.00  0.00     0.308 A 
ATOM     23  C   UNL     1      10.911 -60.190 -21.966  1.00  0.00     0.308 A 
ATOM     24  N   UNL     1      11.288 -60.318 -23.261  1.00  0.00    -0.201 N 
BRANCH  24  25
ATOM     25  C   UNL     1      11.297 -61.660 -23.891  1.00  0.00     0.394 C 
BRANCH  25  26
ATOM     26  C   UNL     1       9.930 -62.267 -23.836  1.00  0.00     0.027 A 
ATOM     27  C   UNL     1       9.509 -63.237 -22.862  1.00  0.00     0.022 A 
ATOM     28  C   UNL     1       8.899 -61.984 -24.715  1.00  0.00     0.075 A 
ATOM     29  C   UNL     1       8.198 -63.627 -23.032  1.00  0.00     0.065 A 
ATOM     30  S   UNL     1       7.462 -62.840 -24.356  1.00  0.00    -0.152 S 
ENDBRANCH  25  26
ENDBRANCH  24  25
ENDBRANCH  18  19
ENDBRANCH   1  18
TORSDOF 9
ENDMDL
MODEL 3
REMARK VINA RESULT:    -9.945      1.054      1.210
REMARK INTER + INTRA:         -15.616
REMARK INTER:                 -14.900
REMARK INTRA:                  -0.716
REMARK UNBOUND:                -0.730
REMARK SMILES COc1cc2c(cc1OC)S[C@@H](C(O)=CCc1cc[n+](Cc3ccsc3)cc1)C2
REMARK SMILES IDX 15 1 13 2 14 3 12 5 29 6 11 7 5 8 6 9 4 10 7 11 3 12 8 13
REMARK SMILES IDX 2 14 1 15 9 16 10 17 16 18 17 19 18 20 28 21 19 22 27 23
REMARK SMILES IDX 20 24 21 25 22 26 23 27 26 28 24 29 25 30
REMARK H PARENT 14 4
ROOT
ATOM      1  C   UNL     1      10.537 -54.759 -22.540  1.00  0.00     0.020 C 
ENDROOT
BRANCH   1   2
ATOM      2  C   UNL     1      10.649 -53.426 -22.413  1.00  0.00     0.102 C 
BRANCH   2   3
ATOM      3  O   UNL     1       9.642 -52.736 -21.748  1.00  0.00    -0.511 OA
ATOM      4  H   UNL     1       8.800 -53.198 -21.952  1.00  0.00     0.293 HD
ENDBRANCH   2   3
BRANCH   2   5
ATOM      5  C   UNL     1      11.814 -52.590 -22.919  1.00  0.00     0.121 C 
ATOM      6  C   UNL     1      12.253 -52.797 -24.385  1.00  0.00     0.059 C 
ATOM      7  S   UNL     1      11.428 -50.799 -22.781  1.00  0.00    -0.114 SA
ATOM      8  C   UNL     1      12.908 -51.521 -24.833  1.00  0.00    -0.029 A 
ATOM      9  C   UNL     1      12.528 -50.394 -24.107  1.00  0.00     0.015 A 
ATOM     10  C   UNL     1      13.767 -51.398 -25.922  1.00  0.00     0.055 A 
ATOM     11  C   UNL     1      12.994 -49.131 -24.433  1.00  0.00     0.065 A 
ATOM     12  C   UNL     1      14.258 -50.133 -26.265  1.00  0.00     0.161 A 
ATOM     13  C   UNL     1      13.869 -48.993 -25.517  1.00  0.00     0.161 A 
BRANCH  12  14
ATOM     14  O   UNL     1      15.117 -49.894 -27.311  1.00  0.00    -0.493 OA
ATOM     15  C   UNL     1      16.505 -50.095 -27.090  1.00  0.00     0.278 C 
ENDBRANCH  12  14
BRANCH  13  16
ATOM     16  O   UNL     1      14.402 -47.796 -25.932  1.00  0.00    -0.493 OA
ATOM     17  C   UNL     1      14.228 -46.666 -25.089  1.00  0.00     0.278 C 
ENDBRANCH  13  16
ENDBRANCH   2   5
ENDBRANCH   1   2
BRANCH   1  18
ATOM     18  C   UNL     1      11.038 -55.759 -21.536  1.00  0.00     0.067 C 
BRANCH  18  19
ATOM     19  C   UNL     1      11.310 -57.109 -22.159  1.00  0.00    -0.032 A 
ATOM     20  C   UNL     1      11.626 -57.203 -23.516  1.00  0.00     0.075 A 
ATOM     21  C   UNL     1      11.223 -58.283 -21.413  1.00  0.00     0.075 A 
ATOM     22  C   UNL     1      11.854 -58.447 -24.088  1.00  0.00     0.308 A 
ATOM     23  C   UNL     1      11.462 -59.507 -22.027  1.00  0.00     0.308 A 
ATOM     24  N   UNL     1      11.772 -59.574 -23.344  1.00  0.00    -0.201 N 
BRANCH  24  25
ATOM     25  C   UNL     1      12.021 -60.894 -23.972  1.00  0.00     0.394 C 
BRANCH  25  26
ATOM     26  C   UNL     1      10.738 -61.656 -24.098  1.00  0.00     0.027 A 
ATOM     27  C   UNL     1      10.305 -62.678 -23.184  1.00  0.00     0.022 A 
ATOM     28  C   UNL     1       9.809 -61.487 -25.110  1.00  0.00     0.075 A 
ATOM     29  C   UNL     1       9.084 -63.216 -23.527  1.00  0.00     0.065 A 
ATOM     30  S   UNL     1       8.448 -62.508 -24.944  1.00  0.00    -0.152 S 
ENDBRANCH  25  26
ENDBRANCH  24  25
ENDBRANCH  18  19
ENDBRANCH   1  18
TORSDOF 9
ENDMDL
MODEL 4
REMARK VINA RESULT:    -9.170      4.411     10.049
REMARK INTER + INTRA:         -14.457
REMARK INTER:                 -13.698
REMARK INTRA:                  -0.758
REMARK UNBOUND:                -0.730
REMARK SMILES COc1cc2c(cc1OC)S[C@@H](C(O)=CCc1cc[n+](Cc3ccsc3)cc1)C2
REMARK SMILES IDX 15 1 13 2 14 3 12 5 29 6 11 7 5 8 6 9 4 10 7 11 3 12 8 13
REMARK SMILES IDX 2 14 1 15 9 16 10 17 16 18 17 19 18 20 28 21 19 22 27 23
REMARK SMILES IDX 20 24 21 25 22 26 23 27 26 28 24 29 25 30
REMARK H PARENT 14 4
ROOT
ATOM      1  C   UNL     1      10.720 -59.052 -20.917  1.00  0.00     0.020 C 
ENDROOT
BRANCH   1   2
ATOM      2  C   UNL     1      10.147 -60.044 -21.619  1.00  0.00     0.102 C 
BRANCH   2   3
ATOM      3  O   UNL     1       9.858 -61.237 -20.967  1.00  0.00    -0.511 OA
ATOM      4  H   UNL     1      10.447 -61.281 -20.183  1.00  0.00     0.293 HD
ENDBRANCH   2   3
BRANCH   2   5
ATOM      5  C   UNL     1       9.756 -59.969 -23.087  1.00  0.00     0.121 C 
ATOM      6  C   UNL     1      10.891 -59.768 -24.115  1.00  0.00     0.059 C 
ATOM      7  S   UNL     1       8.906 -61.514 -23.605  1.00  0.00    -0.114 SA
ATOM      8  C   UNL     1      10.412 -60.344 -25.418  1.00  0.00    -0.029 A 
ATOM      9  C   UNL     1       9.407 -61.301 -25.289  1.00  0.00     0.015 A 
ATOM     10  C   UNL     1      10.940 -60.045 -26.670  1.00  0.00     0.055 A 
ATOM     11  C   UNL     1       8.901 -61.972 -26.390  1.00  0.00     0.065 A 
ATOM     12  C   UNL     1      10.438 -60.703 -27.799  1.00  0.00     0.161 A 
ATOM     13  C   UNL     1       9.412 -61.673 -27.658  1.00  0.00     0.161 A 
BRANCH  12  14
ATOM     14  O   UNL     1      10.876 -60.482 -29.082  1.00  0.00    -0.493 OA
ATOM     15  C   UNL     1      11.840 -59.461 -29.288  1.00  0.00     0.278 C 
ENDBRANCH  12  14
BRANCH  13  16
ATOM     16  O   UNL     1       8.986 -62.266 -28.822  1.00  0.00    -0.493 OA
ATOM     17  C   UNL     1       8.266 -63.486 -28.720  1.00  0.00     0.278 C 
ENDBRANCH  13  16
ENDBRANCH   2   5
ENDBRANCH   1   2
BRANCH   1  18
ATOM     18  C   UNL     1      11.758 -58.110 -21.459  1.00  0.00     0.067 C 
BRANCH  18  19
ATOM     19  C   UNL     1      11.193 -56.737 -21.745  1.00  0.00    -0.032 A 
ATOM     20  C   UNL     1      10.690 -56.438 -23.013  1.00  0.00     0.075 A 
ATOM     21  C   UNL     1      11.189 -55.738 -20.774  1.00  0.00     0.075 A 
ATOM     22  C   UNL     1      10.192 -55.169 -23.278  1.00  0.00     0.308 A 
ATOM     23  C   UNL     1      10.678 -54.481 -21.083  1.00  0.00     0.308 A 
ATOM     24  N   UNL     1      10.190 -54.216 -22.318  1.00  0.00    -0.201 N 
BRANCH  24  25
ATOM     25  C   UNL     1       9.652 -52.866 -22.618  1.00  0.00     0.394 C 
BRANCH  25  26
ATOM     26  C   UNL     1      10.770 -51.875 -22.720  1.00  0.00     0.027 A 
ATOM     27  C   UNL     1      11.976 -52.083 -23.474  1.00  0.00     0.022 A 
ATOM     28  C   UNL     1      10.795 -50.639 -22.099  1.00  0.00     0.075 A 
ATOM     29  C   UNL     1      12.838 -51.011 -23.407  1.00  0.00     0.065 A 
ATOM     30  S   UNL     1      12.215 -49.749 -22.441  1.00  0.00    -0.152 S 
ENDBRANCH  25  26
ENDBRANCH  24  25
ENDBRANCH  18  19
ENDBRANCH   1  18
TORSDOF 9
ENDMDL
MODEL 5
REMARK VINA RESULT:    -9.114      1.607      2.769
REMARK INTER + INTRA:         -14.373
REMARK INTER:                 -13.684
REMARK INTRA:                  -0.689
REMARK UNBOUND:                -0.730
REMARK SMILES COc1cc2c(cc1OC)S[C@@H](C(O)=CCc1cc[n+](Cc3ccsc3)cc1)C2
REMARK SMILES IDX 15 1 13 2 14 3 12 5 29 6 11 7 5 8 6 9 4 10 7 11 3 12 8 13
REMARK SMILES IDX 2 14 1 15 9 16 10 17 16 18 17 19 18 20 28 21 19 22 27 23
REMARK SMILES IDX 20 24 21 25 22 26 23 27 26 28 24 29 25 30
REMARK H PARENT 14 4
ROOT
ATOM      1  C   UNL     1      11.070 -54.229 -22.283  1.00  0.00     0.020 C 
ENDROOT
BRANCH   1   2
ATOM      2  C   UNL     1      10.950 -52.958 -21.864  1.00  0.00     0.102 C 
BRANCH   2   3
ATOM      3  O   UNL     1      10.847 -52.718 -20.498  1.00  0.00    -0.511 OA
ATOM      4  H   UNL     1       9.902 -52.833 -20.261  1.00  0.00     0.293 HD
ENDBRANCH   2   3
BRANCH   2   5
ATOM      5  C   UNL     1      10.942 -51.733 -22.764  1.00  0.00     0.121 C 
ATOM      6  C   UNL     1      10.374 -50.423 -22.176  1.00  0.00     0.059 C 
ATOM      7  S   UNL     1      12.649 -51.319 -23.303  1.00  0.00    -0.114 SA
ATOM      8  C   UNL     1      11.018 -49.290 -22.924  1.00  0.00    -0.029 A 
ATOM      9  C   UNL     1      12.235 -49.613 -23.522  1.00  0.00     0.015 A 
ATOM     10  C   UNL     1      10.529 -47.988 -22.984  1.00  0.00     0.055 A 
ATOM     11  C   UNL     1      12.985 -48.663 -24.196  1.00  0.00     0.065 A 
ATOM     12  C   UNL     1      11.265 -47.013 -23.669  1.00  0.00     0.161 A 
ATOM     13  C   UNL     1      12.500 -47.352 -24.278  1.00  0.00     0.161 A 
BRANCH  12  14
ATOM     14  O   UNL     1      10.877 -45.701 -23.801  1.00  0.00    -0.493 OA
ATOM     15  C   UNL     1      10.629 -44.960 -22.615  1.00  0.00     0.278 C 
ENDBRANCH  12  14
BRANCH  13  16
ATOM     16  O   UNL     1      13.150 -46.328 -24.924  1.00  0.00    -0.493 OA
ATOM     17  C   UNL     1      14.369 -45.859 -24.366  1.00  0.00     0.278 C 
ENDBRANCH  13  16
ENDBRANCH   2   5
ENDBRANCH   1   2
BRANCH   1  18
ATOM     18  C   UNL     1      10.853 -55.439 -21.418  1.00  0.00     0.067 C 
BRANCH  18  19
ATOM     19  C   UNL     1      11.238 -56.721 -22.118  1.00  0.00    -0.032 A 
ATOM     20  C   UNL     1      11.381 -57.902 -21.387  1.00  0.00     0.075 A 
ATOM     21  C   UNL     1      11.489 -56.753 -23.489  1.00  0.00     0.075 A 
ATOM     22  C   UNL     1      11.756 -59.074 -22.031  1.00  0.00     0.308 A 
ATOM     23  C   UNL     1      11.859 -57.949 -24.093  1.00  0.00     0.308 A 
ATOM     24  N   UNL     1      11.986 -59.084 -23.363  1.00  0.00    -0.201 N 
BRANCH  24  25
ATOM     25  C   UNL     1      12.384 -60.345 -24.035  1.00  0.00     0.394 C 
BRANCH  25  26
ATOM     26  C   UNL     1      11.172 -61.155 -24.374  1.00  0.00     0.027 A 
ATOM     27  C   UNL     1      10.629 -62.195 -23.544  1.00  0.00     0.022 A 
ATOM     28  C   UNL     1      10.422 -61.018 -25.530  1.00  0.00     0.075 A 
ATOM     29  C   UNL     1       9.505 -62.778 -24.087  1.00  0.00     0.065 A 
ATOM     30  S   UNL     1       9.092 -62.090 -25.593  1.00  0.00    -0.152 S 
ENDBRANCH  25  26
ENDBRANCH  24  25
ENDBRANCH  18  19
ENDBRANCH   1  18
TORSDOF 9
ENDMDL
MODEL 6
REMARK VINA RESULT:    -8.677      1.650      2.209
REMARK INTER + INTRA:         -13.719
REMARK INTER:                 -13.393
REMARK INTRA:                  -0.326
REMARK UNBOUND:                -0.730
REMARK SMILES COc1cc2c(cc1OC)S[C@@H](C(O)=CCc1cc[n+](Cc3ccsc3)cc1)C2
REMARK SMILES IDX 15 1 13 2 14 3 12 5 29 6 11 7 5 8 6 9 4 10 7 11 3 12 8 13
REMARK SMILES IDX 2 14 1 15 9 16 10 17 16 18 17 19 18 20 28 21 19 22 27 23
REMARK SMILES IDX 20 24 21 25 22 26 23 27 26 28 24 29 25 30
REMARK H PARENT 14 4
ROOT
ATOM      1  C   UNL     1      10.510 -54.016 -22.898  1.00  0.00     0.020 C 
ENDROOT
BRANCH   1   2
ATOM      2  C   UNL     1      11.472 -53.256 -23.445  1.00  0.00     0.102 C 
BRANCH   2   3
ATOM      3  O   UNL     1      12.118 -53.722 -24.585  1.00  0.00    -0.511 OA
ATOM      4  H   UNL     1      11.773 -53.197 -25.340  1.00  0.00     0.293 HD
ENDBRANCH   2   3
BRANCH   2   5
ATOM      5  C   UNL     1      11.913 -51.893 -22.934  1.00  0.00     0.121 C 
ATOM      6  C   UNL     1      12.727 -51.002 -23.896  1.00  0.00     0.059 C 
ATOM      7  S   UNL     1      10.454 -50.882 -22.459  1.00  0.00    -0.114 SA
ATOM      8  C   UNL     1      12.500 -49.577 -23.475  1.00  0.00    -0.029 A 
ATOM      9  C   UNL     1      11.324 -49.371 -22.756  1.00  0.00     0.015 A 
ATOM     10  C   UNL     1      13.316 -48.502 -23.812  1.00  0.00     0.055 A 
ATOM     11  C   UNL     1      10.938 -48.104 -22.349  1.00  0.00     0.065 A 
ATOM     12  C   UNL     1      12.952 -47.213 -23.402  1.00  0.00     0.161 A 
ATOM     13  C   UNL     1      11.756 -47.013 -22.667  1.00  0.00     0.161 A 
BRANCH  12  14
ATOM     14  O   UNL     1      13.683 -46.081 -23.668  1.00  0.00    -0.493 OA
ATOM     15  C   UNL     1      14.224 -45.931 -24.973  1.00  0.00     0.278 C 
ENDBRANCH  12  14
BRANCH  13  16
ATOM     16  O   UNL     1      11.482 -45.714 -22.312  1.00  0.00    -0.493 OA
ATOM     17  C   UNL     1      10.244 -45.159 -22.731  1.00  0.00     0.278 C 
ENDBRANCH  13  16
ENDBRANCH   2   5
ENDBRANCH   1   2
BRANCH   1  18
ATOM     18  C   UNL     1      10.717 -54.964 -21.750  1.00  0.00     0.067 C 
BRANCH  18  19
ATOM     19  C   UNL     1      11.111 -56.348 -22.212  1.00  0.00    -0.032 A 
ATOM     20  C   UNL     1      11.394 -56.581 -23.559  1.00  0.00     0.075 A 
ATOM     21  C   UNL     1      11.169 -57.420 -21.324  1.00  0.00     0.075 A 
ATOM     22  C   UNL     1      11.735 -57.859 -23.984  1.00  0.00     0.308 A 
ATOM     23  C   UNL     1      11.518 -58.683 -21.793  1.00  0.00     0.308 A 
ATOM     24  N   UNL     1      11.793 -58.884 -23.103  1.00  0.00    -0.201 N 
BRANCH  24  25
ATOM     25  C   UNL     1      12.160 -60.242 -23.574  1.00  0.00     0.394 C 
BRANCH  25  26
ATOM     26  C   UNL     1      10.930 -61.071 -23.773  1.00  0.00     0.027 A 
ATOM     27  C   UNL     1      10.710 -62.358 -23.174  1.00  0.00     0.022 A 
ATOM     28  C   UNL     1       9.851 -60.714 -24.564  1.00  0.00     0.075 A 
ATOM     29  C   UNL     1       9.491 -62.903 -23.516  1.00  0.00     0.065 A 
ATOM     30  S   UNL     1       8.603 -61.883 -24.557  1.00  0.00    -0.152 S 
ENDBRANCH  25  26
ENDBRANCH  24  25
ENDBRANCH  18  19
ENDBRANCH   1  18
TORSDOF 9
ENDMDL
MODEL 7
REMARK VINA RESULT:    -8.649      2.107      2.736
REMARK INTER + INTRA:         -13.677
REMARK INTER:                 -12.915
REMARK INTRA:                  -0.762
REMARK UNBOUND:                -0.730
REMARK SMILES COc1cc2c(cc1OC)S[C@@H](C(O)=CCc1cc[n+](Cc3ccsc3)cc1)C2
REMARK SMILES IDX 15 1 13 2 14 3 12 5 29 6 11 7 5 8 6 9 4 10 7 11 3 12 8 13
REMARK SMILES IDX 2 14 1 15 9 16 10 17 16 18 17 19 18 20 28 21 19 22 27 23
REMARK SMILES IDX 20 24 21 25 22 26 23 27 26 28 24 29 25 30
REMARK H PARENT 14 4
ROOT
ATOM      1  C   UNL     1      10.647 -54.000 -22.804  1.00  0.00     0.020 C 
ENDROOT
BRANCH   1   2
ATOM      2  C   UNL     1      11.101 -52.988 -22.047  1.00  0.00     0.102 C 
BRANCH   2   3
ATOM      3  O   UNL     1      10.712 -52.931 -20.713  1.00  0.00    -0.511 OA
ATOM      4  H   UNL     1      10.939 -52.032 -20.390  1.00  0.00     0.293 HD
ENDBRANCH   2   3
BRANCH   2   5
ATOM      5  C   UNL     1      12.040 -51.889 -22.520  1.00  0.00     0.121 C 
ATOM      6  C   UNL     1      12.543 -51.964 -23.978  1.00  0.00     0.059 C 
ATOM      7  S   UNL     1      11.233 -50.245 -22.373  1.00  0.00    -0.114 SA
ATOM      8  C   UNL     1      12.881 -50.561 -24.399  1.00  0.00    -0.029 A 
ATOM      9  C   UNL     1      12.228 -49.569 -23.671  1.00  0.00     0.015 A 
ATOM     10  C   UNL     1      13.705 -50.221 -25.468  1.00  0.00     0.055 A 
ATOM     11  C   UNL     1      12.383 -48.227 -23.975  1.00  0.00     0.065 A 
ATOM     12  C   UNL     1      13.885 -48.869 -25.789  1.00  0.00     0.161 A 
ATOM     13  C   UNL     1      13.220 -47.867 -25.038  1.00  0.00     0.161 A 
BRANCH  12  14
ATOM     14  O   UNL     1      14.680 -48.417 -26.814  1.00  0.00    -0.493 OA
ATOM     15  C   UNL     1      16.085 -48.580 -26.686  1.00  0.00     0.278 C 
ENDBRANCH  12  14
BRANCH  13  16
ATOM     16  O   UNL     1      13.457 -46.571 -25.430  1.00  0.00    -0.493 OA
ATOM     17  C   UNL     1      13.585 -45.585 -24.415  1.00  0.00     0.278 C 
ENDBRANCH  13  16
ENDBRANCH   2   5
ENDBRANCH   1   2
BRANCH   1  18
ATOM     18  C   UNL     1       9.700 -55.066 -22.328  1.00  0.00     0.067 C 
BRANCH  18  19
ATOM     19  C   UNL     1      10.055 -56.432 -22.867  1.00  0.00    -0.032 A 
ATOM     20  C   UNL     1       9.054 -57.380 -23.086  1.00  0.00     0.075 A 
ATOM     21  C   UNL     1      11.377 -56.788 -23.128  1.00  0.00     0.075 A 
ATOM     22  C   UNL     1       9.387 -58.642 -23.561  1.00  0.00     0.308 A 
ATOM     23  C   UNL     1      11.665 -58.062 -23.606  1.00  0.00     0.308 A 
ATOM     24  N   UNL     1      10.676 -58.964 -23.815  1.00  0.00    -0.201 N 
BRANCH  24  25
ATOM     25  C   UNL     1      11.013 -60.315 -24.324  1.00  0.00     0.394 C 
BRANCH  25  26
ATOM     26  C   UNL     1      11.402 -60.242 -25.768  1.00  0.00     0.027 A 
ATOM     27  C   UNL     1      12.757 -60.215 -26.246  1.00  0.00     0.022 A 
ATOM     28  C   UNL     1      10.514 -60.181 -26.828  1.00  0.00     0.075 A 
ATOM     29  C   UNL     1      12.836 -60.153 -27.620  1.00  0.00     0.065 A 
ATOM     30  S   UNL     1      11.293 -60.123 -28.349  1.00  0.00    -0.152 S 
ENDBRANCH  25  26
ENDBRANCH  24  25
ENDBRANCH  18  19
ENDBRANCH   1  18
TORSDOF 9
ENDMDL
MODEL 8
REMARK VINA RESULT:    -8.578      2.442      4.070
REMARK INTER + INTRA:         -13.571
REMARK INTER:                 -12.885
REMARK INTRA:                  -0.686
REMARK UNBOUND:                -0.730
REMARK SMILES COc1cc2c(cc1OC)S[C@@H](C(O)=CCc1cc[n+](Cc3ccsc3)cc1)C2
REMARK SMILES IDX 15 1 13 2 14 3 12 5 29 6 11 7 5 8 6 9 4 10 7 11 3 12 8 13
REMARK SMILES IDX 2 14 1 15 9 16 10 17 16 18 17 19 18 20 28 21 19 22 27 23
REMARK SMILES IDX 20 24 21 25 22 26 23 27 26 28 24 29 25 30
REMARK H PARENT 14 4
ROOT
ATOM      1  C   UNL     1      11.247 -51.216 -22.389  1.00  0.00     0.020 C 
ENDROOT
BRANCH   1   2
ATOM      2  C   UNL     1      10.990 -49.898 -22.420  1.00  0.00     0.102 C 
BRANCH   2   3
ATOM      3  O   UNL     1       9.764 -49.451 -21.939  1.00  0.00    -0.511 OA
ATOM      4  H   UNL     1       9.105 -49.617 -22.647  1.00  0.00     0.293 HD
ENDBRANCH   2   3
BRANCH   2   5
ATOM      5  C   UNL     1      11.946 -48.827 -22.921  1.00  0.00     0.121 C 
ATOM      6  C   UNL     1      12.753 -49.137 -24.199  1.00  0.00     0.059 C 
ATOM      7  S   UNL     1      11.036 -47.274 -23.291  1.00  0.00    -0.114 SA
ATOM      8  C   UNL     1      13.095 -47.819 -24.835  1.00  0.00    -0.029 A 
ATOM      9  C   UNL     1      12.247 -46.772 -24.479  1.00  0.00     0.015 A 
ATOM     10  C   UNL     1      14.109 -47.616 -25.767  1.00  0.00     0.055 A 
ATOM     11  C   UNL     1      12.389 -45.507 -25.026  1.00  0.00     0.065 A 
ATOM     12  C   UNL     1      14.278 -46.343 -26.326  1.00  0.00     0.161 A 
ATOM     13  C   UNL     1      13.413 -45.283 -25.954  1.00  0.00     0.161 A 
BRANCH  12  14
ATOM     14  O   UNL     1      15.248 -46.025 -27.246  1.00  0.00    -0.493 OA
ATOM     15  C   UNL     1      16.606 -46.147 -26.848  1.00  0.00     0.278 C 
ENDBRANCH  12  14
BRANCH  13  16
ATOM     16  O   UNL     1      13.657 -44.073 -26.558  1.00  0.00    -0.493 OA
ATOM     17  C   UNL     1      14.120 -43.007 -25.742  1.00  0.00     0.278 C 
ENDBRANCH  13  16
ENDBRANCH   2   5
ENDBRANCH   1   2
BRANCH   1  18
ATOM     18  C   UNL     1      10.305 -52.259 -21.856  1.00  0.00     0.067 C 
BRANCH  18  19
ATOM     19  C   UNL     1      10.688 -53.654 -22.293  1.00  0.00    -0.032 A 
ATOM     20  C   UNL     1      10.727 -54.693 -21.361  1.00  0.00     0.075 A 
ATOM     21  C   UNL     1      11.039 -53.931 -23.613  1.00  0.00     0.075 A 
ATOM     22  C   UNL     1      11.100 -55.969 -21.762  1.00  0.00     0.308 A 
ATOM     23  C   UNL     1      11.403 -55.224 -23.971  1.00  0.00     0.308 A 
ATOM     24  N   UNL     1      11.429 -56.217 -23.051  1.00  0.00    -0.201 N 
BRANCH  24  25
ATOM     25  C   UNL     1      11.823 -57.587 -23.462  1.00  0.00     0.394 C 
BRANCH  25  26
ATOM     26  C   UNL     1      10.831 -58.586 -22.951  1.00  0.00     0.027 A 
ATOM     27  C   UNL     1      11.086 -59.511 -21.880  1.00  0.00     0.022 A 
ATOM     28  C   UNL     1       9.549 -58.757 -23.443  1.00  0.00     0.075 A 
ATOM     29  C   UNL     1      10.003 -60.315 -21.603  1.00  0.00     0.065 A 
ATOM     30  S   UNL     1       8.675 -59.974 -22.620  1.00  0.00    -0.152 S 
ENDBRANCH  25  26
ENDBRANCH  24  25
ENDBRANCH  18  19
ENDBRANCH   1  18
TORSDOF 9
ENDMDL
MODEL 9
REMARK VINA RESULT:    -8.264      3.721     11.378
REMARK INTER + INTRA:         -13.101
REMARK INTER:                 -12.784
REMARK INTRA:                  -0.317
REMARK UNBOUND:                -0.730
REMARK SMILES COc1cc2c(cc1OC)S[C@@H](C(O)=CCc1cc[n+](Cc3ccsc3)cc1)C2
REMARK SMILES IDX 15 1 13 2 14 3 12 5 29 6 11 7 5 8 6 9 4 10 7 11 3 12 8 13
REMARK SMILES IDX 2 14 1 15 9 16 10 17 16 18 17 19 18 20 28 21 19 22 27 23
REMARK SMILES IDX 20 24 21 25 22 26 23 27 26 28 24 29 25 30
REMARK H PARENT 14 4
ROOT
ATOM      1  C   UNL     1      10.814 -54.001 -22.498  1.00  0.00     0.020 C 
ENDROOT
BRANCH   1   2
ATOM      2  C   UNL     1      10.936 -55.226 -21.961  1.00  0.00     0.102 C 
BRANCH   2   3
ATOM      3  O   UNL     1      11.100 -55.332 -20.584  1.00  0.00    -0.511 OA
ATOM      4  H   UNL     1      11.276 -56.278 -20.392  1.00  0.00     0.293 HD
ENDBRANCH   2   3
BRANCH   2   5
ATOM      5  C   UNL     1      10.885 -56.534 -22.734  1.00  0.00     0.121 C 
ATOM      6  C   UNL     1      11.319 -57.816 -21.991  1.00  0.00     0.059 C 
ATOM      7  S   UNL     1       9.175 -56.871 -23.317  1.00  0.00    -0.114 SA
ATOM      8  C   UNL     1      10.619 -58.968 -22.656  1.00  0.00    -0.029 A 
ATOM      9  C   UNL     1       9.459 -58.617 -23.344  1.00  0.00     0.015 A 
ATOM     10  C   UNL     1      11.003 -60.303 -22.562  1.00  0.00     0.055 A 
ATOM     11  C   UNL     1       8.665 -59.571 -23.958  1.00  0.00     0.065 A 
ATOM     12  C   UNL     1      10.222 -61.284 -23.183  1.00  0.00     0.161 A 
ATOM     13  C   UNL     1       9.046 -60.917 -23.885  1.00  0.00     0.161 A 
BRANCH  12  14
ATOM     14  O   UNL     1      10.509 -62.628 -23.164  1.00  0.00    -0.493 OA
ATOM     15  C   UNL     1       9.839 -63.437 -22.209  1.00  0.00     0.278 C 
ENDBRANCH  12  14
BRANCH  13  16
ATOM     16  O   UNL     1       8.345 -61.950 -24.459  1.00  0.00    -0.493 OA
ATOM     17  C   UNL     1       6.997 -62.142 -24.054  1.00  0.00     0.278 C 
ENDBRANCH  13  16
ENDBRANCH   2   5
ENDBRANCH   1   2
BRANCH   1  18
ATOM     18  C   UNL     1      11.451 -53.566 -23.788  1.00  0.00     0.067 C 
BRANCH  18  19
ATOM     19  C   UNL     1      12.135 -52.224 -23.666  1.00  0.00    -0.032 A 
ATOM     20  C   UNL     1      12.005 -51.476 -22.493  1.00  0.00     0.075 A 
ATOM     21  C   UNL     1      12.878 -51.689 -24.717  1.00  0.00     0.075 A 
ATOM     22  C   UNL     1      12.617 -50.234 -22.393  1.00  0.00     0.308 A 
ATOM     23  C   UNL     1      13.477 -50.442 -24.571  1.00  0.00     0.308 A 
ATOM     24  N   UNL     1      13.341 -49.738 -23.422  1.00  0.00    -0.201 N 
BRANCH  24  25
ATOM     25  C   UNL     1      13.990 -48.410 -23.296  1.00  0.00     0.394 C 
BRANCH  25  26
ATOM     26  C   UNL     1      12.995 -47.321 -23.553  1.00  0.00     0.027 A 
ATOM     27  C   UNL     1      11.661 -47.537 -24.045  1.00  0.00     0.022 A 
ATOM     28  C   UNL     1      13.227 -45.971 -23.360  1.00  0.00     0.075 A 
ATOM     29  C   UNL     1      10.950 -46.366 -24.186  1.00  0.00     0.065 A 
ATOM     30  S   UNL     1      11.869 -45.000 -23.735  1.00  0.00    -0.152 S 
ENDBRANCH  25  26
ENDBRANCH  24  25
ENDBRANCH  18  19
ENDBRANCH   1  18
TORSDOF 9
ENDMDL
