MODEL 1
REMARK VINA RESULT:   -11.550      0.000      0.000
REMARK INTER + INTRA:         -14.308
REMARK INTER:                 -13.913
REMARK INTRA:                  -0.394
REMARK UNBOUND:                -0.394
REMARK SMILES O=C(C[NH+]1CCCCC1)Nc1ccc2nc3c4nc5ccccc5c-4ccn3c(O)c2c1
REMARK SMILES IDX 10 1 2 2 1 3 11 5 29 6 31 7 28 8 32 9 14 10 27 11 16 12
REMARK SMILES IDX 13 13 15 14 26 15 17 16 12 17 25 18 18 19 24 20 19 21 23 22
REMARK SMILES IDX 20 23 22 24 21 25 30 26 3 28 4 29 5 30 9 31 6 32 8 33 7 34
REMARK H PARENT 10 4 30 27 4 35
ROOT
ATOM      1  N   UNL     1      10.240 -57.261 -22.619  1.00  0.00    -0.321 N 
ATOM      2  C   UNL     1       9.161 -57.933 -23.156  1.00  0.00     0.279 C 
ATOM      3  O   UNL     1       8.261 -57.475 -23.861  1.00  0.00    -0.268 OA
ATOM      4  H   UNL     1      10.904 -57.802 -22.075  1.00  0.00     0.170 HD
ENDROOT
BRANCH   1   5
ATOM      5  C   UNL     1      10.569 -55.921 -22.735  1.00  0.00     0.042 A 
ATOM      6  C   UNL     1      12.556 -53.698 -24.929  1.00  0.00     0.206 A 
ATOM      7  C   UNL     1      11.754 -54.157 -23.951  1.00  0.00     0.063 A 
ATOM      8  N   UNL     1      12.874 -52.342 -25.079  1.00  0.00    -0.270 N 
ATOM      9  C   UNL     1      11.369 -55.541 -23.750  1.00  0.00     0.042 A 
ATOM     10  C   UNL     1      11.278 -53.111 -22.994  1.00  0.00     0.078 A 
ATOM     11  C   UNL     1      13.580 -51.809 -26.178  1.00  0.00     0.097 A 
ATOM     12  C   UNL     1      12.372 -51.443 -24.071  1.00  0.00     0.166 A 
ATOM     13  C   UNL     1      10.399 -53.616 -21.906  1.00  0.00     0.031 A 
ATOM     14  N   UNL     1      11.569 -51.852 -23.021  1.00  0.00    -0.228 NA
ATOM     15  C   UNL     1      13.916 -50.513 -26.317  1.00  0.00     0.029 A 
ATOM     16  C   UNL     1      12.685 -50.123 -24.151  1.00  0.00     0.115 A 
ATOM     17  C   UNL     1      10.084 -54.916 -21.806  1.00  0.00     0.028 A 
ATOM     18  C   UNL     1      13.488 -49.629 -25.264  1.00  0.00     0.015 A 
ATOM     19  N   UNL     1      12.361 -49.075 -23.314  1.00  0.00    -0.244 NA
ATOM     20  C   UNL     1      13.670 -48.316 -25.124  1.00  0.00     0.010 A 
ATOM     21  C   UNL     1      12.928 -48.049 -23.872  1.00  0.00     0.072 A 
ATOM     22  C   UNL     1      14.325 -47.272 -25.847  1.00  0.00     0.011 A 
ATOM     23  C   UNL     1      12.913 -46.649 -23.400  1.00  0.00     0.029 A 
ATOM     24  C   UNL     1      14.265 -46.022 -25.358  1.00  0.00     0.001 A 
ATOM     25  C   UNL     1      13.555 -45.717 -24.125  1.00  0.00     0.002 A 
BRANCH   6  26
ATOM     26  O   UNL     1      13.132 -54.619 -25.796  1.00  0.00    -0.494 OA
ATOM     27  H   UNL     1      12.420 -54.872 -26.407  1.00  0.00     0.295 HD
ENDBRANCH   6  26
ENDBRANCH   1   5
BRANCH   2  28
ATOM     28  C   UNL     1       9.111 -59.427 -22.814  1.00  0.00     0.363 C 
BRANCH  28  29
ATOM     29  N   UNL     1       8.852 -60.255 -24.078  1.00  0.00    -0.327 N 
ATOM     30  C   UNL     1       9.988 -60.209 -25.057  1.00  0.00     0.262 C 
ATOM     31  C   UNL     1       8.402 -61.661 -23.758  1.00  0.00     0.262 C 
ATOM     32  C   UNL     1       9.581 -60.914 -26.343  1.00  0.00     0.062 C 
ATOM     33  C   UNL     1       7.987 -62.363 -25.043  1.00  0.00     0.062 C 
ATOM     34  C   UNL     1       9.102 -62.338 -26.083  1.00  0.00     0.012 C 
ATOM     35  H   UNL     1       8.029 -59.790 -24.505  1.00  0.00     0.348 HD
ENDBRANCH  28  29
ENDBRANCH   2  28
TORSDOF 4
ENDMDL
MODEL 2
REMARK VINA RESULT:   -11.310      1.433      1.785
REMARK INTER + INTRA:         -14.018
REMARK INTER:                 -13.562
REMARK INTRA:                  -0.456
REMARK UNBOUND:                -0.394
REMARK SMILES O=C(C[NH+]1CCCCC1)Nc1ccc2nc3c4nc5ccccc5c-4ccn3c(O)c2c1
REMARK SMILES IDX 10 1 2 2 1 3 11 5 29 6 31 7 28 8 32 9 14 10 27 11 16 12
REMARK SMILES IDX 13 13 15 14 26 15 17 16 12 17 25 18 18 19 24 20 19 21 23 22
REMARK SMILES IDX 20 23 22 24 21 25 30 26 3 28 4 29 5 30 9 31 6 32 8 33 7 34
REMARK H PARENT 10 4 30 27 4 35
ROOT
ATOM      1  N   UNL     1      10.324 -56.638 -23.178  1.00  0.00    -0.321 N 
ATOM      2  C   UNL     1      10.748 -57.681 -22.379  1.00  0.00     0.279 C 
ATOM      3  O   UNL     1      11.436 -57.620 -21.361  1.00  0.00    -0.268 OA
ATOM      4  H   UNL     1       9.739 -56.868 -23.975  1.00  0.00     0.170 HD
ENDROOT
BRANCH   1   5
ATOM      5  C   UNL     1      10.571 -55.284 -23.036  1.00  0.00     0.042 A 
ATOM      6  C   UNL     1      12.533 -52.601 -24.666  1.00  0.00     0.206 A 
ATOM      7  C   UNL     1      11.706 -53.269 -23.841  1.00  0.00     0.063 A 
ATOM      8  N   UNL     1      12.769 -51.224 -24.555  1.00  0.00    -0.270 N 
ATOM      9  C   UNL     1      11.402 -54.686 -23.911  1.00  0.00     0.042 A 
ATOM     10  C   UNL     1      11.108 -52.439 -22.751  1.00  0.00     0.078 A 
ATOM     11  C   UNL     1      13.501 -50.466 -25.492  1.00  0.00     0.097 A 
ATOM     12  C   UNL     1      12.151 -50.548 -23.442  1.00  0.00     0.166 A 
ATOM     13  C   UNL     1      10.201 -53.176 -21.831  1.00  0.00     0.031 A 
ATOM     14  N   UNL     1      11.317 -51.180 -22.537  1.00  0.00    -0.228 NA
ATOM     15  C   UNL     1      13.759 -49.150 -25.379  1.00  0.00     0.029 A 
ATOM     16  C   UNL     1      12.381 -49.220 -23.269  1.00  0.00     0.115 A 
ATOM     17  C   UNL     1       9.967 -54.488 -21.981  1.00  0.00     0.028 A 
ATOM     18  C   UNL     1      13.213 -48.492 -24.220  1.00  0.00     0.015 A 
ATOM     19  N   UNL     1      11.940 -48.357 -22.286  1.00  0.00    -0.244 NA
ATOM     20  C   UNL     1      13.301 -47.218 -23.842  1.00  0.00     0.010 A 
ATOM     21  C   UNL     1      12.471 -47.219 -22.616  1.00  0.00     0.072 A 
ATOM     22  C   UNL     1      13.926 -46.027 -24.324  1.00  0.00     0.011 A 
ATOM     23  C   UNL     1      12.335 -45.928 -21.910  1.00  0.00     0.029 A 
ATOM     24  C   UNL     1      13.756 -44.890 -23.630  1.00  0.00     0.001 A 
ATOM     25  C   UNL     1      12.956 -44.848 -22.415  1.00  0.00     0.002 A 
BRANCH   6  26
ATOM     26  O   UNL     1      13.217 -53.319 -25.638  1.00  0.00    -0.494 OA
ATOM     27  H   UNL     1      12.542 -53.573 -26.289  1.00  0.00     0.295 HD
ENDBRANCH   6  26
ENDBRANCH   1   5
BRANCH   2  28
ATOM     28  C   UNL     1      10.285 -59.066 -22.847  1.00  0.00     0.363 C 
BRANCH  28  29
ATOM     29  N   UNL     1      10.458 -59.202 -24.364  1.00  0.00    -0.327 N 
ATOM     30  C   UNL     1      11.875 -59.474 -24.775  1.00  0.00     0.262 C 
ATOM     31  C   UNL     1       9.470 -60.172 -24.968  1.00  0.00     0.262 C 
ATOM     32  C   UNL     1      11.984 -59.427 -26.292  1.00  0.00     0.062 C 
ATOM     33  C   UNL     1       9.573 -60.118 -26.485  1.00  0.00     0.062 C 
ATOM     34  C   UNL     1      10.997 -60.378 -26.962  1.00  0.00     0.012 C 
ATOM     35  H   UNL     1      10.184 -58.267 -24.722  1.00  0.00     0.348 HD
ENDBRANCH  28  29
ENDBRANCH   2  28
TORSDOF 4
ENDMDL
MODEL 3
REMARK VINA RESULT:   -10.854      2.164     10.342
REMARK INTER + INTRA:         -13.469
REMARK INTER:                 -13.160
REMARK INTRA:                  -0.308
REMARK UNBOUND:                -0.394
REMARK SMILES O=C(C[NH+]1CCCCC1)Nc1ccc2nc3c4nc5ccccc5c-4ccn3c(O)c2c1
REMARK SMILES IDX 10 1 2 2 1 3 11 5 29 6 31 7 28 8 32 9 14 10 27 11 16 12
REMARK SMILES IDX 13 13 15 14 26 15 17 16 12 17 25 18 18 19 24 20 19 21 23 22
REMARK SMILES IDX 20 23 22 24 21 25 30 26 3 28 4 29 5 30 9 31 6 32 8 33 7 34
REMARK H PARENT 10 4 30 27 4 35
ROOT
ATOM      1  N   UNL     1      11.516 -50.411 -22.754  1.00  0.00    -0.321 N 
ATOM      2  C   UNL     1      10.640 -49.369 -22.528  1.00  0.00     0.279 C 
ATOM      3  O   UNL     1       9.479 -49.432 -22.124  1.00  0.00    -0.268 OA
ATOM      4  H   UNL     1      12.452 -50.175 -23.068  1.00  0.00     0.170 HD
ENDROOT
BRANCH   1   5
ATOM      5  C   UNL     1      11.305 -51.769 -22.590  1.00  0.00     0.042 A 
ATOM      6  C   UNL     1      11.946 -54.946 -24.381  1.00  0.00     0.206 A 
ATOM      7  C   UNL     1      11.561 -54.044 -23.458  1.00  0.00     0.063 A 
ATOM      8  N   UNL     1      11.768 -56.326 -24.217  1.00  0.00    -0.270 N 
ATOM      9  C   UNL     1      11.732 -52.607 -23.555  1.00  0.00     0.042 A 
ATOM     10  C   UNL     1      10.866 -54.627 -22.270  1.00  0.00     0.078 A 
ATOM     11  C   UNL     1      12.297 -57.303 -25.085  1.00  0.00     0.097 A 
ATOM     12  C   UNL     1      11.058 -56.752 -23.037  1.00  0.00     0.166 A 
ATOM     13  C   UNL     1      10.430 -53.634 -21.252  1.00  0.00     0.031 A 
ATOM     14  N   UNL     1      10.606 -55.877 -22.065  1.00  0.00    -0.228 NA
ATOM     15  C   UNL     1      12.107 -58.628 -24.953  1.00  0.00     0.029 A 
ATOM     16  C   UNL     1      10.826 -58.078 -22.852  1.00  0.00     0.115 A 
ATOM     17  C   UNL     1      10.644 -52.320 -21.421  1.00  0.00     0.028 A 
ATOM     18  C   UNL     1      11.323 -59.049 -23.820  1.00  0.00     0.015 A 
ATOM     19  N   UNL     1      10.158 -58.736 -21.839  1.00  0.00    -0.244 NA
ATOM     20  C   UNL     1      10.970 -60.274 -23.434  1.00  0.00     0.010 A 
ATOM     21  C   UNL     1      10.240 -59.987 -22.179  1.00  0.00     0.072 A 
ATOM     22  C   UNL     1      11.148 -61.610 -23.911  1.00  0.00     0.011 A 
ATOM     23  C   UNL     1       9.693 -61.151 -21.452  1.00  0.00     0.029 A 
ATOM     24  C   UNL     1      10.623 -62.618 -23.195  1.00  0.00     0.001 A 
ATOM     25  C   UNL     1       9.890 -62.380 -21.960  1.00  0.00     0.002 A 
BRANCH   6  26
ATOM     26  O   UNL     1      12.499 -54.480 -25.567  1.00  0.00    -0.494 OA
ATOM     27  H   UNL     1      12.983 -55.237 -25.936  1.00  0.00     0.295 HD
ENDBRANCH   6  26
ENDBRANCH   1   5
BRANCH   2  28
ATOM     28  C   UNL     1      11.219 -47.979 -22.823  1.00  0.00     0.363 C 
BRANCH  28  29
ATOM     29  N   UNL     1      12.634 -48.103 -23.400  1.00  0.00    -0.327 N 
ATOM     30  C   UNL     1      12.759 -47.537 -24.784  1.00  0.00     0.262 C 
ATOM     31  C   UNL     1      13.686 -47.583 -22.450  1.00  0.00     0.262 C 
ATOM     32  C   UNL     1      14.141 -47.851 -25.340  1.00  0.00     0.062 C 
ATOM     33  C   UNL     1      15.068 -47.904 -23.002  1.00  0.00     0.062 C 
ATOM     34  C   UNL     1      15.250 -47.361 -24.415  1.00  0.00     0.012 C 
ATOM     35  H   UNL     1      12.785 -49.128 -23.448  1.00  0.00     0.348 HD
ENDBRANCH  28  29
ENDBRANCH   2  28
TORSDOF 4
ENDMDL
MODEL 4
REMARK VINA RESULT:   -10.804      2.098      3.511
REMARK INTER + INTRA:         -13.408
REMARK INTER:                 -13.200
REMARK INTRA:                  -0.208
REMARK UNBOUND:                -0.394
REMARK SMILES O=C(C[NH+]1CCCCC1)Nc1ccc2nc3c4nc5ccccc5c-4ccn3c(O)c2c1
REMARK SMILES IDX 10 1 2 2 1 3 11 5 29 6 31 7 28 8 32 9 14 10 27 11 16 12
REMARK SMILES IDX 13 13 15 14 26 15 17 16 12 17 25 18 18 19 24 20 19 21 23 22
REMARK SMILES IDX 20 23 22 24 21 25 30 26 3 28 4 29 5 30 9 31 6 32 8 33 7 34
REMARK H PARENT 10 4 30 27 4 35
ROOT
ATOM      1  N   UNL     1      11.068 -54.476 -22.350  1.00  0.00    -0.321 N 
ATOM      2  C   UNL     1      11.232 -55.419 -23.345  1.00  0.00     0.279 C 
ATOM      3  O   UNL     1      11.339 -55.227 -24.556  1.00  0.00    -0.268 OA
ATOM      4  H   UNL     1      11.019 -54.811 -21.393  1.00  0.00     0.170 HD
ENDROOT
BRANCH   1   5
ATOM      5  C   UNL     1      10.981 -53.100 -22.469  1.00  0.00     0.042 A 
ATOM      6  C   UNL     1      12.829 -50.293 -24.023  1.00  0.00     0.206 A 
ATOM      7  C   UNL     1      11.912 -51.014 -23.352  1.00  0.00     0.063 A 
ATOM      8  N   UNL     1      12.738 -48.903 -24.180  1.00  0.00    -0.270 N 
ATOM      9  C   UNL     1      11.933 -52.453 -23.168  1.00  0.00     0.042 A 
ATOM     10  C   UNL     1      10.819 -50.206 -22.728  1.00  0.00     0.078 A 
ATOM     11  C   UNL     1      13.591 -48.141 -25.004  1.00  0.00     0.097 A 
ATOM     12  C   UNL     1      11.650 -48.244 -23.503  1.00  0.00     0.166 A 
ATOM     13  C   UNL     1       9.808 -50.998 -21.977  1.00  0.00     0.031 A 
ATOM     14  N   UNL     1      10.690 -48.920 -22.770  1.00  0.00    -0.228 NA
ATOM     15  C   UNL     1      13.532 -46.803 -25.138  1.00  0.00     0.029 A 
ATOM     16  C   UNL     1      11.541 -46.893 -23.593  1.00  0.00     0.115 A 
ATOM     17  C   UNL     1       9.902 -52.333 -21.871  1.00  0.00     0.028 A 
ATOM     18  C   UNL     1      12.496 -46.135 -24.393  1.00  0.00     0.015 A 
ATOM     19  N   UNL     1      10.624 -46.030 -23.028  1.00  0.00    -0.244 NA
ATOM     20  C   UNL     1      12.195 -44.839 -24.324  1.00  0.00     0.010 A 
ATOM     21  C   UNL     1      11.004 -44.861 -23.445  1.00  0.00     0.072 A 
ATOM     22  C   UNL     1      12.706 -43.619 -24.866  1.00  0.00     0.011 A 
ATOM     23  C   UNL     1      10.381 -43.555 -23.145  1.00  0.00     0.029 A 
ATOM     24  C   UNL     1      12.085 -42.470 -24.550  1.00  0.00     0.001 A 
ATOM     25  C   UNL     1      10.917 -42.446 -23.682  1.00  0.00     0.002 A 
BRANCH   6  26
ATOM     26  O   UNL     1      13.937 -50.952 -24.539  1.00  0.00    -0.494 OA
ATOM     27  H   UNL     1      13.673 -51.234 -25.430  1.00  0.00     0.295 HD
ENDBRANCH   6  26
ENDBRANCH   1   5
BRANCH   2  28
ATOM     28  C   UNL     1      11.282 -56.867 -22.843  1.00  0.00     0.363 C 
BRANCH  28  29
ATOM     29  N   UNL     1      10.195 -57.706 -23.524  1.00  0.00    -0.327 N 
ATOM     30  C   UNL     1      10.469 -59.180 -23.474  1.00  0.00     0.262 C 
ATOM     31  C   UNL     1       8.809 -57.344 -23.046  1.00  0.00     0.262 C 
ATOM     32  C   UNL     1       9.436 -59.919 -24.313  1.00  0.00     0.062 C 
ATOM     33  C   UNL     1       7.777 -58.076 -23.891  1.00  0.00     0.062 C 
ATOM     34  C   UNL     1       8.011 -59.583 -23.885  1.00  0.00     0.012 C 
ATOM     35  H   UNL     1      10.238 -57.396 -24.513  1.00  0.00     0.348 HD
ENDBRANCH  28  29
ENDBRANCH   2  28
TORSDOF 4
ENDMDL
MODEL 5
REMARK VINA RESULT:   -10.701      2.800     11.230
REMARK INTER + INTRA:         -13.285
REMARK INTER:                 -13.157
REMARK INTRA:                  -0.128
REMARK UNBOUND:                -0.394
REMARK SMILES O=C(C[NH+]1CCCCC1)Nc1ccc2nc3c4nc5ccccc5c-4ccn3c(O)c2c1
REMARK SMILES IDX 10 1 2 2 1 3 11 5 29 6 31 7 28 8 32 9 14 10 27 11 16 12
REMARK SMILES IDX 13 13 15 14 26 15 17 16 12 17 25 18 18 19 24 20 19 21 23 22
REMARK SMILES IDX 20 23 22 24 21 25 30 26 3 28 4 29 5 30 9 31 6 32 8 33 7 34
REMARK H PARENT 10 4 30 27 4 35
ROOT
ATOM      1  N   UNL     1      13.472 -47.730 -24.997  1.00  0.00    -0.321 N 
ATOM      2  C   UNL     1      12.561 -46.701 -24.862  1.00  0.00     0.279 C 
ATOM      3  O   UNL     1      11.353 -46.787 -24.640  1.00  0.00    -0.268 OA
ATOM      4  H   UNL     1      14.442 -47.476 -25.158  1.00  0.00     0.170 HD
ENDROOT
BRANCH   1   5
ATOM      5  C   UNL     1      13.252 -49.094 -24.922  1.00  0.00     0.042 A 
ATOM      6  C   UNL     1      11.677 -51.564 -22.658  1.00  0.00     0.206 A 
ATOM      7  C   UNL     1      12.314 -50.996 -23.699  1.00  0.00     0.063 A 
ATOM      8  N   UNL     1      11.419 -52.939 -22.581  1.00  0.00    -0.270 N 
ATOM      9  C   UNL     1      12.596 -49.582 -23.851  1.00  0.00     0.042 A 
ATOM     10  C   UNL     1      12.785 -51.960 -24.741  1.00  0.00     0.078 A 
ATOM     11  C   UNL     1      10.621 -53.543 -21.587  1.00  0.00     0.097 A 
ATOM     12  C   UNL     1      11.953 -53.759 -23.640  1.00  0.00     0.166 A 
ATOM     13  C   UNL     1      13.497 -51.338 -25.889  1.00  0.00     0.031 A 
ATOM     14  N   UNL     1      12.645 -53.245 -24.723  1.00  0.00    -0.228 NA
ATOM     15  C   UNL     1      10.393 -54.865 -21.487  1.00  0.00     0.029 A 
ATOM     16  C   UNL     1      11.763 -55.103 -23.590  1.00  0.00     0.115 A 
ATOM     17  C   UNL     1      13.701 -50.013 -25.952  1.00  0.00     0.028 A 
ATOM     18  C   UNL     1      10.999 -55.693 -22.498  1.00  0.00     0.015 A 
ATOM     19  N   UNL     1      12.186 -56.098 -24.448  1.00  0.00    -0.244 NA
ATOM     20  C   UNL     1      10.953 -57.015 -22.657  1.00  0.00     0.010 A 
ATOM     21  C   UNL     1      11.725 -57.186 -23.908  1.00  0.00     0.072 A 
ATOM     22  C   UNL     1      10.376 -58.130 -21.973  1.00  0.00     0.011 A 
ATOM     23  C   UNL     1      11.881 -58.569 -24.405  1.00  0.00     0.029 A 
ATOM     24  C   UNL     1      10.558 -59.358 -22.486  1.00  0.00     0.001 A 
ATOM     25  C   UNL     1      11.318 -59.571 -23.708  1.00  0.00     0.002 A 
BRANCH   6  26
ATOM     26  O   UNL     1      11.305 -50.754 -21.592  1.00  0.00    -0.494 OA
ATOM     27  H   UNL     1      11.987 -50.896 -20.915  1.00  0.00     0.295 HD
ENDBRANCH   6  26
ENDBRANCH   1   5
BRANCH   2  28
ATOM     28  C   UNL     1      13.162 -45.298 -25.012  1.00  0.00     0.363 C 
BRANCH  28  29
ATOM     29  N   UNL     1      12.125 -44.231 -24.646  1.00  0.00    -0.327 N 
ATOM     30  C   UNL     1      12.151 -43.854 -23.194  1.00  0.00     0.262 C 
ATOM     31  C   UNL     1      12.182 -43.037 -25.569  1.00  0.00     0.262 C 
ATOM     32  C   UNL     1      10.988 -42.922 -22.888  1.00  0.00     0.062 C 
ATOM     33  C   UNL     1      11.014 -42.110 -25.269  1.00  0.00     0.062 C 
ATOM     34  C   UNL     1      10.984 -41.700 -23.801  1.00  0.00     0.012 C 
ATOM     35  H   UNL     1      11.220 -44.697 -24.850  1.00  0.00     0.348 HD
ENDBRANCH  28  29
ENDBRANCH   2  28
TORSDOF 4
ENDMDL
MODEL 6
REMARK VINA RESULT:   -10.493      2.417      4.206
REMARK INTER + INTRA:         -13.034
REMARK INTER:                 -12.900
REMARK INTRA:                  -0.135
REMARK UNBOUND:                -0.394
REMARK SMILES O=C(C[NH+]1CCCCC1)Nc1ccc2nc3c4nc5ccccc5c-4ccn3c(O)c2c1
REMARK SMILES IDX 10 1 2 2 1 3 11 5 29 6 31 7 28 8 32 9 14 10 27 11 16 12
REMARK SMILES IDX 13 13 15 14 26 15 17 16 12 17 25 18 18 19 24 20 19 21 23 22
REMARK SMILES IDX 20 23 22 24 21 25 30 26 3 28 4 29 5 30 9 31 6 32 8 33 7 34
REMARK H PARENT 10 4 30 27 4 35
ROOT
ATOM      1  N   UNL     1      11.044 -54.203 -22.378  1.00  0.00    -0.321 N 
ATOM      2  C   UNL     1      11.068 -55.394 -23.075  1.00  0.00     0.279 C 
ATOM      3  O   UNL     1      11.443 -55.584 -24.232  1.00  0.00    -0.268 OA
ATOM      4  H   UNL     1      10.722 -54.232 -21.415  1.00  0.00     0.170 HD
ENDROOT
BRANCH   1   5
ATOM      5  C   UNL     1      11.426 -52.943 -22.805  1.00  0.00     0.042 A 
ATOM      6  C   UNL     1      10.364 -49.415 -22.444  1.00  0.00     0.206 A 
ATOM      7  C   UNL     1      11.040 -50.525 -22.792  1.00  0.00     0.063 A 
ATOM      8  N   UNL     1      10.756 -48.129 -22.841  1.00  0.00    -0.270 N 
ATOM      9  C   UNL     1      10.703 -51.881 -22.401  1.00  0.00     0.042 A 
ATOM     10  C   UNL     1      12.209 -50.286 -23.694  1.00  0.00     0.078 A 
ATOM     11  C   UNL     1      10.166 -46.938 -22.368  1.00  0.00     0.097 A 
ATOM     12  C   UNL     1      11.884 -48.042 -23.733  1.00  0.00     0.166 A 
ATOM     13  C   UNL     1      12.953 -51.511 -24.089  1.00  0.00     0.031 A 
ATOM     14  N   UNL     1      12.605 -49.145 -24.157  1.00  0.00    -0.228 NA
ATOM     15  C   UNL     1      10.515 -45.701 -22.766  1.00  0.00     0.029 A 
ATOM     16  C   UNL     1      12.279 -46.821 -24.178  1.00  0.00     0.115 A 
ATOM     17  C   UNL     1      12.575 -52.727 -23.666  1.00  0.00     0.028 A 
ATOM     18  C   UNL     1      11.587 -45.620 -23.724  1.00  0.00     0.015 A 
ATOM     19  N   UNL     1      13.294 -46.469 -25.044  1.00  0.00    -0.244 NA
ATOM     20  C   UNL     1      12.141 -44.551 -24.296  1.00  0.00     0.010 A 
ATOM     21  C   UNL     1      13.208 -45.175 -25.111  1.00  0.00     0.072 A 
ATOM     22  C   UNL     1      11.951 -43.135 -24.265  1.00  0.00     0.011 A 
ATOM     23  C   UNL     1      14.055 -44.259 -25.902  1.00  0.00     0.029 A 
ATOM     24  C   UNL     1      12.762 -42.365 -25.010  1.00  0.00     0.001 A 
ATOM     25  C   UNL     1      13.817 -42.938 -25.833  1.00  0.00     0.002 A 
BRANCH   6  26
ATOM     26  O   UNL     1       9.201 -49.558 -21.699  1.00  0.00    -0.494 OA
ATOM     27  H   UNL     1       9.271 -50.433 -21.284  1.00  0.00     0.295 HD
ENDBRANCH   6  26
ENDBRANCH   1   5
BRANCH   2  28
ATOM     28  C   UNL     1      10.560 -56.604 -22.281  1.00  0.00     0.363 C 
BRANCH  28  29
ATOM     29  N   UNL     1      10.829 -57.900 -23.054  1.00  0.00    -0.327 N 
ATOM     30  C   UNL     1      11.859 -58.774 -22.402  1.00  0.00     0.262 C 
ATOM     31  C   UNL     1       9.555 -58.637 -23.394  1.00  0.00     0.262 C 
ATOM     32  C   UNL     1      12.183 -59.948 -23.314  1.00  0.00     0.062 C 
ATOM     33  C   UNL     1       9.878 -59.806 -24.314  1.00  0.00     0.062 C 
ATOM     34  C   UNL     1      10.931 -60.726 -23.706  1.00  0.00     0.012 C 
ATOM     35  H   UNL     1      11.206 -57.565 -23.960  1.00  0.00     0.348 HD
ENDBRANCH  28  29
ENDBRANCH   2  28
TORSDOF 4
ENDMDL
MODEL 7
REMARK VINA RESULT:    -9.555      2.656     11.003
REMARK INTER + INTRA:         -11.905
REMARK INTER:                 -11.535
REMARK INTRA:                  -0.369
REMARK UNBOUND:                -0.394
REMARK SMILES O=C(C[NH+]1CCCCC1)Nc1ccc2nc3c4nc5ccccc5c-4ccn3c(O)c2c1
REMARK SMILES IDX 10 1 2 2 1 3 11 5 29 6 31 7 28 8 32 9 14 10 27 11 16 12
REMARK SMILES IDX 13 13 15 14 26 15 17 16 12 17 25 18 18 19 24 20 19 21 23 22
REMARK SMILES IDX 20 23 22 24 21 25 30 26 3 28 4 29 5 30 9 31 6 32 8 33 7 34
REMARK H PARENT 10 4 30 27 4 35
ROOT
ATOM      1  N   UNL     1      13.024 -47.617 -24.136  1.00  0.00    -0.321 N 
ATOM      2  C   UNL     1      12.070 -46.636 -24.322  1.00  0.00     0.279 C 
ATOM      3  O   UNL     1      10.879 -46.783 -24.597  1.00  0.00    -0.268 OA
ATOM      4  H   UNL     1      13.962 -47.316 -23.891  1.00  0.00     0.170 HD
ENDROOT
BRANCH   1   5
ATOM      5  C   UNL     1      12.878 -48.990 -24.218  1.00  0.00     0.042 A 
ATOM      6  C   UNL     1      11.405 -51.778 -22.277  1.00  0.00     0.206 A 
ATOM      7  C   UNL     1      12.026 -51.065 -23.235  1.00  0.00     0.063 A 
ATOM      8  N   UNL     1      11.221 -53.165 -22.359  1.00  0.00    -0.270 N 
ATOM      9  C   UNL     1      12.232 -49.629 -23.223  1.00  0.00     0.042 A 
ATOM     10  C   UNL     1      12.565 -51.879 -24.367  1.00  0.00     0.078 A 
ATOM     11  C   UNL     1      10.442 -53.917 -21.456  1.00  0.00     0.097 A 
ATOM     12  C   UNL     1      11.815 -53.831 -23.491  1.00  0.00     0.166 A 
ATOM     13  C   UNL     1      13.260 -51.096 -25.423  1.00  0.00     0.031 A 
ATOM     14  N   UNL     1      12.495 -53.164 -24.495  1.00  0.00    -0.228 NA
ATOM     15  C   UNL     1      10.284 -55.252 -21.508  1.00  0.00     0.029 A 
ATOM     16  C   UNL     1      11.698 -55.181 -23.595  1.00  0.00     0.115 A 
ATOM     17  C   UNL     1      13.393 -49.764 -25.334  1.00  0.00     0.028 A 
ATOM     18  C   UNL     1      10.950 -55.929 -22.592  1.00  0.00     0.015 A 
ATOM     19  N   UNL     1      12.189 -56.050 -24.549  1.00  0.00    -0.244 NA
ATOM     20  C   UNL     1      10.980 -57.226 -22.898  1.00  0.00     0.010 A 
ATOM     21  C   UNL     1      11.779 -57.214 -24.144  1.00  0.00     0.072 A 
ATOM     22  C   UNL     1      10.453 -58.438 -22.355  1.00  0.00     0.011 A 
ATOM     23  C   UNL     1      12.018 -58.522 -24.787  1.00  0.00     0.029 A 
ATOM     24  C   UNL     1      10.710 -59.590 -22.997  1.00  0.00     0.001 A 
ATOM     25  C   UNL     1      11.500 -59.625 -24.219  1.00  0.00     0.002 A 
BRANCH   6  26
ATOM     26  O   UNL     1      10.972 -51.114 -21.137  1.00  0.00    -0.494 OA
ATOM     27  H   UNL     1      10.026 -50.946 -21.283  1.00  0.00     0.295 HD
ENDBRANCH   6  26
ENDBRANCH   1   5
BRANCH   2  28
ATOM     28  C   UNL     1      12.594 -45.204 -24.156  1.00  0.00     0.363 C 
BRANCH  28  29
ATOM     29  N   UNL     1      13.917 -45.029 -24.910  1.00  0.00    -0.327 N 
ATOM     30  C   UNL     1      13.760 -45.089 -26.401  1.00  0.00     0.262 C 
ATOM     31  C   UNL     1      14.686 -43.816 -24.443  1.00  0.00     0.262 C 
ATOM     32  C   UNL     1      15.132 -45.076 -27.059  1.00  0.00     0.062 C 
ATOM     33  C   UNL     1      16.061 -43.808 -25.095  1.00  0.00     0.062 C 
ATOM     34  C   UNL     1      15.964 -43.877 -26.615  1.00  0.00     0.012 C 
ATOM     35  H   UNL     1      14.477 -45.848 -24.605  1.00  0.00     0.348 HD
ENDBRANCH  28  29
ENDBRANCH   2  28
TORSDOF 4
ENDMDL
MODEL 8
REMARK VINA RESULT:    -9.350      4.126     12.135
REMARK INTER + INTRA:         -11.657
REMARK INTER:                 -11.210
REMARK INTRA:                  -0.447
REMARK UNBOUND:                -0.394
REMARK SMILES O=C(C[NH+]1CCCCC1)Nc1ccc2nc3c4nc5ccccc5c-4ccn3c(O)c2c1
REMARK SMILES IDX 10 1 2 2 1 3 11 5 29 6 31 7 28 8 32 9 14 10 27 11 16 12
REMARK SMILES IDX 13 13 15 14 26 15 17 16 12 17 25 18 18 19 24 20 19 21 23 22
REMARK SMILES IDX 20 23 22 24 21 25 30 26 3 28 4 29 5 30 9 31 6 32 8 33 7 34
REMARK H PARENT 10 4 30 27 4 35
ROOT
ATOM      1  N   UNL     1      13.361 -43.782 -23.736  1.00  0.00    -0.321 N 
ATOM      2  C   UNL     1      14.579 -43.168 -23.524  1.00  0.00     0.279 C 
ATOM      3  O   UNL     1      15.602 -43.663 -23.052  1.00  0.00    -0.268 OA
ATOM      4  H   UNL     1      12.625 -43.225 -24.159  1.00  0.00     0.170 HD
ENDROOT
BRANCH   1   5
ATOM      5  C   UNL     1      12.994 -45.089 -23.468  1.00  0.00     0.042 A 
ATOM      6  C   UNL     1      13.324 -48.461 -24.961  1.00  0.00     0.206 A 
ATOM      7  C   UNL     1      13.017 -47.445 -24.133  1.00  0.00     0.063 A 
ATOM      8  N   UNL     1      12.987 -49.793 -24.689  1.00  0.00    -0.270 N 
ATOM      9  C   UNL     1      13.351 -46.049 -24.342  1.00  0.00     0.042 A 
ATOM     10  C   UNL     1      12.227 -47.843 -22.927  1.00  0.00     0.078 A 
ATOM     11  C   UNL     1      13.428 -50.895 -25.452  1.00  0.00     0.097 A 
ATOM     12  C   UNL     1      12.201 -50.035 -23.506  1.00  0.00     0.166 A 
ATOM     13  C   UNL     1      11.877 -46.723 -22.013  1.00  0.00     0.031 A 
ATOM     14  N   UNL     1      11.822 -49.034 -22.628  1.00  0.00    -0.228 NA
ATOM     15  C   UNL     1      13.086 -52.175 -25.218  1.00  0.00     0.029 A 
ATOM     16  C   UNL     1      11.816 -51.306 -23.220  1.00  0.00     0.115 A 
ATOM     17  C   UNL     1      12.241 -45.460 -22.283  1.00  0.00     0.028 A 
ATOM     18  C   UNL     1      12.228 -52.406 -24.084  1.00  0.00     0.015 A 
ATOM     19  N   UNL     1      11.049 -51.796 -22.182  1.00  0.00    -0.244 NA
ATOM     20  C   UNL     1      11.728 -53.547 -23.611  1.00  0.00     0.010 A 
ATOM     21  C   UNL     1      11.000 -53.073 -22.413  1.00  0.00     0.072 A 
ATOM     22  C   UNL     1      11.768 -54.931 -23.967  1.00  0.00     0.011 A 
ATOM     23  C   UNL     1      10.304 -54.102 -21.613  1.00  0.00     0.029 A 
ATOM     24  C   UNL     1      11.113 -55.809 -23.190  1.00  0.00     0.001 A 
ATOM     25  C   UNL     1      10.377 -55.385 -22.009  1.00  0.00     0.002 A 
BRANCH   6  26
ATOM     26  O   UNL     1      13.960 -48.164 -26.160  1.00  0.00    -0.494 OA
ATOM     27  H   UNL     1      13.951 -47.194 -26.219  1.00  0.00     0.295 HD
ENDBRANCH   6  26
ENDBRANCH   1   5
BRANCH   2  28
ATOM     28  C   UNL     1      14.625 -41.692 -23.940  1.00  0.00     0.363 C 
BRANCH  28  29
ATOM     29  N   UNL     1      13.270 -41.255 -24.506  1.00  0.00    -0.327 N 
ATOM     30  C   UNL     1      12.592 -40.207 -23.672  1.00  0.00     0.262 C 
ATOM     31  C   UNL     1      13.352 -40.886 -25.968  1.00  0.00     0.262 C 
ATOM     32  C   UNL     1      11.191 -39.956 -24.210  1.00  0.00     0.062 C 
ATOM     33  C   UNL     1      11.950 -40.644 -26.508  1.00  0.00     0.062 C 
ATOM     34  C   UNL     1      11.207 -39.593 -25.691  1.00  0.00     0.012 C 
ATOM     35  H   UNL     1      12.703 -42.123 -24.469  1.00  0.00     0.348 HD
ENDBRANCH  28  29
ENDBRANCH   2  28
TORSDOF 4
ENDMDL
MODEL 9
REMARK VINA RESULT:    -9.290      3.811     11.934
REMARK INTER + INTRA:         -11.584
REMARK INTER:                 -11.217
REMARK INTRA:                  -0.367
REMARK UNBOUND:                -0.394
REMARK SMILES O=C(C[NH+]1CCCCC1)Nc1ccc2nc3c4nc5ccccc5c-4ccn3c(O)c2c1
REMARK SMILES IDX 10 1 2 2 1 3 11 5 29 6 31 7 28 8 32 9 14 10 27 11 16 12
REMARK SMILES IDX 13 13 15 14 26 15 17 16 12 17 25 18 18 19 24 20 19 21 23 22
REMARK SMILES IDX 20 23 22 24 21 25 30 26 3 28 4 29 5 30 9 31 6 32 8 33 7 34
REMARK H PARENT 10 4 30 27 4 35
ROOT
ATOM      1  N   UNL     1      13.514 -44.865 -24.618  1.00  0.00    -0.321 N 
ATOM      2  C   UNL     1      13.412 -44.017 -25.703  1.00  0.00     0.279 C 
ATOM      3  O   UNL     1      13.111 -44.306 -26.861  1.00  0.00    -0.268 OA
ATOM      4  H   UNL     1      13.753 -44.450 -23.723  1.00  0.00     0.170 HD
ENDROOT
BRANCH   1   5
ATOM      5  C   UNL     1      13.310 -46.232 -24.568  1.00  0.00     0.042 A 
ATOM      6  C   UNL     1      11.192 -48.691 -22.785  1.00  0.00     0.206 A 
ATOM      7  C   UNL     1      12.094 -48.131 -23.613  1.00  0.00     0.063 A 
ATOM      8  N   UNL     1      10.951 -50.071 -22.743  1.00  0.00    -0.270 N 
ATOM      9  C   UNL     1      12.379 -46.713 -23.720  1.00  0.00     0.042 A 
ATOM     10  C   UNL     1      12.868 -49.106 -24.441  1.00  0.00     0.078 A 
ATOM     11  C   UNL     1       9.910 -50.673 -22.006  1.00  0.00     0.097 A 
ATOM     12  C   UNL     1      11.787 -50.900 -23.574  1.00  0.00     0.166 A 
ATOM     13  C   UNL     1      13.872 -48.492 -25.351  1.00  0.00     0.031 A 
ATOM     14  N   UNL     1      12.754 -50.394 -24.424  1.00  0.00    -0.228 NA
ATOM     15  C   UNL     1       9.689 -51.998 -21.936  1.00  0.00     0.029 A 
ATOM     16  C   UNL     1      11.618 -52.248 -23.541  1.00  0.00     0.115 A 
ATOM     17  C   UNL     1      14.059 -47.163 -25.393  1.00  0.00     0.028 A 
ATOM     18  C   UNL     1      10.580 -52.833 -22.700  1.00  0.00     0.015 A 
ATOM     19  N   UNL     1      12.294 -53.251 -24.206  1.00  0.00    -0.244 NA
ATOM     20  C   UNL     1      10.610 -54.160 -22.825  1.00  0.00     0.010 A 
ATOM     21  C   UNL     1      11.717 -54.338 -23.791  1.00  0.00     0.072 A 
ATOM     22  C   UNL     1       9.881 -55.273 -22.304  1.00  0.00     0.011 A 
ATOM     23  C   UNL     1      12.039 -55.727 -24.176  1.00  0.00     0.029 A 
ATOM     24  C   UNL     1      10.229 -56.507 -22.703  1.00  0.00     0.001 A 
ATOM     25  C   UNL     1      11.318 -56.728 -23.643  1.00  0.00     0.002 A 
BRANCH   6  26
ATOM     26  O   UNL     1      10.509 -47.867 -21.900  1.00  0.00    -0.494 OA
ATOM     27  H   UNL     1      10.298 -48.432 -21.138  1.00  0.00     0.295 HD
ENDBRANCH   6  26
ENDBRANCH   1   5
BRANCH   2  28
ATOM     28  C   UNL     1      13.716 -42.547 -25.389  1.00  0.00     0.363 C 
BRANCH  28  29
ATOM     29  N   UNL     1      13.139 -42.163 -24.022  1.00  0.00    -0.327 N 
ATOM     30  C   UNL     1      13.853 -41.009 -23.382  1.00  0.00     0.262 C 
ATOM     31  C   UNL     1      11.640 -41.983 -24.064  1.00  0.00     0.262 C 
ATOM     32  C   UNL     1      13.329 -40.806 -21.968  1.00  0.00     0.062 C 
ATOM     33  C   UNL     1      11.115 -41.788 -22.649  1.00  0.00     0.062 C 
ATOM     34  C   UNL     1      11.814 -40.631 -21.944  1.00  0.00     0.012 C 
ATOM     35  H   UNL     1      13.301 -43.011 -23.447  1.00  0.00     0.348 HD
ENDBRANCH  28  29
ENDBRANCH   2  28
TORSDOF 4
ENDMDL
