MODEL 1
REMARK VINA RESULT:    -9.296      0.000      0.000
REMARK INTER + INTRA:         -14.033
REMARK INTER:                 -12.828
REMARK INTRA:                  -1.204
REMARK UNBOUND:                -1.204
REMARK SMILES COc1ccc([C@H]2CC(c3cc(F)cc(F)c3)=NN2c2ccc(S(N)(=O)=O)cc2)c(OC)c1
REMARK SMILES IDX 20 1 21 2 22 3 23 4 28 5 29 6 19 7 7 8 8 9 9 10 18 11 6 12
REMARK SMILES IDX 3 13 4 14 33 15 5 16 30 17 2 18 1 19 31 20 32 21 10 22 11 23
REMARK SMILES IDX 17 24 12 25 15 26 14 27 13 28 16 29 24 30 26 31 27 32 25 33
REMARK H PARENT 25 34 25 35
ROOT
ATOM      1  C   UNL     1      13.045 -48.733 -24.740  1.00  0.00     0.060 A 
ATOM      2  C   UNL     1      13.929 -47.976 -25.534  1.00  0.00     0.029 A 
ATOM      3  C   UNL     1      13.870 -46.580 -25.587  1.00  0.00     0.024 A 
ATOM      4  C   UNL     1      12.902 -45.908 -24.843  1.00  0.00     0.082 A 
ATOM      5  C   UNL     1      12.016 -46.621 -24.038  1.00  0.00     0.024 A 
ATOM      6  C   UNL     1      12.090 -48.020 -23.996  1.00  0.00     0.029 A 
ENDROOT
BRANCH   1   7
ATOM      7  N   UNL     1      13.127 -50.125 -24.714  1.00  0.00    -0.257 N 
ATOM      8  C   UNL     1      13.849 -50.956 -25.685  1.00  0.00     0.148 C 
ATOM      9  C   UNL     1      13.245 -52.343 -25.455  1.00  0.00     0.091 C 
ATOM     10  C   UNL     1      12.477 -52.097 -24.186  1.00  0.00     0.071 C 
ATOM     11  N   UNL     1      12.399 -50.854 -23.820  1.00  0.00    -0.176 NA
BRANCH   8  12
ATOM     12  C   UNL     1      15.360 -50.983 -25.471  1.00  0.00     0.019 A 
ATOM     13  C   UNL     1      18.158 -51.063 -25.122  1.00  0.00     0.122 A 
ATOM     14  C   UNL     1      17.310 -51.575 -24.142  1.00  0.00     0.047 A 
ATOM     15  C   UNL     1      17.610 -50.520 -26.287  1.00  0.00     0.093 A 
ATOM     16  C   UNL     1      15.927 -51.541 -24.314  1.00  0.00     0.013 A 
ATOM     17  C   UNL     1      16.220 -50.480 -26.469  1.00  0.00     0.127 A 
BRANCH  13  18
ATOM     18  O   UNL     1      19.491 -51.161 -24.827  1.00  0.00    -0.497 OA
ATOM     19  C   UNL     1      20.328 -51.779 -25.795  1.00  0.00     0.278 C 
ENDBRANCH  13  18
BRANCH  17  20
ATOM     20  O   UNL     1      15.598 -49.988 -27.590  1.00  0.00    -0.496 OA
ATOM     21  C   UNL     1      16.353 -49.137 -28.444  1.00  0.00     0.278 C 
ENDBRANCH  17  20
ENDBRANCH   8  12
BRANCH  10  22
ATOM     22  C   UNL     1      11.828 -53.197 -23.438  1.00  0.00     0.004 A 
ATOM     23  C   UNL     1      11.378 -52.956 -22.135  1.00  0.00     0.049 A 
ATOM     24  C   UNL     1      11.656 -54.464 -24.004  1.00  0.00     0.049 A 
ATOM     25  C   UNL     1      10.766 -53.979 -21.415  1.00  0.00     0.126 A 
ATOM     26  C   UNL     1      11.040 -55.468 -23.260  1.00  0.00     0.126 A 
ATOM     27  C   UNL     1      10.592 -55.239 -21.967  1.00  0.00     0.078 A 
ATOM     28  F   UNL     1      10.338 -53.742 -20.169  1.00  0.00    -0.207 F 
ATOM     29  F   UNL     1      10.877 -56.679 -23.808  1.00  0.00    -0.207 F 
ENDBRANCH  10  22
ENDBRANCH   1   7
BRANCH   4  30
ATOM     30  S   UNL     1      12.835 -44.144 -24.880  1.00  0.00     0.238 S 
ATOM     31  O   UNL     1      11.561 -43.702 -24.362  1.00  0.00    -0.207 OA
ATOM     32  O   UNL     1      14.089 -43.607 -24.407  1.00  0.00    -0.207 OA
BRANCH  30  33
ATOM     33  N   UNL     1      12.791 -43.831 -26.529  1.00  0.00    -0.225 NA
ATOM     34  H   UNL     1      11.964 -43.278 -26.754  1.00  0.00     0.137 HD
ATOM     35  H   UNL     1      12.860 -44.705 -27.050  1.00  0.00     0.137 HD
ENDBRANCH  30  33
ENDBRANCH   4  30
TORSDOF 7
ENDMDL
MODEL 2
REMARK VINA RESULT:    -9.293      0.794      1.814
REMARK INTER + INTRA:         -14.028
REMARK INTER:                 -12.822
REMARK INTRA:                  -1.206
REMARK UNBOUND:                -1.204
REMARK SMILES COc1ccc([C@H]2CC(c3cc(F)cc(F)c3)=NN2c2ccc(S(N)(=O)=O)cc2)c(OC)c1
REMARK SMILES IDX 20 1 21 2 22 3 23 4 28 5 29 6 19 7 7 8 8 9 9 10 18 11 6 12
REMARK SMILES IDX 3 13 4 14 33 15 5 16 30 17 2 18 1 19 31 20 32 21 10 22 11 23
REMARK SMILES IDX 17 24 12 25 15 26 14 27 13 28 16 29 24 30 26 31 27 32 25 33
REMARK H PARENT 25 34 25 35
ROOT
ATOM      1  C   UNL     1      12.880 -48.548 -24.691  1.00  0.00     0.060 A 
ATOM      2  C   UNL     1      11.783 -47.820 -24.194  1.00  0.00     0.029 A 
ATOM      3  C   UNL     1      11.708 -46.427 -24.296  1.00  0.00     0.024 A 
ATOM      4  C   UNL     1      12.753 -45.729 -24.896  1.00  0.00     0.082 A 
ATOM      5  C   UNL     1      13.851 -46.415 -25.410  1.00  0.00     0.024 A 
ATOM      6  C   UNL     1      13.910 -47.811 -25.300  1.00  0.00     0.029 A 
ENDROOT
BRANCH   1   7
ATOM      7  N   UNL     1      12.926 -49.937 -24.569  1.00  0.00    -0.257 N 
ATOM      8  C   UNL     1      13.651 -50.849 -25.462  1.00  0.00     0.148 C 
ATOM      9  C   UNL     1      13.005 -52.203 -25.154  1.00  0.00     0.091 C 
ATOM     10  C   UNL     1      12.213 -51.853 -23.926  1.00  0.00     0.071 C 
ATOM     11  N   UNL     1      12.158 -50.586 -23.646  1.00  0.00    -0.176 NA
BRANCH   8  12
ATOM     12  C   UNL     1      15.154 -50.899 -25.208  1.00  0.00     0.019 A 
ATOM     13  C   UNL     1      17.941 -51.019 -24.783  1.00  0.00     0.122 A 
ATOM     14  C   UNL     1      17.057 -51.483 -23.810  1.00  0.00     0.047 A 
ATOM     15  C   UNL     1      17.434 -50.504 -25.978  1.00  0.00     0.093 A 
ATOM     16  C   UNL     1      15.680 -51.430 -24.019  1.00  0.00     0.013 A 
ATOM     17  C   UNL     1      16.049 -50.444 -26.198  1.00  0.00     0.127 A 
BRANCH  13  18
ATOM     18  O   UNL     1      19.263 -51.132 -24.449  1.00  0.00    -0.497 OA
ATOM     19  C   UNL     1      20.142 -51.648 -25.439  1.00  0.00     0.278 C 
ENDBRANCH  13  18
BRANCH  17  20
ATOM     20  O   UNL     1      15.467 -49.977 -27.350  1.00  0.00    -0.496 OA
ATOM     21  C   UNL     1      16.275 -49.209 -28.234  1.00  0.00     0.278 C 
ENDBRANCH  17  20
ENDBRANCH   8  12
BRANCH  10  22
ATOM     22  C   UNL     1      11.519 -52.883 -23.122  1.00  0.00     0.004 A 
ATOM     23  C   UNL     1      10.902 -53.954 -23.780  1.00  0.00     0.049 A 
ATOM     24  C   UNL     1      11.469 -52.811 -21.727  1.00  0.00     0.049 A 
ATOM     25  C   UNL     1      10.243 -54.932 -23.041  1.00  0.00     0.126 A 
ATOM     26  C   UNL     1      10.803 -53.804 -21.013  1.00  0.00     0.126 A 
ATOM     27  C   UNL     1      10.187 -54.868 -21.657  1.00  0.00     0.078 A 
ATOM     28  F   UNL     1       9.655 -55.953 -23.676  1.00  0.00    -0.207 F 
ATOM     29  F   UNL     1      10.758 -53.729 -19.676  1.00  0.00    -0.207 F 
ENDBRANCH  10  22
ENDBRANCH   1   7
BRANCH   4  30
ATOM     30  S   UNL     1      12.658 -43.972 -25.056  1.00  0.00     0.238 S 
ATOM     31  O   UNL     1      13.378 -43.354 -23.967  1.00  0.00    -0.207 OA
ATOM     32  O   UNL     1      12.877 -43.604 -26.434  1.00  0.00    -0.207 OA
BRANCH  30  33
ATOM     33  N   UNL     1      11.032 -43.683 -24.752  1.00  0.00    -0.225 NA
ATOM     34  H   UNL     1      10.497 -43.783 -25.614  1.00  0.00     0.137 HD
ATOM     35  H   UNL     1      10.921 -42.778 -24.296  1.00  0.00     0.137 HD
ENDBRANCH  30  33
ENDBRANCH   4  30
TORSDOF 7
ENDMDL
MODEL 3
REMARK VINA RESULT:    -8.919      3.026      5.931
REMARK INTER + INTRA:         -13.512
REMARK INTER:                 -12.213
REMARK INTRA:                  -1.300
REMARK UNBOUND:                -1.204
REMARK SMILES COc1ccc([C@H]2CC(c3cc(F)cc(F)c3)=NN2c2ccc(S(N)(=O)=O)cc2)c(OC)c1
REMARK SMILES IDX 20 1 21 2 22 3 23 4 28 5 29 6 19 7 7 8 8 9 9 10 18 11 6 12
REMARK SMILES IDX 3 13 4 14 33 15 5 16 30 17 2 18 1 19 31 20 32 21 10 22 11 23
REMARK SMILES IDX 17 24 12 25 15 26 14 27 13 28 16 29 24 30 26 31 27 32 25 33
REMARK H PARENT 25 34 25 35
ROOT
ATOM      1  C   UNL     1      14.455 -48.709 -26.573  1.00  0.00     0.060 A 
ATOM      2  C   UNL     1      14.691 -47.331 -26.739  1.00  0.00     0.029 A 
ATOM      3  C   UNL     1      15.282 -46.812 -27.896  1.00  0.00     0.024 A 
ATOM      4  C   UNL     1      15.663 -47.680 -28.916  1.00  0.00     0.082 A 
ATOM      5  C   UNL     1      15.437 -49.050 -28.793  1.00  0.00     0.024 A 
ATOM      6  C   UNL     1      14.843 -49.552 -27.627  1.00  0.00     0.029 A 
ENDROOT
BRANCH   1   7
ATOM      7  N   UNL     1      13.869 -49.194 -25.404  1.00  0.00    -0.257 N 
ATOM      8  C   UNL     1      13.964 -48.569 -24.078  1.00  0.00     0.148 C 
ATOM      9  C   UNL     1      13.556 -49.709 -23.141  1.00  0.00     0.091 C 
ATOM     10  C   UNL     1      13.029 -50.704 -24.137  1.00  0.00     0.071 C 
ATOM     11  N   UNL     1      13.248 -50.409 -25.382  1.00  0.00    -0.176 NA
BRANCH   8  12
ATOM     12  C   UNL     1      13.044 -47.366 -23.896  1.00  0.00     0.019 A 
ATOM     13  C   UNL     1      11.353 -45.141 -23.504  1.00  0.00     0.122 A 
ATOM     14  C   UNL     1      10.874 -46.291 -24.129  1.00  0.00     0.047 A 
ATOM     15  C   UNL     1      12.678 -45.104 -23.062  1.00  0.00     0.093 A 
ATOM     16  C   UNL     1      11.706 -47.394 -24.319  1.00  0.00     0.013 A 
ATOM     17  C   UNL     1      13.524 -46.207 -23.251  1.00  0.00     0.127 A 
BRANCH  13  18
ATOM     18  O   UNL     1      10.433 -44.137 -23.381  1.00  0.00    -0.497 OA
ATOM     19  C   UNL     1      10.872 -42.920 -22.792  1.00  0.00     0.278 C 
ENDBRANCH  13  18
BRANCH  17  20
ATOM     20  O   UNL     1      14.828 -46.265 -22.827  1.00  0.00    -0.496 OA
ATOM     21  C   UNL     1      15.071 -46.216 -21.426  1.00  0.00     0.278 C 
ENDBRANCH  17  20
ENDBRANCH   8  12
BRANCH  10  22
ATOM     22  C   UNL     1      12.344 -51.946 -23.714  1.00  0.00     0.004 A 
ATOM     23  C   UNL     1      12.376 -53.059 -24.563  1.00  0.00     0.049 A 
ATOM     24  C   UNL     1      11.671 -52.031 -22.492  1.00  0.00     0.049 A 
ATOM     25  C   UNL     1      11.737 -54.236 -24.183  1.00  0.00     0.126 A 
ATOM     26  C   UNL     1      11.041 -53.221 -22.138  1.00  0.00     0.126 A 
ATOM     27  C   UNL     1      11.066 -54.329 -22.973  1.00  0.00     0.078 A 
ATOM     28  F   UNL     1      11.771 -55.297 -24.999  1.00  0.00    -0.207 F 
ATOM     29  F   UNL     1      10.398 -53.296 -20.965  1.00  0.00    -0.207 F 
ENDBRANCH  10  22
ENDBRANCH   1   7
BRANCH   4  30
ATOM     30  S   UNL     1      16.385 -47.035 -30.393  1.00  0.00     0.238 S 
ATOM     31  O   UNL     1      17.332 -46.000 -30.050  1.00  0.00    -0.207 OA
ATOM     32  O   UNL     1      16.719 -48.126 -31.279  1.00  0.00    -0.207 OA
BRANCH  30  33
ATOM     33  N   UNL     1      15.083 -46.246 -31.101  1.00  0.00    -0.225 NA
ATOM     34  H   UNL     1      14.269 -46.304 -30.489  1.00  0.00     0.137 HD
ATOM     35  H   UNL     1      14.924 -46.612 -32.040  1.00  0.00     0.137 HD
ENDBRANCH  30  33
ENDBRANCH   4  30
TORSDOF 7
ENDMDL
MODEL 4
REMARK VINA RESULT:    -8.736      3.054      5.833
REMARK INTER + INTRA:         -13.260
REMARK INTER:                 -11.699
REMARK INTRA:                  -1.560
REMARK UNBOUND:                -1.204
REMARK SMILES COc1ccc([C@H]2CC(c3cc(F)cc(F)c3)=NN2c2ccc(S(N)(=O)=O)cc2)c(OC)c1
REMARK SMILES IDX 20 1 21 2 22 3 23 4 28 5 29 6 19 7 7 8 8 9 9 10 18 11 6 12
REMARK SMILES IDX 3 13 4 14 33 15 5 16 30 17 2 18 1 19 31 20 32 21 10 22 11 23
REMARK SMILES IDX 17 24 12 25 15 26 14 27 13 28 16 29 24 30 26 31 27 32 25 33
REMARK H PARENT 25 34 25 35
ROOT
ATOM      1  C   UNL     1      15.223 -48.801 -28.055  1.00  0.00     0.060 A 
ATOM      2  C   UNL     1      16.339 -49.368 -28.700  1.00  0.00     0.029 A 
ATOM      3  C   UNL     1      16.870 -48.828 -29.877  1.00  0.00     0.024 A 
ATOM      4  C   UNL     1      16.275 -47.702 -30.441  1.00  0.00     0.082 A 
ATOM      5  C   UNL     1      15.175 -47.108 -29.827  1.00  0.00     0.024 A 
ATOM      6  C   UNL     1      14.657 -47.660 -28.648  1.00  0.00     0.029 A 
ENDROOT
BRANCH   1   7
ATOM      7  N   UNL     1      14.714 -49.367 -26.886  1.00  0.00    -0.257 N 
ATOM      8  C   UNL     1      14.943 -48.865 -25.525  1.00  0.00     0.148 C 
ATOM      9  C   UNL     1      14.567 -50.068 -24.657  1.00  0.00     0.091 C 
ATOM     10  C   UNL     1      13.920 -50.954 -25.684  1.00  0.00     0.071 C 
ATOM     11  N   UNL     1      14.049 -50.558 -26.915  1.00  0.00    -0.176 NA
BRANCH   8  12
ATOM     12  C   UNL     1      14.092 -47.652 -25.164  1.00  0.00     0.019 A 
ATOM     13  C   UNL     1      12.551 -45.398 -24.453  1.00  0.00     0.122 A 
ATOM     14  C   UNL     1      11.961 -46.657 -24.539  1.00  0.00     0.047 A 
ATOM     15  C   UNL     1      13.917 -45.262 -24.711  1.00  0.00     0.093 A 
ATOM     16  C   UNL     1      12.721 -47.774 -24.885  1.00  0.00     0.013 A 
ATOM     17  C   UNL     1      14.690 -46.379 -25.062  1.00  0.00     0.127 A 
BRANCH  13  18
ATOM     18  O   UNL     1      11.692 -44.392 -24.103  1.00  0.00    -0.497 OA
ATOM     19  C   UNL     1      11.023 -44.512 -22.855  1.00  0.00     0.278 C 
ENDBRANCH  13  18
BRANCH  17  20
ATOM     20  O   UNL     1      16.040 -46.341 -25.307  1.00  0.00    -0.496 OA
ATOM     21  C   UNL     1      16.494 -45.521 -26.378  1.00  0.00     0.278 C 
ENDBRANCH  17  20
ENDBRANCH   8  12
BRANCH  10  22
ATOM     22  C   UNL     1      13.222 -52.204 -25.312  1.00  0.00     0.004 A 
ATOM     23  C   UNL     1      12.454 -52.229 -24.142  1.00  0.00     0.049 A 
ATOM     24  C   UNL     1      13.310 -53.354 -26.103  1.00  0.00     0.049 A 
ATOM     25  C   UNL     1      11.791 -53.396 -23.776  1.00  0.00     0.126 A 
ATOM     26  C   UNL     1      12.636 -54.508 -25.712  1.00  0.00     0.126 A 
ATOM     27  C   UNL     1      11.874 -54.542 -24.552  1.00  0.00     0.078 A 
ATOM     28  F   UNL     1      11.059 -53.414 -22.655  1.00  0.00    -0.207 F 
ATOM     29  F   UNL     1      12.725 -55.606 -26.473  1.00  0.00    -0.207 F 
ENDBRANCH  10  22
ENDBRANCH   1   7
BRANCH   4  30
ATOM     30  S   UNL     1      16.953 -46.996 -31.911  1.00  0.00     0.238 S 
ATOM     31  O   UNL     1      18.346 -46.682 -31.693  1.00  0.00    -0.207 OA
ATOM     32  O   UNL     1      16.501 -47.749 -33.057  1.00  0.00    -0.207 OA
BRANCH  30  33
ATOM     33  N   UNL     1      16.159 -45.518 -31.986  1.00  0.00    -0.225 NA
ATOM     34  H   UNL     1      15.758 -45.295 -31.074  1.00  0.00     0.137 HD
ATOM     35  H   UNL     1      15.481 -45.527 -32.747  1.00  0.00     0.137 HD
ENDBRANCH  30  33
ENDBRANCH   4  30
TORSDOF 7
ENDMDL
MODEL 5
REMARK VINA RESULT:    -8.732      4.501      7.706
REMARK INTER + INTRA:         -13.254
REMARK INTER:                 -11.885
REMARK INTRA:                  -1.369
REMARK UNBOUND:                -1.204
REMARK SMILES COc1ccc([C@H]2CC(c3cc(F)cc(F)c3)=NN2c2ccc(S(N)(=O)=O)cc2)c(OC)c1
REMARK SMILES IDX 20 1 21 2 22 3 23 4 28 5 29 6 19 7 7 8 8 9 9 10 18 11 6 12
REMARK SMILES IDX 3 13 4 14 33 15 5 16 30 17 2 18 1 19 31 20 32 21 10 22 11 23
REMARK SMILES IDX 17 24 12 25 15 26 14 27 13 28 16 29 24 30 26 31 27 32 25 33
REMARK H PARENT 25 34 25 35
ROOT
ATOM      1  C   UNL     1      12.332 -50.438 -23.106  1.00  0.00     0.060 A 
ATOM      2  C   UNL     1      11.394 -50.714 -22.092  1.00  0.00     0.029 A 
ATOM      3  C   UNL     1      10.809 -51.976 -21.943  1.00  0.00     0.024 A 
ATOM      4  C   UNL     1      11.150 -52.995 -22.829  1.00  0.00     0.082 A 
ATOM      5  C   UNL     1      12.081 -52.764 -23.840  1.00  0.00     0.024 A 
ATOM      6  C   UNL     1      12.658 -51.494 -23.973  1.00  0.00     0.029 A 
ENDROOT
BRANCH   1   7
ATOM      7  N   UNL     1      12.892 -49.167 -23.230  1.00  0.00    -0.257 N 
ATOM      8  C   UNL     1      14.323 -48.877 -23.388  1.00  0.00     0.148 C 
ATOM      9  C   UNL     1      14.406 -47.393 -23.022  1.00  0.00     0.091 C 
ATOM     10  C   UNL     1      12.946 -47.038 -22.991  1.00  0.00     0.071 C 
ATOM     11  N   UNL     1      12.131 -48.046 -23.073  1.00  0.00    -0.176 NA
BRANCH   8  12
ATOM     12  C   UNL     1      14.848 -49.114 -24.801  1.00  0.00     0.019 A 
ATOM     13  C   UNL     1      15.870 -49.536 -27.397  1.00  0.00     0.122 A 
ATOM     14  C   UNL     1      14.798 -48.670 -27.193  1.00  0.00     0.047 A 
ATOM     15  C   UNL     1      16.444 -50.186 -26.301  1.00  0.00     0.093 A 
ATOM     16  C   UNL     1      14.294 -48.455 -25.910  1.00  0.00     0.013 A 
ATOM     17  C   UNL     1      15.943 -49.978 -25.007  1.00  0.00     0.127 A 
BRANCH  13  18
ATOM     18  O   UNL     1      16.264 -49.653 -28.702  1.00  0.00    -0.497 OA
ATOM     19  C   UNL     1      15.761 -48.694 -29.622  1.00  0.00     0.278 C 
ENDBRANCH  13  18
BRANCH  17  20
ATOM     20  O   UNL     1      16.460 -50.555 -23.874  1.00  0.00    -0.496 OA
ATOM     21  C   UNL     1      16.706 -51.957 -23.899  1.00  0.00     0.278 C 
ENDBRANCH  17  20
ENDBRANCH   8  12
BRANCH  10  22
ATOM     22  C   UNL     1      12.483 -45.641 -22.840  1.00  0.00     0.004 A 
ATOM     23  C   UNL     1      11.411 -45.195 -23.622  1.00  0.00     0.049 A 
ATOM     24  C   UNL     1      13.089 -44.764 -21.935  1.00  0.00     0.049 A 
ATOM     25  C   UNL     1      10.962 -43.884 -23.493  1.00  0.00     0.126 A 
ATOM     26  C   UNL     1      12.618 -43.458 -21.828  1.00  0.00     0.126 A 
ATOM     27  C   UNL     1      11.557 -43.006 -22.600  1.00  0.00     0.078 A 
ATOM     28  F   UNL     1       9.936 -43.462 -24.244  1.00  0.00    -0.207 F 
ATOM     29  F   UNL     1      13.203 -42.622 -20.959  1.00  0.00    -0.207 F 
ENDBRANCH  10  22
ENDBRANCH   1   7
BRANCH   4  30
ATOM     30  S   UNL     1      10.439 -54.600 -22.635  1.00  0.00     0.238 S 
ATOM     31  O   UNL     1       9.900 -55.041 -23.901  1.00  0.00    -0.207 OA
ATOM     32  O   UNL     1      11.323 -55.423 -21.844  1.00  0.00    -0.207 OA
BRANCH  30  33
ATOM     33  N   UNL     1       9.110 -54.277 -21.661  1.00  0.00    -0.225 NA
ATOM     34  H   UNL     1       9.418 -53.839 -20.792  1.00  0.00     0.137 HD
ATOM     35  H   UNL     1       8.564 -55.127 -21.528  1.00  0.00     0.137 HD
ENDBRANCH  30  33
ENDBRANCH   4  30
TORSDOF 7
ENDMDL
MODEL 6
REMARK VINA RESULT:    -8.646      4.873      8.036
REMARK INTER + INTRA:         -13.136
REMARK INTER:                 -11.823
REMARK INTRA:                  -1.313
REMARK UNBOUND:                -1.204
REMARK SMILES COc1ccc([C@H]2CC(c3cc(F)cc(F)c3)=NN2c2ccc(S(N)(=O)=O)cc2)c(OC)c1
REMARK SMILES IDX 20 1 21 2 22 3 23 4 28 5 29 6 19 7 7 8 8 9 9 10 18 11 6 12
REMARK SMILES IDX 3 13 4 14 33 15 5 16 30 17 2 18 1 19 31 20 32 21 10 22 11 23
REMARK SMILES IDX 17 24 12 25 15 26 14 27 13 28 16 29 24 30 26 31 27 32 25 33
REMARK H PARENT 25 34 25 35
ROOT
ATOM      1  C   UNL     1      12.824 -51.465 -24.562  1.00  0.00     0.060 A 
ATOM      2  C   UNL     1      12.841 -52.745 -25.148  1.00  0.00     0.029 A 
ATOM      3  C   UNL     1      12.145 -53.825 -24.595  1.00  0.00     0.024 A 
ATOM      4  C   UNL     1      11.419 -53.640 -23.421  1.00  0.00     0.082 A 
ATOM      5  C   UNL     1      11.370 -52.385 -22.817  1.00  0.00     0.024 A 
ATOM      6  C   UNL     1      12.072 -51.314 -23.385  1.00  0.00     0.029 A 
ENDROOT
BRANCH   1   7
ATOM      7  N   UNL     1      13.534 -50.410 -25.137  1.00  0.00    -0.257 N 
ATOM      8  C   UNL     1      13.361 -48.989 -24.813  1.00  0.00     0.148 C 
ATOM      9  C   UNL     1      14.018 -48.291 -26.007  1.00  0.00     0.091 C 
ATOM     10  C   UNL     1      14.698 -49.460 -26.664  1.00  0.00     0.071 C 
ATOM     11  N   UNL     1      14.383 -50.624 -26.183  1.00  0.00    -0.176 NA
BRANCH   8  12
ATOM     12  C   UNL     1      14.029 -48.567 -23.508  1.00  0.00     0.019 A 
ATOM     13  C   UNL     1      15.252 -47.736 -21.105  1.00  0.00     0.122 A 
ATOM     14  C   UNL     1      15.984 -48.429 -22.066  1.00  0.00     0.047 A 
ATOM     15  C   UNL     1      13.907 -47.446 -21.346  1.00  0.00     0.093 A 
ATOM     16  C   UNL     1      15.385 -48.836 -23.257  1.00  0.00     0.013 A 
ATOM     17  C   UNL     1      13.293 -47.853 -22.540  1.00  0.00     0.127 A 
BRANCH  13  18
ATOM     18  O   UNL     1      15.962 -47.395 -19.986  1.00  0.00    -0.497 OA
ATOM     19  C   UNL     1      15.484 -46.297 -19.221  1.00  0.00     0.278 C 
ENDBRANCH  13  18
BRANCH  17  20
ATOM     20  O   UNL     1      11.987 -47.589 -22.870  1.00  0.00    -0.496 OA
ATOM     21  C   UNL     1      11.305 -46.590 -22.121  1.00  0.00     0.278 C 
ENDBRANCH  17  20
ENDBRANCH   8  12
BRANCH  10  22
ATOM     22  C   UNL     1      15.629 -49.286 -27.801  1.00  0.00     0.004 A 
ATOM     23  C   UNL     1      16.986 -49.576 -27.615  1.00  0.00     0.049 A 
ATOM     24  C   UNL     1      15.183 -48.842 -29.049  1.00  0.00     0.049 A 
ATOM     25  C   UNL     1      17.877 -49.418 -28.673  1.00  0.00     0.126 A 
ATOM     26  C   UNL     1      16.098 -48.693 -30.090  1.00  0.00     0.126 A 
ATOM     27  C   UNL     1      17.445 -48.977 -29.915  1.00  0.00     0.078 A 
ATOM     28  F   UNL     1      19.173 -49.696 -28.490  1.00  0.00    -0.207 F 
ATOM     29  F   UNL     1      15.664 -48.268 -31.284  1.00  0.00    -0.207 F 
ENDBRANCH  10  22
ENDBRANCH   1   7
BRANCH   4  30
ATOM     30  S   UNL     1      10.514 -54.988 -22.727  1.00  0.00     0.238 S 
ATOM     31  O   UNL     1       9.643 -55.548 -23.735  1.00  0.00    -0.207 OA
ATOM     32  O   UNL     1      11.402 -55.805 -21.934  1.00  0.00    -0.207 OA
BRANCH  30  33
ATOM     33  N   UNL     1       9.505 -54.207 -21.635  1.00  0.00    -0.225 NA
ATOM     34  H   UNL     1       8.917 -53.535 -22.129  1.00  0.00     0.137 HD
ATOM     35  H   UNL     1      10.059 -53.800 -20.882  1.00  0.00     0.137 HD
ENDBRANCH  30  33
ENDBRANCH   4  30
TORSDOF 7
ENDMDL
MODEL 7
REMARK VINA RESULT:    -8.356      4.840      7.675
REMARK INTER + INTRA:         -12.736
REMARK INTER:                 -11.469
REMARK INTRA:                  -1.267
REMARK UNBOUND:                -1.204
REMARK SMILES COc1ccc([C@H]2CC(c3cc(F)cc(F)c3)=NN2c2ccc(S(N)(=O)=O)cc2)c(OC)c1
REMARK SMILES IDX 20 1 21 2 22 3 23 4 28 5 29 6 19 7 7 8 8 9 9 10 18 11 6 12
REMARK SMILES IDX 3 13 4 14 33 15 5 16 30 17 2 18 1 19 31 20 32 21 10 22 11 23
REMARK SMILES IDX 17 24 12 25 15 26 14 27 13 28 16 29 24 30 26 31 27 32 25 33
REMARK H PARENT 25 34 25 35
ROOT
ATOM      1  C   UNL     1      13.088 -51.628 -24.405  1.00  0.00     0.060 A 
ATOM      2  C   UNL     1      12.930 -52.897 -24.994  1.00  0.00     0.029 A 
ATOM      3  C   UNL     1      12.046 -53.851 -24.478  1.00  0.00     0.024 A 
ATOM      4  C   UNL     1      11.304 -53.548 -23.339  1.00  0.00     0.082 A 
ATOM      5  C   UNL     1      11.425 -52.299 -22.734  1.00  0.00     0.024 A 
ATOM      6  C   UNL     1      12.315 -51.355 -23.265  1.00  0.00     0.029 A 
ENDROOT
BRANCH   1   7
ATOM      7  N   UNL     1      13.983 -50.701 -24.942  1.00  0.00    -0.257 N 
ATOM      8  C   UNL     1      14.509 -49.521 -24.246  1.00  0.00     0.148 C 
ATOM      9  C   UNL     1      15.040 -48.662 -25.396  1.00  0.00     0.091 C 
ATOM     10  C   UNL     1      14.968 -49.649 -26.528  1.00  0.00     0.071 C 
ATOM     11  N   UNL     1      14.345 -50.756 -26.256  1.00  0.00    -0.176 NA
BRANCH   8  12
ATOM     12  C   UNL     1      15.621 -49.836 -23.250  1.00  0.00     0.019 A 
ATOM     13  C   UNL     1      17.705 -50.373 -21.426  1.00  0.00     0.122 A 
ATOM     14  C   UNL     1      17.351 -51.314 -22.390  1.00  0.00     0.047 A 
ATOM     15  C   UNL     1      17.025 -49.153 -21.377  1.00  0.00     0.093 A 
ATOM     16  C   UNL     1      16.325 -51.050 -23.296  1.00  0.00     0.013 A 
ATOM     17  C   UNL     1      15.990 -48.878 -22.284  1.00  0.00     0.127 A 
BRANCH  13  18
ATOM     18  O   UNL     1      18.727 -50.760 -20.603  1.00  0.00    -0.497 OA
ATOM     19  C   UNL     1      18.793 -50.157 -19.318  1.00  0.00     0.278 C 
ENDBRANCH  13  18
BRANCH  17  20
ATOM     20  O   UNL     1      15.288 -47.699 -22.323  1.00  0.00    -0.496 OA
ATOM     21  C   UNL     1      15.950 -46.520 -21.880  1.00  0.00     0.278 C 
ENDBRANCH  17  20
ENDBRANCH   8  12
BRANCH  10  22
ATOM     22  C   UNL     1      15.536 -49.354 -27.862  1.00  0.00     0.004 A 
ATOM     23  C   UNL     1      16.881 -49.659 -28.107  1.00  0.00     0.049 A 
ATOM     24  C   UNL     1      14.762 -48.785 -28.876  1.00  0.00     0.049 A 
ATOM     25  C   UNL     1      17.433 -49.388 -29.355  1.00  0.00     0.126 A 
ATOM     26  C   UNL     1      15.342 -48.525 -30.116  1.00  0.00     0.126 A 
ATOM     27  C   UNL     1      16.674 -48.821 -30.368  1.00  0.00     0.078 A 
ATOM     28  F   UNL     1      18.719 -49.680 -29.584  1.00  0.00    -0.207 F 
ATOM     29  F   UNL     1      14.594 -47.978 -31.084  1.00  0.00    -0.207 F 
ENDBRANCH  10  22
ENDBRANCH   1   7
BRANCH   4  30
ATOM     30  S   UNL     1      10.164 -54.733 -22.694  1.00  0.00     0.238 S 
ATOM     31  O   UNL     1       9.388 -54.125 -21.638  1.00  0.00    -0.207 OA
ATOM     32  O   UNL     1       9.553 -55.453 -23.786  1.00  0.00    -0.207 OA
BRANCH  30  33
ATOM     33  N   UNL     1      11.190 -55.825 -21.936  1.00  0.00    -0.225 NA
ATOM     34  H   UNL     1      11.441 -55.478 -21.010  1.00  0.00     0.137 HD
ATOM     35  H   UNL     1      11.989 -56.024 -22.536  1.00  0.00     0.137 HD
ENDBRANCH  30  33
ENDBRANCH   4  30
TORSDOF 7
ENDMDL
MODEL 8
REMARK VINA RESULT:    -7.982      1.944      2.265
REMARK INTER + INTRA:         -12.219
REMARK INTER:                 -10.793
REMARK INTRA:                  -1.426
REMARK UNBOUND:                -1.204
REMARK SMILES COc1ccc([C@H]2CC(c3cc(F)cc(F)c3)=NN2c2ccc(S(N)(=O)=O)cc2)c(OC)c1
REMARK SMILES IDX 20 1 21 2 22 3 23 4 28 5 29 6 19 7 7 8 8 9 9 10 18 11 6 12
REMARK SMILES IDX 3 13 4 14 33 15 5 16 30 17 2 18 1 19 31 20 32 21 10 22 11 23
REMARK SMILES IDX 17 24 12 25 15 26 14 27 13 28 16 29 24 30 26 31 27 32 25 33
REMARK H PARENT 25 34 25 35
ROOT
ATOM      1  C   UNL     1      12.541 -47.361 -24.008  1.00  0.00     0.060 A 
ATOM      2  C   UNL     1      11.868 -46.863 -22.876  1.00  0.00     0.029 A 
ATOM      3  C   UNL     1      11.500 -45.518 -22.763  1.00  0.00     0.024 A 
ATOM      4  C   UNL     1      11.815 -44.635 -23.793  1.00  0.00     0.082 A 
ATOM      5  C   UNL     1      12.472 -45.092 -24.933  1.00  0.00     0.024 A 
ATOM      6  C   UNL     1      12.832 -46.443 -25.030  1.00  0.00     0.029 A 
ENDROOT
BRANCH   1   7
ATOM      7  N   UNL     1      12.899 -48.707 -24.087  1.00  0.00    -0.257 N 
ATOM      8  C   UNL     1      13.968 -49.258 -24.930  1.00  0.00     0.148 C 
ATOM      9  C   UNL     1      13.625 -50.749 -24.973  1.00  0.00     0.091 C 
ATOM     10  C   UNL     1      12.569 -50.817 -23.906  1.00  0.00     0.071 C 
ATOM     11  N   UNL     1      12.160 -49.667 -23.460  1.00  0.00    -0.176 NA
BRANCH   8  12
ATOM     12  C   UNL     1      15.370 -49.044 -24.367  1.00  0.00     0.019 A 
ATOM     13  C   UNL     1      17.980 -48.689 -23.356  1.00  0.00     0.122 A 
ATOM     14  C   UNL     1      16.911 -48.902 -22.489  1.00  0.00     0.047 A 
ATOM     15  C   UNL     1      17.750 -48.664 -24.734  1.00  0.00     0.093 A 
ATOM     16  C   UNL     1      15.620 -49.083 -22.986  1.00  0.00     0.013 A 
ATOM     17  C   UNL     1      16.456 -48.843 -25.244  1.00  0.00     0.127 A 
BRANCH  13  18
ATOM     18  O   UNL     1      19.190 -48.529 -22.737  1.00  0.00    -0.497 OA
ATOM     19  C   UNL     1      20.149 -47.706 -23.385  1.00  0.00     0.278 C 
ENDBRANCH  13  18
BRANCH  17  20
ATOM     20  O   UNL     1      16.144 -48.858 -26.581  1.00  0.00    -0.496 OA
ATOM     21  C   UNL     1      16.532 -47.734 -27.362  1.00  0.00     0.278 C 
ENDBRANCH  17  20
ENDBRANCH   8  12
BRANCH  10  22
ATOM     22  C   UNL     1      12.014 -52.105 -23.434  1.00  0.00     0.004 A 
ATOM     23  C   UNL     1      11.450 -52.170 -22.154  1.00  0.00     0.049 A 
ATOM     24  C   UNL     1      12.038 -53.249 -24.237  1.00  0.00     0.049 A 
ATOM     25  C   UNL     1      10.924 -53.374 -21.693  1.00  0.00     0.126 A 
ATOM     26  C   UNL     1      11.504 -54.439 -23.748  1.00  0.00     0.126 A 
ATOM     27  C   UNL     1      10.945 -54.515 -22.481  1.00  0.00     0.078 A 
ATOM     28  F   UNL     1      10.387 -53.431 -20.468  1.00  0.00    -0.207 F 
ATOM     29  F   UNL     1      11.531 -55.533 -24.522  1.00  0.00    -0.207 F 
ENDBRANCH  10  22
ENDBRANCH   1   7
BRANCH   4  30
ATOM     30  S   UNL     1      11.331 -42.940 -23.674  1.00  0.00     0.238 S 
ATOM     31  O   UNL     1      10.529 -42.754 -22.487  1.00  0.00    -0.207 OA
ATOM     32  O   UNL     1      12.461 -42.097 -23.982  1.00  0.00    -0.207 OA
BRANCH  30  33
ATOM     33  N   UNL     1      10.273 -42.788 -24.969  1.00  0.00    -0.225 NA
ATOM     34  H   UNL     1      10.278 -41.826 -25.307  1.00  0.00     0.137 HD
ATOM     35  H   UNL     1       9.350 -43.132 -24.704  1.00  0.00     0.137 HD
ENDBRANCH  30  33
ENDBRANCH   4  30
TORSDOF 7
ENDMDL
MODEL 9
REMARK VINA RESULT:    -7.921      3.720      5.295
REMARK INTER + INTRA:         -12.136
REMARK INTER:                 -10.676
REMARK INTRA:                  -1.460
REMARK UNBOUND:                -1.204
REMARK SMILES COc1ccc([C@H]2CC(c3cc(F)cc(F)c3)=NN2c2ccc(S(N)(=O)=O)cc2)c(OC)c1
REMARK SMILES IDX 20 1 21 2 22 3 23 4 28 5 29 6 19 7 7 8 8 9 9 10 18 11 6 12
REMARK SMILES IDX 3 13 4 14 33 15 5 16 30 17 2 18 1 19 31 20 32 21 10 22 11 23
REMARK SMILES IDX 17 24 12 25 15 26 14 27 13 28 16 29 24 30 26 31 27 32 25 33
REMARK H PARENT 25 34 25 35
ROOT
ATOM      1  C   UNL     1      14.553 -47.747 -21.685  1.00  0.00     0.060 A 
ATOM      2  C   UNL     1      14.054 -47.331 -20.435  1.00  0.00     0.029 A 
ATOM      3  C   UNL     1      14.843 -46.631 -19.516  1.00  0.00     0.024 A 
ATOM      4  C   UNL     1      16.168 -46.342 -19.834  1.00  0.00     0.082 A 
ATOM      5  C   UNL     1      16.694 -46.728 -21.065  1.00  0.00     0.024 A 
ATOM      6  C   UNL     1      15.890 -47.428 -21.974  1.00  0.00     0.029 A 
ENDROOT
BRANCH   1   7
ATOM      7  N   UNL     1      13.741 -48.449 -22.576  1.00  0.00    -0.257 N 
ATOM      8  C   UNL     1      12.816 -47.846 -23.544  1.00  0.00     0.148 C 
ATOM      9  C   UNL     1      11.899 -49.017 -23.905  1.00  0.00     0.091 C 
ATOM     10  C   UNL     1      12.652 -50.156 -23.278  1.00  0.00     0.071 C 
ATOM     11  N   UNL     1      13.647 -49.809 -22.519  1.00  0.00    -0.176 NA
BRANCH   8  12
ATOM     12  C   UNL     1      13.500 -47.293 -24.790  1.00  0.00     0.019 A 
ATOM     13  C   UNL     1      14.717 -46.249 -27.112  1.00  0.00     0.122 A 
ATOM     14  C   UNL     1      14.771 -47.615 -26.840  1.00  0.00     0.047 A 
ATOM     15  C   UNL     1      14.043 -45.401 -26.229  1.00  0.00     0.093 A 
ATOM     16  C   UNL     1      14.166 -48.134 -25.696  1.00  0.00     0.013 A 
ATOM     17  C   UNL     1      13.433 -45.913 -25.075  1.00  0.00     0.127 A 
BRANCH  13  18
ATOM     18  O   UNL     1      15.349 -45.875 -28.266  1.00  0.00    -0.497 OA
ATOM     19  C   UNL     1      15.745 -46.910 -29.156  1.00  0.00     0.278 C 
ENDBRANCH  13  18
BRANCH  17  20
ATOM     20  O   UNL     1      12.731 -45.158 -24.169  1.00  0.00    -0.496 OA
ATOM     21  C   UNL     1      12.301 -43.865 -24.578  1.00  0.00     0.278 C 
ENDBRANCH  17  20
ENDBRANCH   8  12
BRANCH  10  22
ATOM     22  C   UNL     1      12.257 -51.567 -23.488  1.00  0.00     0.004 A 
ATOM     23  C   UNL     1      11.453 -52.194 -22.529  1.00  0.00     0.049 A 
ATOM     24  C   UNL     1      12.665 -52.279 -24.619  1.00  0.00     0.049 A 
ATOM     25  C   UNL     1      11.072 -53.521 -22.709  1.00  0.00     0.126 A 
ATOM     26  C   UNL     1      12.268 -53.606 -24.773  1.00  0.00     0.126 A 
ATOM     27  C   UNL     1      11.473 -54.237 -23.827  1.00  0.00     0.078 A 
ATOM     28  F   UNL     1      10.304 -54.116 -21.788  1.00  0.00    -0.207 F 
ATOM     29  F   UNL     1      12.663 -54.284 -25.858  1.00  0.00    -0.207 F 
ENDBRANCH  10  22
ENDBRANCH   1   7
BRANCH   4  30
ATOM     30  S   UNL     1      17.165 -45.435 -18.694  1.00  0.00     0.238 S 
ATOM     31  O   UNL     1      18.510 -45.961 -18.710  1.00  0.00    -0.207 OA
ATOM     32  O   UNL     1      16.887 -44.025 -18.830  1.00  0.00    -0.207 OA
BRANCH  30  33
ATOM     33  N   UNL     1      16.512 -45.895 -17.217  1.00  0.00    -0.225 NA
ATOM     34  H   UNL     1      16.647 -46.896 -17.077  1.00  0.00     0.137 HD
ATOM     35  H   UNL     1      15.540 -45.593 -17.158  1.00  0.00     0.137 HD
ENDBRANCH  30  33
ENDBRANCH   4  30
TORSDOF 7
ENDMDL
