MODEL 1
REMARK VINA RESULT:   -12.040      0.000      0.000
REMARK INTER + INTRA:         -16.112
REMARK INTER:                 -15.559
REMARK INTRA:                  -0.554
REMARK UNBOUND:                -0.554
REMARK SMILES O=c1cc2cc3o[nH]c(CC[C@H]4CC[N@@H+](Cc5ccccc5)CC4)c3cc2[nH]1
REMARK SMILES IDX 11 1 10 2 9 3 8 4 7 5 6 6 25 7 5 8 26 9 4 10 27 11 3 12
REMARK SMILES IDX 28 13 2 14 1 17 12 18 13 19 24 20 14 21 23 22 15 23 16 25
REMARK SMILES IDX 17 26 18 27 22 28 19 29 21 30 20 31
REMARK H PARENT 8 15 28 16 15 24
ROOT
ATOM      1  C   UNL     1      11.384 -56.583 -23.141  1.00  0.00     0.010 C 
ENDROOT
BRANCH   1   2
ATOM      2  C   UNL     1      10.733 -55.204 -23.349  1.00  0.00     0.058 C 
BRANCH   2   3
ATOM      3  C   UNL     1      11.582 -54.254 -24.128  1.00  0.00     0.060 A 
ATOM      4  N   UNL     1      12.139 -54.621 -25.356  1.00  0.00    -0.226 N 
ATOM      5  O   UNL     1      12.958 -53.570 -25.859  1.00  0.00    -0.382 OA
ATOM      6  C   UNL     1      12.803 -52.567 -24.921  1.00  0.00     0.164 A 
ATOM      7  C   UNL     1      11.946 -53.004 -23.824  1.00  0.00     0.044 A 
ATOM      8  C   UNL     1      13.351 -51.339 -24.945  1.00  0.00     0.061 A 
ATOM      9  C   UNL     1      11.645 -52.155 -22.685  1.00  0.00     0.040 A 
ATOM     10  C   UNL     1      13.039 -50.478 -23.816  1.00  0.00     0.007 A 
ATOM     11  C   UNL     1      12.192 -50.933 -22.718  1.00  0.00     0.049 A 
ATOM     12  C   UNL     1      13.439 -49.222 -23.582  1.00  0.00     0.082 A 
ATOM     13  N   UNL     1      12.110 -49.912 -21.837  1.00  0.00    -0.322 N 
ATOM     14  C   UNL     1      12.837 -48.828 -22.283  1.00  0.00     0.249 A 
ATOM     15  H   UNL     1      12.665 -55.493 -25.303  1.00  0.00     0.208 HD
ATOM     16  H   UNL     1      11.604 -49.902 -20.965  1.00  0.00     0.170 HD
ATOM     17  O   UNL     1      12.972 -47.750 -21.738  1.00  0.00    -0.270 OA
ENDBRANCH   2   3
ENDBRANCH   1   2
BRANCH   1  18
ATOM     18  C   UNL     1      10.632 -57.553 -22.199  1.00  0.00     0.000 C 
ATOM     19  C   UNL     1      11.559 -58.678 -21.709  1.00  0.00     0.065 C 
ATOM     20  C   UNL     1       9.369 -58.166 -22.821  1.00  0.00     0.065 C 
ATOM     21  C   UNL     1      11.857 -59.725 -22.774  1.00  0.00     0.262 C 
ATOM     22  C   UNL     1       9.674 -59.207 -23.890  1.00  0.00     0.262 C 
ATOM     23  N   UNL     1      10.562 -60.280 -23.315  1.00  0.00    -0.331 N 
ATOM     24  H   UNL     1      10.065 -60.701 -22.519  1.00  0.00     0.348 HD
BRANCH  23  25
ATOM     25  C   UNL     1      10.777 -61.407 -24.306  1.00  0.00     0.299 C 
BRANCH  25  26
ATOM     26  C   UNL     1       9.564 -62.279 -24.482  1.00  0.00     0.006 A 
ATOM     27  C   UNL     1       8.861 -62.284 -25.697  1.00  0.00     0.009 A 
ATOM     28  C   UNL     1       9.107 -63.086 -23.428  1.00  0.00     0.009 A 
ATOM     29  C   UNL     1       7.721 -63.074 -25.850  1.00  0.00     0.001 A 
ATOM     30  C   UNL     1       7.966 -63.874 -23.587  1.00  0.00     0.001 A 
ATOM     31  C   UNL     1       7.274 -63.865 -24.795  1.00  0.00     0.000 A 
ENDBRANCH  25  26
ENDBRANCH  23  25
ENDBRANCH   1  18
TORSDOF 5
ENDMDL
MODEL 2
REMARK VINA RESULT:   -11.945      1.785      2.635
REMARK INTER + INTRA:         -15.990
REMARK INTER:                 -15.401
REMARK INTRA:                  -0.589
REMARK UNBOUND:                -0.554
REMARK SMILES O=c1cc2cc3o[nH]c(CC[C@H]4CC[N@@H+](Cc5ccccc5)CC4)c3cc2[nH]1
REMARK SMILES IDX 11 1 10 2 9 3 8 4 7 5 6 6 25 7 5 8 26 9 4 10 27 11 3 12
REMARK SMILES IDX 28 13 2 14 1 17 12 18 13 19 24 20 14 21 23 22 15 23 16 25
REMARK SMILES IDX 17 26 18 27 22 28 19 29 21 30 20 31
REMARK H PARENT 8 15 28 16 15 24
ROOT
ATOM      1  C   UNL     1      11.380 -56.850 -22.777  1.00  0.00     0.010 C 
ENDROOT
BRANCH   1   2
ATOM      2  C   UNL     1      10.248 -55.851 -23.080  1.00  0.00     0.058 C 
BRANCH   2   3
ATOM      3  C   UNL     1      10.589 -54.439 -22.733  1.00  0.00     0.060 A 
ATOM      4  N   UNL     1      10.091 -53.838 -21.575  1.00  0.00    -0.226 N 
ATOM      5  O   UNL     1      10.503 -52.477 -21.511  1.00  0.00    -0.382 OA
ATOM      6  C   UNL     1      11.303 -52.331 -22.627  1.00  0.00     0.164 A 
ATOM      7  C   UNL     1      11.347 -53.566 -23.404  1.00  0.00     0.044 A 
ATOM      8  C   UNL     1      11.968 -51.228 -23.014  1.00  0.00     0.061 A 
ATOM      9  C   UNL     1      12.089 -53.678 -24.647  1.00  0.00     0.040 A 
ATOM     10  C   UNL     1      12.728 -51.340 -24.249  1.00  0.00     0.007 A 
ATOM     11  C   UNL     1      12.751 -52.576 -25.024  1.00  0.00     0.049 A 
ATOM     12  C   UNL     1      13.476 -50.413 -24.861  1.00  0.00     0.082 A 
ATOM     13  N   UNL     1      13.529 -52.347 -26.105  1.00  0.00    -0.322 N 
ATOM     14  C   UNL     1      14.015 -51.056 -26.087  1.00  0.00     0.249 A 
ATOM     15  H   UNL     1       9.077 -53.912 -21.500  1.00  0.00     0.208 HD
ATOM     16  H   UNL     1      13.746 -52.997 -26.845  1.00  0.00     0.170 HD
ATOM     17  O   UNL     1      14.745 -50.527 -26.901  1.00  0.00    -0.270 OA
ENDBRANCH   2   3
ENDBRANCH   1   2
BRANCH   1  18
ATOM     18  C   UNL     1      10.977 -58.107 -21.970  1.00  0.00     0.000 C 
ATOM     19  C   UNL     1      12.047 -59.206 -22.088  1.00  0.00     0.065 C 
ATOM     20  C   UNL     1       9.609 -58.682 -22.360  1.00  0.00     0.065 C 
ATOM     21  C   UNL     1      12.050 -59.907 -23.440  1.00  0.00     0.262 C 
ATOM     22  C   UNL     1       9.616 -59.375 -23.715  1.00  0.00     0.262 C 
ATOM     23  N   UNL     1      10.672 -60.450 -23.730  1.00  0.00    -0.331 N 
ATOM     24  H   UNL     1      10.450 -61.114 -22.977  1.00  0.00     0.348 HD
BRANCH  23  25
ATOM     25  C   UNL     1      10.619 -61.256 -25.014  1.00  0.00     0.299 C 
BRANCH  25  26
ATOM     26  C   UNL     1       9.424 -62.165 -25.093  1.00  0.00     0.006 A 
ATOM     27  C   UNL     1       8.962 -62.833 -23.948  1.00  0.00     0.009 A 
ATOM     28  C   UNL     1       8.765 -62.374 -26.314  1.00  0.00     0.009 A 
ATOM     29  C   UNL     1       7.869 -63.697 -24.028  1.00  0.00     0.001 A 
ATOM     30  C   UNL     1       7.672 -63.239 -26.388  1.00  0.00     0.001 A 
ATOM     31  C   UNL     1       7.227 -63.901 -25.246  1.00  0.00     0.000 A 
ENDBRANCH  25  26
ENDBRANCH  23  25
ENDBRANCH   1  18
TORSDOF 5
ENDMDL
MODEL 3
REMARK VINA RESULT:   -11.080      3.537      9.870
REMARK INTER + INTRA:         -14.872
REMARK INTER:                 -14.585
REMARK INTRA:                  -0.286
REMARK UNBOUND:                -0.554
REMARK SMILES O=c1cc2cc3o[nH]c(CC[C@H]4CC[N@@H+](Cc5ccccc5)CC4)c3cc2[nH]1
REMARK SMILES IDX 11 1 10 2 9 3 8 4 7 5 6 6 25 7 5 8 26 9 4 10 27 11 3 12
REMARK SMILES IDX 28 13 2 14 1 17 12 18 13 19 24 20 14 21 23 22 15 23 16 25
REMARK SMILES IDX 17 26 18 27 22 28 19 29 21 30 20 31
REMARK H PARENT 8 15 28 16 15 24
ROOT
ATOM      1  C   UNL     1      12.129 -58.424 -23.489  1.00  0.00     0.010 C 
ENDROOT
BRANCH   1   2
ATOM      2  C   UNL     1      12.465 -59.837 -23.999  1.00  0.00     0.058 C 
BRANCH   2   3
ATOM      3  C   UNL     1      11.846 -60.158 -25.320  1.00  0.00     0.060 A 
ATOM      4  N   UNL     1      12.341 -59.607 -26.504  1.00  0.00    -0.226 N 
ATOM      5  O   UNL     1      11.539 -60.011 -27.608  1.00  0.00    -0.382 OA
ATOM      6  C   UNL     1      10.612 -60.861 -27.037  1.00  0.00     0.164 A 
ATOM      7  C   UNL     1      10.799 -60.943 -25.592  1.00  0.00     0.044 A 
ATOM      8  C   UNL     1       9.635 -61.540 -27.664  1.00  0.00     0.061 A 
ATOM      9  C   UNL     1       9.937 -61.742 -24.739  1.00  0.00     0.040 A 
ATOM     10  C   UNL     1       8.780 -62.356 -26.817  1.00  0.00     0.007 A 
ATOM     11  C   UNL     1       8.968 -62.417 -25.372  1.00  0.00     0.049 A 
ATOM     12  C   UNL     1       7.743 -63.129 -27.167  1.00  0.00     0.082 A 
ATOM     13  N   UNL     1       8.015 -63.244 -24.886  1.00  0.00    -0.322 N 
ATOM     14  C   UNL     1       7.225 -63.725 -25.910  1.00  0.00     0.249 A 
ATOM     15  H   UNL     1      12.412 -58.590 -26.463  1.00  0.00     0.208 HD
ATOM     16  H   UNL     1       7.865 -63.496 -23.921  1.00  0.00     0.170 HD
ATOM     17  O   UNL     1       6.284 -64.490 -25.824  1.00  0.00    -0.270 OA
ENDBRANCH   2   3
ENDBRANCH   1   2
BRANCH   1  18
ATOM     18  C   UNL     1      10.993 -58.333 -22.443  1.00  0.00     0.000 C 
ATOM     19  C   UNL     1       9.679 -57.869 -23.093  1.00  0.00     0.065 C 
ATOM     20  C   UNL     1      11.321 -57.425 -21.250  1.00  0.00     0.065 C 
ATOM     21  C   UNL     1       9.664 -56.387 -23.441  1.00  0.00     0.262 C 
ATOM     22  C   UNL     1      11.312 -55.944 -21.604  1.00  0.00     0.262 C 
ATOM     23  N   UNL     1       9.981 -55.575 -22.208  1.00  0.00    -0.331 N 
ATOM     24  H   UNL     1       9.254 -55.794 -21.515  1.00  0.00     0.348 HD
BRANCH  23  25
ATOM     25  C   UNL     1       9.881 -54.081 -22.449  1.00  0.00     0.299 C 
BRANCH  25  26
ATOM     26  C   UNL     1      11.002 -53.543 -23.295  1.00  0.00     0.006 A 
ATOM     27  C   UNL     1      11.540 -52.272 -23.039  1.00  0.00     0.009 A 
ATOM     28  C   UNL     1      11.513 -54.295 -24.364  1.00  0.00     0.009 A 
ATOM     29  C   UNL     1      12.562 -51.763 -23.842  1.00  0.00     0.001 A 
ATOM     30  C   UNL     1      12.535 -53.781 -25.164  1.00  0.00     0.001 A 
ATOM     31  C   UNL     1      13.056 -52.516 -24.903  1.00  0.00     0.000 A 
ENDBRANCH  25  26
ENDBRANCH  23  25
ENDBRANCH   1  18
TORSDOF 5
ENDMDL
MODEL 4
REMARK VINA RESULT:   -10.955      1.484      2.285
REMARK INTER + INTRA:         -14.711
REMARK INTER:                 -14.339
REMARK INTRA:                  -0.372
REMARK UNBOUND:                -0.554
REMARK SMILES O=c1cc2cc3o[nH]c(CC[C@H]4CC[N@@H+](Cc5ccccc5)CC4)c3cc2[nH]1
REMARK SMILES IDX 11 1 10 2 9 3 8 4 7 5 6 6 25 7 5 8 26 9 4 10 27 11 3 12
REMARK SMILES IDX 28 13 2 14 1 17 12 18 13 19 24 20 14 21 23 22 15 23 16 25
REMARK SMILES IDX 17 26 18 27 22 28 19 29 21 30 20 31
REMARK H PARENT 8 15 28 16 15 24
ROOT
ATOM      1  C   UNL     1      11.245 -56.420 -23.090  1.00  0.00     0.010 C 
ENDROOT
BRANCH   1   2
ATOM      2  C   UNL     1      10.886 -54.938 -22.882  1.00  0.00     0.058 C 
BRANCH   2   3
ATOM      3  C   UNL     1      11.613 -54.012 -23.802  1.00  0.00     0.060 A 
ATOM      4  N   UNL     1      12.053 -54.438 -25.057  1.00  0.00    -0.226 N 
ATOM      5  O   UNL     1      12.774 -53.396 -25.705  1.00  0.00    -0.382 OA
ATOM      6  C   UNL     1      12.680 -52.341 -24.818  1.00  0.00     0.164 A 
ATOM      7  C   UNL     1      11.959 -52.735 -23.612  1.00  0.00     0.044 A 
ATOM      8  C   UNL     1      13.175 -51.100 -24.972  1.00  0.00     0.061 A 
ATOM      9  C   UNL     1      11.746 -51.826 -22.500  1.00  0.00     0.040 A 
ATOM     10  C   UNL     1      12.950 -50.180 -23.869  1.00  0.00     0.007 A 
ATOM     11  C   UNL     1      12.240 -50.592 -22.663  1.00  0.00     0.049 A 
ATOM     12  C   UNL     1      13.325 -48.900 -23.754  1.00  0.00     0.082 A 
ATOM     13  N   UNL     1      12.211 -49.520 -21.840  1.00  0.00    -0.322 N 
ATOM     14  C   UNL     1      12.847 -48.444 -22.424  1.00  0.00     0.249 A 
ATOM     15  H   UNL     1      12.613 -55.288 -25.009  1.00  0.00     0.208 HD
ATOM     16  H   UNL     1      11.798 -49.472 -20.921  1.00  0.00     0.170 HD
ATOM     17  O   UNL     1      12.997 -47.330 -21.961  1.00  0.00    -0.270 OA
ENDBRANCH   2   3
ENDBRANCH   1   2
BRANCH   1  18
ATOM     18  C   UNL     1      10.497 -57.432 -22.190  1.00  0.00     0.000 C 
ATOM     19  C   UNL     1      11.465 -58.474 -21.607  1.00  0.00     0.065 C 
ATOM     20  C   UNL     1       9.337 -58.149 -22.894  1.00  0.00     0.065 C 
ATOM     21  C   UNL     1      11.925 -59.511 -22.623  1.00  0.00     0.262 C 
ATOM     22  C   UNL     1       9.802 -59.179 -23.914  1.00  0.00     0.262 C 
ATOM     23  N   UNL     1      10.721 -60.172 -23.251  1.00  0.00    -0.331 N 
ATOM     24  H   UNL     1      10.197 -60.618 -22.487  1.00  0.00     0.348 HD
BRANCH  23  25
ATOM     25  C   UNL     1      11.098 -61.293 -24.200  1.00  0.00     0.299 C 
BRANCH  25  26
ATOM     26  C   UNL     1      11.146 -60.858 -25.639  1.00  0.00     0.006 A 
ATOM     27  C   UNL     1      10.118 -61.215 -26.525  1.00  0.00     0.009 A 
ATOM     28  C   UNL     1      12.228 -60.105 -26.120  1.00  0.00     0.009 A 
ATOM     29  C   UNL     1      10.177 -60.833 -27.866  1.00  0.00     0.001 A 
ATOM     30  C   UNL     1      12.282 -59.726 -27.463  1.00  0.00     0.001 A 
ATOM     31  C   UNL     1      11.259 -60.092 -28.333  1.00  0.00     0.000 A 
ENDBRANCH  25  26
ENDBRANCH  23  25
ENDBRANCH   1  18
TORSDOF 5
ENDMDL
MODEL 5
REMARK VINA RESULT:   -10.781      3.617      6.789
REMARK INTER + INTRA:         -14.485
REMARK INTER:                 -13.941
REMARK INTRA:                  -0.544
REMARK UNBOUND:                -0.554
REMARK SMILES O=c1cc2cc3o[nH]c(CC[C@H]4CC[N@@H+](Cc5ccccc5)CC4)c3cc2[nH]1
REMARK SMILES IDX 11 1 10 2 9 3 8 4 7 5 6 6 25 7 5 8 26 9 4 10 27 11 3 12
REMARK SMILES IDX 28 13 2 14 1 17 12 18 13 19 24 20 14 21 23 22 15 23 16 25
REMARK SMILES IDX 17 26 18 27 22 28 19 29 21 30 20 31
REMARK H PARENT 8 15 28 16 15 24
ROOT
ATOM      1  C   UNL     1      11.186 -50.342 -22.905  1.00  0.00     0.010 C 
ENDROOT
BRANCH   1   2
ATOM      2  C   UNL     1      11.930 -49.109 -23.449  1.00  0.00     0.058 C 
BRANCH   2   3
ATOM      3  C   UNL     1      11.309 -47.811 -23.048  1.00  0.00     0.060 A 
ATOM      4  N   UNL     1      10.419 -47.736 -21.973  1.00  0.00    -0.226 N 
ATOM      5  O   UNL     1       9.917 -46.411 -21.841  1.00  0.00    -0.382 OA
ATOM      6  C   UNL     1      10.591 -45.714 -22.825  1.00  0.00     0.164 A 
ATOM      7  C   UNL     1      11.458 -46.600 -23.594  1.00  0.00     0.044 A 
ATOM      8  C   UNL     1      10.496 -44.401 -23.103  1.00  0.00     0.061 A 
ATOM      9  C   UNL     1      12.256 -46.132 -24.713  1.00  0.00     0.040 A 
ATOM     10  C   UNL     1      11.307 -43.923 -24.212  1.00  0.00     0.007 A 
ATOM     11  C   UNL     1      12.158 -44.823 -24.981  1.00  0.00     0.049 A 
ATOM     12  C   UNL     1      11.410 -42.680 -24.701  1.00  0.00     0.082 A 
ATOM     13  N   UNL     1      12.760 -44.076 -25.933  1.00  0.00    -0.322 N 
ATOM     14  C   UNL     1      12.364 -42.758 -25.836  1.00  0.00     0.249 A 
ATOM     15  H   UNL     1       9.654 -48.406 -22.050  1.00  0.00     0.208 HD
ATOM     16  H   UNL     1      13.409 -44.396 -26.636  1.00  0.00     0.170 HD
ATOM     17  O   UNL     1      12.716 -41.824 -26.531  1.00  0.00    -0.270 OA
ENDBRANCH   2   3
ENDBRANCH   1   2
BRANCH   1  18
ATOM     18  C   UNL     1      12.073 -51.455 -22.298  1.00  0.00     0.000 C 
ATOM     19  C   UNL     1      12.596 -52.403 -23.390  1.00  0.00     0.065 C 
ATOM     20  C   UNL     1      11.376 -52.273 -21.202  1.00  0.00     0.065 C 
ATOM     21  C   UNL     1      11.535 -53.352 -23.929  1.00  0.00     0.262 C 
ATOM     22  C   UNL     1      10.311 -53.216 -21.745  1.00  0.00     0.262 C 
ATOM     23  N   UNL     1      10.918 -54.122 -22.786  1.00  0.00    -0.331 N 
ATOM     24  H   UNL     1      11.680 -54.645 -22.336  1.00  0.00     0.348 HD
BRANCH  23  25
ATOM     25  C   UNL     1       9.923 -55.167 -23.254  1.00  0.00     0.299 C 
BRANCH  25  26
ATOM     26  C   UNL     1      10.212 -56.540 -22.715  1.00  0.00     0.006 A 
ATOM     27  C   UNL     1      11.219 -56.731 -21.755  1.00  0.00     0.009 A 
ATOM     28  C   UNL     1       9.494 -57.654 -23.177  1.00  0.00     0.009 A 
ATOM     29  C   UNL     1      11.504 -58.010 -21.275  1.00  0.00     0.001 A 
ATOM     30  C   UNL     1       9.784 -58.931 -22.693  1.00  0.00     0.001 A 
ATOM     31  C   UNL     1      10.789 -59.107 -21.746  1.00  0.00     0.000 A 
ENDBRANCH  25  26
ENDBRANCH  23  25
ENDBRANCH   1  18
TORSDOF 5
ENDMDL
MODEL 6
REMARK VINA RESULT:   -10.776      1.853      2.415
REMARK INTER + INTRA:         -14.480
REMARK INTER:                 -13.998
REMARK INTRA:                  -0.483
REMARK UNBOUND:                -0.554
REMARK SMILES O=c1cc2cc3o[nH]c(CC[C@H]4CC[N@@H+](Cc5ccccc5)CC4)c3cc2[nH]1
REMARK SMILES IDX 11 1 10 2 9 3 8 4 7 5 6 6 25 7 5 8 26 9 4 10 27 11 3 12
REMARK SMILES IDX 28 13 2 14 1 17 12 18 13 19 24 20 14 21 23 22 15 23 16 25
REMARK SMILES IDX 17 26 18 27 22 28 19 29 21 30 20 31
REMARK H PARENT 8 15 28 16 15 24
ROOT
ATOM      1  C   UNL     1      10.448 -55.635 -23.645  1.00  0.00     0.010 C 
ENDROOT
BRANCH   1   2
ATOM      2  C   UNL     1      11.398 -54.473 -23.306  1.00  0.00     0.058 C 
BRANCH   2   3
ATOM      3  C   UNL     1      10.696 -53.254 -22.803  1.00  0.00     0.060 A 
ATOM      4  N   UNL     1       9.458 -53.344 -22.164  1.00  0.00    -0.226 N 
ATOM      5  O   UNL     1       8.972 -52.044 -21.846  1.00  0.00    -0.382 OA
ATOM      6  C   UNL     1       9.993 -51.211 -22.259  1.00  0.00     0.164 A 
ATOM      7  C   UNL     1      11.074 -51.973 -22.874  1.00  0.00     0.044 A 
ATOM      8  C   UNL     1      10.043 -49.871 -22.155  1.00  0.00     0.061 A 
ATOM      9  C   UNL     1      12.258 -51.340 -23.427  1.00  0.00     0.040 A 
ATOM     10  C   UNL     1      11.234 -49.232 -22.691  1.00  0.00     0.007 A 
ATOM     11  C   UNL     1      12.301 -50.005 -23.317  1.00  0.00     0.049 A 
ATOM     12  C   UNL     1      11.548 -47.930 -22.720  1.00  0.00     0.082 A 
ATOM     13  N   UNL     1      13.245 -49.123 -23.713  1.00  0.00    -0.322 N 
ATOM     14  C   UNL     1      12.870 -47.836 -23.389  1.00  0.00     0.249 A 
ATOM     15  H   UNL     1       8.770 -53.862 -22.712  1.00  0.00     0.208 HD
ATOM     16  H   UNL     1      14.111 -49.333 -24.186  1.00  0.00     0.170 HD
ATOM     17  O   UNL     1      13.486 -46.809 -23.597  1.00  0.00    -0.270 OA
ENDBRANCH   2   3
ENDBRANCH   1   2
BRANCH   1  18
ATOM     18  C   UNL     1      10.140 -56.618 -22.490  1.00  0.00     0.000 C 
ATOM     19  C   UNL     1      11.380 -57.454 -22.132  1.00  0.00     0.065 C 
ATOM     20  C   UNL     1       8.956 -57.553 -22.771  1.00  0.00     0.065 C 
ATOM     21  C   UNL     1      11.697 -58.538 -23.153  1.00  0.00     0.262 C 
ATOM     22  C   UNL     1       9.276 -58.631 -23.798  1.00  0.00     0.262 C 
ATOM     23  N   UNL     1      10.484 -59.415 -23.353  1.00  0.00    -0.331 N 
ATOM     24  H   UNL     1      10.265 -59.829 -22.438  1.00  0.00     0.348 HD
BRANCH  23  25
ATOM     25  C   UNL     1      10.754 -60.584 -24.279  1.00  0.00     0.299 C 
BRANCH  25  26
ATOM     26  C   UNL     1       9.807 -61.734 -24.070  1.00  0.00     0.006 A 
ATOM     27  C   UNL     1       9.877 -62.511 -22.903  1.00  0.00     0.009 A 
ATOM     28  C   UNL     1       8.853 -62.059 -25.047  1.00  0.00     0.009 A 
ATOM     29  C   UNL     1       9.015 -63.593 -22.722  1.00  0.00     0.001 A 
ATOM     30  C   UNL     1       7.994 -63.143 -24.861  1.00  0.00     0.001 A 
ATOM     31  C   UNL     1       8.077 -63.909 -23.701  1.00  0.00     0.000 A 
ENDBRANCH  25  26
ENDBRANCH  23  25
ENDBRANCH   1  18
TORSDOF 5
ENDMDL
MODEL 7
REMARK VINA RESULT:   -10.624      2.458      3.995
REMARK INTER + INTRA:         -14.283
REMARK INTER:                 -14.232
REMARK INTRA:                  -0.050
REMARK UNBOUND:                -0.554
REMARK SMILES O=c1cc2cc3o[nH]c(CC[C@H]4CC[N@@H+](Cc5ccccc5)CC4)c3cc2[nH]1
REMARK SMILES IDX 11 1 10 2 9 3 8 4 7 5 6 6 25 7 5 8 26 9 4 10 27 11 3 12
REMARK SMILES IDX 28 13 2 14 1 17 12 18 13 19 24 20 14 21 23 22 15 23 16 25
REMARK SMILES IDX 17 26 18 27 22 28 19 29 21 30 20 31
REMARK H PARENT 8 15 28 16 15 24
ROOT
ATOM      1  C   UNL     1      11.950 -52.547 -22.949  1.00  0.00     0.010 C 
ENDROOT
BRANCH   1   2
ATOM      2  C   UNL     1      12.840 -52.492 -24.204  1.00  0.00     0.058 C 
BRANCH   2   3
ATOM      3  C   UNL     1      13.086 -51.105 -24.701  1.00  0.00     0.060 A 
ATOM      4  N   UNL     1      13.962 -50.861 -25.761  1.00  0.00    -0.226 N 
ATOM      5  O   UNL     1      14.075 -49.461 -25.994  1.00  0.00    -0.382 OA
ATOM      6  C   UNL     1      13.191 -48.913 -25.086  1.00  0.00     0.164 A 
ATOM      7  C   UNL     1      12.577 -49.949 -24.262  1.00  0.00     0.044 A 
ATOM      8  C   UNL     1      12.899 -47.611 -24.917  1.00  0.00     0.061 A 
ATOM      9  C   UNL     1      11.633 -49.645 -23.202  1.00  0.00     0.040 A 
ATOM     10  C   UNL     1      11.940 -47.301 -23.869  1.00  0.00     0.007 A 
ATOM     11  C   UNL     1      11.345 -48.346 -23.043  1.00  0.00     0.049 A 
ATOM     12  C   UNL     1      11.469 -46.106 -23.488  1.00  0.00     0.082 A 
ATOM     13  N   UNL     1      10.517 -47.732 -22.169  1.00  0.00    -0.322 N 
ATOM     14  C   UNL     1      10.528 -46.368 -22.369  1.00  0.00     0.249 A 
ATOM     15  H   UNL     1      14.882 -51.277 -25.614  1.00  0.00     0.208 HD
ATOM     16  H   UNL     1       9.956 -48.170 -21.454  1.00  0.00     0.170 HD
ATOM     17  O   UNL     1       9.898 -45.523 -21.762  1.00  0.00    -0.270 OA
ENDBRANCH   2   3
ENDBRANCH   1   2
BRANCH   1  18
ATOM     18  C   UNL     1      10.591 -53.269 -23.112  1.00  0.00     0.000 C 
ATOM     19  C   UNL     1      10.064 -53.767 -21.756  1.00  0.00     0.065 C 
ATOM     20  C   UNL     1      10.625 -54.436 -24.108  1.00  0.00     0.065 C 
ATOM     21  C   UNL     1      10.805 -54.989 -21.229  1.00  0.00     0.262 C 
ATOM     22  C   UNL     1      11.373 -55.652 -23.578  1.00  0.00     0.262 C 
ATOM     23  N   UNL     1      10.773 -56.086 -22.265  1.00  0.00    -0.331 N 
ATOM     24  H   UNL     1       9.783 -56.305 -22.434  1.00  0.00     0.348 HD
BRANCH  23  25
ATOM     25  C   UNL     1      11.401 -57.375 -21.772  1.00  0.00     0.299 C 
BRANCH  25  26
ATOM     26  C   UNL     1      10.551 -58.586 -22.041  1.00  0.00     0.006 A 
ATOM     27  C   UNL     1       9.612 -58.579 -23.084  1.00  0.00     0.009 A 
ATOM     28  C   UNL     1      10.671 -59.733 -21.242  1.00  0.00     0.009 A 
ATOM     29  C   UNL     1       8.806 -59.695 -23.316  1.00  0.00     0.001 A 
ATOM     30  C   UNL     1       9.862 -60.846 -21.478  1.00  0.00     0.001 A 
ATOM     31  C   UNL     1       8.930 -60.824 -22.512  1.00  0.00     0.000 A 
ENDBRANCH  25  26
ENDBRANCH  23  25
ENDBRANCH   1  18
TORSDOF 5
ENDMDL
MODEL 8
REMARK VINA RESULT:   -10.417      2.678      4.605
REMARK INTER + INTRA:         -14.015
REMARK INTER:                 -13.320
REMARK INTRA:                  -0.695
REMARK UNBOUND:                -0.554
REMARK SMILES O=c1cc2cc3o[nH]c(CC[C@H]4CC[N@@H+](Cc5ccccc5)CC4)c3cc2[nH]1
REMARK SMILES IDX 11 1 10 2 9 3 8 4 7 5 6 6 25 7 5 8 26 9 4 10 27 11 3 12
REMARK SMILES IDX 28 13 2 14 1 17 12 18 13 19 24 20 14 21 23 22 15 23 16 25
REMARK SMILES IDX 17 26 18 27 22 28 19 29 21 30 20 31
REMARK H PARENT 8 15 28 16 15 24
ROOT
ATOM      1  C   UNL     1      11.859 -52.524 -23.036  1.00  0.00     0.010 C 
ENDROOT
BRANCH   1   2
ATOM      2  C   UNL     1      11.879 -51.489 -21.897  1.00  0.00     0.058 C 
BRANCH   2   3
ATOM      3  C   UNL     1      11.302 -50.166 -22.281  1.00  0.00     0.060 A 
ATOM      4  N   UNL     1      10.031 -49.779 -21.853  1.00  0.00    -0.226 N 
ATOM      5  O   UNL     1       9.687 -48.515 -22.410  1.00  0.00    -0.382 OA
ATOM      6  C   UNL     1      10.820 -48.156 -23.114  1.00  0.00     0.164 A 
ATOM      7  C   UNL     1      11.834 -49.204 -23.043  1.00  0.00     0.044 A 
ATOM      8  C   UNL     1      11.025 -47.021 -23.806  1.00  0.00     0.061 A 
ATOM      9  C   UNL     1      13.112 -49.100 -23.725  1.00  0.00     0.040 A 
ATOM     10  C   UNL     1      12.310 -46.904 -24.476  1.00  0.00     0.007 A 
ATOM     11  C   UNL     1      13.308 -47.965 -24.409  1.00  0.00     0.049 A 
ATOM     12  C   UNL     1      12.777 -45.895 -25.224  1.00  0.00     0.082 A 
ATOM     13  N   UNL     1      14.369 -47.553 -25.137  1.00  0.00    -0.322 N 
ATOM     14  C   UNL     1      14.135 -46.302 -25.669  1.00  0.00     0.249 A 
ATOM     15  H   UNL     1       9.316 -50.474 -22.069  1.00  0.00     0.208 HD
ATOM     16  H   UNL     1      15.227 -48.058 -25.298  1.00  0.00     0.170 HD
ATOM     17  O   UNL     1      14.879 -45.641 -26.366  1.00  0.00    -0.270 OA
ENDBRANCH   2   3
ENDBRANCH   1   2
BRANCH   1  18
ATOM     18  C   UNL     1      10.525 -53.281 -23.241  1.00  0.00     0.000 C 
ATOM     19  C   UNL     1       9.958 -53.774 -21.900  1.00  0.00     0.065 C 
ATOM     20  C   UNL     1      10.625 -54.459 -24.219  1.00  0.00     0.065 C 
ATOM     21  C   UNL     1      10.706 -54.971 -21.328  1.00  0.00     0.262 C 
ATOM     22  C   UNL     1      11.380 -55.650 -23.645  1.00  0.00     0.262 C 
ATOM     23  N   UNL     1      10.740 -56.081 -22.350  1.00  0.00    -0.331 N 
ATOM     24  H   UNL     1       9.763 -56.326 -22.553  1.00  0.00     0.348 HD
BRANCH  23  25
ATOM     25  C   UNL     1      11.379 -57.349 -21.815  1.00  0.00     0.299 C 
BRANCH  25  26
ATOM     26  C   UNL     1      10.545 -58.577 -22.055  1.00  0.00     0.006 A 
ATOM     27  C   UNL     1       9.608 -58.607 -23.100  1.00  0.00     0.009 A 
ATOM     28  C   UNL     1      10.677 -59.702 -21.227  1.00  0.00     0.009 A 
ATOM     29  C   UNL     1       8.816 -59.738 -23.305  1.00  0.00     0.001 A 
ATOM     30  C   UNL     1       9.882 -60.830 -21.437  1.00  0.00     0.001 A 
ATOM     31  C   UNL     1       8.952 -60.846 -22.473  1.00  0.00     0.000 A 
ENDBRANCH  25  26
ENDBRANCH  23  25
ENDBRANCH   1  18
TORSDOF 5
ENDMDL
MODEL 9
REMARK VINA RESULT:   -10.255      2.941      5.055
REMARK INTER + INTRA:         -13.806
REMARK INTER:                 -13.248
REMARK INTRA:                  -0.558
REMARK UNBOUND:                -0.554
REMARK SMILES O=c1cc2cc3o[nH]c(CC[C@H]4CC[N@@H+](Cc5ccccc5)CC4)c3cc2[nH]1
REMARK SMILES IDX 11 1 10 2 9 3 8 4 7 5 6 6 25 7 5 8 26 9 4 10 27 11 3 12
REMARK SMILES IDX 28 13 2 14 1 17 12 18 13 19 24 20 14 21 23 22 15 23 16 25
REMARK SMILES IDX 17 26 18 27 22 28 19 29 21 30 20 31
REMARK H PARENT 8 15 28 16 15 24
ROOT
ATOM      1  C   UNL     1      11.789 -52.352 -22.662  1.00  0.00     0.010 C 
ENDROOT
BRANCH   1   2
ATOM      2  C   UNL     1      12.592 -52.025 -23.933  1.00  0.00     0.058 C 
BRANCH   2   3
ATOM      3  C   UNL     1      12.836 -50.564 -24.126  1.00  0.00     0.060 A 
ATOM      4  N   UNL     1      12.396 -49.627 -23.188  1.00  0.00    -0.226 N 
ATOM      5  O   UNL     1      12.688 -48.307 -23.636  1.00  0.00    -0.382 OA
ATOM      6  C   UNL     1      13.364 -48.514 -24.822  1.00  0.00     0.164 A 
ATOM      7  C   UNL     1      13.446 -49.937 -25.137  1.00  0.00     0.044 A 
ATOM      8  C   UNL     1      13.888 -47.579 -25.635  1.00  0.00     0.061 A 
ATOM      9  C   UNL     1      14.076 -50.432 -26.348  1.00  0.00     0.040 A 
ATOM     10  C   UNL     1      14.537 -48.070 -26.840  1.00  0.00     0.007 A 
ATOM     11  C   UNL     1      14.598 -49.494 -27.149  1.00  0.00     0.049 A 
ATOM     12  C   UNL     1      15.138 -47.373 -27.813  1.00  0.00     0.082 A 
ATOM     13  N   UNL     1      15.249 -49.612 -28.328  1.00  0.00    -0.322 N 
ATOM     14  C   UNL     1      15.616 -48.371 -28.804  1.00  0.00     0.249 A 
ATOM     15  H   UNL     1      11.404 -49.723 -22.973  1.00  0.00     0.208 HD
ATOM     16  H   UNL     1      15.453 -50.465 -28.826  1.00  0.00     0.170 HD
ATOM     17  O   UNL     1      16.216 -48.117 -29.830  1.00  0.00    -0.270 OA
ENDBRANCH   2   3
ENDBRANCH   1   2
BRANCH   1  18
ATOM     18  C   UNL     1      10.455 -53.107 -22.878  1.00  0.00     0.000 C 
ATOM     19  C   UNL     1       9.962 -53.744 -21.568  1.00  0.00     0.065 C 
ATOM     20  C   UNL     1      10.521 -54.179 -23.975  1.00  0.00     0.065 C 
ATOM     21  C   UNL     1      10.753 -54.979 -21.159  1.00  0.00     0.262 C 
ATOM     22  C   UNL     1      11.319 -55.408 -23.563  1.00  0.00     0.262 C 
ATOM     23  N   UNL     1      10.750 -55.980 -22.289  1.00  0.00    -0.331 N 
ATOM     24  H   UNL     1       9.766 -56.220 -22.469  1.00  0.00     0.348 HD
BRANCH  23  25
ATOM     25  C   UNL     1      11.429 -57.283 -21.918  1.00  0.00     0.299 C 
BRANCH  25  26
ATOM     26  C   UNL     1      10.536 -58.482 -22.082  1.00  0.00     0.006 A 
ATOM     27  C   UNL     1      10.757 -59.643 -21.323  1.00  0.00     0.009 A 
ATOM     28  C   UNL     1       9.482 -58.466 -23.008  1.00  0.00     0.009 A 
ATOM     29  C   UNL     1       9.944 -60.764 -21.494  1.00  0.00     0.001 A 
ATOM     30  C   UNL     1       8.672 -59.591 -23.175  1.00  0.00     0.001 A 
ATOM     31  C   UNL     1       8.906 -60.738 -22.421  1.00  0.00     0.000 A 
ENDBRANCH  25  26
ENDBRANCH  23  25
ENDBRANCH   1  18
TORSDOF 5
ENDMDL
