MODEL 1
REMARK VINA RESULT:   -12.034      0.000      0.000
REMARK INTER + INTRA:         -16.838
REMARK INTER:                 -16.255
REMARK INTRA:                  -0.583
REMARK UNBOUND:                -0.583
REMARK SMILES COc1cc2c(cc1OC)C(=O)/C(=C/c1cc[n+](Cc3ccccc3Br)cc1)C2
REMARK SMILES IDX 15 1 16 2 17 3 18 4 27 5 28 6 14 7 13 8 3 9 4 10 8 11 5 12
REMARK SMILES IDX 7 13 6 14 29 15 11 16 12 17 2 18 1 19 9 20 10 21 19 22 20 23
REMARK SMILES IDX 21 24 25 25 22 26 24 27 23 28 26 29
REMARK H PARENT
ROOT
ATOM      1  C   UNL     1      10.330 -57.282 -22.781  1.00  0.00    -0.013 A 
ATOM      2  C   UNL     1      11.612 -57.800 -22.629  1.00  0.00     0.079 A 
ATOM      3  C   UNL     1      11.873 -59.111 -23.013  1.00  0.00     0.309 A 
ATOM      4  N   UNL     1      10.891 -59.896 -23.518  1.00  0.00    -0.201 N 
ATOM      5  C   UNL     1       9.639 -59.404 -23.679  1.00  0.00     0.309 A 
ATOM      6  C   UNL     1       9.334 -58.099 -23.308  1.00  0.00     0.079 A 
ENDROOT
BRANCH   1   7
ATOM      7  C   UNL     1       9.991 -55.925 -22.354  1.00  0.00     0.016 C 
BRANCH   7   8
ATOM      8  C   UNL     1      10.651 -54.816 -22.718  1.00  0.00     0.005 C 
ATOM      9  C   UNL     1      12.863 -50.919 -24.179  1.00  0.00     0.161 A 
ATOM     10  C   UNL     1      12.532 -52.219 -24.606  1.00  0.00     0.055 A 
ATOM     11  C   UNL     1      12.448 -50.448 -22.905  1.00  0.00     0.161 A 
ATOM     12  C   UNL     1      11.824 -53.049 -23.756  1.00  0.00    -0.028 A 
ATOM     13  C   UNL     1      11.737 -51.305 -22.054  1.00  0.00     0.063 A 
ATOM     14  C   UNL     1      11.447 -52.583 -22.503  1.00  0.00     0.030 A 
ATOM     15  C   UNL     1      11.376 -54.458 -23.992  1.00  0.00     0.076 C 
ATOM     16  C   UNL     1      10.712 -53.637 -21.799  1.00  0.00     0.189 C 
ATOM     17  O   UNL     1      10.239 -53.562 -20.684  1.00  0.00    -0.289 OA
BRANCH   9  18
ATOM     18  O   UNL     1      13.558 -50.224 -25.139  1.00  0.00    -0.493 OA
ATOM     19  C   UNL     1      13.990 -50.942 -26.287  1.00  0.00     0.278 C 
ENDBRANCH   9  18
BRANCH  11  20
ATOM     20  O   UNL     1      12.747 -49.153 -22.577  1.00  0.00    -0.493 OA
ATOM     21  C   UNL     1      11.721 -48.173 -22.691  1.00  0.00     0.278 C 
ENDBRANCH  11  20
ENDBRANCH   7   8
ENDBRANCH   1   7
BRANCH   4  22
ATOM     22  C   UNL     1      11.188 -61.294 -23.936  1.00  0.00     0.394 C 
BRANCH  22  23
ATOM     23  C   UNL     1       9.963 -62.173 -23.954  1.00  0.00     0.031 A 
ATOM     24  C   UNL     1       9.637 -62.904 -22.793  1.00  0.00     0.011 A 
ATOM     25  C   UNL     1       9.128 -62.304 -25.077  1.00  0.00     0.027 A 
ATOM     26  C   UNL     1       8.505 -63.720 -22.753  1.00  0.00     0.001 A 
ATOM     27  C   UNL     1       7.995 -63.123 -25.032  1.00  0.00     0.016 A 
ATOM     28  C   UNL     1       7.683 -63.825 -23.870  1.00  0.00     0.001 A 
ATOM     29  Br  UNL     1       9.478 -61.411 -26.714  1.00  0.00    -0.050 Br
ENDBRANCH  22  23
ENDBRANCH   4  22
TORSDOF 6
ENDMDL
MODEL 2
REMARK VINA RESULT:   -11.386      1.020      1.578
REMARK INTER + INTRA:         -15.963
REMARK INTER:                 -15.328
REMARK INTRA:                  -0.635
REMARK UNBOUND:                -0.583
REMARK SMILES COc1cc2c(cc1OC)C(=O)/C(=C/c1cc[n+](Cc3ccccc3Br)cc1)C2
REMARK SMILES IDX 15 1 16 2 17 3 18 4 27 5 28 6 14 7 13 8 3 9 4 10 8 11 5 12
REMARK SMILES IDX 7 13 6 14 29 15 11 16 12 17 2 18 1 19 9 20 10 21 19 22 20 23
REMARK SMILES IDX 21 24 25 25 22 26 24 27 23 28 26 29
REMARK H PARENT
ROOT
ATOM      1  C   UNL     1      10.114 -56.898 -22.756  1.00  0.00    -0.013 A 
ATOM      2  C   UNL     1       9.077 -57.728 -23.172  1.00  0.00     0.079 A 
ATOM      3  C   UNL     1       9.333 -59.071 -23.424  1.00  0.00     0.309 A 
ATOM      4  N   UNL     1      10.580 -59.580 -23.286  1.00  0.00    -0.201 N 
ATOM      5  C   UNL     1      11.599 -58.787 -22.874  1.00  0.00     0.309 A 
ATOM      6  C   UNL     1      11.389 -57.438 -22.612  1.00  0.00     0.079 A 
ENDROOT
BRANCH   1   7
ATOM      7  C   UNL     1       9.911 -55.470 -22.519  1.00  0.00     0.016 C 
BRANCH   7   8
ATOM      8  C   UNL     1      10.711 -54.493 -22.972  1.00  0.00     0.005 C 
ATOM      9  C   UNL     1      13.422 -51.071 -24.747  1.00  0.00     0.161 A 
ATOM     10  C   UNL     1      12.962 -52.369 -25.037  1.00  0.00     0.055 A 
ATOM     11  C   UNL     1      13.009 -50.405 -23.563  1.00  0.00     0.161 A 
ATOM     12  C   UNL     1      12.126 -53.006 -24.140  1.00  0.00    -0.028 A 
ATOM     13  C   UNL     1      12.167 -51.068 -22.660  1.00  0.00     0.063 A 
ATOM     14  C   UNL     1      11.750 -52.352 -22.973  1.00  0.00     0.030 A 
ATOM     15  C   UNL     1      11.529 -54.376 -24.234  1.00  0.00     0.076 C 
ATOM     16  C   UNL     1      10.868 -53.224 -22.195  1.00  0.00     0.189 C 
ATOM     17  O   UNL     1      10.358 -52.961 -21.125  1.00  0.00    -0.289 OA
BRANCH   9  18
ATOM     18  O   UNL     1      14.235 -50.580 -25.740  1.00  0.00    -0.493 OA
ATOM     19  C   UNL     1      15.640 -50.660 -25.540  1.00  0.00     0.278 C 
ENDBRANCH   9  18
BRANCH  11  20
ATOM     20  O   UNL     1      13.442 -49.120 -23.372  1.00  0.00    -0.493 OA
ATOM     21  C   UNL     1      12.812 -48.338 -22.365  1.00  0.00     0.278 C 
ENDBRANCH  11  20
ENDBRANCH   7   8
ENDBRANCH   1   7
BRANCH   4  22
ATOM     22  C   UNL     1      10.835 -61.024 -23.547  1.00  0.00     0.394 C 
BRANCH  22  23
ATOM     23  C   UNL     1       9.975 -61.579 -24.655  1.00  0.00     0.031 A 
ATOM     24  C   UNL     1       8.968 -62.509 -24.329  1.00  0.00     0.011 A 
ATOM     25  C   UNL     1      10.133 -61.216 -26.005  1.00  0.00     0.027 A 
ATOM     26  C   UNL     1       8.135 -63.040 -25.316  1.00  0.00     0.001 A 
ATOM     27  C   UNL     1       9.296 -61.751 -26.989  1.00  0.00     0.016 A 
ATOM     28  C   UNL     1       8.297 -62.658 -26.643  1.00  0.00     0.001 A 
ATOM     29  Br  UNL     1      11.479 -60.009 -26.582  1.00  0.00    -0.050 Br
ENDBRANCH  22  23
ENDBRANCH   4  22
TORSDOF 6
ENDMDL
MODEL 3
REMARK VINA RESULT:   -10.949      1.263      1.587
REMARK INTER + INTRA:         -15.372
REMARK INTER:                 -15.100
REMARK INTRA:                  -0.272
REMARK UNBOUND:                -0.583
REMARK SMILES COc1cc2c(cc1OC)C(=O)/C(=C/c1cc[n+](Cc3ccccc3Br)cc1)C2
REMARK SMILES IDX 15 1 16 2 17 3 18 4 27 5 28 6 14 7 13 8 3 9 4 10 8 11 5 12
REMARK SMILES IDX 7 13 6 14 29 15 11 16 12 17 2 18 1 19 9 20 10 21 19 22 20 23
REMARK SMILES IDX 21 24 25 25 22 26 24 27 23 28 26 29
REMARK H PARENT
ROOT
ATOM      1  C   UNL     1      11.187 -56.318 -22.831  1.00  0.00    -0.013 A 
ATOM      2  C   UNL     1      11.688 -56.573 -24.105  1.00  0.00     0.079 A 
ATOM      3  C   UNL     1      12.052 -57.869 -24.452  1.00  0.00     0.309 A 
ATOM      4  N   UNL     1      11.941 -58.885 -23.562  1.00  0.00    -0.201 N 
ATOM      5  C   UNL     1      11.449 -58.654 -22.322  1.00  0.00     0.309 A 
ATOM      6  C   UNL     1      11.074 -57.373 -21.931  1.00  0.00     0.079 A 
ENDROOT
BRANCH   1   7
ATOM      7  C   UNL     1      10.831 -54.967 -22.400  1.00  0.00     0.016 C 
BRANCH   7   8
ATOM      8  C   UNL     1      11.369 -53.838 -22.882  1.00  0.00     0.005 C 
ATOM      9  C   UNL     1      13.160 -49.902 -24.758  1.00  0.00     0.161 A 
ATOM     10  C   UNL     1      12.996 -51.273 -25.032  1.00  0.00     0.055 A 
ATOM     11  C   UNL     1      12.653 -49.338 -23.558  1.00  0.00     0.161 A 
ATOM     12  C   UNL     1      12.363 -52.076 -24.103  1.00  0.00    -0.028 A 
ATOM     13  C   UNL     1      12.019 -50.169 -22.623  1.00  0.00     0.063 A 
ATOM     14  C   UNL     1      11.894 -51.516 -22.921  1.00  0.00     0.030 A 
ATOM     15  C   UNL     1      12.089 -53.547 -24.175  1.00  0.00     0.076 C 
ATOM     16  C   UNL     1      11.264 -52.560 -22.110  1.00  0.00     0.189 C 
ATOM     17  O   UNL     1      10.749 -52.412 -21.020  1.00  0.00    -0.289 OA
BRANCH   9  18
ATOM     18  O   UNL     1      13.801 -49.246 -25.781  1.00  0.00    -0.493 OA
ATOM     19  C   UNL     1      15.168 -49.562 -26.011  1.00  0.00     0.278 C 
ENDBRANCH   9  18
BRANCH  11  20
ATOM     20  O   UNL     1      12.789 -47.987 -23.382  1.00  0.00    -0.493 OA
ATOM     21  C   UNL     1      13.985 -47.502 -22.784  1.00  0.00     0.278 C 
ENDBRANCH  11  20
ENDBRANCH   7   8
ENDBRANCH   1   7
BRANCH   4  22
ATOM     22  C   UNL     1      12.323 -60.270 -23.953  1.00  0.00     0.394 C 
BRANCH  22  23
ATOM     23  C   UNL     1      11.129 -61.165 -24.177  1.00  0.00     0.031 A 
ATOM     24  C   UNL     1      10.733 -62.036 -23.142  1.00  0.00     0.011 A 
ATOM     25  C   UNL     1      10.393 -61.177 -25.375  1.00  0.00     0.027 A 
ATOM     26  C   UNL     1       9.626 -62.873 -23.294  1.00  0.00     0.001 A 
ATOM     27  C   UNL     1       9.285 -62.017 -25.521  1.00  0.00     0.016 A 
ATOM     28  C   UNL     1       8.901 -62.860 -24.481  1.00  0.00     0.001 A 
ATOM     29  Br  UNL     1      10.848 -60.087 -26.860  1.00  0.00    -0.050 Br
ENDBRANCH  22  23
ENDBRANCH   4  22
TORSDOF 6
ENDMDL
MODEL 4
REMARK VINA RESULT:   -10.868      1.775      2.718
REMARK INTER + INTRA:         -15.262
REMARK INTER:                 -14.667
REMARK INTRA:                  -0.595
REMARK UNBOUND:                -0.583
REMARK SMILES COc1cc2c(cc1OC)C(=O)/C(=C/c1cc[n+](Cc3ccccc3Br)cc1)C2
REMARK SMILES IDX 15 1 16 2 17 3 18 4 27 5 28 6 14 7 13 8 3 9 4 10 8 11 5 12
REMARK SMILES IDX 7 13 6 14 29 15 11 16 12 17 2 18 1 19 9 20 10 21 19 22 20 23
REMARK SMILES IDX 21 24 25 25 22 26 24 27 23 28 26 29
REMARK H PARENT
ROOT
ATOM      1  C   UNL     1      10.146 -56.047 -22.587  1.00  0.00    -0.013 A 
ATOM      2  C   UNL     1      11.201 -56.495 -21.798  1.00  0.00     0.079 A 
ATOM      3  C   UNL     1      11.397 -57.860 -21.624  1.00  0.00     0.309 A 
ATOM      4  N   UNL     1      10.565 -58.762 -22.201  1.00  0.00    -0.201 N 
ATOM      5  C   UNL     1       9.539 -58.342 -22.978  1.00  0.00     0.309 A 
ATOM      6  C   UNL     1       9.304 -56.985 -23.178  1.00  0.00     0.079 A 
ENDROOT
BRANCH   1   7
ATOM      7  C   UNL     1       9.868 -54.623 -22.768  1.00  0.00     0.016 C 
BRANCH   7   8
ATOM      8  C   UNL     1      10.775 -53.701 -23.120  1.00  0.00     0.005 C 
ATOM      9  C   UNL     1      14.031 -50.455 -24.160  1.00  0.00     0.161 A 
ATOM     10  C   UNL     1      13.003 -50.723 -23.237  1.00  0.00     0.055 A 
ATOM     11  C   UNL     1      14.344 -51.387 -25.185  1.00  0.00     0.161 A 
ATOM     12  C   UNL     1      12.275 -51.891 -23.356  1.00  0.00    -0.028 A 
ATOM     13  C   UNL     1      13.590 -52.564 -25.296  1.00  0.00     0.063 A 
ATOM     14  C   UNL     1      12.574 -52.782 -24.379  1.00  0.00     0.030 A 
ATOM     15  C   UNL     1      11.142 -52.373 -22.504  1.00  0.00     0.076 C 
ATOM     16  C   UNL     1      11.675 -53.934 -24.293  1.00  0.00     0.189 C 
ATOM     17  O   UNL     1      11.667 -54.898 -25.032  1.00  0.00    -0.289 OA
BRANCH   9  18
ATOM     18  O   UNL     1      14.659 -49.262 -23.900  1.00  0.00    -0.493 OA
ATOM     19  C   UNL     1      15.700 -49.263 -22.931  1.00  0.00     0.278 C 
ENDBRANCH   9  18
BRANCH  11  20
ATOM     20  O   UNL     1      15.396 -51.096 -26.011  1.00  0.00    -0.493 OA
ATOM     21  C   UNL     1      16.681 -51.603 -25.671  1.00  0.00     0.278 C 
ENDBRANCH  11  20
ENDBRANCH   7   8
ENDBRANCH   1   7
BRANCH   4  22
ATOM     22  C   UNL     1      10.796 -60.221 -22.016  1.00  0.00     0.394 C 
BRANCH  22  23
ATOM     23  C   UNL     1      10.087 -61.061 -23.050  1.00  0.00     0.031 A 
ATOM     24  C   UNL     1       8.916 -61.749 -22.675  1.00  0.00     0.011 A 
ATOM     25  C   UNL     1      10.544 -61.196 -24.373  1.00  0.00     0.027 A 
ATOM     26  C   UNL     1       8.215 -62.527 -23.598  1.00  0.00     0.001 A 
ATOM     27  C   UNL     1       9.837 -61.976 -25.294  1.00  0.00     0.016 A 
ATOM     28  C   UNL     1       8.674 -62.637 -24.907  1.00  0.00     0.001 A 
ATOM     29  Br  UNL     1      12.130 -60.359 -24.992  1.00  0.00    -0.050 Br
ENDBRANCH  22  23
ENDBRANCH   4  22
TORSDOF 6
ENDMDL
MODEL 5
REMARK VINA RESULT:   -10.290      4.209      9.992
REMARK INTER + INTRA:         -14.482
REMARK INTER:                 -13.642
REMARK INTRA:                  -0.840
REMARK UNBOUND:                -0.583
REMARK SMILES COc1cc2c(cc1OC)C(=O)/C(=C/c1cc[n+](Cc3ccccc3Br)cc1)C2
REMARK SMILES IDX 15 1 16 2 17 3 18 4 27 5 28 6 14 7 13 8 3 9 4 10 8 11 5 12
REMARK SMILES IDX 7 13 6 14 29 15 11 16 12 17 2 18 1 19 9 20 10 21 19 22 20 23
REMARK SMILES IDX 21 24 25 25 22 26 24 27 23 28 26 29
REMARK H PARENT
ROOT
ATOM      1  C   UNL     1      11.024 -54.495 -23.176  1.00  0.00    -0.013 A 
ATOM      2  C   UNL     1      11.294 -53.188 -22.781  1.00  0.00     0.079 A 
ATOM      3  C   UNL     1      12.069 -52.371 -23.596  1.00  0.00     0.309 A 
ATOM      4  N   UNL     1      12.579 -52.834 -24.763  1.00  0.00    -0.201 N 
ATOM      5  C   UNL     1      12.319 -54.102 -25.164  1.00  0.00     0.309 A 
ATOM      6  C   UNL     1      11.550 -54.954 -24.379  1.00  0.00     0.079 A 
ENDROOT
BRANCH   1   7
ATOM      7  C   UNL     1      10.252 -55.409 -22.336  1.00  0.00     0.016 C 
BRANCH   7   8
ATOM      8  C   UNL     1       9.918 -56.664 -22.670  1.00  0.00     0.005 C 
ATOM      9  C   UNL     1       8.732 -61.014 -24.046  1.00  0.00     0.161 A 
ATOM     10  C   UNL     1       8.327 -59.672 -24.176  1.00  0.00     0.055 A 
ATOM     11  C   UNL     1       9.889 -61.350 -23.294  1.00  0.00     0.161 A 
ATOM     12  C   UNL     1       9.048 -58.683 -23.535  1.00  0.00    -0.028 A 
ATOM     13  C   UNL     1      10.605 -60.335 -22.644  1.00  0.00     0.063 A 
ATOM     14  C   UNL     1      10.163 -59.029 -22.781  1.00  0.00     0.030 A 
ATOM     15  C   UNL     1       8.799 -57.207 -23.524  1.00  0.00     0.076 C 
ATOM     16  C   UNL     1      10.754 -57.817 -22.210  1.00  0.00     0.189 C 
ATOM     17  O   UNL     1      11.739 -57.761 -21.503  1.00  0.00    -0.289 OA
BRANCH   9  18
ATOM     18  O   UNL     1       7.916 -61.868 -24.746  1.00  0.00    -0.493 OA
ATOM     19  C   UNL     1       8.404 -62.382 -25.979  1.00  0.00     0.278 C 
ENDBRANCH   9  18
BRANCH  11  20
ATOM     20  O   UNL     1      10.265 -62.666 -23.260  1.00  0.00    -0.493 OA
ATOM     21  C   UNL     1       9.503 -63.566 -22.463  1.00  0.00     0.278 C 
ENDBRANCH  11  20
ENDBRANCH   7   8
ENDBRANCH   1   7
BRANCH   4  22
ATOM     22  C   UNL     1      13.397 -51.943 -25.632  1.00  0.00     0.394 C 
BRANCH  22  23
ATOM     23  C   UNL     1      14.801 -51.751 -25.116  1.00  0.00     0.031 A 
ATOM     24  C   UNL     1      15.729 -52.800 -25.271  1.00  0.00     0.011 A 
ATOM     25  C   UNL     1      15.231 -50.572 -24.480  1.00  0.00     0.027 A 
ATOM     26  C   UNL     1      17.045 -52.667 -24.824  1.00  0.00     0.001 A 
ATOM     27  C   UNL     1      16.550 -50.443 -24.035  1.00  0.00     0.016 A 
ATOM     28  C   UNL     1      17.455 -51.487 -24.211  1.00  0.00     0.001 A 
ATOM     29  Br  UNL     1      14.070 -49.103 -24.169  1.00  0.00    -0.050 Br
ENDBRANCH  22  23
ENDBRANCH   4  22
TORSDOF 6
ENDMDL
MODEL 6
REMARK VINA RESULT:   -10.176      4.508     10.257
REMARK INTER + INTRA:         -14.328
REMARK INTER:                 -13.731
REMARK INTRA:                  -0.597
REMARK UNBOUND:                -0.583
REMARK SMILES COc1cc2c(cc1OC)C(=O)/C(=C/c1cc[n+](Cc3ccccc3Br)cc1)C2
REMARK SMILES IDX 15 1 16 2 17 3 18 4 27 5 28 6 14 7 13 8 3 9 4 10 8 11 5 12
REMARK SMILES IDX 7 13 6 14 29 15 11 16 12 17 2 18 1 19 9 20 10 21 19 22 20 23
REMARK SMILES IDX 21 24 25 25 22 26 24 27 23 28 26 29
REMARK H PARENT
ROOT
ATOM      1  C   UNL     1      10.469 -58.147 -22.355  1.00  0.00    -0.013 A 
ATOM      2  C   UNL     1       9.518 -57.487 -23.127  1.00  0.00     0.079 A 
ATOM      3  C   UNL     1       9.496 -56.097 -23.150  1.00  0.00     0.309 A 
ATOM      4  N   UNL     1      10.380 -55.375 -22.418  1.00  0.00    -0.201 N 
ATOM      5  C   UNL     1      11.316 -56.004 -21.667  1.00  0.00     0.309 A 
ATOM      6  C   UNL     1      11.373 -57.392 -21.614  1.00  0.00     0.079 A 
ENDROOT
BRANCH   1   7
ATOM      7  C   UNL     1      10.508 -59.605 -22.261  1.00  0.00     0.016 C 
BRANCH   7   8
ATOM      8  C   UNL     1       9.915 -60.448 -23.119  1.00  0.00     0.005 C 
ATOM      9  C   UNL     1       7.644 -63.328 -26.080  1.00  0.00     0.161 A 
ATOM     10  C   UNL     1       7.621 -62.887 -24.743  1.00  0.00     0.055 A 
ATOM     11  C   UNL     1       8.602 -62.817 -26.994  1.00  0.00     0.161 A 
ATOM     12  C   UNL     1       8.565 -61.971 -24.318  1.00  0.00    -0.028 A 
ATOM     13  C   UNL     1       9.557 -61.894 -26.544  1.00  0.00     0.063 A 
ATOM     14  C   UNL     1       9.512 -61.498 -25.217  1.00  0.00     0.030 A 
ATOM     15  C   UNL     1       8.736 -61.375 -22.955  1.00  0.00     0.076 C 
ATOM     16  C   UNL     1      10.390 -60.545 -24.535  1.00  0.00     0.189 C 
ATOM     17  O   UNL     1      11.322 -59.944 -25.029  1.00  0.00    -0.289 OA
BRANCH   9  18
ATOM     18  O   UNL     1       6.640 -64.228 -26.341  1.00  0.00    -0.493 OA
ATOM     19  C   UNL     1       6.151 -65.003 -25.254  1.00  0.00     0.278 C 
ENDBRANCH   9  18
BRANCH  11  20
ATOM     20  O   UNL     1       8.530 -63.240 -28.294  1.00  0.00    -0.493 OA
ATOM     21  C   UNL     1       9.173 -62.459 -29.295  1.00  0.00     0.278 C 
ENDBRANCH  11  20
ENDBRANCH   7   8
ENDBRANCH   1   7
BRANCH   4  22
ATOM     22  C   UNL     1      10.353 -53.887 -22.462  1.00  0.00     0.394 C 
BRANCH  22  23
ATOM     23  C   UNL     1      11.374 -53.311 -23.412  1.00  0.00     0.031 A 
ATOM     24  C   UNL     1      11.812 -54.101 -24.494  1.00  0.00     0.011 A 
ATOM     25  C   UNL     1      11.916 -52.022 -23.267  1.00  0.00     0.027 A 
ATOM     26  C   UNL     1      12.744 -53.609 -25.409  1.00  0.00     0.001 A 
ATOM     27  C   UNL     1      12.848 -51.534 -24.187  1.00  0.00     0.016 A 
ATOM     28  C   UNL     1      13.258 -52.325 -25.258  1.00  0.00     0.001 A 
ATOM     29  Br  UNL     1      11.443 -50.876 -21.830  1.00  0.00    -0.050 Br
ENDBRANCH  22  23
ENDBRANCH   4  22
TORSDOF 6
ENDMDL
MODEL 7
REMARK VINA RESULT:   -10.064      2.323      3.995
REMARK INTER + INTRA:         -14.177
REMARK INTER:                 -13.818
REMARK INTRA:                  -0.359
REMARK UNBOUND:                -0.583
REMARK SMILES COc1cc2c(cc1OC)C(=O)/C(=C/c1cc[n+](Cc3ccccc3Br)cc1)C2
REMARK SMILES IDX 15 1 16 2 17 3 18 4 27 5 28 6 14 7 13 8 3 9 4 10 8 11 5 12
REMARK SMILES IDX 7 13 6 14 29 15 11 16 12 17 2 18 1 19 9 20 10 21 19 22 20 23
REMARK SMILES IDX 21 24 25 25 22 26 24 27 23 28 26 29
REMARK H PARENT
ROOT
ATOM      1  C   UNL     1      10.784 -53.508 -22.152  1.00  0.00    -0.013 A 
ATOM      2  C   UNL     1      10.966 -53.854 -23.487  1.00  0.00     0.079 A 
ATOM      3  C   UNL     1      11.155 -55.188 -23.831  1.00  0.00     0.309 A 
ATOM      4  N   UNL     1      11.179 -56.154 -22.882  1.00  0.00    -0.201 N 
ATOM      5  C   UNL     1      10.995 -55.834 -21.578  1.00  0.00     0.309 A 
ATOM      6  C   UNL     1      10.805 -54.513 -21.189  1.00  0.00     0.079 A 
ENDROOT
BRANCH   1   7
ATOM      7  C   UNL     1      10.625 -52.117 -21.731  1.00  0.00     0.016 C 
BRANCH   7   8
ATOM      8  C   UNL     1      11.187 -51.061 -22.336  1.00  0.00     0.005 C 
ATOM      9  C   UNL     1      13.197 -47.468 -24.632  1.00  0.00     0.161 A 
ATOM     10  C   UNL     1      13.419 -48.816 -24.291  1.00  0.00     0.055 A 
ATOM     11  C   UNL     1      11.996 -46.814 -24.249  1.00  0.00     0.161 A 
ATOM     12  C   UNL     1      12.468 -49.491 -23.551  1.00  0.00    -0.028 A 
ATOM     13  C   UNL     1      11.045 -47.512 -23.492  1.00  0.00     0.063 A 
ATOM     14  C   UNL     1      11.309 -48.831 -23.162  1.00  0.00     0.030 A 
ATOM     15  C   UNL     1      12.496 -50.910 -23.071  1.00  0.00     0.076 C 
ATOM     16  C   UNL     1      10.464 -49.751 -22.397  1.00  0.00     0.189 C 
ATOM     17  O   UNL     1       9.381 -49.499 -21.911  1.00  0.00    -0.289 OA
BRANCH   9  18
ATOM     18  O   UNL     1      14.231 -46.948 -25.371  1.00  0.00    -0.493 OA
ATOM     19  C   UNL     1      15.459 -47.663 -25.381  1.00  0.00     0.278 C 
ENDBRANCH   9  18
BRANCH  11  20
ATOM     20  O   UNL     1      11.815 -45.523 -24.666  1.00  0.00    -0.493 OA
ATOM     21  C   UNL     1      11.204 -44.603 -23.769  1.00  0.00     0.278 C 
ENDBRANCH  11  20
ENDBRANCH   7   8
ENDBRANCH   1   7
BRANCH   4  22
ATOM     22  C   UNL     1      11.370 -57.580 -23.267  1.00  0.00     0.394 C 
BRANCH  22  23
ATOM     23  C   UNL     1      10.066 -58.318 -23.441  1.00  0.00     0.031 A 
ATOM     24  C   UNL     1       8.861 -57.590 -23.374  1.00  0.00     0.011 A 
ATOM     25  C   UNL     1       9.992 -59.705 -23.664  1.00  0.00     0.027 A 
ATOM     26  C   UNL     1       7.629 -58.223 -23.543  1.00  0.00     0.001 A 
ATOM     27  C   UNL     1       8.755 -60.334 -23.835  1.00  0.00     0.016 A 
ATOM     28  C   UNL     1       7.577 -59.593 -23.778  1.00  0.00     0.001 A 
ATOM     29  Br  UNL     1      11.535 -60.807 -23.733  1.00  0.00    -0.050 Br
ENDBRANCH  22  23
ENDBRANCH   4  22
TORSDOF 6
ENDMDL
MODEL 8
REMARK VINA RESULT:    -9.849      4.240     10.107
REMARK INTER + INTRA:         -13.887
REMARK INTER:                 -13.253
REMARK INTRA:                  -0.634
REMARK UNBOUND:                -0.583
REMARK SMILES COc1cc2c(cc1OC)C(=O)/C(=C/c1cc[n+](Cc3ccccc3Br)cc1)C2
REMARK SMILES IDX 15 1 16 2 17 3 18 4 27 5 28 6 14 7 13 8 3 9 4 10 8 11 5 12
REMARK SMILES IDX 7 13 6 14 29 15 11 16 12 17 2 18 1 19 9 20 10 21 19 22 20 23
REMARK SMILES IDX 21 24 25 25 22 26 24 27 23 28 26 29
REMARK H PARENT
ROOT
ATOM      1  C   UNL     1      11.230 -54.482 -23.034  1.00  0.00    -0.013 A 
ATOM      2  C   UNL     1      11.743 -54.820 -24.283  1.00  0.00     0.079 A 
ATOM      3  C   UNL     1      12.395 -53.855 -25.042  1.00  0.00     0.309 A 
ATOM      4  N   UNL     1      12.525 -52.584 -24.589  1.00  0.00    -0.201 N 
ATOM      5  C   UNL     1      12.038 -52.242 -23.372  1.00  0.00     0.309 A 
ATOM      6  C   UNL     1      11.377 -53.175 -22.580  1.00  0.00     0.079 A 
ENDROOT
BRANCH   1   7
ATOM      7  C   UNL     1      10.498 -55.446 -22.214  1.00  0.00     0.016 C 
BRANCH   7   8
ATOM      8  C   UNL     1      10.389 -56.756 -22.479  1.00  0.00     0.005 C 
ATOM      9  C   UNL     1      10.027 -61.399 -23.206  1.00  0.00     0.161 A 
ATOM     10  C   UNL     1      10.840 -60.449 -22.559  1.00  0.00     0.055 A 
ATOM     11  C   UNL     1       8.863 -60.995 -23.912  1.00  0.00     0.161 A 
ATOM     12  C   UNL     1      10.512 -59.109 -22.645  1.00  0.00    -0.028 A 
ATOM     13  C   UNL     1       8.549 -59.631 -23.995  1.00  0.00     0.063 A 
ATOM     14  C   UNL     1       9.384 -58.726 -23.360  1.00  0.00     0.030 A 
ATOM     15  C   UNL     1      11.228 -57.935 -22.052  1.00  0.00     0.076 C 
ATOM     16  C   UNL     1       9.248 -57.269 -23.301  1.00  0.00     0.189 C 
ATOM     17  O   UNL     1       8.372 -56.606 -23.817  1.00  0.00    -0.289 OA
BRANCH   9  18
ATOM     18  O   UNL     1      10.485 -62.680 -23.018  1.00  0.00    -0.493 OA
ATOM     19  C   UNL     1       9.665 -63.570 -22.273  1.00  0.00     0.278 C 
ENDBRANCH   9  18
BRANCH  11  20
ATOM     20  O   UNL     1       8.082 -61.974 -24.464  1.00  0.00    -0.493 OA
ATOM     21  C   UNL     1       8.393 -62.425 -25.778  1.00  0.00     0.278 C 
ENDBRANCH  11  20
ENDBRANCH   7   8
ENDBRANCH   1   7
BRANCH   4  22
ATOM     22  C   UNL     1      13.237 -51.564 -25.408  1.00  0.00     0.394 C 
BRANCH  22  23
ATOM     23  C   UNL     1      14.713 -51.498 -25.104  1.00  0.00     0.031 A 
ATOM     24  C   UNL     1      15.511 -52.628 -25.371  1.00  0.00     0.011 A 
ATOM     25  C   UNL     1      15.335 -50.359 -24.562  1.00  0.00     0.027 A 
ATOM     26  C   UNL     1      16.884 -52.613 -25.122  1.00  0.00     0.001 A 
ATOM     27  C   UNL     1      16.711 -50.348 -24.315  1.00  0.00     0.016 A 
ATOM     28  C   UNL     1      17.484 -51.471 -24.598  1.00  0.00     0.001 A 
ATOM     29  Br  UNL     1      14.368 -48.788 -24.117  1.00  0.00    -0.050 Br
ENDBRANCH  22  23
ENDBRANCH   4  22
TORSDOF 6
ENDMDL
MODEL 9
REMARK VINA RESULT:    -9.674      2.891      5.629
REMARK INTER + INTRA:         -13.651
REMARK INTER:                 -13.163
REMARK INTRA:                  -0.487
REMARK UNBOUND:                -0.583
REMARK SMILES COc1cc2c(cc1OC)C(=O)/C(=C/c1cc[n+](Cc3ccccc3Br)cc1)C2
REMARK SMILES IDX 15 1 16 2 17 3 18 4 27 5 28 6 14 7 13 8 3 9 4 10 8 11 5 12
REMARK SMILES IDX 7 13 6 14 29 15 11 16 12 17 2 18 1 19 9 20 10 21 19 22 20 23
REMARK SMILES IDX 21 24 25 25 22 26 24 27 23 28 26 29
REMARK H PARENT
ROOT
ATOM      1  C   UNL     1      12.004 -52.555 -23.280  1.00  0.00    -0.013 A 
ATOM      2  C   UNL     1      12.101 -53.542 -24.256  1.00  0.00     0.079 A 
ATOM      3  C   UNL     1      11.201 -54.602 -24.252  1.00  0.00     0.309 A 
ATOM      4  N   UNL     1      10.240 -54.695 -23.301  1.00  0.00    -0.201 N 
ATOM      5  C   UNL     1      10.128 -53.737 -22.349  1.00  0.00     0.309 A 
ATOM      6  C   UNL     1      11.008 -52.661 -22.314  1.00  0.00     0.079 A 
ENDROOT
BRANCH   1   7
ATOM      7  C   UNL     1      12.951 -51.443 -23.211  1.00  0.00     0.016 C 
BRANCH   7   8
ATOM      8  C   UNL     1      12.647 -50.158 -23.442  1.00  0.00     0.005 C 
ATOM      9  C   UNL     1      11.528 -45.619 -24.050  1.00  0.00     0.161 A 
ATOM     10  C   UNL     1      11.020 -46.812 -23.501  1.00  0.00     0.055 A 
ATOM     11  C   UNL     1      12.816 -45.589 -24.647  1.00  0.00     0.161 A 
ATOM     12  C   UNL     1      11.775 -47.967 -23.578  1.00  0.00    -0.028 A 
ATOM     13  C   UNL     1      13.566 -46.772 -24.722  1.00  0.00     0.063 A 
ATOM     14  C   UNL     1      13.023 -47.928 -24.187  1.00  0.00     0.030 A 
ATOM     15  C   UNL     1      11.435 -49.336 -23.077  1.00  0.00     0.076 C 
ATOM     16  C   UNL     1      13.623 -49.263 -24.140  1.00  0.00     0.189 C 
ATOM     17  O   UNL     1      14.710 -49.580 -24.580  1.00  0.00    -0.289 OA
BRANCH   9  18
ATOM     18  O   UNL     1      10.661 -44.567 -23.886  1.00  0.00    -0.493 OA
ATOM     19  C   UNL     1      10.824 -43.753 -22.731  1.00  0.00     0.278 C 
ENDBRANCH   9  18
BRANCH  11  20
ATOM     20  O   UNL     1      13.278 -44.384 -25.104  1.00  0.00    -0.493 OA
ATOM     21  C   UNL     1      13.164 -44.101 -26.494  1.00  0.00     0.278 C 
ENDBRANCH  11  20
ENDBRANCH   7   8
ENDBRANCH   1   7
BRANCH   4  22
ATOM     22  C   UNL     1       9.274 -55.829 -23.318  1.00  0.00     0.394 C 
BRANCH  22  23
ATOM     23  C   UNL     1       9.858 -57.102 -22.758  1.00  0.00     0.031 A 
ATOM     24  C   UNL     1      11.004 -57.020 -21.942  1.00  0.00     0.011 A 
ATOM     25  C   UNL     1       9.315 -58.373 -23.015  1.00  0.00     0.027 A 
ATOM     26  C   UNL     1      11.574 -58.167 -21.387  1.00  0.00     0.001 A 
ATOM     27  C   UNL     1       9.889 -59.519 -22.456  1.00  0.00     0.016 A 
ATOM     28  C   UNL     1      11.014 -59.415 -21.641  1.00  0.00     0.001 A 
ATOM     29  Br  UNL     1       7.801 -58.626 -24.132  1.00  0.00    -0.050 Br
ENDBRANCH  22  23
ENDBRANCH   4  22
TORSDOF 6
ENDMDL
