MODEL 1
REMARK VINA RESULT:   -12.805      0.000      0.000
REMARK INTER + INTRA:         -17.217
REMARK INTER:                 -16.548
REMARK INTRA:                  -0.670
REMARK UNBOUND:                -0.670
REMARK SMILES COc1ccccc1C(=O)N1Cc2cc(NC(=O)c3cccc(Cl)c3)ccc2CC1=O
REMARK SMILES IDX 11 1 12 2 13 3 14 4 15 5 26 6 27 7 28 8 29 9 30 10 31 11
REMARK SMILES IDX 9 12 10 13 8 14 3 15 4 16 5 17 7 18 6 19 2 20 1 21 16 22
REMARK SMILES IDX 17 23 18 25 19 26 20 27 25 28 21 29 23 30 22 31 24 32
REMARK H PARENT 16 24
ROOT
ATOM      1  N   UNL     1       8.464 -61.428 -23.775  1.00  0.00    -0.274 N 
ATOM      2  C   UNL     1       8.066 -60.131 -23.256  1.00  0.00     0.164 C 
ATOM      3  C   UNL     1       9.242 -59.342 -22.756  1.00  0.00    -0.022 A 
ATOM      4  C   UNL     1       9.284 -57.942 -22.858  1.00  0.00     0.032 A 
ATOM      5  C   UNL     1      10.369 -57.224 -22.351  1.00  0.00     0.041 A 
ATOM      6  C   UNL     1      11.413 -57.924 -21.736  1.00  0.00     0.026 A 
ATOM      7  C   UNL     1      11.371 -59.316 -21.618  1.00  0.00     0.007 A 
ATOM      8  C   UNL     1      10.287 -60.029 -22.134  1.00  0.00    -0.033 A 
ATOM      9  C   UNL     1      10.187 -61.521 -21.982  1.00  0.00     0.136 C 
ATOM     10  C   UNL     1       9.312 -62.225 -23.010  1.00  0.00     0.234 C 
ATOM     11  O   UNL     1       9.375 -63.454 -23.099  1.00  0.00    -0.274 OA
ENDROOT
BRANCH   1  12
ATOM     12  C   UNL     1       7.619 -61.977 -24.741  1.00  0.00     0.264 C 
ATOM     13  O   UNL     1       6.435 -62.236 -24.520  1.00  0.00    -0.268 OA
BRANCH  12  14
ATOM     14  C   UNL     1       8.169 -62.291 -26.087  1.00  0.00     0.082 A 
ATOM     15  C   UNL     1       9.105 -61.457 -26.728  1.00  0.00     0.131 A 
ATOM     16  C   UNL     1       9.559 -61.817 -28.002  1.00  0.00     0.047 A 
ATOM     17  C   UNL     1       9.083 -62.973 -28.631  1.00  0.00     0.004 A 
ATOM     18  C   UNL     1       7.678 -63.437 -26.730  1.00  0.00     0.018 A 
ATOM     19  C   UNL     1       8.140 -63.780 -27.998  1.00  0.00     0.001 A 
BRANCH  15  20
ATOM     20  O   UNL     1       9.484 -60.317 -26.066  1.00  0.00    -0.496 OA
ATOM     21  C   UNL     1      10.874 -60.021 -26.010  1.00  0.00     0.278 C 
ENDBRANCH  15  20
ENDBRANCH  12  14
ENDBRANCH   1  12
BRANCH   5  22
ATOM     22  N   UNL     1      10.490 -55.820 -22.425  1.00  0.00    -0.322 N 
ATOM     23  C   UNL     1      11.158 -55.087 -23.389  1.00  0.00     0.255 C 
ATOM     24  H   UNL     1       9.968 -55.302 -21.730  1.00  0.00     0.170 HD
ATOM     25  O   UNL     1      11.704 -55.520 -24.396  1.00  0.00    -0.269 OA
BRANCH  23  26
ATOM     26  C   UNL     1      11.158 -53.613 -23.171  1.00  0.00     0.041 A 
ATOM     27  C   UNL     1      10.210 -53.068 -22.293  1.00  0.00     0.014 A 
ATOM     28  C   UNL     1      12.052 -52.771 -23.843  1.00  0.00     0.034 A 
ATOM     29  C   UNL     1      10.174 -51.692 -22.064  1.00  0.00     0.002 A 
ATOM     30  C   UNL     1      12.007 -51.397 -23.607  1.00  0.00     0.041 A 
ATOM     31  C   UNL     1      11.078 -50.855 -22.719  1.00  0.00     0.020 A 
ATOM     32  Cl  UNL     1      13.110 -50.359 -24.425  1.00  0.00    -0.084 Cl
ENDBRANCH  23  26
ENDBRANCH   5  22
TORSDOF 5
ENDMDL
MODEL 2
REMARK VINA RESULT:   -11.934      1.199      2.055
REMARK INTER + INTRA:         -16.093
REMARK INTER:                 -16.206
REMARK INTRA:                   0.114
REMARK UNBOUND:                -0.670
REMARK SMILES COc1ccccc1C(=O)N1Cc2cc(NC(=O)c3cccc(Cl)c3)ccc2CC1=O
REMARK SMILES IDX 11 1 12 2 13 3 14 4 15 5 26 6 27 7 28 8 29 9 30 10 31 11
REMARK SMILES IDX 9 12 10 13 8 14 3 15 4 16 5 17 7 18 6 19 2 20 1 21 16 22
REMARK SMILES IDX 17 23 18 25 19 26 20 27 25 28 21 29 23 30 22 31 24 32
REMARK H PARENT 16 24
ROOT
ATOM      1  N   UNL     1       9.588 -60.846 -24.047  1.00  0.00    -0.274 N 
ATOM      2  C   UNL     1       9.054 -59.508 -23.854  1.00  0.00     0.164 C 
ATOM      3  C   UNL     1       9.904 -58.695 -22.919  1.00  0.00    -0.022 A 
ATOM      4  C   UNL     1      10.050 -57.308 -23.079  1.00  0.00     0.032 A 
ATOM      5  C   UNL     1      10.811 -56.564 -22.176  1.00  0.00     0.041 A 
ATOM      6  C   UNL     1      11.425 -57.225 -21.106  1.00  0.00     0.026 A 
ATOM      7  C   UNL     1      11.272 -58.603 -20.933  1.00  0.00     0.007 A 
ATOM      8  C   UNL     1      10.515 -59.343 -21.843  1.00  0.00    -0.033 A 
ATOM      9  C   UNL     1      10.290 -60.818 -21.659  1.00  0.00     0.136 C 
ATOM     10  C   UNL     1       9.954 -61.590 -22.928  1.00  0.00     0.234 C 
ATOM     11  O   UNL     1       9.997 -62.822 -22.900  1.00  0.00    -0.274 OA
ENDROOT
BRANCH   1  12
ATOM     12  C   UNL     1       9.257 -61.459 -25.256  1.00  0.00     0.264 C 
ATOM     13  O   UNL     1       8.426 -62.365 -25.338  1.00  0.00    -0.268 OA
BRANCH  12  14
ATOM     14  C   UNL     1       9.951 -61.026 -26.499  1.00  0.00     0.082 A 
ATOM     15  C   UNL     1       9.544 -61.459 -27.775  1.00  0.00     0.131 A 
ATOM     16  C   UNL     1      10.263 -61.017 -28.892  1.00  0.00     0.047 A 
ATOM     17  C   UNL     1      11.370 -60.175 -28.742  1.00  0.00     0.004 A 
ATOM     18  C   UNL     1      11.075 -60.199 -26.352  1.00  0.00     0.018 A 
ATOM     19  C   UNL     1      11.779 -59.769 -27.473  1.00  0.00     0.001 A 
BRANCH  15  20
ATOM     20  O   UNL     1       8.481 -62.323 -27.833  1.00  0.00    -0.496 OA
ATOM     21  C   UNL     1       8.598 -63.454 -28.686  1.00  0.00     0.278 C 
ENDBRANCH  15  20
ENDBRANCH  12  14
ENDBRANCH   1  12
BRANCH   5  22
ATOM     22  N   UNL     1      11.015 -55.171 -22.276  1.00  0.00    -0.322 N 
ATOM     23  C   UNL     1      11.315 -54.447 -23.416  1.00  0.00     0.255 C 
ATOM     24  H   UNL     1      10.853 -54.647 -21.426  1.00  0.00     0.170 HD
ATOM     25  O   UNL     1      11.384 -54.875 -24.561  1.00  0.00    -0.269 OA
BRANCH  23  26
ATOM     26  C   UNL     1      11.527 -52.989 -23.198  1.00  0.00     0.041 A 
ATOM     27  C   UNL     1      10.898 -52.379 -22.104  1.00  0.00     0.014 A 
ATOM     28  C   UNL     1      12.305 -52.221 -24.073  1.00  0.00     0.034 A 
ATOM     29  C   UNL     1      11.069 -51.014 -21.866  1.00  0.00     0.002 A 
ATOM     30  C   UNL     1      12.468 -50.858 -23.827  1.00  0.00     0.041 A 
ATOM     31  C   UNL     1      11.859 -50.253 -22.727  1.00  0.00     0.020 A 
ATOM     32  Cl  UNL     1      13.430 -49.912 -24.896  1.00  0.00    -0.084 Cl
ENDBRANCH  23  26
ENDBRANCH   5  22
TORSDOF 5
ENDMDL
MODEL 3
REMARK VINA RESULT:   -11.151      1.881      2.419
REMARK INTER + INTRA:         -15.080
REMARK INTER:                 -15.207
REMARK INTRA:                   0.127
REMARK UNBOUND:                -0.670
REMARK SMILES COc1ccccc1C(=O)N1Cc2cc(NC(=O)c3cccc(Cl)c3)ccc2CC1=O
REMARK SMILES IDX 11 1 12 2 13 3 14 4 15 5 26 6 27 7 28 8 29 9 30 10 31 11
REMARK SMILES IDX 9 12 10 13 8 14 3 15 4 16 5 17 7 18 6 19 2 20 1 21 16 22
REMARK SMILES IDX 17 23 18 25 19 26 20 27 25 28 21 29 23 30 22 31 24 32
REMARK H PARENT 16 24
ROOT
ATOM      1  N   UNL     1      10.134 -60.524 -23.833  1.00  0.00    -0.274 N 
ATOM      2  C   UNL     1       9.530 -59.203 -23.837  1.00  0.00     0.164 C 
ATOM      3  C   UNL     1      10.218 -58.269 -22.883  1.00  0.00    -0.022 A 
ATOM      4  C   UNL     1      10.332 -56.896 -23.153  1.00  0.00     0.032 A 
ATOM      5  C   UNL     1      10.940 -56.039 -22.234  1.00  0.00     0.041 A 
ATOM      6  C   UNL     1      11.431 -56.571 -21.036  1.00  0.00     0.026 A 
ATOM      7  C   UNL     1      11.307 -57.934 -20.754  1.00  0.00     0.007 A 
ATOM      8  C   UNL     1      10.705 -58.788 -21.680  1.00  0.00    -0.033 A 
ATOM      9  C   UNL     1      10.512 -60.250 -21.388  1.00  0.00     0.136 C 
ATOM     10  C   UNL     1      10.376 -61.147 -22.611  1.00  0.00     0.234 C 
ATOM     11  O   UNL     1      10.460 -62.369 -22.461  1.00  0.00    -0.274 OA
ENDROOT
BRANCH   1  12
ATOM     12  C   UNL     1       9.989 -61.258 -25.011  1.00  0.00     0.264 C 
ATOM     13  O   UNL     1       9.349 -62.310 -25.066  1.00  0.00    -0.268 OA
BRANCH  12  14
ATOM     14  C   UNL     1      10.653 -60.772 -26.250  1.00  0.00     0.082 A 
ATOM     15  C   UNL     1      11.899 -60.118 -26.227  1.00  0.00     0.131 A 
ATOM     16  C   UNL     1      12.446 -59.677 -27.437  1.00  0.00     0.047 A 
ATOM     17  C   UNL     1      11.762 -59.869 -28.642  1.00  0.00     0.004 A 
ATOM     18  C   UNL     1       9.960 -60.943 -27.459  1.00  0.00     0.018 A 
ATOM     19  C   UNL     1      10.519 -60.498 -28.654  1.00  0.00     0.001 A 
BRANCH  15  20
ATOM     20  O   UNL     1      12.481 -59.925 -25.000  1.00  0.00    -0.496 OA
ATOM     21  C   UNL     1      13.518 -60.819 -24.616  1.00  0.00     0.278 C 
ENDBRANCH  15  20
ENDBRANCH  12  14
ENDBRANCH   1  12
BRANCH   5  22
ATOM     22  N   UNL     1      11.103 -54.651 -22.438  1.00  0.00    -0.322 N 
ATOM     23  C   UNL     1      10.714 -53.629 -21.591  1.00  0.00     0.255 C 
ATOM     24  H   UNL     1      11.625 -54.393 -23.264  1.00  0.00     0.170 HD
ATOM     25  O   UNL     1      10.224 -53.745 -20.474  1.00  0.00    -0.269 OA
BRANCH  23  26
ATOM     26  C   UNL     1      10.973 -52.255 -22.103  1.00  0.00     0.041 A 
ATOM     27  C   UNL     1      10.030 -51.253 -21.836  1.00  0.00     0.014 A 
ATOM     28  C   UNL     1      12.110 -51.957 -22.865  1.00  0.00     0.034 A 
ATOM     29  C   UNL     1      10.234 -49.953 -22.301  1.00  0.00     0.002 A 
ATOM     30  C   UNL     1      12.303 -50.655 -23.326  1.00  0.00     0.041 A 
ATOM     31  C   UNL     1      11.375 -49.652 -23.044  1.00  0.00     0.020 A 
ATOM     32  Cl  UNL     1      13.703 -50.283 -24.256  1.00  0.00    -0.084 Cl
ENDBRANCH  23  26
ENDBRANCH   5  22
TORSDOF 5
ENDMDL
MODEL 4
REMARK VINA RESULT:   -10.707      4.516     11.091
REMARK INTER + INTRA:         -14.507
REMARK INTER:                 -14.064
REMARK INTRA:                  -0.443
REMARK UNBOUND:                -0.670
REMARK SMILES COc1ccccc1C(=O)N1Cc2cc(NC(=O)c3cccc(Cl)c3)ccc2CC1=O
REMARK SMILES IDX 11 1 12 2 13 3 14 4 15 5 26 6 27 7 28 8 29 9 30 10 31 11
REMARK SMILES IDX 9 12 10 13 8 14 3 15 4 16 5 17 7 18 6 19 2 20 1 21 16 22
REMARK SMILES IDX 17 23 18 25 19 26 20 27 25 28 21 29 23 30 22 31 24 32
REMARK H PARENT 16 24
ROOT
ATOM      1  N   UNL     1      12.334 -49.066 -23.151  1.00  0.00    -0.274 N 
ATOM      2  C   UNL     1      12.664 -50.245 -22.369  1.00  0.00     0.164 C 
ATOM      3  C   UNL     1      11.557 -51.259 -22.389  1.00  0.00    -0.022 A 
ATOM      4  C   UNL     1      11.822 -52.637 -22.346  1.00  0.00     0.032 A 
ATOM      5  C   UNL     1      10.777 -53.562 -22.325  1.00  0.00     0.041 A 
ATOM      6  C   UNL     1       9.458 -53.093 -22.344  1.00  0.00     0.026 A 
ATOM      7  C   UNL     1       9.187 -51.722 -22.373  1.00  0.00     0.007 A 
ATOM      8  C   UNL     1      10.236 -50.801 -22.400  1.00  0.00    -0.033 A 
ATOM      9  C   UNL     1       9.981 -49.320 -22.382  1.00  0.00     0.136 C 
ATOM     10  C   UNL     1      11.096 -48.458 -22.957  1.00  0.00     0.234 C 
ATOM     11  O   UNL     1      10.862 -47.271 -23.199  1.00  0.00    -0.274 OA
ENDROOT
BRANCH   1  12
ATOM     12  C   UNL     1      13.422 -48.361 -23.668  1.00  0.00     0.264 C 
ATOM     13  O   UNL     1      13.987 -47.459 -23.047  1.00  0.00    -0.268 OA
BRANCH  12  14
ATOM     14  C   UNL     1      13.909 -48.686 -25.036  1.00  0.00     0.082 A 
ATOM     15  C   UNL     1      14.352 -47.693 -25.930  1.00  0.00     0.131 A 
ATOM     16  C   UNL     1      14.778 -48.083 -27.205  1.00  0.00     0.047 A 
ATOM     17  C   UNL     1      14.749 -49.429 -27.587  1.00  0.00     0.004 A 
ATOM     18  C   UNL     1      13.861 -50.031 -25.431  1.00  0.00     0.018 A 
ATOM     19  C   UNL     1      14.288 -50.402 -26.703  1.00  0.00     0.001 A 
BRANCH  15  20
ATOM     20  O   UNL     1      14.302 -46.393 -25.496  1.00  0.00    -0.496 OA
ATOM     21  C   UNL     1      13.954 -45.395 -26.447  1.00  0.00     0.278 C 
ENDBRANCH  15  20
ENDBRANCH  12  14
ENDBRANCH   1  12
BRANCH   5  22
ATOM     22  N   UNL     1      10.962 -54.961 -22.293  1.00  0.00    -0.322 N 
ATOM     23  C   UNL     1      11.355 -55.778 -23.338  1.00  0.00     0.255 C 
ATOM     24  H   UNL     1      10.859 -55.393 -21.384  1.00  0.00     0.170 HD
ATOM     25  O   UNL     1      11.688 -55.424 -24.463  1.00  0.00    -0.269 OA
BRANCH  23  26
ATOM     26  C   UNL     1      11.412 -57.231 -23.015  1.00  0.00     0.041 A 
ATOM     27  C   UNL     1      11.099 -57.638 -21.710  1.00  0.00     0.014 A 
ATOM     28  C   UNL     1      11.799 -58.181 -23.967  1.00  0.00     0.034 A 
ATOM     29  C   UNL     1      11.142 -58.989 -21.366  1.00  0.00     0.002 A 
ATOM     30  C   UNL     1      11.841 -59.529 -23.612  1.00  0.00     0.041 A 
ATOM     31  C   UNL     1      11.510 -59.938 -22.320  1.00  0.00     0.020 A 
ATOM     32  Cl  UNL     1      12.309 -60.701 -24.782  1.00  0.00    -0.084 Cl
ENDBRANCH  23  26
ENDBRANCH   5  22
TORSDOF 5
ENDMDL
MODEL 5
REMARK VINA RESULT:   -10.699      4.564     11.936
REMARK INTER + INTRA:         -14.497
REMARK INTER:                 -14.204
REMARK INTRA:                  -0.292
REMARK UNBOUND:                -0.670
REMARK SMILES COc1ccccc1C(=O)N1Cc2cc(NC(=O)c3cccc(Cl)c3)ccc2CC1=O
REMARK SMILES IDX 11 1 12 2 13 3 14 4 15 5 26 6 27 7 28 8 29 9 30 10 31 11
REMARK SMILES IDX 9 12 10 13 8 14 3 15 4 16 5 17 7 18 6 19 2 20 1 21 16 22
REMARK SMILES IDX 17 23 18 25 19 26 20 27 25 28 21 29 23 30 22 31 24 32
REMARK H PARENT 16 24
ROOT
ATOM      1  N   UNL     1      13.018 -49.411 -23.233  1.00  0.00    -0.274 N 
ATOM      2  C   UNL     1      11.885 -50.320 -23.213  1.00  0.00     0.164 C 
ATOM      3  C   UNL     1      12.192 -51.614 -23.910  1.00  0.00    -0.022 A 
ATOM      4  C   UNL     1      11.634 -52.829 -23.482  1.00  0.00     0.032 A 
ATOM      5  C   UNL     1      11.900 -54.015 -24.169  1.00  0.00     0.041 A 
ATOM      6  C   UNL     1      12.732 -53.972 -25.294  1.00  0.00     0.026 A 
ATOM      7  C   UNL     1      13.279 -52.764 -25.734  1.00  0.00     0.007 A 
ATOM      8  C   UNL     1      13.015 -51.582 -25.039  1.00  0.00    -0.033 A 
ATOM      9  C   UNL     1      13.547 -50.259 -25.512  1.00  0.00     0.136 C 
ATOM     10  C   UNL     1      13.674 -49.185 -24.441  1.00  0.00     0.234 C 
ATOM     11  O   UNL     1      14.322 -48.167 -24.696  1.00  0.00    -0.274 OA
ENDROOT
BRANCH   1  12
ATOM     12  C   UNL     1      13.068 -48.486 -22.189  1.00  0.00     0.264 C 
ATOM     13  O   UNL     1      13.662 -48.706 -21.132  1.00  0.00    -0.268 OA
BRANCH  12  14
ATOM     14  C   UNL     1      12.357 -47.188 -22.340  1.00  0.00     0.082 A 
ATOM     15  C   UNL     1      13.042 -45.958 -22.390  1.00  0.00     0.131 A 
ATOM     16  C   UNL     1      12.295 -44.781 -22.515  1.00  0.00     0.047 A 
ATOM     17  C   UNL     1      10.898 -44.825 -22.577  1.00  0.00     0.004 A 
ATOM     18  C   UNL     1      10.955 -47.224 -22.380  1.00  0.00     0.018 A 
ATOM     19  C   UNL     1      10.227 -46.044 -22.504  1.00  0.00     0.001 A 
BRANCH  15  20
ATOM     20  O   UNL     1      14.408 -45.998 -22.274  1.00  0.00    -0.496 OA
ATOM     21  C   UNL     1      14.995 -45.315 -21.174  1.00  0.00     0.278 C 
ENDBRANCH  15  20
ENDBRANCH  12  14
ENDBRANCH   1  12
BRANCH   5  22
ATOM     22  N   UNL     1      11.387 -55.276 -23.795  1.00  0.00    -0.322 N 
ATOM     23  C   UNL     1      11.014 -55.686 -22.527  1.00  0.00     0.255 C 
ATOM     24  H   UNL     1      11.214 -55.917 -24.557  1.00  0.00     0.170 HD
ATOM     25  O   UNL     1      10.990 -55.003 -21.511  1.00  0.00    -0.269 OA
BRANCH  23  26
ATOM     26  C   UNL     1      10.556 -57.100 -22.433  1.00  0.00     0.041 A 
ATOM     27  C   UNL     1      11.299 -57.992 -21.647  1.00  0.00     0.014 A 
ATOM     28  C   UNL     1       9.432 -57.557 -23.132  1.00  0.00     0.034 A 
ATOM     29  C   UNL     1      10.906 -59.326 -21.534  1.00  0.00     0.002 A 
ATOM     30  C   UNL     1       9.048 -58.893 -23.013  1.00  0.00     0.041 A 
ATOM     31  C   UNL     1       9.775 -59.777 -22.216  1.00  0.00     0.020 A 
ATOM     32  Cl  UNL     1       7.663 -59.456 -23.865  1.00  0.00    -0.084 Cl
ENDBRANCH  23  26
ENDBRANCH   5  22
TORSDOF 5
ENDMDL
MODEL 6
REMARK VINA RESULT:   -10.620      2.427      3.568
REMARK INTER + INTRA:         -14.394
REMARK INTER:                 -14.248
REMARK INTRA:                  -0.146
REMARK UNBOUND:                -0.670
REMARK SMILES COc1ccccc1C(=O)N1Cc2cc(NC(=O)c3cccc(Cl)c3)ccc2CC1=O
REMARK SMILES IDX 11 1 12 2 13 3 14 4 15 5 26 6 27 7 28 8 29 9 30 10 31 11
REMARK SMILES IDX 9 12 10 13 8 14 3 15 4 16 5 17 7 18 6 19 2 20 1 21 16 22
REMARK SMILES IDX 17 23 18 25 19 26 20 27 25 28 21 29 23 30 22 31 24 32
REMARK H PARENT 16 24
ROOT
ATOM      1  N   UNL     1      10.705 -59.759 -22.547  1.00  0.00    -0.274 N 
ATOM      2  C   UNL     1      11.048 -58.522 -21.866  1.00  0.00     0.164 C 
ATOM      3  C   UNL     1      11.343 -57.412 -22.835  1.00  0.00    -0.022 A 
ATOM      4  C   UNL     1      11.029 -56.077 -22.538  1.00  0.00     0.032 A 
ATOM      5  C   UNL     1      11.348 -55.055 -23.434  1.00  0.00     0.041 A 
ATOM      6  C   UNL     1      11.989 -55.385 -24.634  1.00  0.00     0.026 A 
ATOM      7  C   UNL     1      12.317 -56.711 -24.929  1.00  0.00     0.007 A 
ATOM      8  C   UNL     1      11.990 -57.729 -24.032  1.00  0.00    -0.033 A 
ATOM      9  C   UNL     1      12.371 -59.159 -24.296  1.00  0.00     0.136 C 
ATOM     10  C   UNL     1      11.522 -60.203 -23.584  1.00  0.00     0.234 C 
ATOM     11  O   UNL     1      11.614 -61.382 -23.936  1.00  0.00    -0.274 OA
ENDROOT
BRANCH   1  12
ATOM     12  C   UNL     1       9.892 -60.638 -21.830  1.00  0.00     0.264 C 
ATOM     13  O   UNL     1       9.895 -60.693 -20.598  1.00  0.00    -0.268 OA
BRANCH  12  14
ATOM     14  C   UNL     1       9.001 -61.568 -22.574  1.00  0.00     0.082 A 
ATOM     15  C   UNL     1       7.905 -61.114 -23.330  1.00  0.00     0.131 A 
ATOM     16  C   UNL     1       7.107 -62.058 -23.986  1.00  0.00     0.047 A 
ATOM     17  C   UNL     1       7.385 -63.425 -23.880  1.00  0.00     0.004 A 
ATOM     18  C   UNL     1       9.263 -62.942 -22.453  1.00  0.00     0.018 A 
ATOM     19  C   UNL     1       8.459 -63.868 -23.111  1.00  0.00     0.001 A 
BRANCH  15  20
ATOM     20  O   UNL     1       7.671 -59.762 -23.343  1.00  0.00    -0.496 OA
ATOM     21  C   UNL     1       6.341 -59.323 -23.101  1.00  0.00     0.278 C 
ENDBRANCH  15  20
ENDBRANCH  12  14
ENDBRANCH   1  12
BRANCH   5  22
ATOM     22  N   UNL     1      11.055 -53.692 -23.214  1.00  0.00    -0.322 N 
ATOM     23  C   UNL     1      11.889 -52.610 -23.433  1.00  0.00     0.255 C 
ATOM     24  H   UNL     1      10.105 -53.492 -22.930  1.00  0.00     0.170 HD
ATOM     25  O   UNL     1      13.009 -52.633 -23.929  1.00  0.00    -0.269 OA
BRANCH  23  26
ATOM     26  C   UNL     1      11.318 -51.288 -23.054  1.00  0.00     0.041 A 
ATOM     27  C   UNL     1      10.110 -51.261 -22.342  1.00  0.00     0.014 A 
ATOM     28  C   UNL     1      11.938 -50.087 -23.419  1.00  0.00     0.034 A 
ATOM     29  C   UNL     1       9.540 -50.043 -21.971  1.00  0.00     0.002 A 
ATOM     30  C   UNL     1      11.359 -48.875 -23.043  1.00  0.00     0.041 A 
ATOM     31  C   UNL     1      10.168 -48.847 -22.318  1.00  0.00     0.020 A 
ATOM     32  Cl  UNL     1      12.123 -47.397 -23.484  1.00  0.00    -0.084 Cl
ENDBRANCH  23  26
ENDBRANCH   5  22
TORSDOF 5
ENDMDL
MODEL 7
REMARK VINA RESULT:   -10.534      4.432     10.892
REMARK INTER + INTRA:         -14.283
REMARK INTER:                 -13.225
REMARK INTRA:                  -1.058
REMARK UNBOUND:                -0.670
REMARK SMILES COc1ccccc1C(=O)N1Cc2cc(NC(=O)c3cccc(Cl)c3)ccc2CC1=O
REMARK SMILES IDX 11 1 12 2 13 3 14 4 15 5 26 6 27 7 28 8 29 9 30 10 31 11
REMARK SMILES IDX 9 12 10 13 8 14 3 15 4 16 5 17 7 18 6 19 2 20 1 21 16 22
REMARK SMILES IDX 17 23 18 25 19 26 20 27 25 28 21 29 23 30 22 31 24 32
REMARK H PARENT 16 24
ROOT
ATOM      1  N   UNL     1      12.969 -49.296 -23.186  1.00  0.00    -0.274 N 
ATOM      2  C   UNL     1      13.028 -50.460 -22.318  1.00  0.00     0.164 C 
ATOM      3  C   UNL     1      11.742 -51.236 -22.332  1.00  0.00    -0.022 A 
ATOM      4  C   UNL     1      11.726 -52.632 -22.191  1.00  0.00     0.032 A 
ATOM      5  C   UNL     1      10.517 -53.330 -22.166  1.00  0.00     0.041 A 
ATOM      6  C   UNL     1       9.320 -52.613 -22.279  1.00  0.00     0.026 A 
ATOM      7  C   UNL     1       9.329 -51.221 -22.405  1.00  0.00     0.007 A 
ATOM      8  C   UNL     1      10.541 -50.529 -22.437  1.00  0.00    -0.033 A 
ATOM      9  C   UNL     1      10.585 -49.029 -22.522  1.00  0.00     0.136 C 
ATOM     10  C   UNL     1      11.871 -48.445 -23.092  1.00  0.00     0.234 C 
ATOM     11  O   UNL     1      11.888 -47.255 -23.417  1.00  0.00    -0.274 OA
ENDROOT
BRANCH   1  12
ATOM     12  C   UNL     1      14.194 -48.857 -23.691  1.00  0.00     0.264 C 
ATOM     13  O   UNL     1      15.106 -48.454 -22.967  1.00  0.00    -0.268 OA
BRANCH  12  14
ATOM     14  C   UNL     1      14.406 -48.845 -25.163  1.00  0.00     0.082 A 
ATOM     15  C   UNL     1      14.504 -50.030 -25.917  1.00  0.00     0.131 A 
ATOM     16  C   UNL     1      14.721 -49.930 -27.296  1.00  0.00     0.047 A 
ATOM     17  C   UNL     1      14.851 -48.679 -27.909  1.00  0.00     0.004 A 
ATOM     18  C   UNL     1      14.559 -47.593 -25.780  1.00  0.00     0.018 A 
ATOM     19  C   UNL     1      14.775 -47.512 -27.153  1.00  0.00     0.001 A 
BRANCH  15  20
ATOM     20  O   UNL     1      14.414 -51.215 -25.233  1.00  0.00    -0.496 OA
ATOM     21  C   UNL     1      13.401 -52.129 -25.632  1.00  0.00     0.278 C 
ENDBRANCH  15  20
ENDBRANCH  12  14
ENDBRANCH   1  12
BRANCH   5  22
ATOM     22  N   UNL     1      10.418 -54.733 -22.040  1.00  0.00    -0.322 N 
ATOM     23  C   UNL     1      10.784 -55.686 -22.974  1.00  0.00     0.255 C 
ATOM     24  H   UNL     1      10.109 -55.067 -21.137  1.00  0.00     0.170 HD
ATOM     25  O   UNL     1      11.331 -55.487 -24.051  1.00  0.00    -0.269 OA
BRANCH  23  26
ATOM     26  C   UNL     1      10.510 -57.094 -22.576  1.00  0.00     0.041 A 
ATOM     27  C   UNL     1      11.332 -57.688 -21.608  1.00  0.00     0.014 A 
ATOM     28  C   UNL     1       9.480 -57.838 -23.166  1.00  0.00     0.034 A 
ATOM     29  C   UNL     1      11.110 -59.007 -21.209  1.00  0.00     0.002 A 
ATOM     30  C   UNL     1       9.268 -59.155 -22.761  1.00  0.00     0.041 A 
ATOM     31  C   UNL     1      10.072 -59.741 -21.784  1.00  0.00     0.020 A 
ATOM     32  Cl  UNL     1       7.998 -60.069 -23.480  1.00  0.00    -0.084 Cl
ENDBRANCH  23  26
ENDBRANCH   5  22
TORSDOF 5
ENDMDL
MODEL 8
REMARK VINA RESULT:   -10.488      4.160     10.745
REMARK INTER + INTRA:         -14.223
REMARK INTER:                 -13.295
REMARK INTRA:                  -0.928
REMARK UNBOUND:                -0.670
REMARK SMILES COc1ccccc1C(=O)N1Cc2cc(NC(=O)c3cccc(Cl)c3)ccc2CC1=O
REMARK SMILES IDX 11 1 12 2 13 3 14 4 15 5 26 6 27 7 28 8 29 9 30 10 31 11
REMARK SMILES IDX 9 12 10 13 8 14 3 15 4 16 5 17 7 18 6 19 2 20 1 21 16 22
REMARK SMILES IDX 17 23 18 25 19 26 20 27 25 28 21 29 23 30 22 31 24 32
REMARK H PARENT 16 24
ROOT
ATOM      1  N   UNL     1      13.230 -50.420 -24.202  1.00  0.00    -0.274 N 
ATOM      2  C   UNL     1      13.299 -51.803 -23.764  1.00  0.00     0.164 C 
ATOM      3  C   UNL     1      11.956 -52.324 -23.338  1.00  0.00    -0.022 A 
ATOM      4  C   UNL     1      11.593 -53.666 -23.534  1.00  0.00     0.032 A 
ATOM      5  C   UNL     1      10.356 -54.140 -23.094  1.00  0.00     0.041 A 
ATOM      6  C   UNL     1       9.484 -53.254 -22.450  1.00  0.00     0.026 A 
ATOM      7  C   UNL     1       9.845 -51.920 -22.239  1.00  0.00     0.007 A 
ATOM      8  C   UNL     1      11.081 -51.450 -22.688  1.00  0.00    -0.033 A 
ATOM      9  C   UNL     1      11.520 -50.036 -22.435  1.00  0.00     0.136 C 
ATOM     10  C   UNL     1      12.567 -49.495 -23.399  1.00  0.00     0.234 C 
ATOM     11  O   UNL     1      12.795 -48.282 -23.407  1.00  0.00    -0.274 OA
ENDROOT
BRANCH   1  12
ATOM     12  C   UNL     1      14.210 -50.026 -25.115  1.00  0.00     0.264 C 
ATOM     13  O   UNL     1      13.948 -49.709 -26.277  1.00  0.00    -0.268 OA
BRANCH  12  14
ATOM     14  C   UNL     1      15.633 -50.010 -24.684  1.00  0.00     0.082 A 
ATOM     15  C   UNL     1      16.541 -51.021 -25.055  1.00  0.00     0.131 A 
ATOM     16  C   UNL     1      17.859 -50.939 -24.592  1.00  0.00     0.047 A 
ATOM     17  C   UNL     1      18.262 -49.883 -23.767  1.00  0.00     0.004 A 
ATOM     18  C   UNL     1      16.037 -48.965 -23.839  1.00  0.00     0.018 A 
ATOM     19  C   UNL     1      17.352 -48.900 -23.386  1.00  0.00     0.001 A 
BRANCH  15  20
ATOM     20  O   UNL     1      16.054 -52.046 -25.825  1.00  0.00    -0.496 OA
ATOM     21  C   UNL     1      16.403 -53.373 -25.450  1.00  0.00     0.278 C 
ENDBRANCH  15  20
ENDBRANCH  12  14
ENDBRANCH   1  12
BRANCH   5  22
ATOM     22  N   UNL     1       9.914 -55.469 -23.263  1.00  0.00    -0.322 N 
ATOM     23  C   UNL     1      10.422 -56.605 -22.657  1.00  0.00     0.255 C 
ATOM     24  H   UNL     1       9.092 -55.583 -23.841  1.00  0.00     0.170 HD
ATOM     25  O   UNL     1      11.299 -56.653 -21.804  1.00  0.00    -0.269 OA
BRANCH  23  26
ATOM     26  C   UNL     1       9.781 -57.882 -23.076  1.00  0.00     0.041 A 
ATOM     27  C   UNL     1       8.430 -57.860 -23.452  1.00  0.00     0.014 A 
ATOM     28  C   UNL     1      10.483 -59.093 -23.070  1.00  0.00     0.034 A 
ATOM     29  C   UNL     1       7.792 -59.036 -23.849  1.00  0.00     0.002 A 
ATOM     30  C   UNL     1       9.835 -60.262 -23.468  1.00  0.00     0.041 A 
ATOM     31  C   UNL     1       8.497 -60.239 -23.861  1.00  0.00     0.020 A 
ATOM     32  Cl  UNL     1      10.697 -61.752 -23.469  1.00  0.00    -0.084 Cl
ENDBRANCH  23  26
ENDBRANCH   5  22
TORSDOF 5
ENDMDL
MODEL 9
REMARK VINA RESULT:   -10.334      4.223     10.685
REMARK INTER + INTRA:         -14.025
REMARK INTER:                 -13.180
REMARK INTRA:                  -0.845
REMARK UNBOUND:                -0.670
REMARK SMILES COc1ccccc1C(=O)N1Cc2cc(NC(=O)c3cccc(Cl)c3)ccc2CC1=O
REMARK SMILES IDX 11 1 12 2 13 3 14 4 15 5 26 6 27 7 28 8 29 9 30 10 31 11
REMARK SMILES IDX 9 12 10 13 8 14 3 15 4 16 5 17 7 18 6 19 2 20 1 21 16 22
REMARK SMILES IDX 17 23 18 25 19 26 20 27 25 28 21 29 23 30 22 31 24 32
REMARK H PARENT 16 24
ROOT
ATOM      1  N   UNL     1      13.019 -50.546 -24.081  1.00  0.00    -0.274 N 
ATOM      2  C   UNL     1      13.141 -51.932 -23.662  1.00  0.00     0.164 C 
ATOM      3  C   UNL     1      11.817 -52.513 -23.253  1.00  0.00    -0.022 A 
ATOM      4  C   UNL     1      11.510 -53.865 -23.470  1.00  0.00     0.032 A 
ATOM      5  C   UNL     1      10.289 -54.394 -23.046  1.00  0.00     0.041 A 
ATOM      6  C   UNL     1       9.378 -53.553 -22.396  1.00  0.00     0.026 A 
ATOM      7  C   UNL     1       9.684 -52.209 -22.164  1.00  0.00     0.007 A 
ATOM      8  C   UNL     1      10.903 -51.684 -22.597  1.00  0.00    -0.033 A 
ATOM      9  C   UNL     1      11.284 -50.257 -22.321  1.00  0.00     0.136 C 
ATOM     10  C   UNL     1      12.314 -49.660 -23.270  1.00  0.00     0.234 C 
ATOM     11  O   UNL     1      12.493 -48.440 -23.259  1.00  0.00    -0.274 OA
ENDROOT
BRANCH   1  12
ATOM     12  C   UNL     1      13.988 -50.100 -24.981  1.00  0.00     0.264 C 
ATOM     13  O   UNL     1      13.716 -49.405 -25.962  1.00  0.00    -0.268 OA
BRANCH  12  14
ATOM     14  C   UNL     1      15.406 -50.499 -24.771  1.00  0.00     0.082 A 
ATOM     15  C   UNL     1      16.300 -49.718 -24.014  1.00  0.00     0.131 A 
ATOM     16  C   UNL     1      17.623 -50.157 -23.880  1.00  0.00     0.047 A 
ATOM     17  C   UNL     1      18.050 -51.337 -24.498  1.00  0.00     0.004 A 
ATOM     18  C   UNL     1      15.845 -51.670 -25.407  1.00  0.00     0.018 A 
ATOM     19  C   UNL     1      17.164 -52.091 -25.264  1.00  0.00     0.001 A 
BRANCH  15  20
ATOM     20  O   UNL     1      15.816 -48.550 -23.483  1.00  0.00    -0.496 OA
ATOM     21  C   UNL     1      15.842 -48.411 -22.068  1.00  0.00     0.278 C 
ENDBRANCH  15  20
ENDBRANCH  12  14
ENDBRANCH   1  12
BRANCH   5  22
ATOM     22  N   UNL     1       9.902 -55.738 -23.237  1.00  0.00    -0.322 N 
ATOM     23  C   UNL     1      10.454 -56.861 -22.647  1.00  0.00     0.255 C 
ATOM     24  H   UNL     1       9.086 -55.876 -23.819  1.00  0.00     0.170 HD
ATOM     25  O   UNL     1      11.331 -56.887 -21.793  1.00  0.00    -0.269 OA
BRANCH  23  26
ATOM     26  C   UNL     1       9.866 -58.156 -23.089  1.00  0.00     0.041 A 
ATOM     27  C   UNL     1       8.528 -58.176 -23.505  1.00  0.00     0.014 A 
ATOM     28  C   UNL     1      10.606 -59.345 -23.064  1.00  0.00     0.034 A 
ATOM     29  C   UNL     1       7.939 -59.370 -23.923  1.00  0.00     0.002 A 
ATOM     30  C   UNL     1      10.007 -60.533 -23.483  1.00  0.00     0.041 A 
ATOM     31  C   UNL     1       8.681 -60.550 -23.916  1.00  0.00     0.020 A 
ATOM     32  Cl  UNL     1      10.916 -61.995 -23.462  1.00  0.00    -0.084 Cl
ENDBRANCH  23  26
ENDBRANCH   5  22
TORSDOF 5
ENDMDL
