MODEL 1
REMARK VINA RESULT:   -11.248      0.000      0.000
REMARK INTER + INTRA:         -16.973
REMARK INTER:                 -15.852
REMARK INTRA:                  -1.122
REMARK UNBOUND:                -1.122
REMARK SMILES O=C(NCCCCN=c1c2c([nH]c3ccccc13)CCCC2)c1ccc(F)cc1
REMARK SMILES IDX 6 1 7 2 8 3 9 4 12 5 11 6 13 7 10 8 19 9 14 10 18 11 22 12
REMARK SMILES IDX 20 13 15 14 17 15 21 16 16 17 5 19 4 20 3 21 2 22 1 24 23 25
REMARK SMILES IDX 24 26 29 27 25 28 28 29 26 30 27 31
REMARK H PARENT 12 18 3 23
ROOT
ATOM      1  C   UNL     1      11.280 -58.137 -23.260  1.00  0.00     0.025 C 
ENDROOT
BRANCH   1   2
ATOM      2  C   UNL     1      11.817 -59.381 -22.553  1.00  0.00     0.143 C 
BRANCH   2   3
ATOM      3  N   UNL     1      12.042 -60.451 -23.501  1.00  0.00    -0.284 NA
BRANCH   3   4
ATOM      4  C   UNL     1      11.197 -61.019 -24.279  1.00  0.00     0.072 A 
ATOM      5  N   UNL     1       9.106 -61.502 -26.131  1.00  0.00    -0.358 N 
ATOM      6  C   UNL     1       9.065 -62.095 -24.885  1.00  0.00     0.021 A 
ATOM      7  C   UNL     1      10.300 -60.955 -26.618  1.00  0.00     0.048 A 
ATOM      8  C   UNL     1      10.033 -61.939 -23.953  1.00  0.00    -0.003 A 
ATOM      9  C   UNL     1       7.853 -62.976 -24.642  1.00  0.00     0.054 C 
ATOM     10  C   UNL     1      10.416 -60.577 -27.961  1.00  0.00     0.027 A 
ATOM     11  C   UNL     1      11.361 -60.700 -25.743  1.00  0.00     0.024 A 
ATOM     12  C   UNL     1      10.025 -62.714 -22.663  1.00  0.00     0.039 C 
ATOM     13  C   UNL     1       7.688 -63.435 -23.198  1.00  0.00     0.007 C 
ATOM     14  C   UNL     1      11.593 -59.993 -28.435  1.00  0.00     0.002 A 
ATOM     15  C   UNL     1      12.540 -60.108 -26.219  1.00  0.00     0.012 A 
ATOM     16  C   UNL     1       9.028 -63.874 -22.631  1.00  0.00     0.005 C 
ATOM     17  C   UNL     1      12.657 -59.762 -27.566  1.00  0.00     0.001 A 
ATOM     18  H   UNL     1       8.462 -61.861 -26.827  1.00  0.00     0.166 HD
ENDBRANCH   3   4
ENDBRANCH   2   3
ENDBRANCH   1   2
BRANCH   1  19
ATOM     19  C   UNL     1       9.793 -57.898 -22.964  1.00  0.00     0.023 C 
BRANCH  19  20
ATOM     20  C   UNL     1       9.456 -56.414 -22.823  1.00  0.00     0.116 C 
BRANCH  20  21
ATOM     21  N   UNL     1      10.359 -55.556 -23.565  1.00  0.00    -0.352 N 
ATOM     22  C   UNL     1      10.964 -54.466 -22.975  1.00  0.00     0.251 C 
ATOM     23  H   UNL     1      10.340 -55.626 -24.573  1.00  0.00     0.163 HD
ATOM     24  O   UNL     1      10.834 -54.170 -21.793  1.00  0.00    -0.269 OA
BRANCH  22  25
ATOM     25  C   UNL     1      11.782 -53.602 -23.871  1.00  0.00     0.040 A 
ATOM     26  C   UNL     1      12.278 -54.157 -25.060  1.00  0.00     0.017 A 
ATOM     27  C   UNL     1      12.040 -52.255 -23.571  1.00  0.00     0.017 A 
ATOM     28  C   UNL     1      13.048 -53.382 -25.929  1.00  0.00     0.040 A 
ATOM     29  C   UNL     1      12.810 -51.483 -24.445  1.00  0.00     0.040 A 
ATOM     30  C   UNL     1      13.309 -52.054 -25.611  1.00  0.00     0.123 A 
ATOM     31  F   UNL     1      14.045 -51.307 -26.445  1.00  0.00    -0.207 F 
ENDBRANCH  22  25
ENDBRANCH  20  21
ENDBRANCH  19  20
ENDBRANCH   1  19
TORSDOF 7
ENDMDL
MODEL 2
REMARK VINA RESULT:   -11.170      1.505      1.846
REMARK INTER + INTRA:         -16.862
REMARK INTER:                 -15.974
REMARK INTRA:                  -0.888
REMARK UNBOUND:                -1.122
REMARK SMILES O=C(NCCCCN=c1c2c([nH]c3ccccc13)CCCC2)c1ccc(F)cc1
REMARK SMILES IDX 6 1 7 2 8 3 9 4 12 5 11 6 13 7 10 8 19 9 14 10 18 11 22 12
REMARK SMILES IDX 20 13 15 14 17 15 21 16 16 17 5 19 4 20 3 21 2 22 1 24 23 25
REMARK SMILES IDX 24 26 29 27 25 28 28 29 26 30 27 31
REMARK H PARENT 12 18 3 23
ROOT
ATOM      1  C   UNL     1      11.380 -58.498 -21.371  1.00  0.00     0.025 C 
ENDROOT
BRANCH   1   2
ATOM      2  C   UNL     1      10.626 -59.790 -21.685  1.00  0.00     0.143 C 
BRANCH   2   3
ATOM      3  N   UNL     1      11.196 -60.446 -22.841  1.00  0.00    -0.284 NA
BRANCH   3   4
ATOM      4  C   UNL     1      10.590 -61.044 -23.800  1.00  0.00     0.072 A 
ATOM      5  N   UNL     1       8.977 -61.613 -26.060  1.00  0.00    -0.358 N 
ATOM      6  C   UNL     1       8.751 -62.283 -24.875  1.00  0.00     0.021 A 
ATOM      7  C   UNL     1      10.178 -60.923 -26.268  1.00  0.00     0.048 A 
ATOM      8  C   UNL     1       9.491 -62.092 -23.758  1.00  0.00    -0.003 A 
ATOM      9  C   UNL     1       7.618 -63.292 -24.922  1.00  0.00     0.054 C 
ATOM     10  C   UNL     1      10.519 -60.453 -27.542  1.00  0.00     0.027 A 
ATOM     11  C   UNL     1      11.009 -60.621 -25.184  1.00  0.00     0.024 A 
ATOM     12  C   UNL     1       9.308 -62.943 -22.530  1.00  0.00     0.039 C 
ATOM     13  C   UNL     1       7.218 -63.853 -23.563  1.00  0.00     0.007 C 
ATOM     14  C   UNL     1      11.697 -59.729 -27.740  1.00  0.00     0.002 A 
ATOM     15  C   UNL     1      12.188 -59.888 -25.383  1.00  0.00     0.012 A 
ATOM     16  C   UNL     1       8.456 -64.194 -22.751  1.00  0.00     0.005 C 
ATOM     17  C   UNL     1      12.534 -59.450 -26.661  1.00  0.00     0.001 A 
ATOM     18  H   UNL     1       8.528 -61.989 -26.888  1.00  0.00     0.166 HD
ENDBRANCH   3   4
ENDBRANCH   2   3
ENDBRANCH   1   2
BRANCH   1  19
ATOM     19  C   UNL     1      11.486 -57.576 -22.593  1.00  0.00     0.023 C 
BRANCH  19  20
ATOM     20  C   UNL     1      10.245 -56.703 -22.777  1.00  0.00     0.116 C 
BRANCH  20  21
ATOM     21  N   UNL     1      10.506 -55.296 -22.542  1.00  0.00    -0.352 N 
ATOM     22  C   UNL     1      11.027 -54.486 -23.530  1.00  0.00     0.251 C 
ATOM     23  H   UNL     1      10.533 -54.984 -21.582  1.00  0.00     0.163 HD
ATOM     24  O   UNL     1      11.257 -54.866 -24.672  1.00  0.00    -0.269 OA
BRANCH  22  25
ATOM     25  C   UNL     1      11.352 -53.088 -23.133  1.00  0.00     0.040 A 
ATOM     26  C   UNL     1      12.275 -52.373 -23.910  1.00  0.00     0.017 A 
ATOM     27  C   UNL     1      10.742 -52.469 -22.031  1.00  0.00     0.017 A 
ATOM     28  C   UNL     1      12.607 -51.059 -23.573  1.00  0.00     0.040 A 
ATOM     29  C   UNL     1      11.077 -51.153 -21.699  1.00  0.00     0.040 A 
ATOM     30  C   UNL     1      12.007 -50.464 -22.470  1.00  0.00     0.123 A 
ATOM     31  F   UNL     1      12.323 -49.202 -22.147  1.00  0.00    -0.207 F 
ENDBRANCH  22  25
ENDBRANCH  20  21
ENDBRANCH  19  20
ENDBRANCH   1  19
TORSDOF 7
ENDMDL
MODEL 3
REMARK VINA RESULT:   -10.456      3.425      6.329
REMARK INTER + INTRA:         -15.856
REMARK INTER:                 -13.324
REMARK INTRA:                  -2.532
REMARK UNBOUND:                -1.122
REMARK SMILES O=C(NCCCCN=c1c2c([nH]c3ccccc13)CCCC2)c1ccc(F)cc1
REMARK SMILES IDX 6 1 7 2 8 3 9 4 12 5 11 6 13 7 10 8 19 9 14 10 18 11 22 12
REMARK SMILES IDX 20 13 15 14 17 15 21 16 16 17 5 19 4 20 3 21 2 22 1 24 23 25
REMARK SMILES IDX 24 26 29 27 25 28 28 29 26 30 27 31
REMARK H PARENT 12 18 3 23
ROOT
ATOM      1  C   UNL     1      11.893 -59.453 -26.813  1.00  0.00     0.025 C 
ENDROOT
BRANCH   1   2
ATOM      2  C   UNL     1      13.123 -60.035 -26.117  1.00  0.00     0.143 C 
BRANCH   2   3
ATOM      3  N   UNL     1      13.103 -59.731 -24.703  1.00  0.00    -0.284 NA
BRANCH   3   4
ATOM      4  C   UNL     1      12.090 -59.537 -23.942  1.00  0.00     0.072 A 
ATOM      5  N   UNL     1      10.416 -58.760 -21.790  1.00  0.00    -0.358 N 
ATOM      6  C   UNL     1      10.471 -60.086 -22.167  1.00  0.00     0.021 A 
ATOM      7  C   UNL     1      10.894 -57.758 -22.645  1.00  0.00     0.048 A 
ATOM      8  C   UNL     1      11.222 -60.538 -23.198  1.00  0.00    -0.003 A 
ATOM      9  C   UNL     1       9.589 -61.014 -21.351  1.00  0.00     0.054 C 
ATOM     10  C   UNL     1      10.622 -56.410 -22.386  1.00  0.00     0.027 A 
ATOM     11  C   UNL     1      11.721 -58.093 -23.722  1.00  0.00     0.024 A 
ATOM     12  C   UNL     1      11.145 -61.965 -23.670  1.00  0.00     0.039 C 
ATOM     13  C   UNL     1       9.827 -62.498 -21.610  1.00  0.00     0.007 C 
ATOM     14  C   UNL     1      11.133 -55.409 -23.216  1.00  0.00     0.002 A 
ATOM     15  C   UNL     1      12.239 -57.088 -24.552  1.00  0.00     0.012 A 
ATOM     16  C   UNL     1       9.965 -62.755 -23.101  1.00  0.00     0.005 C 
ATOM     17  C   UNL     1      11.938 -55.748 -24.302  1.00  0.00     0.001 A 
ATOM     18  H   UNL     1       9.661 -58.494 -21.168  1.00  0.00     0.166 HD
ENDBRANCH   3   4
ENDBRANCH   2   3
ENDBRANCH   1   2
BRANCH   1  19
ATOM     19  C   UNL     1      11.411 -60.334 -27.973  1.00  0.00     0.023 C 
BRANCH  19  20
ATOM     20  C   UNL     1      10.026 -60.929 -27.720  1.00  0.00     0.116 C 
BRANCH  20  21
ATOM     21  N   UNL     1       9.337 -60.302 -26.609  1.00  0.00    -0.352 N 
ATOM     22  C   UNL     1       8.510 -61.026 -25.774  1.00  0.00     0.251 C 
ATOM     23  H   UNL     1       9.277 -59.294 -26.610  1.00  0.00     0.163 HD
ATOM     24  O   UNL     1       8.336 -62.235 -25.868  1.00  0.00    -0.269 OA
BRANCH  22  25
ATOM     25  C   UNL     1       7.775 -60.248 -24.739  1.00  0.00     0.040 A 
ATOM     26  C   UNL     1       6.899 -60.936 -23.886  1.00  0.00     0.017 A 
ATOM     27  C   UNL     1       7.958 -58.866 -24.580  1.00  0.00     0.017 A 
ATOM     28  C   UNL     1       6.190 -60.245 -22.902  1.00  0.00     0.040 A 
ATOM     29  C   UNL     1       7.248 -58.179 -23.591  1.00  0.00     0.040 A 
ATOM     30  C   UNL     1       6.370 -58.874 -22.766  1.00  0.00     0.123 A 
ATOM     31  F   UNL     1       5.693 -58.210 -21.819  1.00  0.00    -0.207 F 
ENDBRANCH  22  25
ENDBRANCH  20  21
ENDBRANCH  19  20
ENDBRANCH   1  19
TORSDOF 7
ENDMDL
MODEL 4
REMARK VINA RESULT:   -10.244      3.669     10.042
REMARK INTER + INTRA:         -15.558
REMARK INTER:                 -14.835
REMARK INTRA:                  -0.723
REMARK UNBOUND:                -1.122
REMARK SMILES O=C(NCCCCN=c1c2c([nH]c3ccccc13)CCCC2)c1ccc(F)cc1
REMARK SMILES IDX 6 1 7 2 8 3 9 4 12 5 11 6 13 7 10 8 19 9 14 10 18 11 22 12
REMARK SMILES IDX 20 13 15 14 17 15 21 16 16 17 5 19 4 20 3 21 2 22 1 24 23 25
REMARK SMILES IDX 24 26 29 27 25 28 28 29 26 30 27 31
REMARK H PARENT 12 18 3 23
ROOT
ATOM      1  C   UNL     1       9.819 -54.204 -21.818  1.00  0.00     0.025 C 
ENDROOT
BRANCH   1   2
ATOM      2  C   UNL     1      10.812 -53.050 -21.681  1.00  0.00     0.143 C 
BRANCH   2   3
ATOM      3  N   UNL     1      10.751 -52.182 -22.837  1.00  0.00    -0.284 NA
BRANCH   3   4
ATOM      4  C   UNL     1      11.639 -51.366 -23.270  1.00  0.00     0.072 A 
ATOM      5  N   UNL     1      14.092 -50.044 -23.792  1.00  0.00    -0.358 N 
ATOM      6  C   UNL     1      13.042 -49.340 -23.237  1.00  0.00     0.021 A 
ATOM      7  C   UNL     1      13.871 -51.282 -24.407  1.00  0.00     0.048 A 
ATOM      8  C   UNL     1      11.831 -49.887 -22.982  1.00  0.00    -0.003 A 
ATOM      9  C   UNL     1      13.335 -47.876 -22.961  1.00  0.00     0.054 C 
ATOM     10  C   UNL     1      14.871 -51.883 -25.181  1.00  0.00     0.027 A 
ATOM     11  C   UNL     1      12.674 -51.972 -24.182  1.00  0.00     0.024 A 
ATOM     12  C   UNL     1      10.668 -49.055 -22.512  1.00  0.00     0.039 C 
ATOM     13  C   UNL     1      12.266 -47.165 -22.139  1.00  0.00     0.007 C 
ATOM     14  C   UNL     1      14.663 -53.137 -25.760  1.00  0.00     0.002 A 
ATOM     15  C   UNL     1      12.470 -53.234 -24.759  1.00  0.00     0.012 A 
ATOM     16  C   UNL     1      10.882 -47.545 -22.636  1.00  0.00     0.005 C 
ATOM     17  C   UNL     1      13.462 -53.811 -25.553  1.00  0.00     0.001 A 
ATOM     18  H   UNL     1      14.866 -49.497 -24.153  1.00  0.00     0.166 HD
ENDBRANCH   3   4
ENDBRANCH   2   3
ENDBRANCH   1   2
BRANCH   1  19
ATOM     19  C   UNL     1      10.205 -55.170 -22.946  1.00  0.00     0.023 C 
BRANCH  19  20
ATOM     20  C   UNL     1      11.300 -56.151 -22.527  1.00  0.00     0.116 C 
BRANCH  20  21
ATOM     21  N   UNL     1      10.924 -57.537 -22.732  1.00  0.00    -0.352 N 
ATOM     22  C   UNL     1      11.118 -58.487 -21.751  1.00  0.00     0.251 C 
ATOM     23  H   UNL     1      10.754 -57.835 -23.682  1.00  0.00     0.163 HD
ATOM     24  O   UNL     1      11.562 -58.237 -20.637  1.00  0.00    -0.269 OA
BRANCH  22  25
ATOM     25  C   UNL     1      10.794 -59.892 -22.122  1.00  0.00     0.040 A 
ATOM     26  C   UNL     1       9.866 -60.592 -21.336  1.00  0.00     0.017 A 
ATOM     27  C   UNL     1      11.365 -60.515 -23.243  1.00  0.00     0.017 A 
ATOM     28  C   UNL     1       9.534 -61.911 -21.650  1.00  0.00     0.040 A 
ATOM     29  C   UNL     1      11.027 -61.835 -23.554  1.00  0.00     0.040 A 
ATOM     30  C   UNL     1      10.119 -62.520 -22.753  1.00  0.00     0.123 A 
ATOM     31  F   UNL     1       9.799 -63.785 -23.057  1.00  0.00    -0.207 F 
ENDBRANCH  22  25
ENDBRANCH  20  21
ENDBRANCH  19  20
ENDBRANCH   1  19
TORSDOF 7
ENDMDL
MODEL 5
REMARK VINA RESULT:   -10.086      4.124     10.837
REMARK INTER + INTRA:         -15.336
REMARK INTER:                 -14.658
REMARK INTRA:                  -0.677
REMARK UNBOUND:                -1.122
REMARK SMILES O=C(NCCCCN=c1c2c([nH]c3ccccc13)CCCC2)c1ccc(F)cc1
REMARK SMILES IDX 6 1 7 2 8 3 9 4 12 5 11 6 13 7 10 8 19 9 14 10 18 11 22 12
REMARK SMILES IDX 20 13 15 14 17 15 21 16 16 17 5 19 4 20 3 21 2 22 1 24 23 25
REMARK SMILES IDX 24 26 29 27 25 28 28 29 26 30 27 31
REMARK H PARENT 12 18 3 23
ROOT
ATOM      1  C   UNL     1      10.613 -52.418 -21.796  1.00  0.00     0.025 C 
ENDROOT
BRANCH   1   2
ATOM      2  C   UNL     1      10.367 -50.930 -22.043  1.00  0.00     0.143 C 
BRANCH   2   3
ATOM      3  N   UNL     1      11.619 -50.226 -22.218  1.00  0.00    -0.284 NA
BRANCH   3   4
ATOM      4  C   UNL     1      11.948 -49.400 -23.141  1.00  0.00     0.072 A 
ATOM      5  N   UNL     1      13.425 -47.795 -24.951  1.00  0.00    -0.358 N 
ATOM      6  C   UNL     1      12.521 -47.201 -24.094  1.00  0.00     0.021 A 
ATOM      7  C   UNL     1      13.384 -49.175 -25.182  1.00  0.00     0.048 A 
ATOM      8  C   UNL     1      11.757 -47.895 -23.219  1.00  0.00    -0.003 A 
ATOM      9  C   UNL     1      12.416 -45.692 -24.228  1.00  0.00     0.054 C 
ATOM     10  C   UNL     1      14.125 -49.747 -26.223  1.00  0.00     0.027 A 
ATOM     11  C   UNL     1      12.665 -50.009 -24.317  1.00  0.00     0.024 A 
ATOM     12  C   UNL     1      10.680 -47.230 -22.404  1.00  0.00     0.039 C 
ATOM     13  C   UNL     1      11.600 -45.018 -23.130  1.00  0.00     0.007 C 
ATOM     14  C   UNL     1      14.114 -51.129 -26.427  1.00  0.00     0.002 A 
ATOM     15  C   UNL     1      12.662 -51.397 -24.519  1.00  0.00     0.012 A 
ATOM     16  C   UNL     1      10.333 -45.810 -22.857  1.00  0.00     0.005 C 
ATOM     17  C   UNL     1      13.380 -51.953 -25.578  1.00  0.00     0.001 A 
ATOM     18  H   UNL     1      13.771 -47.223 -25.714  1.00  0.00     0.166 HD
ENDBRANCH   3   4
ENDBRANCH   2   3
ENDBRANCH   1   2
BRANCH   1  19
ATOM     19  C   UNL     1       9.651 -53.306 -22.597  1.00  0.00     0.023 C 
BRANCH  19  20
ATOM     20  C   UNL     1      10.381 -54.231 -23.570  1.00  0.00     0.116 C 
BRANCH  20  21
ATOM     21  N   UNL     1      10.043 -55.628 -23.382  1.00  0.00    -0.352 N 
ATOM     22  C   UNL     1      10.614 -56.378 -22.375  1.00  0.00     0.251 C 
ATOM     23  H   UNL     1       9.579 -56.099 -24.146  1.00  0.00     0.163 HD
ATOM     24  O   UNL     1      11.393 -55.924 -21.546  1.00  0.00    -0.269 OA
BRANCH  22  25
ATOM     25  C   UNL     1      10.268 -57.826 -22.355  1.00  0.00     0.040 A 
ATOM     26  C   UNL     1       9.203 -58.267 -23.154  1.00  0.00     0.017 A 
ATOM     27  C   UNL     1      10.993 -58.752 -21.589  1.00  0.00     0.017 A 
ATOM     28  C   UNL     1       8.846 -59.617 -23.166  1.00  0.00     0.040 A 
ATOM     29  C   UNL     1      10.633 -60.102 -21.605  1.00  0.00     0.040 A 
ATOM     30  C   UNL     1       9.562 -60.520 -22.389  1.00  0.00     0.123 A 
ATOM     31  F   UNL     1       9.223 -61.816 -22.401  1.00  0.00    -0.207 F 
ENDBRANCH  22  25
ENDBRANCH  20  21
ENDBRANCH  19  20
ENDBRANCH   1  19
TORSDOF 7
ENDMDL
MODEL 6
REMARK VINA RESULT:    -9.401      4.114     10.852
REMARK INTER + INTRA:         -14.370
REMARK INTER:                 -13.527
REMARK INTRA:                  -0.843
REMARK UNBOUND:                -1.122
REMARK SMILES O=C(NCCCCN=c1c2c([nH]c3ccccc13)CCCC2)c1ccc(F)cc1
REMARK SMILES IDX 6 1 7 2 8 3 9 4 12 5 11 6 13 7 10 8 19 9 14 10 18 11 22 12
REMARK SMILES IDX 20 13 15 14 17 15 21 16 16 17 5 19 4 20 3 21 2 22 1 24 23 25
REMARK SMILES IDX 24 26 29 27 25 28 28 29 26 30 27 31
REMARK H PARENT 12 18 3 23
ROOT
ATOM      1  C   UNL     1      10.298 -52.246 -21.926  1.00  0.00     0.025 C 
ENDROOT
BRANCH   1   2
ATOM      2  C   UNL     1       9.944 -50.826 -22.366  1.00  0.00     0.143 C 
BRANCH   2   3
ATOM      3  N   UNL     1      11.052 -49.926 -22.129  1.00  0.00    -0.284 NA
BRANCH   3   4
ATOM      4  C   UNL     1      11.838 -49.386 -22.985  1.00  0.00     0.072 A 
ATOM      5  N   UNL     1      12.875 -48.059 -25.265  1.00  0.00    -0.358 N 
ATOM      6  C   UNL     1      13.329 -49.323 -24.946  1.00  0.00     0.021 A 
ATOM      7  C   UNL     1      12.182 -47.293 -24.320  1.00  0.00     0.048 A 
ATOM      8  C   UNL     1      12.908 -50.014 -23.861  1.00  0.00    -0.003 A 
ATOM      9  C   UNL     1      14.378 -49.878 -25.892  1.00  0.00     0.054 C 
ATOM     10  C   UNL     1      11.935 -45.934 -24.546  1.00  0.00     0.027 A 
ATOM     11  C   UNL     1      11.654 -47.903 -23.177  1.00  0.00     0.024 A 
ATOM     12  C   UNL     1      13.531 -51.326 -23.466  1.00  0.00     0.039 C 
ATOM     13  C   UNL     1      14.703 -51.352 -25.677  1.00  0.00     0.007 C 
ATOM     14  C   UNL     1      11.207 -45.181 -23.621  1.00  0.00     0.002 A 
ATOM     15  C   UNL     1      10.918 -47.147 -22.252  1.00  0.00     0.012 A 
ATOM     16  C   UNL     1      14.837 -51.648 -24.193  1.00  0.00     0.005 C 
ATOM     17  C   UNL     1      10.703 -45.786 -22.472  1.00  0.00     0.001 A 
ATOM     18  H   UNL     1      13.413 -47.542 -25.952  1.00  0.00     0.166 HD
ENDBRANCH   3   4
ENDBRANCH   2   3
ENDBRANCH   1   2
BRANCH   1  19
ATOM     19  C   UNL     1       9.555 -53.309 -22.746  1.00  0.00     0.023 C 
BRANCH  19  20
ATOM     20  C   UNL     1      10.507 -54.234 -23.505  1.00  0.00     0.116 C 
BRANCH  20  21
ATOM     21  N   UNL     1      10.171 -55.636 -23.355  1.00  0.00    -0.352 N 
ATOM     22  C   UNL     1      10.669 -56.388 -22.312  1.00  0.00     0.251 C 
ATOM     23  H   UNL     1       9.774 -56.105 -24.157  1.00  0.00     0.163 HD
ATOM     24  O   UNL     1      11.376 -55.934 -21.420  1.00  0.00    -0.269 OA
BRANCH  22  25
ATOM     25  C   UNL     1      10.340 -57.840 -22.330  1.00  0.00     0.040 A 
ATOM     26  C   UNL     1       9.340 -58.285 -23.209  1.00  0.00     0.017 A 
ATOM     27  C   UNL     1      11.018 -58.766 -21.522  1.00  0.00     0.017 A 
ATOM     28  C   UNL     1       9.001 -59.638 -23.259  1.00  0.00     0.040 A 
ATOM     29  C   UNL     1      10.676 -60.120 -21.577  1.00  0.00     0.040 A 
ATOM     30  C   UNL     1       9.669 -60.541 -22.441  1.00  0.00     0.123 A 
ATOM     31  F   UNL     1       9.346 -61.841 -22.490  1.00  0.00    -0.207 F 
ENDBRANCH  22  25
ENDBRANCH  20  21
ENDBRANCH  19  20
ENDBRANCH   1  19
TORSDOF 7
ENDMDL
MODEL 7
REMARK VINA RESULT:    -9.315      1.913      4.304
REMARK INTER + INTRA:         -14.248
REMARK INTER:                 -13.685
REMARK INTRA:                  -0.563
REMARK UNBOUND:                -1.122
REMARK SMILES O=C(NCCCCN=c1c2c([nH]c3ccccc13)CCCC2)c1ccc(F)cc1
REMARK SMILES IDX 6 1 7 2 8 3 9 4 12 5 11 6 13 7 10 8 19 9 14 10 18 11 22 12
REMARK SMILES IDX 20 13 15 14 17 15 21 16 16 17 5 19 4 20 3 21 2 22 1 24 23 25
REMARK SMILES IDX 24 26 29 27 25 28 28 29 26 30 27 31
REMARK H PARENT 12 18 3 23
ROOT
ATOM      1  C   UNL     1       9.208 -57.907 -23.037  1.00  0.00     0.025 C 
ENDROOT
BRANCH   1   2
ATOM      2  C   UNL     1       7.976 -58.300 -23.852  1.00  0.00     0.143 C 
BRANCH   2   3
ATOM      3  N   UNL     1       8.263 -59.439 -24.697  1.00  0.00    -0.284 NA
BRANCH   3   4
ATOM      4  C   UNL     1       9.180 -60.324 -24.560  1.00  0.00     0.072 A 
ATOM      5  N   UNL     1      11.067 -62.135 -23.468  1.00  0.00    -0.358 N 
ATOM      6  C   UNL     1      11.489 -61.157 -24.345  1.00  0.00     0.021 A 
ATOM      7  C   UNL     1       9.709 -62.465 -23.371  1.00  0.00     0.048 A 
ATOM      8  C   UNL     1      10.652 -60.270 -24.932  1.00  0.00    -0.003 A 
ATOM      9  C   UNL     1      12.979 -61.167 -24.638  1.00  0.00     0.054 C 
ATOM     10  C   UNL     1       9.301 -63.610 -22.677  1.00  0.00     0.027 A 
ATOM     11  C   UNL     1       8.741 -61.603 -23.897  1.00  0.00     0.024 A 
ATOM     12  C   UNL     1      11.126 -59.313 -25.992  1.00  0.00     0.039 C 
ATOM     13  C   UNL     1      13.476 -59.952 -25.413  1.00  0.00     0.007 C 
ATOM     14  C   UNL     1       7.944 -63.915 -22.546  1.00  0.00     0.002 A 
ATOM     15  C   UNL     1       7.378 -61.907 -23.760  1.00  0.00     0.012 A 
ATOM     16  C   UNL     1      12.518 -59.624 -26.545  1.00  0.00     0.005 C 
ATOM     17  C   UNL     1       6.983 -63.066 -23.091  1.00  0.00     0.001 A 
ATOM     18  H   UNL     1      11.724 -62.882 -23.269  1.00  0.00     0.166 HD
ENDBRANCH   3   4
ENDBRANCH   2   3
ENDBRANCH   1   2
BRANCH   1  19
ATOM     19  C   UNL     1       9.529 -56.412 -23.155  1.00  0.00     0.023 C 
BRANCH  19  20
ATOM     20  C   UNL     1      10.878 -56.052 -22.533  1.00  0.00     0.116 C 
BRANCH  20  21
ATOM     21  N   UNL     1      11.211 -54.648 -22.678  1.00  0.00    -0.352 N 
ATOM     22  C   UNL     1      10.487 -53.667 -22.032  1.00  0.00     0.251 C 
ATOM     23  H   UNL     1      11.814 -54.392 -23.446  1.00  0.00     0.163 HD
ATOM     24  O   UNL     1       9.562 -53.897 -21.262  1.00  0.00    -0.269 OA
BRANCH  22  25
ATOM     25  C   UNL     1      10.858 -52.260 -22.348  1.00  0.00     0.040 A 
ATOM     26  C   UNL     1      12.056 -52.027 -23.040  1.00  0.00     0.017 A 
ATOM     27  C   UNL     1      10.033 -51.179 -22.001  1.00  0.00     0.017 A 
ATOM     28  C   UNL     1      12.441 -50.723 -23.357  1.00  0.00     0.040 A 
ATOM     29  C   UNL     1      10.422 -49.876 -22.322  1.00  0.00     0.040 A 
ATOM     30  C   UNL     1      11.622 -49.660 -22.992  1.00  0.00     0.123 A 
ATOM     31  F   UNL     1      11.989 -48.409 -23.298  1.00  0.00    -0.207 F 
ENDBRANCH  22  25
ENDBRANCH  20  21
ENDBRANCH  19  20
ENDBRANCH   1  19
TORSDOF 7
ENDMDL
MODEL 8
REMARK VINA RESULT:    -8.980      7.090     10.508
REMARK INTER + INTRA:         -13.776
REMARK INTER:                 -10.882
REMARK INTRA:                  -2.895
REMARK UNBOUND:                -1.122
REMARK SMILES O=C(NCCCCN=c1c2c([nH]c3ccccc13)CCCC2)c1ccc(F)cc1
REMARK SMILES IDX 6 1 7 2 8 3 9 4 12 5 11 6 13 7 10 8 19 9 14 10 18 11 22 12
REMARK SMILES IDX 20 13 15 14 17 15 21 16 16 17 5 19 4 20 3 21 2 22 1 24 23 25
REMARK SMILES IDX 24 26 29 27 25 28 28 29 26 30 27 31
REMARK H PARENT 12 18 3 23
ROOT
ATOM      1  C   UNL     1      13.071 -46.575 -21.273  1.00  0.00     0.025 C 
ENDROOT
BRANCH   1   2
ATOM      2  C   UNL     1      12.189 -47.497 -22.115  1.00  0.00     0.143 C 
BRANCH   2   3
ATOM      3  N   UNL     1      12.772 -48.818 -22.207  1.00  0.00    -0.284 NA
BRANCH   3   4
ATOM      4  C   UNL     1      12.774 -49.621 -23.205  1.00  0.00     0.072 A 
ATOM      5  N   UNL     1      13.186 -51.866 -24.886  1.00  0.00    -0.358 N 
ATOM      6  C   UNL     1      13.633 -50.624 -25.286  1.00  0.00     0.021 A 
ATOM      7  C   UNL     1      12.251 -51.986 -23.850  1.00  0.00     0.048 A 
ATOM      8  C   UNL     1      13.453 -49.497 -24.558  1.00  0.00    -0.003 A 
ATOM      9  C   UNL     1      14.320 -50.602 -26.639  1.00  0.00     0.054 C 
ATOM     10  C   UNL     1      11.611 -53.206 -23.603  1.00  0.00     0.027 A 
ATOM     11  C   UNL     1      12.011 -50.904 -22.996  1.00  0.00     0.024 A 
ATOM     12  C   UNL     1      13.826 -48.140 -25.092  1.00  0.00     0.039 C 
ATOM     13  C   UNL     1      15.017 -49.287 -26.971  1.00  0.00     0.007 C 
ATOM     14  C   UNL     1      10.710 -53.334 -22.544  1.00  0.00     0.002 A 
ATOM     15  C   UNL     1      11.111 -51.036 -21.928  1.00  0.00     0.012 A 
ATOM     16  C   UNL     1      14.130 -48.114 -26.591  1.00  0.00     0.005 C 
ATOM     17  C   UNL     1      10.456 -52.248 -21.709  1.00  0.00     0.001 A 
ATOM     18  H   UNL     1      13.163 -52.592 -25.595  1.00  0.00     0.166 HD
ENDBRANCH   3   4
ENDBRANCH   2   3
ENDBRANCH   1   2
BRANCH   1  19
ATOM     19  C   UNL     1      13.929 -47.352 -20.266  1.00  0.00     0.023 C 
BRANCH  19  20
ATOM     20  C   UNL     1      15.405 -47.393 -20.664  1.00  0.00     0.116 C 
BRANCH  20  21
ATOM     21  N   UNL     1      15.756 -48.586 -21.410  1.00  0.00    -0.352 N 
ATOM     22  C   UNL     1      16.650 -48.542 -22.459  1.00  0.00     0.251 C 
ATOM     23  H   UNL     1      15.152 -49.389 -21.310  1.00  0.00     0.163 HD
ATOM     24  O   UNL     1      17.246 -47.528 -22.804  1.00  0.00    -0.269 OA
BRANCH  22  25
ATOM     25  C   UNL     1      16.843 -49.810 -23.214  1.00  0.00     0.040 A 
ATOM     26  C   UNL     1      17.555 -49.764 -24.422  1.00  0.00     0.017 A 
ATOM     27  C   UNL     1      16.362 -51.039 -22.737  1.00  0.00     0.017 A 
ATOM     28  C   UNL     1      17.760 -50.930 -25.162  1.00  0.00     0.040 A 
ATOM     29  C   UNL     1      16.571 -52.205 -23.480  1.00  0.00     0.040 A 
ATOM     30  C   UNL     1      17.263 -52.138 -24.685  1.00  0.00     0.123 A 
ATOM     31  F   UNL     1      17.461 -53.259 -25.392  1.00  0.00    -0.207 F 
ENDBRANCH  22  25
ENDBRANCH  20  21
ENDBRANCH  19  20
ENDBRANCH   1  19
TORSDOF 7
ENDMDL
MODEL 9
REMARK VINA RESULT:    -8.929      6.311      9.574
REMARK INTER + INTRA:         -13.704
REMARK INTER:                 -11.231
REMARK INTRA:                  -2.472
REMARK UNBOUND:                -1.122
REMARK SMILES O=C(NCCCCN=c1c2c([nH]c3ccccc13)CCCC2)c1ccc(F)cc1
REMARK SMILES IDX 6 1 7 2 8 3 9 4 12 5 11 6 13 7 10 8 19 9 14 10 18 11 22 12
REMARK SMILES IDX 20 13 15 14 17 15 21 16 16 17 5 19 4 20 3 21 2 22 1 24 23 25
REMARK SMILES IDX 24 26 29 27 25 28 28 29 26 30 27 31
REMARK H PARENT 12 18 3 23
ROOT
ATOM      1  C   UNL     1      16.173 -51.519 -25.294  1.00  0.00     0.025 C 
ENDROOT
BRANCH   1   2
ATOM      2  C   UNL     1      15.103 -52.611 -25.291  1.00  0.00     0.143 C 
BRANCH   2   3
ATOM      3  N   UNL     1      13.785 -52.037 -25.457  1.00  0.00    -0.284 NA
BRANCH   3   4
ATOM      4  C   UNL     1      12.911 -51.770 -24.558  1.00  0.00     0.072 A 
ATOM      5  N   UNL     1      11.637 -50.906 -22.178  1.00  0.00    -0.358 N 
ATOM      6  C   UNL     1      11.501 -52.217 -22.588  1.00  0.00     0.021 A 
ATOM      7  C   UNL     1      12.095 -49.928 -23.069  1.00  0.00     0.048 A 
ATOM      8  C   UNL     1      12.053 -52.704 -23.723  1.00  0.00    -0.003 A 
ATOM      9  C   UNL     1      10.645 -53.080 -21.678  1.00  0.00     0.054 C 
ATOM     10  C   UNL     1      12.004 -48.569 -22.745  1.00  0.00     0.027 A 
ATOM     11  C   UNL     1      12.728 -50.305 -24.258  1.00  0.00     0.024 A 
ATOM     12  C   UNL     1      11.764 -54.098 -24.211  1.00  0.00     0.039 C 
ATOM     13  C   UNL     1      10.690 -54.570 -22.000  1.00  0.00     0.007 C 
ATOM     14  C   UNL     1      12.499 -47.596 -23.616  1.00  0.00     0.002 A 
ATOM     15  C   UNL     1      13.231 -49.327 -25.129  1.00  0.00     0.012 A 
ATOM     16  C   UNL     1      10.596 -54.785 -23.501  1.00  0.00     0.005 C 
ATOM     17  C   UNL     1      13.109 -47.974 -24.811  1.00  0.00     0.001 A 
ATOM     18  H   UNL     1      11.005 -50.589 -21.451  1.00  0.00     0.166 HD
ENDBRANCH   3   4
ENDBRANCH   2   3
ENDBRANCH   1   2
BRANCH   1  19
ATOM     19  C   UNL     1      17.067 -51.580 -24.048  1.00  0.00     0.023 C 
BRANCH  19  20
ATOM     20  C   UNL     1      16.283 -51.361 -22.754  1.00  0.00     0.116 C 
BRANCH  20  21
ATOM     21  N   UNL     1      15.780 -50.008 -22.621  1.00  0.00    -0.352 N 
ATOM     22  C   UNL     1      16.417 -49.079 -21.825  1.00  0.00     0.251 C 
ATOM     23  H   UNL     1      14.830 -49.836 -22.918  1.00  0.00     0.163 HD
ATOM     24  O   UNL     1      17.461 -49.298 -21.224  1.00  0.00    -0.269 OA
BRANCH  22  25
ATOM     25  C   UNL     1      15.742 -47.759 -21.684  1.00  0.00     0.040 A 
ATOM     26  C   UNL     1      15.989 -46.778 -22.657  1.00  0.00     0.017 A 
ATOM     27  C   UNL     1      14.853 -47.488 -20.632  1.00  0.00     0.017 A 
ATOM     28  C   UNL     1      15.376 -45.527 -22.563  1.00  0.00     0.040 A 
ATOM     29  C   UNL     1      14.240 -46.235 -20.544  1.00  0.00     0.040 A 
ATOM     30  C   UNL     1      14.510 -45.267 -21.506  1.00  0.00     0.123 A 
ATOM     31  F   UNL     1      13.919 -44.068 -21.417  1.00  0.00    -0.207 F 
ENDBRANCH  22  25
ENDBRANCH  20  21
ENDBRANCH  19  20
ENDBRANCH   1  19
TORSDOF 7
ENDMDL
