MODEL 1
REMARK VINA RESULT:   -11.993      0.000      0.000
REMARK INTER + INTRA:         -16.160
REMARK INTER:                 -15.849
REMARK INTRA:                  -0.312
REMARK UNBOUND:                -0.312
REMARK SMILES O=c1c2ccccc2nc(O)n1CC[C@H]1CC[N@H+](Cc2ccccc2)CC1
REMARK SMILES IDX 13 1 12 2 10 3 9 4 8 5 2 6 7 7 3 8 6 9 4 10 5 11 1 12 11 13
REMARK SMILES IDX 14 15 15 16 27 17 16 18 26 19 17 20 18 21 19 23 20 24 21 25
REMARK SMILES IDX 25 26 22 27 24 28 23 29
REMARK H PARENT 11 14 18 22
ROOT
ATOM      1  C   UNL     1      10.205 -54.995 -22.705  1.00  0.00     0.131 C 
ENDROOT
BRANCH   1   2
ATOM      2  N   UNL     1      11.002 -53.826 -23.055  1.00  0.00    -0.262 N 
ATOM      3  C   UNL     1      11.016 -52.704 -22.271  1.00  0.00     0.297 A 
ATOM      4  N   UNL     1      11.665 -51.618 -22.497  1.00  0.00    -0.197 NA
ATOM      5  C   UNL     1      12.443 -51.575 -23.665  1.00  0.00     0.081 A 
ATOM      6  C   UNL     1      11.688 -53.838 -24.263  1.00  0.00     0.264 A 
ATOM      7  C   UNL     1      13.192 -50.428 -23.935  1.00  0.00     0.029 A 
ATOM      8  C   UNL     1      12.489 -52.637 -24.570  1.00  0.00     0.066 A 
ATOM      9  C   UNL     1      13.973 -50.347 -25.093  1.00  0.00     0.002 A 
ATOM     10  C   UNL     1      13.265 -52.565 -25.733  1.00  0.00     0.016 A 
ATOM     11  C   UNL     1      14.009 -51.414 -25.991  1.00  0.00     0.001 A 
ATOM     12  O   UNL     1      11.638 -54.769 -25.064  1.00  0.00    -0.268 OA
BRANCH   3  13
ATOM     13  O   UNL     1      10.265 -52.746 -21.159  1.00  0.00    -0.480 OA
ATOM     14  H   UNL     1       9.853 -51.868 -21.077  1.00  0.00     0.296 HD
ENDBRANCH   3  13
ENDBRANCH   1   2
BRANCH   1  15
ATOM     15  C   UNL     1      11.067 -56.081 -22.048  1.00  0.00     0.026 C 
BRANCH  15  16
ATOM     16  C   UNL     1      10.865 -57.480 -22.660  1.00  0.00     0.002 C 
ATOM     17  C   UNL     1      11.825 -57.758 -23.825  1.00  0.00     0.065 C 
ATOM     18  C   UNL     1      11.040 -58.552 -21.574  1.00  0.00     0.065 C 
ATOM     19  C   UNL     1      11.668 -59.173 -24.366  1.00  0.00     0.262 C 
ATOM     20  C   UNL     1      10.881 -59.962 -22.127  1.00  0.00     0.262 C 
ATOM     21  N   UNL     1      11.862 -60.171 -23.256  1.00  0.00    -0.331 N 
ATOM     22  H   UNL     1      12.803 -60.032 -22.866  1.00  0.00     0.348 HD
BRANCH  21  23
ATOM     23  C   UNL     1      11.843 -61.592 -23.786  1.00  0.00     0.299 C 
BRANCH  23  24
ATOM     24  C   UNL     1      10.465 -62.198 -23.795  1.00  0.00     0.006 A 
ATOM     25  C   UNL     1      10.027 -62.990 -22.723  1.00  0.00     0.009 A 
ATOM     26  C   UNL     1       9.605 -61.993 -24.886  1.00  0.00     0.009 A 
ATOM     27  C   UNL     1       8.759 -63.572 -22.747  1.00  0.00     0.001 A 
ATOM     28  C   UNL     1       8.338 -62.577 -24.904  1.00  0.00     0.001 A 
ATOM     29  C   UNL     1       7.917 -63.368 -23.838  1.00  0.00     0.000 A 
ENDBRANCH  23  24
ENDBRANCH  21  23
ENDBRANCH  15  16
ENDBRANCH   1  15
TORSDOF 6
ENDMDL
MODEL 2
REMARK VINA RESULT:   -11.715      1.180      1.871
REMARK INTER + INTRA:         -15.793
REMARK INTER:                 -15.237
REMARK INTRA:                  -0.556
REMARK UNBOUND:                -0.312
REMARK SMILES O=c1c2ccccc2nc(O)n1CC[C@H]1CC[N@H+](Cc2ccccc2)CC1
REMARK SMILES IDX 13 1 12 2 10 3 9 4 8 5 2 6 7 7 3 8 6 9 4 10 5 11 1 12 11 13
REMARK SMILES IDX 14 15 15 16 27 17 16 18 26 19 17 20 18 21 19 23 20 24 21 25
REMARK SMILES IDX 25 26 22 27 24 28 23 29
REMARK H PARENT 11 14 18 22
ROOT
ATOM      1  C   UNL     1      10.340 -55.408 -22.721  1.00  0.00     0.131 C 
ENDROOT
BRANCH   1   2
ATOM      2  N   UNL     1      11.043 -54.179 -23.069  1.00  0.00    -0.262 N 
ATOM      3  C   UNL     1      11.007 -53.075 -22.261  1.00  0.00     0.297 A 
ATOM      4  N   UNL     1      11.572 -51.943 -22.483  1.00  0.00    -0.197 NA
ATOM      5  C   UNL     1      12.305 -51.822 -23.673  1.00  0.00     0.081 A 
ATOM      6  C   UNL     1      11.687 -54.119 -24.299  1.00  0.00     0.264 A 
ATOM      7  C   UNL     1      12.965 -50.621 -23.942  1.00  0.00     0.029 A 
ATOM      8  C   UNL     1      12.393 -52.859 -24.604  1.00  0.00     0.066 A 
ATOM      9  C   UNL     1      13.699 -50.462 -25.122  1.00  0.00     0.002 A 
ATOM     10  C   UNL     1      13.122 -52.710 -25.789  1.00  0.00     0.016 A 
ATOM     11  C   UNL     1      13.776 -51.505 -26.045  1.00  0.00     0.001 A 
ATOM     12  O   UNL     1      11.673 -55.034 -25.119  1.00  0.00    -0.268 OA
BRANCH   3  13
ATOM     13  O   UNL     1      10.299 -53.193 -21.126  1.00  0.00    -0.480 OA
ATOM     14  H   UNL     1      10.856 -52.822 -20.420  1.00  0.00     0.296 HD
ENDBRANCH   3  13
ENDBRANCH   1   2
BRANCH   1  15
ATOM     15  C   UNL     1      11.319 -56.501 -22.271  1.00  0.00     0.026 C 
BRANCH  15  16
ATOM     16  C   UNL     1      10.682 -57.901 -22.192  1.00  0.00     0.002 C 
ATOM     17  C   UNL     1       9.428 -58.028 -23.067  1.00  0.00     0.065 C 
ATOM     18  C   UNL     1      11.712 -58.965 -22.601  1.00  0.00     0.065 C 
ATOM     19  C   UNL     1       8.857 -59.440 -23.042  1.00  0.00     0.262 C 
ATOM     20  C   UNL     1      11.130 -60.371 -22.572  1.00  0.00     0.262 C 
ATOM     21  N   UNL     1       9.912 -60.428 -23.463  1.00  0.00    -0.331 N 
ATOM     22  H   UNL     1      10.221 -60.177 -24.410  1.00  0.00     0.348 HD
BRANCH  21  23
ATOM     23  C   UNL     1       9.340 -61.829 -23.574  1.00  0.00     0.299 C 
BRANCH  23  24
ATOM     24  C   UNL     1       8.976 -62.206 -24.984  1.00  0.00     0.006 A 
ATOM     25  C   UNL     1       9.646 -61.627 -26.073  1.00  0.00     0.009 A 
ATOM     26  C   UNL     1       7.949 -63.130 -25.232  1.00  0.00     0.009 A 
ATOM     27  C   UNL     1       9.289 -61.960 -27.380  1.00  0.00     0.001 A 
ATOM     28  C   UNL     1       7.596 -63.459 -26.541  1.00  0.00     0.001 A 
ATOM     29  C   UNL     1       8.263 -62.872 -27.613  1.00  0.00     0.000 A 
ENDBRANCH  23  24
ENDBRANCH  21  23
ENDBRANCH  15  16
ENDBRANCH   1  15
TORSDOF 6
ENDMDL
MODEL 3
REMARK VINA RESULT:   -11.413      1.177      2.479
REMARK INTER + INTRA:         -15.394
REMARK INTER:                 -15.194
REMARK INTRA:                  -0.200
REMARK UNBOUND:                -0.312
REMARK SMILES O=c1c2ccccc2nc(O)n1CC[C@H]1CC[N@H+](Cc2ccccc2)CC1
REMARK SMILES IDX 13 1 12 2 10 3 9 4 8 5 2 6 7 7 3 8 6 9 4 10 5 11 1 12 11 13
REMARK SMILES IDX 14 15 15 16 27 17 16 18 26 19 17 20 18 21 19 23 20 24 21 25
REMARK SMILES IDX 25 26 22 27 24 28 23 29
REMARK H PARENT 11 14 18 22
ROOT
ATOM      1  C   UNL     1      10.143 -55.396 -22.897  1.00  0.00     0.131 C 
ENDROOT
BRANCH   1   2
ATOM      2  N   UNL     1      10.878 -54.181 -23.227  1.00  0.00    -0.262 N 
ATOM      3  C   UNL     1      11.694 -54.110 -24.324  1.00  0.00     0.297 A 
ATOM      4  N   UNL     1      12.397 -53.099 -24.691  1.00  0.00    -0.197 NA
ATOM      5  C   UNL     1      12.323 -51.948 -23.891  1.00  0.00     0.081 A 
ATOM      6  C   UNL     1      10.805 -53.111 -22.345  1.00  0.00     0.264 A 
ATOM      7  C   UNL     1      13.044 -50.814 -24.270  1.00  0.00     0.029 A 
ATOM      8  C   UNL     1      11.558 -51.900 -22.724  1.00  0.00     0.066 A 
ATOM      9  C   UNL     1      13.000 -49.653 -23.492  1.00  0.00     0.002 A 
ATOM     10  C   UNL     1      11.508 -50.743 -21.938  1.00  0.00     0.016 A 
ATOM     11  C   UNL     1      12.234 -49.617 -22.328  1.00  0.00     0.001 A 
ATOM     12  O   UNL     1      10.175 -53.142 -21.290  1.00  0.00    -0.268 OA
BRANCH   3  13
ATOM     13  O   UNL     1      11.768 -55.214 -25.083  1.00  0.00    -0.480 OA
ATOM     14  H   UNL     1      12.182 -54.940 -25.920  1.00  0.00     0.296 HD
ENDBRANCH   3  13
ENDBRANCH   1   2
BRANCH   1  15
ATOM     15  C   UNL     1      11.004 -56.363 -22.075  1.00  0.00     0.026 C 
BRANCH  15  16
ATOM     16  C   UNL     1      10.903 -57.826 -22.543  1.00  0.00     0.002 C 
ATOM     17  C   UNL     1       9.550 -58.144 -23.195  1.00  0.00     0.065 C 
ATOM     18  C   UNL     1      12.041 -58.138 -23.526  1.00  0.00     0.065 C 
ATOM     19  C   UNL     1       9.496 -59.571 -23.726  1.00  0.00     0.262 C 
ATOM     20  C   UNL     1      11.975 -59.567 -24.048  1.00  0.00     0.262 C 
ATOM     21  N   UNL     1      10.628 -59.805 -24.688  1.00  0.00    -0.331 N 
ATOM     22  H   UNL     1      10.537 -59.127 -25.456  1.00  0.00     0.348 HD
BRANCH  21  23
ATOM     23  C   UNL     1      10.528 -61.174 -25.334  1.00  0.00     0.299 C 
BRANCH  23  24
ATOM     24  C   UNL     1       9.655 -62.126 -24.562  1.00  0.00     0.006 A 
ATOM     25  C   UNL     1       8.396 -62.500 -25.057  1.00  0.00     0.009 A 
ATOM     26  C   UNL     1      10.080 -62.640 -23.327  1.00  0.00     0.009 A 
ATOM     27  C   UNL     1       7.578 -63.363 -24.326  1.00  0.00     0.001 A 
ATOM     28  C   UNL     1       9.258 -63.503 -22.601  1.00  0.00     0.001 A 
ATOM     29  C   UNL     1       8.008 -63.860 -23.098  1.00  0.00     0.000 A 
ENDBRANCH  23  24
ENDBRANCH  21  23
ENDBRANCH  15  16
ENDBRANCH   1  15
TORSDOF 6
ENDMDL
MODEL 4
REMARK VINA RESULT:   -10.590      2.192      3.517
REMARK INTER + INTRA:         -14.307
REMARK INTER:                 -14.509
REMARK INTRA:                   0.202
REMARK UNBOUND:                -0.312
REMARK SMILES O=c1c2ccccc2nc(O)n1CC[C@H]1CC[N@H+](Cc2ccccc2)CC1
REMARK SMILES IDX 13 1 12 2 10 3 9 4 8 5 2 6 7 7 3 8 6 9 4 10 5 11 1 12 11 13
REMARK SMILES IDX 14 15 15 16 27 17 16 18 26 19 17 20 18 21 19 23 20 24 21 25
REMARK SMILES IDX 25 26 22 27 24 28 23 29
REMARK H PARENT 11 14 18 22
ROOT
ATOM      1  C   UNL     1      10.771 -52.101 -21.638  1.00  0.00     0.131 C 
ENDROOT
BRANCH   1   2
ATOM      2  N   UNL     1      10.888 -50.769 -22.221  1.00  0.00    -0.262 N 
ATOM      3  C   UNL     1       9.872 -49.855 -22.136  1.00  0.00     0.297 A 
ATOM      4  N   UNL     1       9.866 -48.669 -22.629  1.00  0.00    -0.197 NA
ATOM      5  C   UNL     1      11.015 -48.263 -23.324  1.00  0.00     0.081 A 
ATOM      6  C   UNL     1      12.030 -50.473 -22.953  1.00  0.00     0.264 A 
ATOM      7  C   UNL     1      11.067 -46.970 -23.849  1.00  0.00     0.029 A 
ATOM      8  C   UNL     1      12.108 -49.111 -23.517  1.00  0.00     0.066 A 
ATOM      9  C   UNL     1      12.194 -46.535 -24.554  1.00  0.00     0.002 A 
ATOM     10  C   UNL     1      13.239 -48.686 -24.223  1.00  0.00     0.016 A 
ATOM     11  C   UNL     1      13.278 -47.392 -24.742  1.00  0.00     0.001 A 
ATOM     12  O   UNL     1      12.935 -51.279 -23.158  1.00  0.00    -0.268 OA
BRANCH   3  13
ATOM     13  O   UNL     1       8.772 -50.249 -21.476  1.00  0.00    -0.480 OA
ATOM     14  H   UNL     1       8.044 -50.221 -22.122  1.00  0.00     0.296 HD
ENDBRANCH   3  13
ENDBRANCH   1   2
BRANCH   1  15
ATOM     15  C   UNL     1      10.221 -53.109 -22.655  1.00  0.00     0.026 C 
BRANCH  15  16
ATOM     16  C   UNL     1      11.072 -54.386 -22.776  1.00  0.00     0.002 C 
ATOM     17  C   UNL     1      10.538 -55.534 -21.908  1.00  0.00     0.065 C 
ATOM     18  C   UNL     1      11.138 -54.831 -24.245  1.00  0.00     0.065 C 
ATOM     19  C   UNL     1      11.342 -56.814 -22.100  1.00  0.00     0.262 C 
ATOM     20  C   UNL     1      11.943 -56.111 -24.423  1.00  0.00     0.262 C 
ATOM     21  N   UNL     1      11.356 -57.198 -23.555  1.00  0.00    -0.331 N 
ATOM     22  H   UNL     1      10.382 -57.330 -23.857  1.00  0.00     0.348 HD
BRANCH  21  23
ATOM     23  C   UNL     1      12.037 -58.537 -23.764  1.00  0.00     0.299 C 
BRANCH  23  24
ATOM     24  C   UNL     1      11.278 -59.685 -23.156  1.00  0.00     0.006 A 
ATOM     25  C   UNL     1      10.602 -59.527 -21.936  1.00  0.00     0.009 A 
ATOM     26  C   UNL     1      11.249 -60.936 -23.792  1.00  0.00     0.009 A 
ATOM     27  C   UNL     1       9.921 -60.601 -21.361  1.00  0.00     0.001 A 
ATOM     28  C   UNL     1      10.566 -62.006 -23.213  1.00  0.00     0.001 A 
ATOM     29  C   UNL     1       9.906 -61.840 -21.998  1.00  0.00     0.000 A 
ENDBRANCH  23  24
ENDBRANCH  21  23
ENDBRANCH  15  16
ENDBRANCH   1  15
TORSDOF 6
ENDMDL
MODEL 5
REMARK VINA RESULT:   -10.548      2.298      9.802
REMARK INTER + INTRA:         -14.251
REMARK INTER:                 -13.522
REMARK INTRA:                  -0.729
REMARK UNBOUND:                -0.312
REMARK SMILES O=c1c2ccccc2nc(O)n1CC[C@H]1CC[N@H+](Cc2ccccc2)CC1
REMARK SMILES IDX 13 1 12 2 10 3 9 4 8 5 2 6 7 7 3 8 6 9 4 10 5 11 1 12 11 13
REMARK SMILES IDX 14 15 15 16 27 17 16 18 26 19 17 20 18 21 19 23 20 24 21 25
REMARK SMILES IDX 25 26 22 27 24 28 23 29
REMARK H PARENT 11 14 18 22
ROOT
ATOM      1  C   UNL     1      11.494 -57.894 -23.689  1.00  0.00     0.131 C 
ENDROOT
BRANCH   1   2
ATOM      2  N   UNL     1      10.938 -59.240 -23.630  1.00  0.00    -0.262 N 
ATOM      3  C   UNL     1      11.738 -60.345 -23.514  1.00  0.00     0.297 A 
ATOM      4  N   UNL     1      11.353 -61.570 -23.473  1.00  0.00    -0.197 NA
ATOM      5  C   UNL     1       9.972 -61.804 -23.553  1.00  0.00     0.081 A 
ATOM      6  C   UNL     1       9.566 -59.390 -23.788  1.00  0.00     0.264 A 
ATOM      7  C   UNL     1       9.504 -63.118 -23.479  1.00  0.00     0.029 A 
ATOM      8  C   UNL     1       9.048 -60.770 -23.712  1.00  0.00     0.066 A 
ATOM      9  C   UNL     1       8.135 -63.389 -23.563  1.00  0.00     0.002 A 
ATOM     10  C   UNL     1       7.676 -61.031 -23.799  1.00  0.00     0.016 A 
ATOM     11  C   UNL     1       7.221 -62.348 -23.724  1.00  0.00     0.001 A 
ATOM     12  O   UNL     1       8.800 -58.453 -24.000  1.00  0.00    -0.268 OA
BRANCH   3  13
ATOM     13  O   UNL     1      13.060 -60.117 -23.444  1.00  0.00    -0.480 OA
ATOM     14  H   UNL     1      13.418 -60.785 -22.835  1.00  0.00     0.296 HD
ENDBRANCH   3  13
ENDBRANCH   1   2
BRANCH   1  15
ATOM     15  C   UNL     1      11.529 -57.244 -22.299  1.00  0.00     0.026 C 
BRANCH  15  16
ATOM     16  C   UNL     1      10.676 -55.966 -22.197  1.00  0.00     0.002 C 
ATOM     17  C   UNL     1      11.054 -55.101 -20.987  1.00  0.00     0.065 C 
ATOM     18  C   UNL     1      10.813 -55.145 -23.488  1.00  0.00     0.065 C 
ATOM     19  C   UNL     1      10.258 -53.803 -20.945  1.00  0.00     0.262 C 
ATOM     20  C   UNL     1      10.013 -53.850 -23.433  1.00  0.00     0.262 C 
ATOM     21  N   UNL     1      10.445 -53.045 -22.231  1.00  0.00    -0.331 N 
ATOM     22  H   UNL     1      11.449 -52.853 -22.342  1.00  0.00     0.348 HD
BRANCH  21  23
ATOM     23  C   UNL     1       9.771 -51.687 -22.171  1.00  0.00     0.299 C 
BRANCH  23  24
ATOM     24  C   UNL     1      10.720 -50.547 -22.425  1.00  0.00     0.006 A 
ATOM     25  C   UNL     1      10.241 -49.233 -22.546  1.00  0.00     0.009 A 
ATOM     26  C   UNL     1      12.097 -50.784 -22.563  1.00  0.00     0.009 A 
ATOM     27  C   UNL     1      11.120 -48.182 -22.809  1.00  0.00     0.001 A 
ATOM     28  C   UNL     1      12.972 -49.728 -22.825  1.00  0.00     0.001 A 
ATOM     29  C   UNL     1      12.483 -48.431 -22.951  1.00  0.00     0.000 A 
ENDBRANCH  23  24
ENDBRANCH  21  23
ENDBRANCH  15  16
ENDBRANCH   1  15
TORSDOF 6
ENDMDL
MODEL 6
REMARK VINA RESULT:   -10.464      2.076      9.653
REMARK INTER + INTRA:         -14.140
REMARK INTER:                 -14.361
REMARK INTRA:                   0.220
REMARK UNBOUND:                -0.312
REMARK SMILES O=c1c2ccccc2nc(O)n1CC[C@H]1CC[N@H+](Cc2ccccc2)CC1
REMARK SMILES IDX 13 1 12 2 10 3 9 4 8 5 2 6 7 7 3 8 6 9 4 10 5 11 1 12 11 13
REMARK SMILES IDX 14 15 15 16 27 17 16 18 26 19 17 20 18 21 19 23 20 24 21 25
REMARK SMILES IDX 25 26 22 27 24 28 23 29
REMARK H PARENT 11 14 18 22
ROOT
ATOM      1  C   UNL     1      11.020 -58.133 -23.497  1.00  0.00     0.131 C 
ENDROOT
BRANCH   1   2
ATOM      2  N   UNL     1      10.044 -59.216 -23.492  1.00  0.00    -0.262 N 
ATOM      3  C   UNL     1       8.723 -58.995 -23.773  1.00  0.00     0.297 A 
ATOM      4  N   UNL     1       7.783 -59.871 -23.778  1.00  0.00    -0.197 NA
ATOM      5  C   UNL     1       8.143 -61.191 -23.465  1.00  0.00     0.081 A 
ATOM      6  C   UNL     1      10.469 -60.479 -23.102  1.00  0.00     0.264 A 
ATOM      7  C   UNL     1       7.161 -62.183 -23.489  1.00  0.00     0.029 A 
ATOM      8  C   UNL     1       9.449 -61.546 -23.122  1.00  0.00     0.066 A 
ATOM      9  C   UNL     1       7.483 -63.508 -23.176  1.00  0.00     0.002 A 
ATOM     10  C   UNL     1       9.781 -62.868 -22.805  1.00  0.00     0.016 A 
ATOM     11  C   UNL     1       8.791 -63.850 -22.833  1.00  0.00     0.001 A 
ATOM     12  O   UNL     1      11.616 -60.728 -22.738  1.00  0.00    -0.268 OA
BRANCH   3  13
ATOM     13  O   UNL     1       8.380 -57.730 -24.065  1.00  0.00    -0.480 OA
ATOM     14  H   UNL     1       8.752 -57.545 -24.945  1.00  0.00     0.296 HD
ENDBRANCH   3  13
ENDBRANCH   1   2
BRANCH   1  15
ATOM     15  C   UNL     1      10.981 -57.342 -22.182  1.00  0.00     0.026 C 
BRANCH  15  16
ATOM     16  C   UNL     1      10.656 -55.849 -22.373  1.00  0.00     0.002 C 
ATOM     17  C   UNL     1      11.043 -55.001 -21.153  1.00  0.00     0.065 C 
ATOM     18  C   UNL     1      11.369 -55.317 -23.625  1.00  0.00     0.065 C 
ATOM     19  C   UNL     1      10.790 -53.518 -21.388  1.00  0.00     0.262 C 
ATOM     20  C   UNL     1      11.108 -53.833 -23.848  1.00  0.00     0.262 C 
ATOM     21  N   UNL     1      11.524 -53.060 -22.620  1.00  0.00    -0.331 N 
ATOM     22  H   UNL     1      12.526 -53.241 -22.477  1.00  0.00     0.348 HD
BRANCH  21  23
ATOM     23  C   UNL     1      11.399 -51.560 -22.809  1.00  0.00     0.299 C 
BRANCH  23  24
ATOM     24  C   UNL     1      12.300 -51.026 -23.889  1.00  0.00     0.006 A 
ATOM     25  C   UNL     1      12.560 -49.650 -23.985  1.00  0.00     0.009 A 
ATOM     26  C   UNL     1      12.878 -51.895 -24.828  1.00  0.00     0.009 A 
ATOM     27  C   UNL     1      13.375 -49.155 -25.005  1.00  0.00     0.001 A 
ATOM     28  C   UNL     1      13.692 -51.394 -25.845  1.00  0.00     0.001 A 
ATOM     29  C   UNL     1      13.937 -50.026 -25.935  1.00  0.00     0.000 A 
ENDBRANCH  23  24
ENDBRANCH  21  23
ENDBRANCH  15  16
ENDBRANCH   1  15
TORSDOF 6
ENDMDL
MODEL 7
REMARK VINA RESULT:   -10.441      1.906      9.484
REMARK INTER + INTRA:         -14.110
REMARK INTER:                 -13.719
REMARK INTRA:                  -0.391
REMARK UNBOUND:                -0.312
REMARK SMILES O=c1c2ccccc2nc(O)n1CC[C@H]1CC[N@H+](Cc2ccccc2)CC1
REMARK SMILES IDX 13 1 12 2 10 3 9 4 8 5 2 6 7 7 3 8 6 9 4 10 5 11 1 12 11 13
REMARK SMILES IDX 14 15 15 16 27 17 16 18 26 19 17 20 18 21 19 23 20 24 21 25
REMARK SMILES IDX 25 26 22 27 24 28 23 29
REMARK H PARENT 11 14 18 22
ROOT
ATOM      1  C   UNL     1      10.912 -57.312 -22.966  1.00  0.00     0.131 C 
ENDROOT
BRANCH   1   2
ATOM      2  N   UNL     1      10.530 -58.702 -22.751  1.00  0.00    -0.262 N 
ATOM      3  C   UNL     1      10.674 -59.308 -21.532  1.00  0.00     0.297 A 
ATOM      4  N   UNL     1      10.387 -60.526 -21.243  1.00  0.00    -0.197 NA
ATOM      5  C   UNL     1       9.871 -61.320 -22.278  1.00  0.00     0.081 A 
ATOM      6  C   UNL     1      10.094 -59.438 -23.845  1.00  0.00     0.264 A 
ATOM      7  C   UNL     1       9.514 -62.642 -22.002  1.00  0.00     0.029 A 
ATOM      8  C   UNL     1       9.708 -60.838 -23.578  1.00  0.00     0.066 A 
ATOM      9  C   UNL     1       9.003 -63.464 -23.011  1.00  0.00     0.002 A 
ATOM     10  C   UNL     1       9.200 -61.653 -24.595  1.00  0.00     0.016 A 
ATOM     11  C   UNL     1       8.847 -62.971 -24.306  1.00  0.00     0.001 A 
ATOM     12  O   UNL     1      10.038 -58.989 -24.988  1.00  0.00    -0.268 OA
BRANCH   3  13
ATOM     13  O   UNL     1      11.175 -58.547 -20.546  1.00  0.00    -0.480 OA
ATOM     14  H   UNL     1      11.916 -59.050 -20.165  1.00  0.00     0.296 HD
ENDBRANCH   3  13
ENDBRANCH   1   2
BRANCH   1  15
ATOM     15  C   UNL     1       9.715 -56.370 -22.782  1.00  0.00     0.026 C 
BRANCH  15  16
ATOM     16  C   UNL     1      10.042 -54.895 -23.084  1.00  0.00     0.002 C 
ATOM     17  C   UNL     1      10.079 -54.029 -21.819  1.00  0.00     0.065 C 
ATOM     18  C   UNL     1      11.386 -54.801 -23.821  1.00  0.00     0.065 C 
ATOM     19  C   UNL     1      10.482 -52.592 -22.124  1.00  0.00     0.262 C 
ATOM     20  C   UNL     1      11.778 -53.360 -24.121  1.00  0.00     0.262 C 
ATOM     21  N   UNL     1      11.810 -52.571 -22.833  1.00  0.00    -0.331 N 
ATOM     22  H   UNL     1      12.502 -53.022 -22.222  1.00  0.00     0.348 HD
BRANCH  21  23
ATOM     23  C   UNL     1      12.302 -51.150 -23.036  1.00  0.00     0.299 C 
BRANCH  23  24
ATOM     24  C   UNL     1      13.485 -51.064 -23.963  1.00  0.00     0.006 A 
ATOM     25  C   UNL     1      13.315 -50.679 -25.301  1.00  0.00     0.009 A 
ATOM     26  C   UNL     1      14.773 -51.384 -23.505  1.00  0.00     0.009 A 
ATOM     27  C   UNL     1      14.410 -50.625 -26.165  1.00  0.00     0.001 A 
ATOM     28  C   UNL     1      15.864 -51.327 -24.372  1.00  0.00     0.001 A 
ATOM     29  C   UNL     1      15.682 -50.952 -25.701  1.00  0.00     0.000 A 
ENDBRANCH  23  24
ENDBRANCH  21  23
ENDBRANCH  15  16
ENDBRANCH   1  15
TORSDOF 6
ENDMDL
MODEL 8
REMARK VINA RESULT:    -9.997      2.557      4.315
REMARK INTER + INTRA:         -13.523
REMARK INTER:                 -12.913
REMARK INTRA:                  -0.610
REMARK UNBOUND:                -0.312
REMARK SMILES O=c1c2ccccc2nc(O)n1CC[C@H]1CC[N@H+](Cc2ccccc2)CC1
REMARK SMILES IDX 13 1 12 2 10 3 9 4 8 5 2 6 7 7 3 8 6 9 4 10 5 11 1 12 11 13
REMARK SMILES IDX 14 15 15 16 27 17 16 18 26 19 17 20 18 21 19 23 20 24 21 25
REMARK SMILES IDX 25 26 22 27 24 28 23 29
REMARK H PARENT 11 14 18 22
ROOT
ATOM      1  C   UNL     1      11.110 -51.294 -21.744  1.00  0.00     0.131 C 
ENDROOT
BRANCH   1   2
ATOM      2  N   UNL     1      11.688 -50.221 -22.544  1.00  0.00    -0.262 N 
ATOM      3  C   UNL     1      12.969 -50.289 -23.022  1.00  0.00     0.297 A 
ATOM      4  N   UNL     1      13.577 -49.396 -23.716  1.00  0.00    -0.197 NA
ATOM      5  C   UNL     1      12.858 -48.230 -24.021  1.00  0.00     0.081 A 
ATOM      6  C   UNL     1      10.934 -49.071 -22.740  1.00  0.00     0.264 A 
ATOM      7  C   UNL     1      13.467 -47.245 -24.801  1.00  0.00     0.029 A 
ATOM      8  C   UNL     1      11.556 -48.016 -23.564  1.00  0.00     0.066 A 
ATOM      9  C   UNL     1      12.782 -46.067 -25.118  1.00  0.00     0.002 A 
ATOM     10  C   UNL     1      10.864 -46.840 -23.873  1.00  0.00     0.016 A 
ATOM     11  C   UNL     1      11.483 -45.864 -24.654  1.00  0.00     0.001 A 
ATOM     12  O   UNL     1       9.819 -48.899 -22.254  1.00  0.00    -0.268 OA
BRANCH   3  13
ATOM     13  O   UNL     1      13.656 -51.403 -22.723  1.00  0.00    -0.480 OA
ATOM     14  H   UNL     1      14.320 -51.509 -23.427  1.00  0.00     0.296 HD
ENDBRANCH   3  13
ENDBRANCH   1   2
BRANCH   1  15
ATOM     15  C   UNL     1      10.393 -52.323 -22.628  1.00  0.00     0.026 C 
BRANCH  15  16
ATOM     16  C   UNL     1      11.090 -53.696 -22.662  1.00  0.00     0.002 C 
ATOM     17  C   UNL     1      10.371 -54.744 -21.803  1.00  0.00     0.065 C 
ATOM     18  C   UNL     1      11.192 -54.191 -24.113  1.00  0.00     0.065 C 
ATOM     19  C   UNL     1      11.025 -56.115 -21.912  1.00  0.00     0.262 C 
ATOM     20  C   UNL     1      11.848 -55.562 -24.207  1.00  0.00     0.262 C 
ATOM     21  N   UNL     1      11.082 -56.544 -23.353  1.00  0.00    -0.331 N 
ATOM     22  H   UNL     1      10.120 -56.570 -23.714  1.00  0.00     0.348 HD
BRANCH  21  23
ATOM     23  C   UNL     1      11.609 -57.961 -23.485  1.00  0.00     0.299 C 
BRANCH  23  24
ATOM     24  C   UNL     1      10.626 -59.001 -23.020  1.00  0.00     0.006 A 
ATOM     25  C   UNL     1       9.438 -59.227 -23.731  1.00  0.00     0.009 A 
ATOM     26  C   UNL     1      10.876 -59.747 -21.858  1.00  0.00     0.009 A 
ATOM     27  C   UNL     1       8.516 -60.174 -23.282  1.00  0.00     0.001 A 
ATOM     28  C   UNL     1       9.951 -60.693 -21.414  1.00  0.00     0.001 A 
ATOM     29  C   UNL     1       8.771 -60.903 -22.123  1.00  0.00     0.000 A 
ENDBRANCH  23  24
ENDBRANCH  21  23
ENDBRANCH  15  16
ENDBRANCH   1  15
TORSDOF 6
ENDMDL
MODEL 9
REMARK VINA RESULT:    -9.839      2.041      9.329
REMARK INTER + INTRA:         -13.314
REMARK INTER:                 -13.141
REMARK INTRA:                  -0.174
REMARK UNBOUND:                -0.312
REMARK SMILES O=c1c2ccccc2nc(O)n1CC[C@H]1CC[N@H+](Cc2ccccc2)CC1
REMARK SMILES IDX 13 1 12 2 10 3 9 4 8 5 2 6 7 7 3 8 6 9 4 10 5 11 1 12 11 13
REMARK SMILES IDX 14 15 15 16 27 17 16 18 26 19 17 20 18 21 19 23 20 24 21 25
REMARK SMILES IDX 25 26 22 27 24 28 23 29
REMARK H PARENT 11 14 18 22
ROOT
ATOM      1  C   UNL     1      11.241 -58.021 -22.736  1.00  0.00     0.131 C 
ENDROOT
BRANCH   1   2
ATOM      2  N   UNL     1      10.819 -58.959 -23.771  1.00  0.00    -0.262 N 
ATOM      3  C   UNL     1      11.366 -58.940 -25.025  1.00  0.00     0.297 A 
ATOM      4  N   UNL     1      11.054 -59.705 -26.009  1.00  0.00    -0.197 NA
ATOM      5  C   UNL     1      10.052 -60.661 -25.778  1.00  0.00     0.081 A 
ATOM      6  C   UNL     1       9.772 -59.825 -23.482  1.00  0.00     0.264 A 
ATOM      7  C   UNL     1       9.703 -61.536 -26.808  1.00  0.00     0.029 A 
ATOM      8  C   UNL     1       9.386 -60.762 -24.555  1.00  0.00     0.066 A 
ATOM      9  C   UNL     1       8.704 -62.496 -26.615  1.00  0.00     0.002 A 
ATOM     10  C   UNL     1       8.383 -61.717 -24.353  1.00  0.00     0.016 A 
ATOM     11  C   UNL     1       8.044 -62.586 -25.390  1.00  0.00     0.001 A 
ATOM     12  O   UNL     1       9.166 -59.826 -22.412  1.00  0.00    -0.268 OA
BRANCH   3  13
ATOM     13  O   UNL     1      12.319 -58.020 -25.244  1.00  0.00    -0.480 OA
ATOM     14  H   UNL     1      12.602 -58.138 -26.168  1.00  0.00     0.296 HD
ENDBRANCH   3  13
ENDBRANCH   1   2
BRANCH   1  15
ATOM     15  C   UNL     1      10.343 -56.778 -22.711  1.00  0.00     0.026 C 
BRANCH  15  16
ATOM     16  C   UNL     1      11.127 -55.454 -22.664  1.00  0.00     0.002 C 
ATOM     17  C   UNL     1      11.328 -54.838 -24.055  1.00  0.00     0.065 C 
ATOM     18  C   UNL     1      10.404 -54.453 -21.751  1.00  0.00     0.065 C 
ATOM     19  C   UNL     1      12.034 -53.490 -23.984  1.00  0.00     0.262 C 
ATOM     20  C   UNL     1      11.119 -53.110 -21.689  1.00  0.00     0.262 C 
ATOM     21  N   UNL     1      11.269 -52.557 -23.086  1.00  0.00    -0.331 N 
ATOM     22  H   UNL     1      10.321 -52.452 -23.471  1.00  0.00     0.348 HD
BRANCH  21  23
ATOM     23  C   UNL     1      11.873 -51.165 -23.096  1.00  0.00     0.299 C 
BRANCH  23  24
ATOM     24  C   UNL     1      13.146 -51.082 -23.894  1.00  0.00     0.006 A 
ATOM     25  C   UNL     1      14.390 -51.265 -23.273  1.00  0.00     0.009 A 
ATOM     26  C   UNL     1      13.107 -50.802 -25.269  1.00  0.00     0.009 A 
ATOM     27  C   UNL     1      15.571 -51.161 -24.010  1.00  0.00     0.001 A 
ATOM     28  C   UNL     1      14.290 -50.700 -26.002  1.00  0.00     0.001 A 
ATOM     29  C   UNL     1      15.520 -50.875 -25.373  1.00  0.00     0.000 A 
ENDBRANCH  23  24
ENDBRANCH  21  23
ENDBRANCH  15  16
ENDBRANCH   1  15
TORSDOF 6
ENDMDL
