MODEL 1
REMARK VINA RESULT:    -9.073      0.000      0.000
REMARK INTER + INTRA:         -13.781
REMARK INTER:                 -12.520
REMARK INTRA:                  -1.260
REMARK UNBOUND:                -1.260
REMARK SMILES COc1ccc([C@H]2C=C(c3cc(F)cc(F)c3)NN2c2ccc(S(N)(=O)=O)cc2)c(OC)c1
REMARK SMILES IDX 20 1 21 2 22 3 23 4 28 5 29 6 19 7 18 8 9 9 8 10 7 11 10 13
REMARK SMILES IDX 11 14 17 15 12 16 15 17 14 18 13 19 16 20 6 21 5 22 30 23
REMARK SMILES IDX 4 24 33 25 3 26 31 27 32 28 2 29 1 30 24 31 26 32 27 33
REMARK SMILES IDX 25 34
REMARK H PARENT 18 12 25 35 25 36
ROOT
ATOM      1  C   UNL     1      12.539 -48.269 -24.309  1.00  0.00     0.058 A 
ATOM      2  C   UNL     1      11.532 -47.675 -23.527  1.00  0.00     0.029 A 
ATOM      3  C   UNL     1      11.328 -46.291 -23.511  1.00  0.00     0.024 A 
ATOM      4  C   UNL     1      12.148 -45.470 -24.282  1.00  0.00     0.082 A 
ATOM      5  C   UNL     1      13.150 -46.023 -25.075  1.00  0.00     0.024 A 
ATOM      6  C   UNL     1      13.341 -47.411 -25.081  1.00  0.00     0.029 A 
ENDROOT
BRANCH   1   7
ATOM      7  N   UNL     1      12.714 -49.653 -24.301  1.00  0.00    -0.276 N 
ATOM      8  N   UNL     1      12.106 -50.535 -23.421  1.00  0.00    -0.297 N 
ATOM      9  C   UNL     1      12.317 -51.843 -23.846  1.00  0.00     0.060 C 
ATOM     10  C   UNL     1      13.104 -51.850 -24.936  1.00  0.00     0.033 C 
ATOM     11  C   UNL     1      13.456 -50.428 -25.341  1.00  0.00     0.164 C 
ATOM     12  H   UNL     1      11.114 -50.361 -23.247  1.00  0.00     0.188 HD
BRANCH   9  13
ATOM     13  C   UNL     1      11.714 -52.986 -23.158  1.00  0.00     0.005 A 
ATOM     14  C   UNL     1      11.569 -54.215 -23.819  1.00  0.00     0.049 A 
ATOM     15  C   UNL     1      11.285 -52.894 -21.827  1.00  0.00     0.049 A 
ATOM     16  C   UNL     1      11.005 -55.308 -23.162  1.00  0.00     0.126 A 
ATOM     17  C   UNL     1      10.725 -54.000 -21.189  1.00  0.00     0.126 A 
ATOM     18  C   UNL     1      10.580 -55.212 -21.846  1.00  0.00     0.078 A 
ATOM     19  F   UNL     1      10.873 -56.469 -23.815  1.00  0.00    -0.207 F 
ATOM     20  F   UNL     1      10.323 -53.890 -19.917  1.00  0.00    -0.207 F 
ENDBRANCH   9  13
BRANCH  11  21
ATOM     21  C   UNL     1      14.960 -50.196 -25.316  1.00  0.00     0.023 A 
ATOM     22  C   UNL     1      15.674 -50.235 -24.103  1.00  0.00     0.014 A 
ATOM     23  C   UNL     1      15.671 -49.979 -26.511  1.00  0.00     0.128 A 
ATOM     24  C   UNL     1      17.057 -50.041 -24.069  1.00  0.00     0.047 A 
ATOM     25  C   UNL     1      17.057 -49.785 -26.465  1.00  0.00     0.093 A 
ATOM     26  C   UNL     1      17.753 -49.813 -25.251  1.00  0.00     0.122 A 
BRANCH  23  27
ATOM     27  O   UNL     1      14.925 -49.977 -27.662  1.00  0.00    -0.496 OA
ATOM     28  C   UNL     1      15.146 -48.916 -28.583  1.00  0.00     0.278 C 
ENDBRANCH  23  27
BRANCH  26  29
ATOM     29  O   UNL     1      19.102 -49.605 -25.363  1.00  0.00    -0.497 OA
ATOM     30  C   UNL     1      19.952 -50.631 -24.864  1.00  0.00     0.278 C 
ENDBRANCH  26  29
ENDBRANCH  11  21
ENDBRANCH   1   7
BRANCH   4  31
ATOM     31  S   UNL     1      11.881 -43.723 -24.294  1.00  0.00     0.238 S 
ATOM     32  O   UNL     1      12.148 -43.191 -22.978  1.00  0.00    -0.207 OA
ATOM     33  O   UNL     1      12.464 -43.160 -25.489  1.00  0.00    -0.207 OA
BRANCH  31  34
ATOM     34  N   UNL     1      10.218 -43.625 -24.502  1.00  0.00    -0.225 NA
ATOM     35  H   UNL     1       9.885 -42.707 -24.205  1.00  0.00     0.137 HD
ATOM     36  H   UNL     1       9.975 -43.863 -25.464  1.00  0.00     0.137 HD
ENDBRANCH  31  34
ENDBRANCH   4  31
TORSDOF 7
ENDMDL
MODEL 2
REMARK VINA RESULT:    -8.993      0.130      1.434
REMARK INTER + INTRA:         -13.670
REMARK INTER:                 -12.374
REMARK INTRA:                  -1.296
REMARK UNBOUND:                -1.260
REMARK SMILES COc1ccc([C@H]2C=C(c3cc(F)cc(F)c3)NN2c2ccc(S(N)(=O)=O)cc2)c(OC)c1
REMARK SMILES IDX 20 1 21 2 22 3 23 4 28 5 29 6 19 7 18 8 9 9 8 10 7 11 10 13
REMARK SMILES IDX 11 14 17 15 12 16 15 17 14 18 13 19 16 20 6 21 5 22 30 23
REMARK SMILES IDX 4 24 33 25 3 26 31 27 32 28 2 29 1 30 24 31 26 32 27 33
REMARK SMILES IDX 25 34
REMARK H PARENT 18 12 25 35 25 36
ROOT
ATOM      1  C   UNL     1      12.545 -48.211 -24.353  1.00  0.00     0.058 A 
ATOM      2  C   UNL     1      11.550 -47.624 -23.550  1.00  0.00     0.029 A 
ATOM      3  C   UNL     1      11.327 -46.243 -23.540  1.00  0.00     0.024 A 
ATOM      4  C   UNL     1      12.116 -45.417 -24.338  1.00  0.00     0.082 A 
ATOM      5  C   UNL     1      13.106 -45.964 -25.151  1.00  0.00     0.024 A 
ATOM      6  C   UNL     1      13.316 -47.349 -25.151  1.00  0.00     0.029 A 
ENDROOT
BRANCH   1   7
ATOM      7  N   UNL     1      12.739 -49.592 -24.337  1.00  0.00    -0.276 N 
ATOM      8  N   UNL     1      12.115 -50.482 -23.476  1.00  0.00    -0.297 N 
ATOM      9  C   UNL     1      12.358 -51.787 -23.894  1.00  0.00     0.060 C 
ATOM     10  C   UNL     1      13.179 -51.784 -24.957  1.00  0.00     0.033 C 
ATOM     11  C   UNL     1      13.525 -50.357 -25.352  1.00  0.00     0.164 C 
ATOM     12  H   UNL     1      11.116 -50.323 -23.335  1.00  0.00     0.188 HD
BRANCH   9  13
ATOM     13  C   UNL     1      11.749 -52.939 -23.224  1.00  0.00     0.005 A 
ATOM     14  C   UNL     1      11.310 -52.836 -21.896  1.00  0.00     0.049 A 
ATOM     15  C   UNL     1      11.572 -54.160 -23.889  1.00  0.00     0.049 A 
ATOM     16  C   UNL     1      10.721 -53.928 -21.261  1.00  0.00     0.126 A 
ATOM     17  C   UNL     1      10.979 -55.239 -23.234  1.00  0.00     0.126 A 
ATOM     18  C   UNL     1      10.549 -55.135 -21.920  1.00  0.00     0.078 A 
ATOM     19  F   UNL     1      10.313 -53.806 -19.991  1.00  0.00    -0.207 F 
ATOM     20  F   UNL     1      10.818 -56.396 -23.888  1.00  0.00    -0.207 F 
ENDBRANCH   9  13
BRANCH  11  21
ATOM     21  C   UNL     1      15.024 -50.105 -25.278  1.00  0.00     0.023 A 
ATOM     22  C   UNL     1      15.697 -50.124 -24.041  1.00  0.00     0.014 A 
ATOM     23  C   UNL     1      15.771 -49.887 -26.450  1.00  0.00     0.128 A 
ATOM     24  C   UNL     1      17.075 -49.911 -23.963  1.00  0.00     0.047 A 
ATOM     25  C   UNL     1      17.153 -49.673 -26.360  1.00  0.00     0.093 A 
ATOM     26  C   UNL     1      17.807 -49.682 -25.123  1.00  0.00     0.122 A 
BRANCH  23  27
ATOM     27  O   UNL     1      15.065 -49.904 -27.626  1.00  0.00    -0.496 OA
ATOM     28  C   UNL     1      15.119 -48.738 -28.439  1.00  0.00     0.278 C 
ENDBRANCH  23  27
BRANCH  26  29
ATOM     29  O   UNL     1      19.156 -49.457 -25.191  1.00  0.00    -0.497 OA
ATOM     30  C   UNL     1      20.003 -50.469 -24.662  1.00  0.00     0.278 C 
ENDBRANCH  26  29
ENDBRANCH  11  21
ENDBRANCH   1   7
BRANCH   4  31
ATOM     31  S   UNL     1      11.825 -43.674 -24.358  1.00  0.00     0.238 S 
ATOM     32  O   UNL     1      12.127 -43.126 -23.056  1.00  0.00    -0.207 OA
ATOM     33  O   UNL     1      12.363 -43.115 -25.576  1.00  0.00    -0.207 OA
BRANCH  31  34
ATOM     34  N   UNL     1      10.156 -43.600 -24.514  1.00  0.00    -0.225 NA
ATOM     35  H   UNL     1       9.820 -42.684 -24.215  1.00  0.00     0.137 HD
ATOM     36  H   UNL     1       9.886 -43.851 -25.465  1.00  0.00     0.137 HD
ENDBRANCH  31  34
ENDBRANCH   4  31
TORSDOF 7
ENDMDL
MODEL 3
REMARK VINA RESULT:    -8.849      4.560      8.167
REMARK INTER + INTRA:         -13.471
REMARK INTER:                 -11.940
REMARK INTRA:                  -1.531
REMARK UNBOUND:                -1.260
REMARK SMILES COc1ccc([C@H]2C=C(c3cc(F)cc(F)c3)NN2c2ccc(S(N)(=O)=O)cc2)c(OC)c1
REMARK SMILES IDX 20 1 21 2 22 3 23 4 28 5 29 6 19 7 18 8 9 9 8 10 7 11 10 13
REMARK SMILES IDX 11 14 17 15 12 16 15 17 14 18 13 19 16 20 6 21 5 22 30 23
REMARK SMILES IDX 4 24 33 25 3 26 31 27 32 28 2 29 1 30 24 31 26 32 27 33
REMARK SMILES IDX 25 34
REMARK H PARENT 18 12 25 35 25 36
ROOT
ATOM      1  C   UNL     1      15.103 -49.539 -24.581  1.00  0.00     0.058 A 
ATOM      2  C   UNL     1      15.506 -49.445 -25.925  1.00  0.00     0.029 A 
ATOM      3  C   UNL     1      16.577 -50.191 -26.430  1.00  0.00     0.024 A 
ATOM      4  C   UNL     1      17.276 -51.045 -25.580  1.00  0.00     0.082 A 
ATOM      5  C   UNL     1      16.900 -51.169 -24.244  1.00  0.00     0.024 A 
ATOM      6  C   UNL     1      15.825 -50.417 -23.755  1.00  0.00     0.029 A 
ENDROOT
BRANCH   1   7
ATOM      7  N   UNL     1      14.030 -48.780 -24.113  1.00  0.00    -0.276 N 
ATOM      8  N   UNL     1      14.125 -47.523 -23.535  1.00  0.00    -0.297 N 
ATOM      9  C   UNL     1      12.855 -46.969 -23.407  1.00  0.00     0.060 C 
ATOM     10  C   UNL     1      11.926 -47.850 -23.814  1.00  0.00     0.033 C 
ATOM     11  C   UNL     1      12.589 -49.127 -24.305  1.00  0.00     0.164 C 
ATOM     12  H   UNL     1      14.761 -46.876 -24.004  1.00  0.00     0.188 HD
BRANCH   9  13
ATOM     13  C   UNL     1      12.653 -45.606 -22.908  1.00  0.00     0.005 A 
ATOM     14  C   UNL     1      13.673 -44.952 -22.203  1.00  0.00     0.049 A 
ATOM     15  C   UNL     1      11.454 -44.917 -23.134  1.00  0.00     0.049 A 
ATOM     16  C   UNL     1      13.486 -43.651 -21.737  1.00  0.00     0.126 A 
ATOM     17  C   UNL     1      11.290 -43.616 -22.659  1.00  0.00     0.126 A 
ATOM     18  C   UNL     1      12.298 -42.973 -21.960  1.00  0.00     0.078 A 
ATOM     19  F   UNL     1      14.474 -43.049 -21.062  1.00  0.00    -0.207 F 
ATOM     20  F   UNL     1      10.136 -42.975 -22.887  1.00  0.00    -0.207 F 
ENDBRANCH   9  13
BRANCH  11  21
ATOM     21  C   UNL     1      12.140 -50.336 -23.498  1.00  0.00     0.023 A 
ATOM     22  C   UNL     1      11.543 -50.175 -22.233  1.00  0.00     0.014 A 
ATOM     23  C   UNL     1      12.276 -51.636 -24.020  1.00  0.00     0.128 A 
ATOM     24  C   UNL     1      11.112 -51.277 -21.490  1.00  0.00     0.047 A 
ATOM     25  C   UNL     1      11.840 -52.733 -23.266  1.00  0.00     0.093 A 
ATOM     26  C   UNL     1      11.261 -52.560 -22.004  1.00  0.00     0.122 A 
BRANCH  23  27
ATOM     27  O   UNL     1      12.841 -51.727 -25.266  1.00  0.00    -0.496 OA
ATOM     28  C   UNL     1      13.632 -52.877 -25.545  1.00  0.00     0.278 C 
ENDBRANCH  23  27
BRANCH  26  29
ATOM     29  O   UNL     1      10.886 -53.722 -21.385  1.00  0.00    -0.497 OA
ATOM     30  C   UNL     1      10.825 -54.890 -22.195  1.00  0.00     0.278 C 
ENDBRANCH  26  29
ENDBRANCH  11  21
ENDBRANCH   1   7
BRANCH   4  31
ATOM     31  S   UNL     1      18.612 -52.014 -26.212  1.00  0.00     0.238 S 
ATOM     32  O   UNL     1      19.674 -52.057 -25.234  1.00  0.00    -0.207 OA
ATOM     33  O   UNL     1      18.084 -53.207 -26.832  1.00  0.00    -0.207 OA
BRANCH  31  34
ATOM     34  N   UNL     1      19.177 -51.054 -27.467  1.00  0.00    -0.225 NA
ATOM     35  H   UNL     1      18.510 -51.064 -28.238  1.00  0.00     0.137 HD
ATOM     36  H   UNL     1      19.394 -50.121 -27.118  1.00  0.00     0.137 HD
ENDBRANCH  31  34
ENDBRANCH   4  31
TORSDOF 7
ENDMDL
MODEL 4
REMARK VINA RESULT:    -8.727      2.910      5.560
REMARK INTER + INTRA:         -13.303
REMARK INTER:                 -12.054
REMARK INTRA:                  -1.250
REMARK UNBOUND:                -1.260
REMARK SMILES COc1ccc([C@H]2C=C(c3cc(F)cc(F)c3)NN2c2ccc(S(N)(=O)=O)cc2)c(OC)c1
REMARK SMILES IDX 20 1 21 2 22 3 23 4 28 5 29 6 19 7 18 8 9 9 8 10 7 11 10 13
REMARK SMILES IDX 11 14 17 15 12 16 15 17 14 18 13 19 16 20 6 21 5 22 30 23
REMARK SMILES IDX 4 24 33 25 3 26 31 27 32 28 2 29 1 30 24 31 26 32 27 33
REMARK SMILES IDX 25 34
REMARK H PARENT 18 12 25 35 25 36
ROOT
ATOM      1  C   UNL     1      14.134 -48.605 -26.111  1.00  0.00     0.058 A 
ATOM      2  C   UNL     1      14.573 -49.401 -27.185  1.00  0.00     0.029 A 
ATOM      3  C   UNL     1      15.215 -48.849 -28.300  1.00  0.00     0.024 A 
ATOM      4  C   UNL     1      15.419 -47.473 -28.359  1.00  0.00     0.082 A 
ATOM      5  C   UNL     1      15.005 -46.655 -27.310  1.00  0.00     0.024 A 
ATOM      6  C   UNL     1      14.365 -47.222 -26.201  1.00  0.00     0.029 A 
ENDROOT
BRANCH   1   7
ATOM      7  N   UNL     1      13.499 -49.190 -25.016  1.00  0.00    -0.276 N 
ATOM      8  N   UNL     1      12.906 -50.443 -25.004  1.00  0.00    -0.297 N 
ATOM      9  C   UNL     1      12.584 -50.798 -23.697  1.00  0.00     0.060 C 
ATOM     10  C   UNL     1      12.881 -49.789 -22.861  1.00  0.00     0.033 C 
ATOM     11  C   UNL     1      13.496 -48.630 -23.630  1.00  0.00     0.164 C 
ATOM     12  H   UNL     1      13.441 -51.182 -25.463  1.00  0.00     0.188 HD
BRANCH   9  13
ATOM     13  C   UNL     1      12.024 -52.111 -23.369  1.00  0.00     0.005 A 
ATOM     14  C   UNL     1      12.147 -53.180 -24.269  1.00  0.00     0.049 A 
ATOM     15  C   UNL     1      11.371 -52.342 -22.150  1.00  0.00     0.049 A 
ATOM     16  C   UNL     1      11.624 -54.432 -23.953  1.00  0.00     0.126 A 
ATOM     17  C   UNL     1      10.857 -53.604 -21.855  1.00  0.00     0.126 A 
ATOM     18  C   UNL     1      10.977 -54.657 -22.748  1.00  0.00     0.078 A 
ATOM     19  F   UNL     1      11.750 -55.436 -24.831  1.00  0.00    -0.207 F 
ATOM     20  F   UNL     1      10.238 -53.802 -20.684  1.00  0.00    -0.207 F 
ENDBRANCH   9  13
BRANCH  11  21
ATOM     21  C   UNL     1      12.667 -47.362 -23.486  1.00  0.00     0.023 A 
ATOM     22  C   UNL     1      11.370 -47.285 -24.029  1.00  0.00     0.014 A 
ATOM     23  C   UNL     1      13.167 -46.257 -22.773  1.00  0.00     0.128 A 
ATOM     24  C   UNL     1      10.594 -46.132 -23.889  1.00  0.00     0.047 A 
ATOM     25  C   UNL     1      12.381 -45.106 -22.639  1.00  0.00     0.093 A 
ATOM     26  C   UNL     1      11.098 -45.037 -23.195  1.00  0.00     0.122 A 
BRANCH  23  27
ATOM     27  O   UNL     1      14.426 -46.401 -22.247  1.00  0.00    -0.496 OA
ATOM     28  C   UNL     1      15.449 -45.551 -22.753  1.00  0.00     0.278 C 
ENDBRANCH  23  27
BRANCH  26  29
ATOM     29  O   UNL     1      10.449 -43.850 -22.986  1.00  0.00    -0.497 OA
ATOM     30  C   UNL     1      11.262 -42.703 -22.770  1.00  0.00     0.278 C 
ENDBRANCH  26  29
ENDBRANCH  11  21
ENDBRANCH   1   7
BRANCH   4  31
ATOM     31  S   UNL     1      16.255 -46.767 -29.748  1.00  0.00     0.238 S 
ATOM     32  O   UNL     1      16.853 -45.512 -29.357  1.00  0.00    -0.207 OA
ATOM     33  O   UNL     1      16.999 -47.799 -30.431  1.00  0.00    -0.207 OA
BRANCH  31  34
ATOM     34  N   UNL     1      14.976 -46.373 -30.761  1.00  0.00    -0.225 NA
ATOM     35  H   UNL     1      14.273 -47.113 -30.736  1.00  0.00     0.137 HD
ATOM     36  H   UNL     1      14.616 -45.450 -30.521  1.00  0.00     0.137 HD
ENDBRANCH  31  34
ENDBRANCH   4  31
TORSDOF 7
ENDMDL
MODEL 5
REMARK VINA RESULT:    -8.667      4.482      7.567
REMARK INTER + INTRA:         -13.220
REMARK INTER:                 -11.767
REMARK INTRA:                  -1.453
REMARK UNBOUND:                -1.260
REMARK SMILES COc1ccc([C@H]2C=C(c3cc(F)cc(F)c3)NN2c2ccc(S(N)(=O)=O)cc2)c(OC)c1
REMARK SMILES IDX 20 1 21 2 22 3 23 4 28 5 29 6 19 7 18 8 9 9 8 10 7 11 10 13
REMARK SMILES IDX 11 14 17 15 12 16 15 17 14 18 13 19 16 20 6 21 5 22 30 23
REMARK SMILES IDX 4 24 33 25 3 26 31 27 32 28 2 29 1 30 24 31 26 32 27 33
REMARK SMILES IDX 25 34
REMARK H PARENT 18 12 25 35 25 36
ROOT
ATOM      1  C   UNL     1      12.490 -51.208 -23.677  1.00  0.00     0.058 A 
ATOM      2  C   UNL     1      11.740 -51.554 -22.538  1.00  0.00     0.029 A 
ATOM      3  C   UNL     1      11.217 -52.839 -22.359  1.00  0.00     0.024 A 
ATOM      4  C   UNL     1      11.431 -53.807 -23.338  1.00  0.00     0.082 A 
ATOM      5  C   UNL     1      12.175 -53.502 -24.475  1.00  0.00     0.024 A 
ATOM      6  C   UNL     1      12.693 -52.211 -24.639  1.00  0.00     0.029 A 
ENDROOT
BRANCH   1   7
ATOM      7  N   UNL     1      12.996 -49.916 -23.822  1.00  0.00    -0.276 N 
ATOM      8  N   UNL     1      12.253 -48.793 -24.152  1.00  0.00    -0.297 N 
ATOM      9  C   UNL     1      13.027 -47.650 -23.977  1.00  0.00     0.060 C 
ATOM     10  C   UNL     1      14.275 -47.992 -23.613  1.00  0.00     0.033 C 
ATOM     11  C   UNL     1      14.392 -49.502 -23.484  1.00  0.00     0.164 C 
ATOM     12  H   UNL     1      11.357 -48.706 -23.669  1.00  0.00     0.188 HD
BRANCH   9  13
ATOM     13  C   UNL     1      12.476 -46.306 -24.166  1.00  0.00     0.005 A 
ATOM     14  C   UNL     1      11.360 -45.888 -23.426  1.00  0.00     0.049 A 
ATOM     15  C   UNL     1      13.051 -45.401 -25.069  1.00  0.00     0.049 A 
ATOM     16  C   UNL     1      10.840 -44.606 -23.597  1.00  0.00     0.126 A 
ATOM     17  C   UNL     1      12.514 -44.124 -25.223  1.00  0.00     0.126 A 
ATOM     18  C   UNL     1      11.410 -43.714 -24.492  1.00  0.00     0.078 A 
ATOM     19  F   UNL     1       9.772 -44.231 -22.882  1.00  0.00    -0.207 F 
ATOM     20  F   UNL     1      13.080 -43.275 -26.090  1.00  0.00    -0.207 F 
ENDBRANCH   9  13
BRANCH  11  21
ATOM     21  C   UNL     1      15.440 -50.064 -24.433  1.00  0.00     0.023 A 
ATOM     22  C   UNL     1      15.495 -49.643 -25.776  1.00  0.00     0.014 A 
ATOM     23  C   UNL     1      16.400 -50.984 -23.974  1.00  0.00     0.128 A 
ATOM     24  C   UNL     1      16.464 -50.139 -26.651  1.00  0.00     0.047 A 
ATOM     25  C   UNL     1      17.367 -51.475 -24.861  1.00  0.00     0.093 A 
ATOM     26  C   UNL     1      17.402 -51.059 -26.197  1.00  0.00     0.122 A 
BRANCH  23  27
ATOM     27  O   UNL     1      16.312 -51.338 -22.652  1.00  0.00    -0.496 OA
ATOM     28  C   UNL     1      17.422 -51.033 -21.816  1.00  0.00     0.278 C 
ENDBRANCH  23  27
BRANCH  26  29
ATOM     29  O   UNL     1      18.400 -51.626 -26.944  1.00  0.00    -0.497 OA
ATOM     30  C   UNL     1      19.559 -52.058 -26.244  1.00  0.00     0.278 C 
ENDBRANCH  26  29
ENDBRANCH  11  21
ENDBRANCH   1   7
BRANCH   4  31
ATOM     31  S   UNL     1      10.801 -55.442 -23.110  1.00  0.00     0.238 S 
ATOM     32  O   UNL     1      11.128 -55.897 -21.778  1.00  0.00    -0.207 OA
ATOM     33  O   UNL     1       9.463 -55.516 -23.646  1.00  0.00    -0.207 OA
BRANCH  31  34
ATOM     34  N   UNL     1      11.766 -56.336 -24.153  1.00  0.00    -0.225 NA
ATOM     35  H   UNL     1      11.183 -56.809 -24.844  1.00  0.00     0.137 HD
ATOM     36  H   UNL     1      12.486 -55.738 -24.557  1.00  0.00     0.137 HD
ENDBRANCH  31  34
ENDBRANCH   4  31
TORSDOF 7
ENDMDL
MODEL 6
REMARK VINA RESULT:    -8.662      4.807      8.077
REMARK INTER + INTRA:         -13.214
REMARK INTER:                 -12.002
REMARK INTRA:                  -1.213
REMARK UNBOUND:                -1.260
REMARK SMILES COc1ccc([C@H]2C=C(c3cc(F)cc(F)c3)NN2c2ccc(S(N)(=O)=O)cc2)c(OC)c1
REMARK SMILES IDX 20 1 21 2 22 3 23 4 28 5 29 6 19 7 18 8 9 9 8 10 7 11 10 13
REMARK SMILES IDX 11 14 17 15 12 16 15 17 14 18 13 19 16 20 6 21 5 22 30 23
REMARK SMILES IDX 4 24 33 25 3 26 31 27 32 28 2 29 1 30 24 31 26 32 27 33
REMARK SMILES IDX 25 34
REMARK H PARENT 18 12 25 35 25 36
ROOT
ATOM      1  C   UNL     1      12.853 -51.512 -24.667  1.00  0.00     0.058 A 
ATOM      2  C   UNL     1      12.846 -52.809 -25.212  1.00  0.00     0.029 A 
ATOM      3  C   UNL     1      12.137 -53.858 -24.616  1.00  0.00     0.024 A 
ATOM      4  C   UNL     1      11.424 -53.621 -23.443  1.00  0.00     0.082 A 
ATOM      5  C   UNL     1      11.401 -52.347 -22.879  1.00  0.00     0.024 A 
ATOM      6  C   UNL     1      12.115 -51.308 -23.489  1.00  0.00     0.029 A 
ENDROOT
BRANCH   1   7
ATOM      7  N   UNL     1      13.571 -50.491 -25.289  1.00  0.00    -0.276 N 
ATOM      8  N   UNL     1      14.466 -50.658 -26.335  1.00  0.00    -0.297 N 
ATOM      9  C   UNL     1      14.813 -49.416 -26.859  1.00  0.00     0.060 C 
ATOM     10  C   UNL     1      14.231 -48.438 -26.145  1.00  0.00     0.033 C 
ATOM     11  C   UNL     1      13.372 -49.031 -25.040  1.00  0.00     0.164 C 
ATOM     12  H   UNL     1      14.159 -51.294 -27.073  1.00  0.00     0.188 HD
BRANCH   9  13
ATOM     13  C   UNL     1      15.678 -49.288 -28.034  1.00  0.00     0.005 A 
ATOM     14  C   UNL     1      17.041 -49.608 -27.949  1.00  0.00     0.049 A 
ATOM     15  C   UNL     1      15.172 -48.863 -29.270  1.00  0.00     0.049 A 
ATOM     16  C   UNL     1      17.864 -49.496 -29.068  1.00  0.00     0.126 A 
ATOM     17  C   UNL     1      16.013 -48.760 -30.377  1.00  0.00     0.126 A 
ATOM     18  C   UNL     1      17.361 -49.074 -30.289  1.00  0.00     0.078 A 
ATOM     19  F   UNL     1      19.163 -49.804 -28.961  1.00  0.00    -0.207 F 
ATOM     20  F   UNL     1      15.509 -48.353 -31.549  1.00  0.00    -0.207 F 
ENDBRANCH   9  13
BRANCH  11  21
ATOM     21  C   UNL     1      13.838 -48.577 -23.665  1.00  0.00     0.023 A 
ATOM     22  C   UNL     1      15.153 -48.835 -23.230  1.00  0.00     0.014 A 
ATOM     23  C   UNL     1      12.976 -47.857 -22.818  1.00  0.00     0.128 A 
ATOM     24  C   UNL     1      15.598 -48.409 -21.976  1.00  0.00     0.047 A 
ATOM     25  C   UNL     1      13.433 -47.435 -21.563  1.00  0.00     0.093 A 
ATOM     26  C   UNL     1      14.738 -47.709 -21.137  1.00  0.00     0.122 A 
BRANCH  23  27
ATOM     27  O   UNL     1      11.717 -47.615 -23.306  1.00  0.00    -0.496 OA
ATOM     28  C   UNL     1      10.776 -47.017 -22.423  1.00  0.00     0.278 C 
ENDBRANCH  23  27
BRANCH  26  29
ATOM     29  O   UNL     1      15.041 -47.237 -19.888  1.00  0.00    -0.497 OA
ATOM     30  C   UNL     1      15.507 -45.896 -19.805  1.00  0.00     0.278 C 
ENDBRANCH  26  29
ENDBRANCH  11  21
ENDBRANCH   1   7
BRANCH   4  31
ATOM     31  S   UNL     1      10.500 -54.929 -22.696  1.00  0.00     0.238 S 
ATOM     32  O   UNL     1       9.636 -55.529 -23.687  1.00  0.00    -0.207 OA
ATOM     33  O   UNL     1      11.376 -55.713 -21.858  1.00  0.00    -0.207 OA
BRANCH  31  34
ATOM     34  N   UNL     1       9.490 -54.091 -21.650  1.00  0.00    -0.225 NA
ATOM     35  H   UNL     1       9.645 -54.406 -20.692  1.00  0.00     0.137 HD
ATOM     36  H   UNL     1       9.611 -53.087 -21.782  1.00  0.00     0.137 HD
ENDBRANCH  31  34
ENDBRANCH   4  31
TORSDOF 7
ENDMDL
MODEL 7
REMARK VINA RESULT:    -8.633      3.751      5.999
REMARK INTER + INTRA:         -13.174
REMARK INTER:                 -11.817
REMARK INTRA:                  -1.356
REMARK UNBOUND:                -1.260
REMARK SMILES COc1ccc([C@H]2C=C(c3cc(F)cc(F)c3)NN2c2ccc(S(N)(=O)=O)cc2)c(OC)c1
REMARK SMILES IDX 20 1 21 2 22 3 23 4 28 5 29 6 19 7 18 8 9 9 8 10 7 11 10 13
REMARK SMILES IDX 11 14 17 15 12 16 15 17 14 18 13 19 16 20 6 21 5 22 30 23
REMARK SMILES IDX 4 24 33 25 3 26 31 27 32 28 2 29 1 30 24 31 26 32 27 33
REMARK SMILES IDX 25 34
REMARK H PARENT 18 12 25 35 25 36
ROOT
ATOM      1  C   UNL     1      14.448 -47.762 -21.201  1.00  0.00     0.058 A 
ATOM      2  C   UNL     1      15.816 -47.700 -21.523  1.00  0.00     0.029 A 
ATOM      3  C   UNL     1      16.739 -47.035 -20.708  1.00  0.00     0.024 A 
ATOM      4  C   UNL     1      16.296 -46.406 -19.547  1.00  0.00     0.082 A 
ATOM      5  C   UNL     1      14.950 -46.453 -19.192  1.00  0.00     0.024 A 
ATOM      6  C   UNL     1      14.039 -47.124 -20.018  1.00  0.00     0.029 A 
ENDROOT
BRANCH   1   7
ATOM      7  N   UNL     1      13.557 -48.435 -22.037  1.00  0.00    -0.276 N 
ATOM      8  N   UNL     1      13.621 -49.780 -22.365  1.00  0.00    -0.297 N 
ATOM      9  C   UNL     1      12.453 -50.160 -23.019  1.00  0.00     0.060 C 
ATOM     10  C   UNL     1      11.657 -49.091 -23.194  1.00  0.00     0.033 C 
ATOM     11  C   UNL     1      12.295 -47.853 -22.586  1.00  0.00     0.164 C 
ATOM     12  H   UNL     1      13.826 -50.409 -21.586  1.00  0.00     0.188 HD
BRANCH   9  13
ATOM     13  C   UNL     1      12.201 -51.550 -23.408  1.00  0.00     0.005 A 
ATOM     14  C   UNL     1      11.325 -52.348 -22.656  1.00  0.00     0.049 A 
ATOM     15  C   UNL     1      12.806 -52.112 -24.539  1.00  0.00     0.049 A 
ATOM     16  C   UNL     1      11.077 -53.667 -23.031  1.00  0.00     0.126 A 
ATOM     17  C   UNL     1      12.542 -53.434 -24.895  1.00  0.00     0.126 A 
ATOM     18  C   UNL     1      11.678 -54.221 -24.149  1.00  0.00     0.078 A 
ATOM     19  F   UNL     1      10.240 -54.411 -22.295  1.00  0.00    -0.207 F 
ATOM     20  F   UNL     1      13.130 -53.951 -25.982  1.00  0.00    -0.207 F 
ENDBRANCH   9  13
BRANCH  11  21
ATOM     21  C   UNL     1      12.525 -46.772 -23.631  1.00  0.00     0.023 A 
ATOM     22  C   UNL     1      13.228 -47.057 -24.818  1.00  0.00     0.014 A 
ATOM     23  C   UNL     1      12.005 -45.478 -23.450  1.00  0.00     0.128 A 
ATOM     24  C   UNL     1      13.432 -46.078 -25.793  1.00  0.00     0.047 A 
ATOM     25  C   UNL     1      12.216 -44.503 -24.433  1.00  0.00     0.093 A 
ATOM     26  C   UNL     1      12.928 -44.796 -25.602  1.00  0.00     0.122 A 
BRANCH  23  27
ATOM     27  O   UNL     1      11.309 -45.267 -22.287  1.00  0.00    -0.496 OA
ATOM     28  C   UNL     1       9.901 -45.462 -22.322  1.00  0.00     0.278 C 
ENDBRANCH  23  27
BRANCH  26  29
ATOM     29  O   UNL     1      13.055 -43.745 -26.470  1.00  0.00    -0.497 OA
ATOM     30  C   UNL     1      12.630 -42.471 -26.003  1.00  0.00     0.278 C 
ENDBRANCH  26  29
ENDBRANCH  11  21
ENDBRANCH   1   7
BRANCH   4  31
ATOM     31  S   UNL     1      17.455 -45.588 -18.493  1.00  0.00     0.238 S 
ATOM     32  O   UNL     1      18.712 -46.300 -18.524  1.00  0.00    -0.207 OA
ATOM     33  O   UNL     1      17.369 -44.162 -18.705  1.00  0.00    -0.207 OA
BRANCH  31  34
ATOM     34  N   UNL     1      16.803 -45.868 -16.972  1.00  0.00    -0.225 NA
ATOM     35  H   UNL     1      17.477 -45.605 -16.252  1.00  0.00     0.137 HD
ATOM     36  H   UNL     1      15.903 -45.398 -16.889  1.00  0.00     0.137 HD
ENDBRANCH  31  34
ENDBRANCH   4  31
TORSDOF 7
ENDMDL
MODEL 8
REMARK VINA RESULT:    -8.544      4.783      7.530
REMARK INTER + INTRA:         -13.050
REMARK INTER:                 -11.578
REMARK INTRA:                  -1.472
REMARK UNBOUND:                -1.260
REMARK SMILES COc1ccc([C@H]2C=C(c3cc(F)cc(F)c3)NN2c2ccc(S(N)(=O)=O)cc2)c(OC)c1
REMARK SMILES IDX 20 1 21 2 22 3 23 4 28 5 29 6 19 7 18 8 9 9 8 10 7 11 10 13
REMARK SMILES IDX 11 14 17 15 12 16 15 17 14 18 13 19 16 20 6 21 5 22 30 23
REMARK SMILES IDX 4 24 33 25 3 26 31 27 32 28 2 29 1 30 24 31 26 32 27 33
REMARK SMILES IDX 25 34
REMARK H PARENT 18 12 25 35 25 36
ROOT
ATOM      1  C   UNL     1      13.377 -50.939 -24.714  1.00  0.00     0.058 A 
ATOM      2  C   UNL     1      12.655 -50.303 -23.688  1.00  0.00     0.029 A 
ATOM      3  C   UNL     1      11.698 -50.982 -22.925  1.00  0.00     0.024 A 
ATOM      4  C   UNL     1      11.440 -52.325 -23.192  1.00  0.00     0.082 A 
ATOM      5  C   UNL     1      12.141 -52.989 -24.195  1.00  0.00     0.024 A 
ATOM      6  C   UNL     1      13.097 -52.296 -24.949  1.00  0.00     0.029 A 
ENDROOT
BRANCH   1   7
ATOM      7  N   UNL     1      14.324 -50.230 -25.453  1.00  0.00    -0.276 N 
ATOM      8  N   UNL     1      14.530 -50.347 -26.820  1.00  0.00    -0.297 N 
ATOM      9  C   UNL     1      15.376 -49.332 -27.255  1.00  0.00     0.060 C 
ATOM     10  C   UNL     1      15.789 -48.597 -26.208  1.00  0.00     0.033 C 
ATOM     11  C   UNL     1      15.159 -49.109 -24.923  1.00  0.00     0.164 C 
ATOM     12  H   UNL     1      13.681 -50.384 -27.386  1.00  0.00     0.188 HD
BRANCH   9  13
ATOM     13  C   UNL     1      15.702 -49.151 -28.672  1.00  0.00     0.005 A 
ATOM     14  C   UNL     1      16.973 -49.494 -29.156  1.00  0.00     0.049 A 
ATOM     15  C   UNL     1      14.758 -48.654 -29.580  1.00  0.00     0.049 A 
ATOM     16  C   UNL     1      17.281 -49.333 -30.505  1.00  0.00     0.126 A 
ATOM     17  C   UNL     1      15.088 -48.502 -30.926  1.00  0.00     0.126 A 
ATOM     18  C   UNL     1      16.346 -48.838 -31.401  1.00  0.00     0.078 A 
ATOM     19  F   UNL     1      18.503 -49.663 -30.943  1.00  0.00    -0.207 F 
ATOM     20  F   UNL     1      14.170 -48.026 -31.777  1.00  0.00    -0.207 F 
ENDBRANCH   9  13
BRANCH  11  21
ATOM     21  C   UNL     1      16.214 -49.557 -23.923  1.00  0.00     0.023 A 
ATOM     22  C   UNL     1      17.316 -50.330 -24.337  1.00  0.00     0.014 A 
ATOM     23  C   UNL     1      16.130 -49.171 -22.572  1.00  0.00     0.128 A 
ATOM     24  C   UNL     1      18.300 -50.732 -23.431  1.00  0.00     0.047 A 
ATOM     25  C   UNL     1      17.122 -49.581 -21.673  1.00  0.00     0.093 A 
ATOM     26  C   UNL     1      18.205 -50.361 -22.094  1.00  0.00     0.122 A 
BRANCH  23  27
ATOM     27  O   UNL     1      15.048 -48.399 -22.234  1.00  0.00    -0.496 OA
ATOM     28  C   UNL     1      15.307 -47.118 -21.673  1.00  0.00     0.278 C 
ENDBRANCH  23  27
BRANCH  26  29
ATOM     29  O   UNL     1      19.093 -50.686 -21.104  1.00  0.00    -0.497 OA
ATOM     30  C   UNL     1      18.815 -50.184 -19.803  1.00  0.00     0.278 C 
ENDBRANCH  26  29
ENDBRANCH  11  21
ENDBRANCH   1   7
BRANCH   4  31
ATOM     31  S   UNL     1      10.256 -53.202 -22.217  1.00  0.00     0.238 S 
ATOM     32  O   UNL     1       9.892 -54.424 -22.895  1.00  0.00    -0.207 OA
ATOM     33  O   UNL     1      10.667 -53.179 -20.833  1.00  0.00    -0.207 OA
BRANCH  31  34
ATOM     34  N   UNL     1       8.912 -52.202 -22.315  1.00  0.00    -0.225 NA
ATOM     35  H   UNL     1       8.655 -52.062 -23.293  1.00  0.00     0.137 HD
ATOM     36  H   UNL     1       8.159 -52.575 -21.737  1.00  0.00     0.137 HD
ENDBRANCH  31  34
ENDBRANCH   4  31
TORSDOF 7
ENDMDL
MODEL 9
REMARK VINA RESULT:    -8.523      4.595      7.655
REMARK INTER + INTRA:         -13.022
REMARK INTER:                 -11.688
REMARK INTRA:                  -1.334
REMARK UNBOUND:                -1.260
REMARK SMILES COc1ccc([C@H]2C=C(c3cc(F)cc(F)c3)NN2c2ccc(S(N)(=O)=O)cc2)c(OC)c1
REMARK SMILES IDX 20 1 21 2 22 3 23 4 28 5 29 6 19 7 18 8 9 9 8 10 7 11 10 13
REMARK SMILES IDX 11 14 17 15 12 16 15 17 14 18 13 19 16 20 6 21 5 22 30 23
REMARK SMILES IDX 4 24 33 25 3 26 31 27 32 28 2 29 1 30 24 31 26 32 27 33
REMARK SMILES IDX 25 34
REMARK H PARENT 18 12 25 35 25 36
ROOT
ATOM      1  C   UNL     1      12.294 -50.518 -22.848  1.00  0.00     0.058 A 
ATOM      2  C   UNL     1      12.509 -51.464 -23.867  1.00  0.00     0.029 A 
ATOM      3  C   UNL     1      11.965 -52.752 -23.807  1.00  0.00     0.024 A 
ATOM      4  C   UNL     1      11.196 -53.119 -22.705  1.00  0.00     0.082 A 
ATOM      5  C   UNL     1      10.956 -52.206 -21.681  1.00  0.00     0.024 A 
ATOM      6  C   UNL     1      11.506 -50.920 -21.756  1.00  0.00     0.029 A 
ENDROOT
BRANCH   1   7
ATOM      7  N   UNL     1      12.851 -49.243 -22.941  1.00  0.00    -0.276 N 
ATOM      8  N   UNL     1      12.138 -48.055 -23.001  1.00  0.00    -0.297 N 
ATOM      9  C   UNL     1      13.006 -46.979 -22.849  1.00  0.00     0.060 C 
ATOM     10  C   UNL     1      14.273 -47.418 -22.763  1.00  0.00     0.033 C 
ATOM     11  C   UNL     1      14.310 -48.937 -22.825  1.00  0.00     0.164 C 
ATOM     12  H   UNL     1      11.352 -47.987 -22.353  1.00  0.00     0.188 HD
BRANCH   9  13
ATOM     13  C   UNL     1      12.521 -45.598 -22.783  1.00  0.00     0.005 A 
ATOM     14  C   UNL     1      13.130 -44.673 -21.921  1.00  0.00     0.049 A 
ATOM     15  C   UNL     1      11.457 -45.159 -23.583  1.00  0.00     0.049 A 
ATOM     16  C   UNL     1      12.675 -43.357 -21.864  1.00  0.00     0.126 A 
ATOM     17  C   UNL     1      11.021 -43.837 -23.511  1.00  0.00     0.126 A 
ATOM     18  C   UNL     1      11.622 -42.926 -22.656  1.00  0.00     0.078 A 
ATOM     19  F   UNL     1      13.270 -42.494 -21.031  1.00  0.00    -0.207 F 
ATOM     20  F   UNL     1      10.004 -43.438 -24.285  1.00  0.00    -0.207 F 
ENDBRANCH   9  13
BRANCH  11  21
ATOM     21  C   UNL     1      15.131 -49.427 -24.009  1.00  0.00     0.023 A 
ATOM     22  C   UNL     1      15.022 -48.805 -25.268  1.00  0.00     0.014 A 
ATOM     23  C   UNL     1      16.044 -50.486 -23.856  1.00  0.00     0.128 A 
ATOM     24  C   UNL     1      15.783 -49.236 -26.357  1.00  0.00     0.047 A 
ATOM     25  C   UNL     1      16.802 -50.910 -24.955  1.00  0.00     0.093 A 
ATOM     26  C   UNL     1      16.674 -50.292 -26.204  1.00  0.00     0.122 A 
BRANCH  23  27
ATOM     27  O   UNL     1      16.124 -51.036 -22.602  1.00  0.00    -0.496 OA
ATOM     28  C   UNL     1      17.401 -51.057 -21.976  1.00  0.00     0.278 C 
ENDBRANCH  23  27
BRANCH  26  29
ATOM     29  O   UNL     1      17.476 -50.815 -27.183  1.00  0.00    -0.497 OA
ATOM     30  C   UNL     1      18.485 -49.962 -27.710  1.00  0.00     0.278 C 
ENDBRANCH  26  29
ENDBRANCH  11  21
ENDBRANCH   1   7
BRANCH   4  31
ATOM     31  S   UNL     1      10.479 -54.733 -22.632  1.00  0.00     0.238 S 
ATOM     32  O   UNL     1       9.988 -55.096 -23.941  1.00  0.00    -0.207 OA
ATOM     33  O   UNL     1      11.337 -55.600 -21.859  1.00  0.00    -0.207 OA
BRANCH  31  34
ATOM     34  N   UNL     1       9.119 -54.468 -21.685  1.00  0.00    -0.225 NA
ATOM     35  H   UNL     1       8.307 -54.308 -22.282  1.00  0.00     0.137 HD
ATOM     36  H   UNL     1       9.003 -55.235 -21.023  1.00  0.00     0.137 HD
ENDBRANCH  31  34
ENDBRANCH   4  31
TORSDOF 7
ENDMDL
