MODEL 1
REMARK VINA RESULT:    -9.580      0.000      0.000
REMARK INTER + INTRA:         -12.032
REMARK INTER:                 -11.540
REMARK INTRA:                  -0.492
REMARK UNBOUND:                -0.492
REMARK SMILES C[N@H+]1CC[C@@H](CCc2c(O)c3ccccc3[nH]c2=O)CC1
REMARK SMILES IDX 7 1 8 2 9 3 11 4 18 5 12 6 16 7 17 8 13 9 15 10 14 11 19 12
REMARK SMILES IDX 10 14 6 16 5 17 20 18 4 19 21 20 3 21 2 22 1 23
REMARK H PARENT 17 13 10 15 2 24
ROOT
ATOM      1  C   UNL     1      12.001 -59.659 -22.470  1.00  0.00     0.045 C 
ENDROOT
BRANCH   1   2
ATOM      2  C   UNL     1      11.736 -58.184 -22.639  1.00  0.00     0.060 A 
ATOM      3  C   UNL     1      11.411 -57.355 -21.632  1.00  0.00     0.133 A 
ATOM      4  C   UNL     1      11.146 -55.922 -21.868  1.00  0.00     0.040 A 
ATOM      5  C   UNL     1      11.779 -57.661 -24.039  1.00  0.00     0.255 A 
ATOM      6  C   UNL     1      10.908 -54.993 -20.844  1.00  0.00     0.014 A 
ATOM      7  C   UNL     1      11.155 -55.461 -23.193  1.00  0.00     0.052 A 
ATOM      8  N   UNL     1      11.459 -56.348 -24.229  1.00  0.00    -0.321 N 
ATOM      9  C   UNL     1      10.648 -53.653 -21.146  1.00  0.00     0.001 A 
ATOM     10  C   UNL     1      10.892 -54.125 -23.499  1.00  0.00     0.027 A 
ATOM     11  C   UNL     1      10.632 -53.221 -22.471  1.00  0.00     0.002 A 
ATOM     12  O   UNL     1      12.087 -58.383 -24.983  1.00  0.00    -0.269 OA
ATOM     13  H   UNL     1      11.484 -56.023 -25.187  1.00  0.00     0.170 HD
BRANCH   3  14
ATOM     14  O   UNL     1      11.289 -57.831 -20.339  1.00  0.00    -0.507 OA
ATOM     15  H   UNL     1      10.338 -57.897 -20.139  1.00  0.00     0.293 HD
ENDBRANCH   3  14
ENDBRANCH   1   2
BRANCH   1  16
ATOM     16  C   UNL     1      10.757 -60.551 -22.624  1.00  0.00     0.009 C 
BRANCH  16  17
ATOM     17  C   UNL     1      10.962 -61.843 -23.449  1.00  0.00     0.000 C 
ATOM     18  C   UNL     1      10.265 -63.072 -22.845  1.00  0.00     0.065 C 
ATOM     19  C   UNL     1      10.484 -61.646 -24.899  1.00  0.00     0.065 C 
ATOM     20  C   UNL     1       8.748 -63.022 -22.973  1.00  0.00     0.262 C 
ATOM     21  C   UNL     1       8.967 -61.592 -25.025  1.00  0.00     0.262 C 
ATOM     22  N   UNL     1       8.369 -62.841 -24.422  1.00  0.00    -0.337 N 
ATOM     23  C   UNL     1       6.879 -62.892 -24.618  1.00  0.00     0.332 C 
ATOM     24  H   UNL     1       8.759 -63.642 -24.939  1.00  0.00     0.347 HD
ENDBRANCH  16  17
ENDBRANCH   1  16
TORSDOF 4
ENDMDL
MODEL 2
REMARK VINA RESULT:    -9.579      2.846      4.666
REMARK INTER + INTRA:         -12.031
REMARK INTER:                 -11.737
REMARK INTRA:                  -0.294
REMARK UNBOUND:                -0.492
REMARK SMILES C[N@H+]1CC[C@@H](CCc2c(O)c3ccccc3[nH]c2=O)CC1
REMARK SMILES IDX 7 1 8 2 9 3 11 4 18 5 12 6 16 7 17 8 13 9 15 10 14 11 19 12
REMARK SMILES IDX 10 14 6 16 5 17 20 18 4 19 21 20 3 21 2 22 1 23
REMARK H PARENT 17 13 10 15 2 24
ROOT
ATOM      1  C   UNL     1      10.357 -55.652 -23.125  1.00  0.00     0.045 C 
ENDROOT
BRANCH   1   2
ATOM      2  C   UNL     1      11.032 -54.334 -23.408  1.00  0.00     0.060 A 
ATOM      3  C   UNL     1      11.833 -54.106 -24.465  1.00  0.00     0.133 A 
ATOM      4  C   UNL     1      12.479 -52.796 -24.674  1.00  0.00     0.040 A 
ATOM      5  C   UNL     1      10.833 -53.257 -22.390  1.00  0.00     0.255 A 
ATOM      6  C   UNL     1      13.234 -52.472 -25.810  1.00  0.00     0.014 A 
ATOM      7  C   UNL     1      12.308 -51.813 -23.688  1.00  0.00     0.052 A 
ATOM      8  N   UNL     1      11.502 -52.083 -22.578  1.00  0.00    -0.321 N 
ATOM      9  C   UNL     1      13.832 -51.213 -25.931  1.00  0.00     0.001 A 
ATOM     10  C   UNL     1      12.906 -50.557 -23.803  1.00  0.00     0.027 A 
ATOM     11  C   UNL     1      13.675 -50.260 -24.927  1.00  0.00     0.002 A 
ATOM     12  O   UNL     1      10.098 -53.420 -21.421  1.00  0.00    -0.269 OA
ATOM     13  H   UNL     1      11.360 -51.376 -21.869  1.00  0.00     0.170 HD
BRANCH   3  14
ATOM     14  O   UNL     1      12.094 -55.111 -25.379  1.00  0.00    -0.507 OA
ATOM     15  H   UNL     1      12.996 -55.438 -25.205  1.00  0.00     0.293 HD
ENDBRANCH   3  14
ENDBRANCH   1   2
BRANCH   1  16
ATOM     16  C   UNL     1      11.315 -56.785 -22.719  1.00  0.00     0.009 C 
BRANCH  16  17
ATOM     17  C   UNL     1      10.655 -57.996 -22.020  1.00  0.00     0.000 C 
ATOM     18  C   UNL     1       9.404 -58.514 -22.746  1.00  0.00     0.065 C 
ATOM     19  C   UNL     1      11.663 -59.148 -21.857  1.00  0.00     0.065 C 
ATOM     20  C   UNL     1       9.722 -59.221 -24.057  1.00  0.00     0.262 C 
ATOM     21  C   UNL     1      11.984 -59.851 -23.168  1.00  0.00     0.262 C 
ATOM     22  N   UNL     1      10.703 -60.339 -23.803  1.00  0.00    -0.337 N 
ATOM     23  C   UNL     1      10.971 -61.138 -25.048  1.00  0.00     0.332 C 
ATOM     24  H   UNL     1      10.260 -60.983 -23.133  1.00  0.00     0.347 HD
ENDBRANCH  16  17
ENDBRANCH   1  16
TORSDOF 4
ENDMDL
MODEL 3
REMARK VINA RESULT:    -9.046      2.505      3.704
REMARK INTER + INTRA:         -11.389
REMARK INTER:                 -11.268
REMARK INTRA:                  -0.121
REMARK UNBOUND:                -0.492
REMARK SMILES C[N@H+]1CC[C@@H](CCc2c(O)c3ccccc3[nH]c2=O)CC1
REMARK SMILES IDX 7 1 8 2 9 3 11 4 18 5 12 6 16 7 17 8 13 9 15 10 14 11 19 12
REMARK SMILES IDX 10 14 6 16 5 17 20 18 4 19 21 20 3 21 2 22 1 23
REMARK H PARENT 17 13 10 15 2 24
ROOT
ATOM      1  C   UNL     1      10.338 -56.199 -22.780  1.00  0.00     0.045 C 
ENDROOT
BRANCH   1   2
ATOM      2  C   UNL     1      10.935 -54.837 -23.029  1.00  0.00     0.060 A 
ATOM      3  C   UNL     1      10.721 -53.763 -22.249  1.00  0.00     0.133 A 
ATOM      4  C   UNL     1      11.324 -52.452 -22.560  1.00  0.00     0.040 A 
ATOM      5  C   UNL     1      11.755 -54.693 -24.272  1.00  0.00     0.255 A 
ATOM      6  C   UNL     1      11.222 -51.329 -21.725  1.00  0.00     0.014 A 
ATOM      7  C   UNL     1      12.057 -52.331 -23.749  1.00  0.00     0.052 A 
ATOM      8  N   UNL     1      12.236 -53.451 -24.566  1.00  0.00    -0.321 N 
ATOM      9  C   UNL     1      11.805 -50.113 -22.096  1.00  0.00     0.001 A 
ATOM     10  C   UNL     1      12.638 -51.117 -24.124  1.00  0.00     0.027 A 
ATOM     11  C   UNL     1      12.505 -50.005 -23.295  1.00  0.00     0.002 A 
ATOM     12  O   UNL     1      11.986 -55.652 -25.002  1.00  0.00    -0.269 OA
ATOM     13  H   UNL     1      12.776 -53.378 -25.418  1.00  0.00     0.170 HD
BRANCH   3  14
ATOM     14  O   UNL     1       9.904 -53.853 -21.137  1.00  0.00    -0.507 OA
ATOM     15  H   UNL     1       9.155 -53.245 -21.273  1.00  0.00     0.293 HD
ENDBRANCH   3  14
ENDBRANCH   1   2
BRANCH   1  16
ATOM     16  C   UNL     1      11.313 -57.221 -22.170  1.00  0.00     0.009 C 
BRANCH  16  17
ATOM     17  C   UNL     1      10.738 -58.640 -21.951  1.00  0.00     0.000 C 
ATOM     18  C   UNL     1       9.454 -58.911 -22.750  1.00  0.00     0.065 C 
ATOM     19  C   UNL     1      11.787 -59.713 -22.293  1.00  0.00     0.065 C 
ATOM     20  C   UNL     1       9.700 -59.050 -24.247  1.00  0.00     0.262 C 
ATOM     21  C   UNL     1      12.036 -59.849 -23.789  1.00  0.00     0.262 C 
ATOM     22  N   UNL     1      10.728 -60.128 -24.491  1.00  0.00    -0.337 N 
ATOM     23  C   UNL     1      10.930 -60.381 -25.959  1.00  0.00     0.332 C 
ATOM     24  H   UNL     1      10.352 -61.000 -24.094  1.00  0.00     0.347 HD
ENDBRANCH  16  17
ENDBRANCH   1  16
TORSDOF 4
ENDMDL
MODEL 4
REMARK VINA RESULT:    -8.955      3.396      8.349
REMARK INTER + INTRA:         -11.279
REMARK INTER:                 -10.729
REMARK INTRA:                  -0.550
REMARK UNBOUND:                -0.492
REMARK SMILES C[N@H+]1CC[C@@H](CCc2c(O)c3ccccc3[nH]c2=O)CC1
REMARK SMILES IDX 7 1 8 2 9 3 11 4 18 5 12 6 16 7 17 8 13 9 15 10 14 11 19 12
REMARK SMILES IDX 10 14 6 16 5 17 20 18 4 19 21 20 3 21 2 22 1 23
REMARK H PARENT 17 13 10 15 2 24
ROOT
ATOM      1  C   UNL     1      11.016 -52.684 -23.204  1.00  0.00     0.045 C 
ENDROOT
BRANCH   1   2
ATOM      2  C   UNL     1      11.150 -54.133 -22.808  1.00  0.00     0.060 A 
ATOM      3  C   UNL     1      11.424 -55.129 -23.669  1.00  0.00     0.133 A 
ATOM      4  C   UNL     1      11.524 -56.531 -23.219  1.00  0.00     0.040 A 
ATOM      5  C   UNL     1      10.885 -54.453 -21.372  1.00  0.00     0.255 A 
ATOM      6  C   UNL     1      11.912 -57.591 -24.051  1.00  0.00     0.014 A 
ATOM      7  C   UNL     1      11.235 -56.813 -21.875  1.00  0.00     0.052 A 
ATOM      8  N   UNL     1      10.916 -55.767 -21.005  1.00  0.00    -0.321 N 
ATOM      9  C   UNL     1      11.967 -58.899 -23.557  1.00  0.00     0.001 A 
ATOM     10  C   UNL     1      11.286 -58.117 -21.380  1.00  0.00     0.027 A 
ATOM     11  C   UNL     1      11.648 -59.162 -22.227  1.00  0.00     0.002 A 
ATOM     12  O   UNL     1      10.647 -53.571 -20.552  1.00  0.00    -0.269 OA
ATOM     13  H   UNL     1      10.721 -55.957 -20.031  1.00  0.00     0.170 HD
BRANCH   3  14
ATOM     14  O   UNL     1      11.597 -54.868 -25.016  1.00  0.00    -0.507 OA
ATOM     15  H   UNL     1      11.196 -55.604 -25.512  1.00  0.00     0.293 HD
ENDBRANCH   3  14
ENDBRANCH   1   2
BRANCH   1  16
ATOM     16  C   UNL     1      12.239 -51.814 -22.864  1.00  0.00     0.009 C 
BRANCH  16  17
ATOM     17  C   UNL     1      12.754 -50.913 -24.011  1.00  0.00     0.000 C 
ATOM     18  C   UNL     1      14.000 -50.097 -23.635  1.00  0.00     0.065 C 
ATOM     19  C   UNL     1      13.051 -51.748 -25.269  1.00  0.00     0.065 C 
ATOM     20  C   UNL     1      15.256 -50.949 -23.505  1.00  0.00     0.262 C 
ATOM     21  C   UNL     1      14.304 -52.602 -25.137  1.00  0.00     0.262 C 
ATOM     22  N   UNL     1      15.478 -51.720 -24.783  1.00  0.00    -0.337 N 
ATOM     23  C   UNL     1      16.764 -52.497 -24.747  1.00  0.00     0.332 C 
ATOM     24  H   UNL     1      15.575 -51.029 -25.540  1.00  0.00     0.347 HD
ENDBRANCH  16  17
ENDBRANCH   1  16
TORSDOF 4
ENDMDL
MODEL 5
REMARK VINA RESULT:    -8.818      1.831      6.803
REMARK INTER + INTRA:         -11.114
REMARK INTER:                 -10.618
REMARK INTRA:                  -0.496
REMARK UNBOUND:                -0.492
REMARK SMILES C[N@H+]1CC[C@@H](CCc2c(O)c3ccccc3[nH]c2=O)CC1
REMARK SMILES IDX 7 1 8 2 9 3 11 4 18 5 12 6 16 7 17 8 13 9 15 10 14 11 19 12
REMARK SMILES IDX 10 14 6 16 5 17 20 18 4 19 21 20 3 21 2 22 1 23
REMARK H PARENT 17 13 10 15 2 24
ROOT
ATOM      1  C   UNL     1      12.207 -59.761 -24.409  1.00  0.00     0.045 C 
ENDROOT
BRANCH   1   2
ATOM      2  C   UNL     1      11.025 -60.620 -24.781  1.00  0.00     0.060 A 
ATOM      3  C   UNL     1      10.493 -61.561 -23.982  1.00  0.00     0.133 A 
ATOM      4  C   UNL     1       9.345 -62.382 -24.415  1.00  0.00     0.040 A 
ATOM      5  C   UNL     1      10.482 -60.435 -26.163  1.00  0.00     0.255 A 
ATOM      6  C   UNL     1       8.685 -63.299 -23.585  1.00  0.00     0.014 A 
ATOM      7  C   UNL     1       8.877 -62.217 -25.727  1.00  0.00     0.052 A 
ATOM      8  N   UNL     1       9.468 -61.259 -26.555  1.00  0.00    -0.321 N 
ATOM      9  C   UNL     1       7.614 -64.056 -24.071  1.00  0.00     0.001 A 
ATOM     10  C   UNL     1       7.810 -62.972 -26.217  1.00  0.00     0.027 A 
ATOM     11  C   UNL     1       7.182 -63.898 -25.386  1.00  0.00     0.002 A 
ATOM     12  O   UNL     1      10.931 -59.576 -26.917  1.00  0.00    -0.269 OA
ATOM     13  H   UNL     1       9.128 -61.121 -27.497  1.00  0.00     0.170 HD
BRANCH   3  14
ATOM     14  O   UNL     1      11.027 -61.805 -22.729  1.00  0.00    -0.507 OA
ATOM     15  H   UNL     1      11.883 -62.251 -22.857  1.00  0.00     0.293 HD
ENDBRANCH   3  14
ENDBRANCH   1   2
BRANCH   1  16
ATOM     16  C   UNL     1      11.839 -58.361 -23.887  1.00  0.00     0.009 C 
BRANCH  16  17
ATOM     17  C   UNL     1      10.847 -58.334 -22.701  1.00  0.00     0.000 C 
ATOM     18  C   UNL     1      11.334 -57.488 -21.515  1.00  0.00     0.065 C 
ATOM     19  C   UNL     1       9.466 -57.826 -23.156  1.00  0.00     0.065 C 
ATOM     20  C   UNL     1      11.311 -55.992 -21.797  1.00  0.00     0.262 C 
ATOM     21  C   UNL     1       9.445 -56.331 -23.442  1.00  0.00     0.262 C 
ATOM     22  N   UNL     1       9.923 -55.580 -22.223  1.00  0.00    -0.337 N 
ATOM     23  C   UNL     1       9.818 -54.092 -22.412  1.00  0.00     0.332 C 
ATOM     24  H   UNL     1       9.286 -55.821 -21.450  1.00  0.00     0.347 HD
ENDBRANCH  16  17
ENDBRANCH   1  16
TORSDOF 4
ENDMDL
MODEL 6
REMARK VINA RESULT:    -8.790      3.196      8.039
REMARK INTER + INTRA:         -11.080
REMARK INTER:                 -10.571
REMARK INTRA:                  -0.509
REMARK UNBOUND:                -0.492
REMARK SMILES C[N@H+]1CC[C@@H](CCc2c(O)c3ccccc3[nH]c2=O)CC1
REMARK SMILES IDX 7 1 8 2 9 3 11 4 18 5 12 6 16 7 17 8 13 9 15 10 14 11 19 12
REMARK SMILES IDX 10 14 6 16 5 17 20 18 4 19 21 20 3 21 2 22 1 23
REMARK H PARENT 17 13 10 15 2 24
ROOT
ATOM      1  C   UNL     1      11.223 -53.326 -23.885  1.00  0.00     0.045 C 
ENDROOT
BRANCH   1   2
ATOM      2  C   UNL     1      11.399 -54.821 -23.800  1.00  0.00     0.060 A 
ATOM      3  C   UNL     1      11.111 -55.555 -22.711  1.00  0.00     0.133 A 
ATOM      4  C   UNL     1      11.324 -57.015 -22.687  1.00  0.00     0.040 A 
ATOM      5  C   UNL     1      12.001 -55.485 -24.998  1.00  0.00     0.255 A 
ATOM      6  C   UNL     1      10.943 -57.842 -21.620  1.00  0.00     0.014 A 
ATOM      7  C   UNL     1      11.924 -57.611 -23.807  1.00  0.00     0.052 A 
ATOM      8  N   UNL     1      12.250 -56.824 -24.915  1.00  0.00    -0.321 N 
ATOM      9  C   UNL     1      11.194 -59.217 -21.661  1.00  0.00     0.001 A 
ATOM     10  C   UNL     1      12.179 -58.983 -23.850  1.00  0.00     0.027 A 
ATOM     11  C   UNL     1      11.817 -59.786 -22.770  1.00  0.00     0.002 A 
ATOM     12  O   UNL     1      12.263 -54.852 -26.017  1.00  0.00    -0.269 OA
ATOM     13  H   UNL     1      12.669 -57.246 -25.733  1.00  0.00     0.170 HD
BRANCH   3  14
ATOM     14  O   UNL     1      10.627 -54.953 -21.564  1.00  0.00    -0.507 OA
ATOM     15  H   UNL     1      11.303 -55.055 -20.871  1.00  0.00     0.293 HD
ENDBRANCH   3  14
ENDBRANCH   1   2
BRANCH   1  16
ATOM     16  C   UNL     1      12.336 -52.513 -23.200  1.00  0.00     0.009 C 
BRANCH  16  17
ATOM     17  C   UNL     1      12.852 -51.291 -23.995  1.00  0.00     0.000 C 
ATOM     18  C   UNL     1      13.993 -50.540 -23.291  1.00  0.00     0.065 C 
ATOM     19  C   UNL     1      13.311 -51.710 -25.403  1.00  0.00     0.065 C 
ATOM     20  C   UNL     1      15.304 -51.314 -23.287  1.00  0.00     0.262 C 
ATOM     21  C   UNL     1      14.620 -52.486 -25.398  1.00  0.00     0.262 C 
ATOM     22  N   UNL     1      15.684 -51.671 -24.703  1.00  0.00    -0.337 N 
ATOM     23  C   UNL     1      17.027 -52.344 -24.766  1.00  0.00     0.332 C 
ATOM     24  H   UNL     1      15.776 -50.787 -25.223  1.00  0.00     0.347 HD
ENDBRANCH  16  17
ENDBRANCH   1  16
TORSDOF 4
ENDMDL
MODEL 7
REMARK VINA RESULT:    -8.485      2.258      7.460
REMARK INTER + INTRA:         -10.713
REMARK INTER:                 -10.246
REMARK INTRA:                  -0.467
REMARK UNBOUND:                -0.492
REMARK SMILES C[N@H+]1CC[C@@H](CCc2c(O)c3ccccc3[nH]c2=O)CC1
REMARK SMILES IDX 7 1 8 2 9 3 11 4 18 5 12 6 16 7 17 8 13 9 15 10 14 11 19 12
REMARK SMILES IDX 10 14 6 16 5 17 20 18 4 19 21 20 3 21 2 22 1 23
REMARK H PARENT 17 13 10 15 2 24
ROOT
ATOM      1  C   UNL     1       9.118 -57.433 -23.817  1.00  0.00     0.045 C 
ENDROOT
BRANCH   1   2
ATOM      2  C   UNL     1       8.722 -58.868 -23.578  1.00  0.00     0.060 A 
ATOM      3  C   UNL     1       9.594 -59.865 -23.351  1.00  0.00     0.133 A 
ATOM      4  C   UNL     1       9.140 -61.254 -23.142  1.00  0.00     0.040 A 
ATOM      5  C   UNL     1       7.261 -59.175 -23.679  1.00  0.00     0.255 A 
ATOM      6  C   UNL     1       9.995 -62.311 -22.796  1.00  0.00     0.014 A 
ATOM      7  C   UNL     1       7.770 -61.525 -23.278  1.00  0.00     0.052 A 
ATOM      8  N   UNL     1       6.884 -60.480 -23.551  1.00  0.00    -0.321 N 
ATOM      9  C   UNL     1       9.494 -63.606 -22.632  1.00  0.00     0.001 A 
ATOM     10  C   UNL     1       7.267 -62.818 -23.118  1.00  0.00     0.027 A 
ATOM     11  C   UNL     1       8.134 -63.861 -22.799  1.00  0.00     0.002 A 
ATOM     12  O   UNL     1       6.432 -58.290 -23.869  1.00  0.00    -0.269 OA
ATOM     13  H   UNL     1       5.893 -60.662 -23.636  1.00  0.00     0.170 HD
BRANCH   3  14
ATOM     14  O   UNL     1      10.955 -59.619 -23.331  1.00  0.00    -0.507 OA
ATOM     15  H   UNL     1      11.213 -59.474 -22.403  1.00  0.00     0.293 HD
ENDBRANCH   3  14
ENDBRANCH   1   2
BRANCH   1  16
ATOM     16  C   UNL     1       9.429 -56.636 -22.538  1.00  0.00     0.009 C 
BRANCH  16  17
ATOM     17  C   UNL     1      10.902 -56.194 -22.371  1.00  0.00     0.000 C 
ATOM     18  C   UNL     1      11.432 -55.370 -23.554  1.00  0.00     0.065 C 
ATOM     19  C   UNL     1      11.086 -55.394 -21.069  1.00  0.00     0.065 C 
ATOM     20  C   UNL     1      10.836 -53.970 -23.623  1.00  0.00     0.262 C 
ATOM     21  C   UNL     1      10.487 -53.996 -21.137  1.00  0.00     0.262 C 
ATOM     22  N   UNL     1      11.073 -53.256 -22.315  1.00  0.00    -0.337 N 
ATOM     23  C   UNL     1      10.597 -51.830 -22.366  1.00  0.00     0.332 C 
ATOM     24  H   UNL     1      12.092 -53.218 -22.171  1.00  0.00     0.347 HD
ENDBRANCH  16  17
ENDBRANCH   1  16
TORSDOF 4
ENDMDL
MODEL 8
REMARK VINA RESULT:    -8.409      5.786     11.125
REMARK INTER + INTRA:         -10.621
REMARK INTER:                 -10.121
REMARK INTRA:                  -0.500
REMARK UNBOUND:                -0.492
REMARK SMILES C[N@H+]1CC[C@@H](CCc2c(O)c3ccccc3[nH]c2=O)CC1
REMARK SMILES IDX 7 1 8 2 9 3 11 4 18 5 12 6 16 7 17 8 13 9 15 10 14 11 19 12
REMARK SMILES IDX 10 14 6 16 5 17 20 18 4 19 21 20 3 21 2 22 1 23
REMARK H PARENT 17 13 10 15 2 24
ROOT
ATOM      1  C   UNL     1      13.368 -49.340 -23.453  1.00  0.00     0.045 C 
ENDROOT
BRANCH   1   2
ATOM      2  C   UNL     1      12.729 -50.706 -23.476  1.00  0.00     0.060 A 
ATOM      3  C   UNL     1      12.035 -51.232 -22.452  1.00  0.00     0.133 A 
ATOM      4  C   UNL     1      11.449 -52.584 -22.533  1.00  0.00     0.040 A 
ATOM      5  C   UNL     1      12.965 -51.525 -24.705  1.00  0.00     0.255 A 
ATOM      6  C   UNL     1      10.628 -53.139 -21.540  1.00  0.00     0.014 A 
ATOM      7  C   UNL     1      11.714 -53.349 -23.679  1.00  0.00     0.052 A 
ATOM      8  N   UNL     1      12.471 -52.796 -24.716  1.00  0.00    -0.321 N 
ATOM      9  C   UNL     1      10.123 -54.436 -21.678  1.00  0.00     0.001 A 
ATOM     10  C   UNL     1      11.215 -54.645 -23.818  1.00  0.00     0.027 A 
ATOM     11  C   UNL     1      10.421 -55.190 -22.811  1.00  0.00     0.002 A 
ATOM     12  O   UNL     1      13.581 -51.075 -25.666  1.00  0.00    -0.269 OA
ATOM     13  H   UNL     1      12.655 -53.333 -25.553  1.00  0.00     0.170 HD
BRANCH   3  14
ATOM     14  O   UNL     1      11.869 -50.524 -21.276  1.00  0.00    -0.507 OA
ATOM     15  H   UNL     1      12.705 -50.580 -20.779  1.00  0.00     0.293 HD
ENDBRANCH   3  14
ENDBRANCH   1   2
BRANCH   1  16
ATOM     16  C   UNL     1      12.606 -48.266 -24.249  1.00  0.00     0.009 C 
BRANCH  16  17
ATOM     17  C   UNL     1      11.468 -47.553 -23.483  1.00  0.00     0.000 C 
ATOM     18  C   UNL     1      11.872 -47.094 -22.074  1.00  0.00     0.065 C 
ATOM     19  C   UNL     1      10.946 -46.345 -24.282  1.00  0.00     0.065 C 
ATOM     20  C   UNL     1      12.841 -45.919 -22.082  1.00  0.00     0.262 C 
ATOM     21  C   UNL     1      11.916 -45.172 -24.293  1.00  0.00     0.262 C 
ATOM     22  N   UNL     1      12.246 -44.780 -22.873  1.00  0.00    -0.337 N 
ATOM     23  C   UNL     1      13.116 -43.555 -22.824  1.00  0.00     0.332 C 
ATOM     24  H   UNL     1      11.358 -44.526 -22.416  1.00  0.00     0.347 HD
ENDBRANCH  16  17
ENDBRANCH   1  16
TORSDOF 4
ENDMDL
MODEL 9
REMARK VINA RESULT:    -8.389      2.311      7.063
REMARK INTER + INTRA:         -10.597
REMARK INTER:                 -10.421
REMARK INTRA:                  -0.177
REMARK UNBOUND:                -0.492
REMARK SMILES C[N@H+]1CC[C@@H](CCc2c(O)c3ccccc3[nH]c2=O)CC1
REMARK SMILES IDX 7 1 8 2 9 3 11 4 18 5 12 6 16 7 17 8 13 9 15 10 14 11 19 12
REMARK SMILES IDX 10 14 6 16 5 17 20 18 4 19 21 20 3 21 2 22 1 23
REMARK H PARENT 17 13 10 15 2 24
ROOT
ATOM      1  C   UNL     1      10.999 -57.948 -22.072  1.00  0.00     0.045 C 
ENDROOT
BRANCH   1   2
ATOM      2  C   UNL     1      10.760 -58.698 -23.358  1.00  0.00     0.060 A 
ATOM      3  C   UNL     1      11.556 -58.620 -24.438  1.00  0.00     0.133 A 
ATOM      4  C   UNL     1      11.255 -59.369 -25.674  1.00  0.00     0.040 A 
ATOM      5  C   UNL     1       9.509 -59.516 -23.422  1.00  0.00     0.255 A 
ATOM      6  C   UNL     1      12.104 -59.408 -26.789  1.00  0.00     0.014 A 
ATOM      7  C   UNL     1      10.058 -60.099 -25.725  1.00  0.00     0.052 A 
ATOM      8  N   UNL     1       9.225 -60.137 -24.604  1.00  0.00    -0.321 N 
ATOM      9  C   UNL     1      11.743 -60.126 -27.934  1.00  0.00     0.001 A 
ATOM     10  C   UNL     1       9.692 -60.814 -26.867  1.00  0.00     0.027 A 
ATOM     11  C   UNL     1      10.536 -60.821 -27.976  1.00  0.00     0.002 A 
ATOM     12  O   UNL     1       8.764 -59.625 -22.453  1.00  0.00    -0.269 OA
ATOM     13  H   UNL     1       8.367 -60.672 -24.625  1.00  0.00     0.170 HD
BRANCH   3  14
ATOM     14  O   UNL     1      12.677 -57.810 -24.429  1.00  0.00    -0.507 OA
ATOM     15  H   UNL     1      13.404 -58.310 -24.841  1.00  0.00     0.293 HD
ENDBRANCH   3  14
ENDBRANCH   1   2
BRANCH   1  16
ATOM     16  C   UNL     1      11.358 -56.463 -22.258  1.00  0.00     0.009 C 
BRANCH  16  17
ATOM     17  C   UNL     1      10.201 -55.553 -22.733  1.00  0.00     0.000 C 
ATOM     18  C   UNL     1       9.752 -54.532 -21.677  1.00  0.00     0.065 C 
ATOM     19  C   UNL     1      10.585 -54.813 -24.028  1.00  0.00     0.065 C 
ATOM     20  C   UNL     1      10.768 -53.420 -21.451  1.00  0.00     0.262 C 
ATOM     21  C   UNL     1      11.603 -53.705 -23.802  1.00  0.00     0.262 C 
ATOM     22  N   UNL     1      11.075 -52.742 -22.765  1.00  0.00    -0.337 N 
ATOM     23  C   UNL     1      11.994 -51.566 -22.582  1.00  0.00     0.332 C 
ATOM     24  H   UNL     1      10.187 -52.366 -23.126  1.00  0.00     0.347 HD
ENDBRANCH  16  17
ENDBRANCH   1  16
TORSDOF 4
ENDMDL
