MODEL 1
REMARK VINA RESULT:   -12.486      0.000      0.000
REMARK INTER + INTRA:         -16.541
REMARK INTER:                 -16.136
REMARK INTRA:                  -0.405
REMARK UNBOUND:                -0.405
REMARK SMILES Cn1c(=O)cc2cc3o[nH]c(CC[C@H]4CC[N@H+](Cc5ccccc5)CC4)c3cc21
REMARK SMILES IDX 13 1 12 2 11 3 10 4 9 5 8 6 27 7 7 8 28 9 6 10 29 11 5 12
REMARK SMILES IDX 2 13 3 14 1 16 4 17 14 18 26 19 15 20 25 21 16 22 17 23
REMARK SMILES IDX 18 25 19 26 20 27 24 28 21 29 23 30 22 31
REMARK H PARENT 10 15 17 24
ROOT
ATOM      1  C   UNL     1      10.769 -60.610 -22.528  1.00  0.00     0.010 C 
ENDROOT
BRANCH   1   2
ATOM      2  C   UNL     1       9.888 -61.703 -21.896  1.00  0.00     0.058 C 
BRANCH   2   3
ATOM      3  C   UNL     1       9.027 -62.457 -22.855  1.00  0.00     0.060 A 
ATOM      4  N   UNL     1       8.101 -63.402 -22.409  1.00  0.00    -0.226 N 
ATOM      5  O   UNL     1       7.354 -63.919 -23.502  1.00  0.00    -0.382 OA
ATOM      6  C   UNL     1       7.940 -63.318 -24.600  1.00  0.00     0.164 A 
ATOM      7  C   UNL     1       8.984 -62.385 -24.191  1.00  0.00     0.044 A 
ATOM      8  C   UNL     1       7.633 -63.510 -25.894  1.00  0.00     0.061 A 
ATOM      9  C   UNL     1       9.732 -61.587 -25.147  1.00  0.00     0.041 A 
ATOM     10  C   UNL     1       8.400 -62.735 -26.855  1.00  0.00     0.008 A 
ATOM     11  C   UNL     1       9.428 -61.785 -26.439  1.00  0.00     0.052 A 
ATOM     12  C   UNL     1       8.301 -62.739 -28.190  1.00  0.00     0.082 A 
ATOM     13  N   UNL     1       9.931 -61.225 -27.576  1.00  0.00    -0.311 N 
ATOM     14  C   UNL     1       9.298 -61.758 -28.691  1.00  0.00     0.251 A 
ATOM     15  H   UNL     1       7.489 -63.037 -21.677  1.00  0.00     0.208 HD
ATOM     16  C   UNL     1      10.952 -60.214 -27.644  1.00  0.00     0.153 C 
ATOM     17  O   UNL     1       9.486 -61.513 -29.869  1.00  0.00    -0.269 OA
ENDBRANCH   2   3
ENDBRANCH   1   2
BRANCH   1  18
ATOM     18  C   UNL     1      10.343 -59.148 -22.253  1.00  0.00     0.000 C 
ATOM     19  C   UNL     1      11.607 -58.276 -22.116  1.00  0.00     0.065 C 
ATOM     20  C   UNL     1       9.427 -58.564 -23.342  1.00  0.00     0.065 C 
ATOM     21  C   UNL     1      11.280 -56.802 -21.909  1.00  0.00     0.262 C 
ATOM     22  C   UNL     1       9.132 -57.084 -23.129  1.00  0.00     0.262 C 
ATOM     23  N   UNL     1      10.429 -56.324 -23.054  1.00  0.00    -0.331 N 
ATOM     24  H   UNL     1      10.943 -56.542 -23.917  1.00  0.00     0.348 HD
BRANCH  23  25
ATOM     25  C   UNL     1      10.250 -54.819 -23.091  1.00  0.00     0.299 C 
BRANCH  25  26
ATOM     26  C   UNL     1      11.293 -54.050 -23.856  1.00  0.00     0.006 A 
ATOM     27  C   UNL     1      11.654 -52.750 -23.465  1.00  0.00     0.009 A 
ATOM     28  C   UNL     1      11.921 -54.616 -24.977  1.00  0.00     0.009 A 
ATOM     29  C   UNL     1      12.608 -52.032 -24.187  1.00  0.00     0.001 A 
ATOM     30  C   UNL     1      12.874 -53.894 -25.697  1.00  0.00     0.001 A 
ATOM     31  C   UNL     1      13.214 -52.601 -25.303  1.00  0.00     0.000 A 
ENDBRANCH  25  26
ENDBRANCH  23  25
ENDBRANCH   1  18
TORSDOF 5
ENDMDL
MODEL 2
REMARK VINA RESULT:   -12.317      4.208     10.034
REMARK INTER + INTRA:         -16.323
REMARK INTER:                 -16.002
REMARK INTRA:                  -0.321
REMARK UNBOUND:                -0.405
REMARK SMILES Cn1c(=O)cc2cc3o[nH]c(CC[C@H]4CC[N@H+](Cc5ccccc5)CC4)c3cc21
REMARK SMILES IDX 13 1 12 2 11 3 10 4 9 5 8 6 27 7 7 8 28 9 6 10 29 11 5 12
REMARK SMILES IDX 2 13 3 14 1 16 4 17 14 18 26 19 15 20 25 21 16 22 17 23
REMARK SMILES IDX 18 25 19 26 20 27 24 28 21 29 23 30 22 31
REMARK H PARENT 10 15 17 24
ROOT
ATOM      1  C   UNL     1      11.358 -56.316 -22.110  1.00  0.00     0.010 C 
ENDROOT
BRANCH   1   2
ATOM      2  C   UNL     1      11.318 -55.197 -23.166  1.00  0.00     0.058 C 
BRANCH   2   3
ATOM      3  C   UNL     1      11.061 -53.826 -22.630  1.00  0.00     0.060 A 
ATOM      4  N   UNL     1      10.232 -53.625 -21.525  1.00  0.00    -0.226 N 
ATOM      5  O   UNL     1      10.213 -52.251 -21.164  1.00  0.00    -0.382 OA
ATOM      6  C   UNL     1      10.975 -51.652 -22.149  1.00  0.00     0.164 A 
ATOM      7  C   UNL     1      11.523 -52.648 -23.065  1.00  0.00     0.044 A 
ATOM      8  C   UNL     1      11.231 -50.342 -22.298  1.00  0.00     0.061 A 
ATOM      9  C   UNL     1      12.396 -52.292 -24.168  1.00  0.00     0.041 A 
ATOM     10  C   UNL     1      12.081 -49.979 -23.421  1.00  0.00     0.008 A 
ATOM     11  C   UNL     1      12.645 -50.981 -24.319  1.00  0.00     0.052 A 
ATOM     12  C   UNL     1      12.483 -48.758 -23.795  1.00  0.00     0.082 A 
ATOM     13  N   UNL     1      13.397 -50.309 -25.237  1.00  0.00    -0.311 N 
ATOM     14  C   UNL     1      13.347 -48.945 -24.989  1.00  0.00     0.251 A 
ATOM     15  H   UNL     1      10.484 -54.216 -20.731  1.00  0.00     0.208 HD
ATOM     16  C   UNL     1      14.160 -50.901 -26.305  1.00  0.00     0.153 C 
ATOM     17  O   UNL     1      13.879 -48.035 -25.598  1.00  0.00    -0.269 OA
ENDBRANCH   2   3
ENDBRANCH   1   2
BRANCH   1  18
ATOM     18  C   UNL     1      10.853 -57.705 -22.568  1.00  0.00     0.000 C 
ATOM     19  C   UNL     1      11.655 -58.143 -23.810  1.00  0.00     0.065 C 
ATOM     20  C   UNL     1      10.960 -58.783 -21.477  1.00  0.00     0.065 C 
ATOM     21  C   UNL     1      11.268 -59.535 -24.293  1.00  0.00     0.262 C 
ATOM     22  C   UNL     1      10.592 -60.171 -21.986  1.00  0.00     0.262 C 
ATOM     23  N   UNL     1      11.461 -60.514 -23.166  1.00  0.00    -0.331 N 
ATOM     24  H   UNL     1      12.432 -60.415 -22.850  1.00  0.00     0.348 HD
BRANCH  23  25
ATOM     25  C   UNL     1      11.350 -61.965 -23.597  1.00  0.00     0.299 C 
BRANCH  25  26
ATOM     26  C   UNL     1       9.953 -62.481 -23.816  1.00  0.00     0.006 A 
ATOM     27  C   UNL     1       9.320 -63.268 -22.840  1.00  0.00     0.009 A 
ATOM     28  C   UNL     1       9.259 -62.188 -25.001  1.00  0.00     0.009 A 
ATOM     29  C   UNL     1       8.032 -63.762 -23.053  1.00  0.00     0.001 A 
ATOM     30  C   UNL     1       7.971 -62.684 -25.210  1.00  0.00     0.001 A 
ATOM     31  C   UNL     1       7.361 -63.473 -24.238  1.00  0.00     0.000 A 
ENDBRANCH  25  26
ENDBRANCH  23  25
ENDBRANCH   1  18
TORSDOF 5
ENDMDL
MODEL 3
REMARK VINA RESULT:   -12.168      3.918      9.916
REMARK INTER + INTRA:         -16.130
REMARK INTER:                 -15.952
REMARK INTRA:                  -0.178
REMARK UNBOUND:                -0.405
REMARK SMILES Cn1c(=O)cc2cc3o[nH]c(CC[C@H]4CC[N@H+](Cc5ccccc5)CC4)c3cc21
REMARK SMILES IDX 13 1 12 2 11 3 10 4 9 5 8 6 27 7 7 8 28 9 6 10 29 11 5 12
REMARK SMILES IDX 2 13 3 14 1 16 4 17 14 18 26 19 15 20 25 21 16 22 17 23
REMARK SMILES IDX 18 25 19 26 20 27 24 28 21 29 23 30 22 31
REMARK H PARENT 10 15 17 24
ROOT
ATOM      1  C   UNL     1      11.274 -56.291 -22.243  1.00  0.00     0.010 C 
ENDROOT
BRANCH   1   2
ATOM      2  C   UNL     1      10.717 -55.079 -23.012  1.00  0.00     0.058 C 
BRANCH   2   3
ATOM      3  C   UNL     1      11.613 -54.536 -24.077  1.00  0.00     0.060 A 
ATOM      4  N   UNL     1      12.117 -55.357 -25.087  1.00  0.00    -0.226 N 
ATOM      5  O   UNL     1      12.873 -54.592 -26.016  1.00  0.00    -0.382 OA
ATOM      6  C   UNL     1      12.870 -53.326 -25.463  1.00  0.00     0.164 A 
ATOM      7  C   UNL     1      12.063 -53.287 -24.248  1.00  0.00     0.044 A 
ATOM      8  C   UNL     1      13.494 -52.231 -25.930  1.00  0.00     0.061 A 
ATOM      9  C   UNL     1      11.858 -52.066 -23.490  1.00  0.00     0.041 A 
ATOM     10  C   UNL     1      13.315 -51.013 -25.157  1.00  0.00     0.008 A 
ATOM     11  C   UNL     1      12.487 -50.975 -23.955  1.00  0.00     0.052 A 
ATOM     12  C   UNL     1      13.823 -49.798 -25.395  1.00  0.00     0.082 A 
ATOM     13  N   UNL     1      12.521 -49.692 -23.493  1.00  0.00    -0.311 N 
ATOM     14  C   UNL     1      13.320 -48.910 -24.315  1.00  0.00     0.251 A 
ATOM     15  H   UNL     1      11.388 -55.899 -25.554  1.00  0.00     0.208 HD
ATOM     16  C   UNL     1      11.826 -49.188 -22.338  1.00  0.00     0.153 C 
ATOM     17  O   UNL     1      13.596 -47.728 -24.216  1.00  0.00    -0.269 OA
ENDBRANCH   2   3
ENDBRANCH   1   2
BRANCH   1  18
ATOM     18  C   UNL     1      10.798 -57.681 -22.727  1.00  0.00     0.000 C 
ATOM     19  C   UNL     1      11.761 -58.187 -23.820  1.00  0.00     0.065 C 
ATOM     20  C   UNL     1      10.706 -58.721 -21.598  1.00  0.00     0.065 C 
ATOM     21  C   UNL     1      11.406 -59.585 -24.309  1.00  0.00     0.262 C 
ATOM     22  C   UNL     1      10.373 -60.117 -22.111  1.00  0.00     0.262 C 
ATOM     23  N   UNL     1      11.396 -60.527 -23.135  1.00  0.00    -0.331 N 
ATOM     24  H   UNL     1      12.313 -60.443 -22.680  1.00  0.00     0.348 HD
BRANCH  23  25
ATOM     25  C   UNL     1      11.304 -61.989 -23.530  1.00  0.00     0.299 C 
BRANCH  25  26
ATOM     26  C   UNL     1       9.920 -62.506 -23.817  1.00  0.00     0.006 A 
ATOM     27  C   UNL     1       9.245 -63.302 -22.878  1.00  0.00     0.009 A 
ATOM     28  C   UNL     1       9.280 -62.206 -25.031  1.00  0.00     0.009 A 
ATOM     29  C   UNL     1       7.969 -63.797 -23.153  1.00  0.00     0.001 A 
ATOM     30  C   UNL     1       8.005 -62.704 -25.303  1.00  0.00     0.001 A 
ATOM     31  C   UNL     1       7.352 -63.501 -24.365  1.00  0.00     0.000 A 
ENDBRANCH  25  26
ENDBRANCH  23  25
ENDBRANCH   1  18
TORSDOF 5
ENDMDL
MODEL 4
REMARK VINA RESULT:   -12.038      3.842      9.504
REMARK INTER + INTRA:         -15.962
REMARK INTER:                 -15.338
REMARK INTRA:                  -0.624
REMARK UNBOUND:                -0.405
REMARK SMILES Cn1c(=O)cc2cc3o[nH]c(CC[C@H]4CC[N@H+](Cc5ccccc5)CC4)c3cc21
REMARK SMILES IDX 13 1 12 2 11 3 10 4 9 5 8 6 27 7 7 8 28 9 6 10 29 11 5 12
REMARK SMILES IDX 2 13 3 14 1 16 4 17 14 18 26 19 15 20 25 21 16 22 17 23
REMARK SMILES IDX 18 25 19 26 20 27 24 28 21 29 23 30 22 31
REMARK H PARENT 10 15 17 24
ROOT
ATOM      1  C   UNL     1      11.452 -57.113 -22.148  1.00  0.00     0.010 C 
ENDROOT
BRANCH   1   2
ATOM      2  C   UNL     1      11.033 -55.982 -23.105  1.00  0.00     0.058 C 
BRANCH   2   3
ATOM      3  C   UNL     1      10.882 -54.637 -22.470  1.00  0.00     0.060 A 
ATOM      4  N   UNL     1      10.165 -54.473 -21.284  1.00  0.00    -0.226 N 
ATOM      5  O   UNL     1      10.235 -53.122 -20.846  1.00  0.00    -0.382 OA
ATOM      6  C   UNL     1      10.931 -52.494 -21.861  1.00  0.00     0.164 A 
ATOM      7  C   UNL     1      11.353 -53.452 -22.878  1.00  0.00     0.044 A 
ATOM      8  C   UNL     1      11.227 -51.187 -21.959  1.00  0.00     0.061 A 
ATOM      9  C   UNL     1      12.138 -53.063 -24.035  1.00  0.00     0.041 A 
ATOM     10  C   UNL     1      11.988 -50.789 -23.132  1.00  0.00     0.008 A 
ATOM     11  C   UNL     1      12.427 -51.755 -24.134  1.00  0.00     0.052 A 
ATOM     12  C   UNL     1      12.406 -49.563 -23.472  1.00  0.00     0.082 A 
ATOM     13  N   UNL     1      13.122 -51.057 -25.077  1.00  0.00    -0.311 N 
ATOM     14  C   UNL     1      13.151 -49.709 -24.748  1.00  0.00     0.251 A 
ATOM     15  H   UNL     1      10.462 -55.119 -20.551  1.00  0.00     0.208 HD
ATOM     16  C   UNL     1      13.760 -51.611 -26.242  1.00  0.00     0.153 C 
ATOM     17  O   UNL     1      13.664 -48.784 -25.352  1.00  0.00    -0.269 OA
ENDBRANCH   2   3
ENDBRANCH   1   2
BRANCH   1  18
ATOM     18  C   UNL     1      10.610 -58.409 -22.215  1.00  0.00     0.000 C 
ATOM     19  C   UNL     1       9.409 -58.177 -23.155  1.00  0.00     0.065 C 
ATOM     20  C   UNL     1      11.410 -59.632 -22.692  1.00  0.00     0.065 C 
ATOM     21  C   UNL     1       8.558 -59.428 -23.333  1.00  0.00     0.262 C 
ATOM     22  C   UNL     1      10.536 -60.865 -22.887  1.00  0.00     0.262 C 
ATOM     23  N   UNL     1       9.427 -60.541 -23.852  1.00  0.00    -0.331 N 
ATOM     24  H   UNL     1       9.878 -60.193 -24.706  1.00  0.00     0.348 HD
BRANCH  23  25
ATOM     25  C   UNL     1       8.646 -61.760 -24.306  1.00  0.00     0.299 C 
BRANCH  25  26
ATOM     26  C   UNL     1       8.708 -62.069 -25.778  1.00  0.00     0.006 A 
ATOM     27  C   UNL     1       9.588 -61.369 -26.619  1.00  0.00     0.009 A 
ATOM     28  C   UNL     1       7.884 -63.058 -26.337  1.00  0.00     0.009 A 
ATOM     29  C   UNL     1       9.630 -61.644 -27.987  1.00  0.00     0.001 A 
ATOM     30  C   UNL     1       7.929 -63.330 -27.705  1.00  0.00     0.001 A 
ATOM     31  C   UNL     1       8.799 -62.620 -28.529  1.00  0.00     0.000 A 
ENDBRANCH  25  26
ENDBRANCH  23  25
ENDBRANCH   1  18
TORSDOF 5
ENDMDL
MODEL 5
REMARK VINA RESULT:   -11.479      2.081      3.618
REMARK INTER + INTRA:         -15.240
REMARK INTER:                 -14.813
REMARK INTRA:                  -0.427
REMARK UNBOUND:                -0.405
REMARK SMILES Cn1c(=O)cc2cc3o[nH]c(CC[C@H]4CC[N@H+](Cc5ccccc5)CC4)c3cc21
REMARK SMILES IDX 13 1 12 2 11 3 10 4 9 5 8 6 27 7 7 8 28 9 6 10 29 11 5 12
REMARK SMILES IDX 2 13 3 14 1 16 4 17 14 18 26 19 15 20 25 21 16 22 17 23
REMARK SMILES IDX 18 25 19 26 20 27 24 28 21 29 23 30 22 31
REMARK H PARENT 10 15 17 24
ROOT
ATOM      1  C   UNL     1      11.493 -57.828 -22.363  1.00  0.00     0.010 C 
ENDROOT
BRANCH   1   2
ATOM      2  C   UNL     1      10.703 -58.979 -23.010  1.00  0.00     0.058 C 
BRANCH   2   3
ATOM      3  C   UNL     1      10.971 -59.194 -24.464  1.00  0.00     0.060 A 
ATOM      4  N   UNL     1      11.910 -58.421 -25.149  1.00  0.00    -0.226 N 
ATOM      5  O   UNL     1      12.037 -58.871 -26.491  1.00  0.00    -0.382 OA
ATOM      6  C   UNL     1      11.079 -59.861 -26.588  1.00  0.00     0.164 A 
ATOM      7  C   UNL     1      10.417 -60.076 -25.305  1.00  0.00     0.044 A 
ATOM      8  C   UNL     1      10.754 -60.578 -27.677  1.00  0.00     0.061 A 
ATOM      9  C   UNL     1       9.396 -61.090 -25.117  1.00  0.00     0.041 A 
ATOM     10  C   UNL     1       9.710 -61.574 -27.500  1.00  0.00     0.008 A 
ATOM     11  C   UNL     1       9.068 -61.801 -26.209  1.00  0.00     0.052 A 
ATOM     12  C   UNL     1       9.199 -62.411 -28.412  1.00  0.00     0.082 A 
ATOM     13  N   UNL     1       8.162 -62.803 -26.389  1.00  0.00    -0.311 N 
ATOM     14  C   UNL     1       8.176 -63.228 -27.711  1.00  0.00     0.251 A 
ATOM     15  H   UNL     1      12.816 -58.392 -24.678  1.00  0.00     0.208 HD
ATOM     16  C   UNL     1       7.314 -63.373 -25.375  1.00  0.00     0.153 C 
ATOM     17  O   UNL     1       7.503 -64.090 -28.246  1.00  0.00    -0.269 OA
ENDBRANCH   2   3
ENDBRANCH   1   2
BRANCH   1  18
ATOM     18  C   UNL     1      10.751 -56.476 -22.242  1.00  0.00     0.000 C 
ATOM     19  C   UNL     1      11.265 -55.732 -20.993  1.00  0.00     0.065 C 
ATOM     20  C   UNL     1      10.912 -55.579 -23.481  1.00  0.00     0.065 C 
ATOM     21  C   UNL     1      10.633 -54.355 -20.832  1.00  0.00     0.262 C 
ATOM     22  C   UNL     1      10.295 -54.198 -23.290  1.00  0.00     0.262 C 
ATOM     23  N   UNL     1      10.898 -53.548 -22.074  1.00  0.00    -0.331 N 
ATOM     24  H   UNL     1      11.914 -53.549 -22.218  1.00  0.00     0.348 HD
BRANCH  23  25
ATOM     25  C   UNL     1      10.537 -52.081 -21.933  1.00  0.00     0.299 C 
BRANCH  25  26
ATOM     26  C   UNL     1      11.377 -51.118 -22.728  1.00  0.00     0.006 A 
ATOM     27  C   UNL     1      11.204 -49.732 -22.585  1.00  0.00     0.009 A 
ATOM     28  C   UNL     1      12.344 -51.587 -23.632  1.00  0.00     0.009 A 
ATOM     29  C   UNL     1      11.970 -48.840 -23.338  1.00  0.00     0.001 A 
ATOM     30  C   UNL     1      13.107 -50.692 -24.383  1.00  0.00     0.001 A 
ATOM     31  C   UNL     1      12.917 -49.320 -24.237  1.00  0.00     0.000 A 
ENDBRANCH  25  26
ENDBRANCH  23  25
ENDBRANCH   1  18
TORSDOF 5
ENDMDL
MODEL 6
REMARK VINA RESULT:   -11.446      2.458      4.305
REMARK INTER + INTRA:         -15.197
REMARK INTER:                 -14.969
REMARK INTRA:                  -0.229
REMARK UNBOUND:                -0.405
REMARK SMILES Cn1c(=O)cc2cc3o[nH]c(CC[C@H]4CC[N@H+](Cc5ccccc5)CC4)c3cc21
REMARK SMILES IDX 13 1 12 2 11 3 10 4 9 5 8 6 27 7 7 8 28 9 6 10 29 11 5 12
REMARK SMILES IDX 2 13 3 14 1 16 4 17 14 18 26 19 15 20 25 21 16 22 17 23
REMARK SMILES IDX 18 25 19 26 20 27 24 28 21 29 23 30 22 31
REMARK H PARENT 10 15 17 24
ROOT
ATOM      1  C   UNL     1      10.058 -56.738 -22.496  1.00  0.00     0.010 C 
ENDROOT
BRANCH   1   2
ATOM      2  C   UNL     1      11.353 -57.471 -22.101  1.00  0.00     0.058 C 
BRANCH   2   3
ATOM      3  C   UNL     1      11.552 -58.802 -22.749  1.00  0.00     0.060 A 
ATOM      4  N   UNL     1      12.831 -59.291 -23.021  1.00  0.00    -0.226 N 
ATOM      5  O   UNL     1      12.755 -60.603 -23.562  1.00  0.00    -0.382 OA
ATOM      6  C   UNL     1      11.396 -60.819 -23.683  1.00  0.00     0.164 A 
ATOM      7  C   UNL     1      10.637 -59.690 -23.156  1.00  0.00     0.044 A 
ATOM      8  C   UNL     1      10.785 -61.901 -24.195  1.00  0.00     0.061 A 
ATOM      9  C   UNL     1       9.186 -59.676 -23.123  1.00  0.00     0.041 A 
ATOM     10  C   UNL     1       9.331 -61.878 -24.191  1.00  0.00     0.008 A 
ATOM     11  C   UNL     1       8.578 -60.756 -23.641  1.00  0.00     0.052 A 
ATOM     12  C   UNL     1       8.486 -62.814 -24.640  1.00  0.00     0.082 A 
ATOM     13  N   UNL     1       7.256 -61.063 -23.778  1.00  0.00    -0.311 N 
ATOM     14  C   UNL     1       7.115 -62.304 -24.384  1.00  0.00     0.251 A 
ATOM     15  H   UNL     1      13.447 -59.258 -22.207  1.00  0.00     0.208 HD
ATOM     16  C   UNL     1       6.147 -60.251 -23.350  1.00  0.00     0.153 C 
ATOM     17  O   UNL     1       6.096 -62.901 -24.680  1.00  0.00    -0.269 OA
ENDBRANCH   2   3
ENDBRANCH   1   2
BRANCH   1  18
ATOM     18  C   UNL     1      10.217 -55.266 -22.944  1.00  0.00     0.000 C 
ATOM     19  C   UNL     1      10.338 -54.373 -21.692  1.00  0.00     0.065 C 
ATOM     20  C   UNL     1      11.428 -55.035 -23.863  1.00  0.00     0.065 C 
ATOM     21  C   UNL     1      10.565 -52.907 -22.041  1.00  0.00     0.262 C 
ATOM     22  C   UNL     1      11.652 -53.562 -24.180  1.00  0.00     0.262 C 
ATOM     23  N   UNL     1      11.800 -52.793 -22.894  1.00  0.00    -0.331 N 
ATOM     24  H   UNL     1      12.563 -53.243 -22.374  1.00  0.00     0.348 HD
BRANCH  23  25
ATOM     25  C   UNL     1      12.270 -51.365 -23.094  1.00  0.00     0.299 C 
BRANCH  25  26
ATOM     26  C   UNL     1      13.470 -51.186 -23.985  1.00  0.00     0.006 A 
ATOM     27  C   UNL     1      14.766 -51.402 -23.490  1.00  0.00     0.009 A 
ATOM     28  C   UNL     1      13.315 -50.796 -25.325  1.00  0.00     0.009 A 
ATOM     29  C   UNL     1      15.879 -51.217 -24.312  1.00  0.00     0.001 A 
ATOM     30  C   UNL     1      14.430 -50.611 -26.143  1.00  0.00     0.001 A 
ATOM     31  C   UNL     1      15.711 -50.819 -25.635  1.00  0.00     0.000 A 
ENDBRANCH  25  26
ENDBRANCH  23  25
ENDBRANCH   1  18
TORSDOF 5
ENDMDL
MODEL 7
REMARK VINA RESULT:   -11.106      4.105      9.810
REMARK INTER + INTRA:         -14.758
REMARK INTER:                 -14.212
REMARK INTRA:                  -0.546
REMARK UNBOUND:                -0.405
REMARK SMILES Cn1c(=O)cc2cc3o[nH]c(CC[C@H]4CC[N@H+](Cc5ccccc5)CC4)c3cc21
REMARK SMILES IDX 13 1 12 2 11 3 10 4 9 5 8 6 27 7 7 8 28 9 6 10 29 11 5 12
REMARK SMILES IDX 2 13 3 14 1 16 4 17 14 18 26 19 15 20 25 21 16 22 17 23
REMARK SMILES IDX 18 25 19 26 20 27 24 28 21 29 23 30 22 31
REMARK H PARENT 10 15 17 24
ROOT
ATOM      1  C   UNL     1      10.100 -55.094 -23.017  1.00  0.00     0.010 C 
ENDROOT
BRANCH   1   2
ATOM      2  C   UNL     1      10.470 -54.184 -21.832  1.00  0.00     0.058 C 
BRANCH   2   3
ATOM      3  C   UNL     1      10.666 -52.743 -22.176  1.00  0.00     0.060 A 
ATOM      4  N   UNL     1       9.852 -51.751 -21.626  1.00  0.00    -0.226 N 
ATOM      5  O   UNL     1      10.288 -50.464 -22.044  1.00  0.00    -0.382 OA
ATOM      6  C   UNL     1      11.314 -50.747 -22.925  1.00  0.00     0.164 A 
ATOM      7  C   UNL     1      11.563 -52.183 -22.997  1.00  0.00     0.044 A 
ATOM      8  C   UNL     1      12.036 -49.870 -23.643  1.00  0.00     0.061 A 
ATOM      9  C   UNL     1      12.617 -52.750 -23.818  1.00  0.00     0.041 A 
ATOM     10  C   UNL     1      13.074 -50.437 -24.490  1.00  0.00     0.008 A 
ATOM     11  C   UNL     1      13.333 -51.872 -24.539  1.00  0.00     0.052 A 
ATOM     12  C   UNL     1      13.923 -49.795 -25.301  1.00  0.00     0.082 A 
ATOM     13  N   UNL     1      14.369 -52.056 -25.407  1.00  0.00    -0.311 N 
ATOM     14  C   UNL     1      14.785 -50.835 -25.920  1.00  0.00     0.251 A 
ATOM     15  H   UNL     1       9.791 -51.812 -20.608  1.00  0.00     0.208 HD
ATOM     16  C   UNL     1      14.977 -53.316 -25.747  1.00  0.00     0.153 C 
ATOM     17  O   UNL     1      15.668 -50.603 -26.725  1.00  0.00    -0.269 OA
ENDBRANCH   2   3
ENDBRANCH   1   2
BRANCH   1  18
ATOM     18  C   UNL     1      10.673 -56.531 -22.978  1.00  0.00     0.000 C 
ATOM     19  C   UNL     1       9.513 -57.536 -23.117  1.00  0.00     0.065 C 
ATOM     20  C   UNL     1      11.723 -56.798 -24.069  1.00  0.00     0.065 C 
ATOM     21  C   UNL     1       9.994 -58.981 -23.156  1.00  0.00     0.262 C 
ATOM     22  C   UNL     1      12.173 -58.253 -24.107  1.00  0.00     0.262 C 
ATOM     23  N   UNL     1      10.971 -59.141 -24.289  1.00  0.00    -0.331 N 
ATOM     24  H   UNL     1      10.496 -58.815 -25.139  1.00  0.00     0.348 HD
BRANCH  23  25
ATOM     25  C   UNL     1      11.327 -60.586 -24.585  1.00  0.00     0.299 C 
BRANCH  25  26
ATOM     26  C   UNL     1      10.268 -61.604 -24.257  1.00  0.00     0.006 A 
ATOM     27  C   UNL     1      10.368 -62.392 -23.099  1.00  0.00     0.009 A 
ATOM     28  C   UNL     1       9.164 -61.788 -25.105  1.00  0.00     0.009 A 
ATOM     29  C   UNL     1       9.396 -63.349 -22.807  1.00  0.00     0.001 A 
ATOM     30  C   UNL     1       8.194 -62.747 -24.809  1.00  0.00     0.001 A 
ATOM     31  C   UNL     1       8.313 -63.529 -23.662  1.00  0.00     0.000 A 
ENDBRANCH  25  26
ENDBRANCH  23  25
ENDBRANCH   1  18
TORSDOF 5
ENDMDL
MODEL 8
REMARK VINA RESULT:   -11.102      5.062     10.676
REMARK INTER + INTRA:         -14.752
REMARK INTER:                 -13.949
REMARK INTRA:                  -0.803
REMARK UNBOUND:                -0.405
REMARK SMILES Cn1c(=O)cc2cc3o[nH]c(CC[C@H]4CC[N@H+](Cc5ccccc5)CC4)c3cc21
REMARK SMILES IDX 13 1 12 2 11 3 10 4 9 5 8 6 27 7 7 8 28 9 6 10 29 11 5 12
REMARK SMILES IDX 2 13 3 14 1 16 4 17 14 18 26 19 15 20 25 21 16 22 17 23
REMARK SMILES IDX 18 25 19 26 20 27 24 28 21 29 23 30 22 31
REMARK H PARENT 10 15 17 24
ROOT
ATOM      1  C   UNL     1      10.030 -52.189 -22.359  1.00  0.00     0.010 C 
ENDROOT
BRANCH   1   2
ATOM      2  C   UNL     1      10.672 -51.024 -21.582  1.00  0.00     0.058 C 
BRANCH   2   3
ATOM      3  C   UNL     1      11.027 -49.831 -22.408  1.00  0.00     0.060 A 
ATOM      4  N   UNL     1      10.365 -48.613 -22.243  1.00  0.00    -0.226 N 
ATOM      5  O   UNL     1      10.937 -47.620 -23.083  1.00  0.00    -0.382 OA
ATOM      6  C   UNL     1      11.883 -48.321 -23.806  1.00  0.00     0.164 A 
ATOM      7  C   UNL     1      11.951 -49.712 -23.369  1.00  0.00     0.044 A 
ATOM      8  C   UNL     1      12.676 -47.850 -24.782  1.00  0.00     0.061 A 
ATOM      9  C   UNL     1      12.893 -50.659 -23.936  1.00  0.00     0.041 A 
ATOM     10  C   UNL     1      13.600 -48.804 -25.373  1.00  0.00     0.008 A 
ATOM     11  C   UNL     1      13.680 -50.188 -24.916  1.00  0.00     0.052 A 
ATOM     12  C   UNL     1      14.488 -48.599 -26.355  1.00  0.00     0.082 A 
ATOM     13  N   UNL     1      14.648 -50.794 -25.661  1.00  0.00    -0.311 N 
ATOM     14  C   UNL     1      15.189 -49.892 -26.567  1.00  0.00     0.251 A 
ATOM     15  H   UNL     1      10.339 -48.308 -21.268  1.00  0.00     0.208 HD
ATOM     16  C   UNL     1      15.084 -52.160 -25.536  1.00  0.00     0.153 C 
ATOM     17  O   UNL     1      16.060 -50.070 -27.399  1.00  0.00    -0.269 OA
ENDBRANCH   2   3
ENDBRANCH   1   2
BRANCH   1  18
ATOM     18  C   UNL     1      10.908 -53.450 -22.544  1.00  0.00     0.000 C 
ATOM     19  C   UNL     1      10.318 -54.597 -21.699  1.00  0.00     0.065 C 
ATOM     20  C   UNL     1      11.032 -53.897 -24.010  1.00  0.00     0.065 C 
ATOM     21  C   UNL     1      11.084 -55.903 -21.873  1.00  0.00     0.262 C 
ATOM     22  C   UNL     1      11.780 -55.216 -24.159  1.00  0.00     0.262 C 
ATOM     23  N   UNL     1      11.097 -56.272 -23.332  1.00  0.00    -0.331 N 
ATOM     24  H   UNL     1      10.118 -56.294 -23.642  1.00  0.00     0.348 HD
BRANCH  23  25
ATOM     25  C   UNL     1      11.610 -57.674 -23.599  1.00  0.00     0.299 C 
BRANCH  25  26
ATOM     26  C   UNL     1      10.752 -58.798 -23.082  1.00  0.00     0.006 A 
ATOM     27  C   UNL     1      11.042 -59.409 -21.851  1.00  0.00     0.009 A 
ATOM     28  C   UNL     1       9.651 -59.258 -23.821  1.00  0.00     0.009 A 
ATOM     29  C   UNL     1      10.257 -60.464 -21.381  1.00  0.00     0.001 A 
ATOM     30  C   UNL     1       8.870 -60.314 -23.348  1.00  0.00     0.001 A 
ATOM     31  C   UNL     1       9.176 -60.917 -22.130  1.00  0.00     0.000 A 
ENDBRANCH  25  26
ENDBRANCH  23  25
ENDBRANCH   1  18
TORSDOF 5
ENDMDL
MODEL 9
REMARK VINA RESULT:   -10.984      5.688     11.563
REMARK INTER + INTRA:         -14.600
REMARK INTER:                 -14.178
REMARK INTRA:                  -0.422
REMARK UNBOUND:                -0.405
REMARK SMILES Cn1c(=O)cc2cc3o[nH]c(CC[C@H]4CC[N@H+](Cc5ccccc5)CC4)c3cc21
REMARK SMILES IDX 13 1 12 2 11 3 10 4 9 5 8 6 27 7 7 8 28 9 6 10 29 11 5 12
REMARK SMILES IDX 2 13 3 14 1 16 4 17 14 18 26 19 15 20 25 21 16 22 17 23
REMARK SMILES IDX 18 25 19 26 20 27 24 28 21 29 23 30 22 31
REMARK H PARENT 10 15 17 24
ROOT
ATOM      1  C   UNL     1      10.007 -51.979 -22.181  1.00  0.00     0.010 C 
ENDROOT
BRANCH   1   2
ATOM      2  C   UNL     1      11.276 -51.111 -22.261  1.00  0.00     0.058 C 
BRANCH   2   3
ATOM      3  C   UNL     1      11.038 -49.666 -22.558  1.00  0.00     0.060 A 
ATOM      4  N   UNL     1       9.985 -48.969 -21.964  1.00  0.00    -0.226 N 
ATOM      5  O   UNL     1      10.021 -47.600 -22.343  1.00  0.00    -0.382 OA
ATOM      6  C   UNL     1      11.066 -47.547 -23.246  1.00  0.00     0.164 A 
ATOM      7  C   UNL     1      11.717 -48.847 -23.370  1.00  0.00     0.044 A 
ATOM      8  C   UNL     1      11.488 -46.478 -23.943  1.00  0.00     0.061 A 
ATOM      9  C   UNL     1      12.873 -49.059 -24.222  1.00  0.00     0.041 A 
ATOM     10  C   UNL     1      12.626 -46.695 -24.821  1.00  0.00     0.008 A 
ATOM     11  C   UNL     1      13.289 -47.991 -24.922  1.00  0.00     0.052 A 
ATOM     12  C   UNL     1      13.237 -45.811 -25.620  1.00  0.00     0.082 A 
ATOM     13  N   UNL     1      14.314 -47.842 -25.808  1.00  0.00    -0.311 N 
ATOM     14  C   UNL     1      14.349 -46.538 -26.284  1.00  0.00     0.251 A 
ATOM     15  H   UNL     1       9.965 -49.075 -20.948  1.00  0.00     0.208 HD
ATOM     16  C   UNL     1      15.254 -48.860 -26.198  1.00  0.00     0.153 C 
ATOM     17  O   UNL     1      15.110 -46.037 -27.091  1.00  0.00    -0.269 OA
ENDBRANCH   2   3
ENDBRANCH   1   2
BRANCH   1  18
ATOM     18  C   UNL     1      10.058 -53.331 -22.932  1.00  0.00     0.000 C 
ATOM     19  C   UNL     1      11.465 -53.515 -23.537  1.00  0.00     0.065 C 
ATOM     20  C   UNL     1       9.716 -54.537 -22.041  1.00  0.00     0.065 C 
ATOM     21  C   UNL     1      11.626 -54.856 -24.241  1.00  0.00     0.262 C 
ATOM     22  C   UNL     1       9.908 -55.869 -22.757  1.00  0.00     0.262 C 
ATOM     23  N   UNL     1      11.321 -55.961 -23.266  1.00  0.00    -0.331 N 
ATOM     24  H   UNL     1      11.932 -55.817 -22.454  1.00  0.00     0.348 HD
BRANCH  23  25
ATOM     25  C   UNL     1      11.690 -57.340 -23.777  1.00  0.00     0.299 C 
BRANCH  25  26
ATOM     26  C   UNL     1      11.063 -58.500 -23.052  1.00  0.00     0.006 A 
ATOM     27  C   UNL     1      11.214 -58.641 -21.663  1.00  0.00     0.009 A 
ATOM     28  C   UNL     1      10.319 -59.465 -23.750  1.00  0.00     0.009 A 
ATOM     29  C   UNL     1      10.647 -59.727 -20.994  1.00  0.00     0.001 A 
ATOM     30  C   UNL     1       9.755 -60.550 -23.078  1.00  0.00     0.001 A 
ATOM     31  C   UNL     1       9.923 -60.681 -21.701  1.00  0.00     0.000 A 
ENDBRANCH  25  26
ENDBRANCH  23  25
ENDBRANCH   1  18
TORSDOF 5
ENDMDL
