MODEL 1
REMARK VINA RESULT:    -9.215      0.000      0.000
REMARK INTER + INTRA:         -14.075
REMARK INTER:                 -12.717
REMARK INTRA:                  -1.359
REMARK UNBOUND:                -1.359
REMARK SMILES COc1ccc([C@H]2CC(c3cc(F)cc(F)c3)=NN2c2ccc(S(N)(=O)=O)cc2)c(OC)c1
REMARK SMILES IDX 20 1 21 2 22 3 23 4 28 5 29 6 19 7 7 8 8 9 9 10 18 11 6 12
REMARK SMILES IDX 3 13 4 14 33 15 5 16 30 17 2 18 1 19 31 20 32 21 10 22 11 23
REMARK SMILES IDX 17 24 12 25 15 26 14 27 13 28 16 29 24 30 26 31 27 32 25 33
REMARK H PARENT 25 34 25 35
ROOT
ATOM      1  C   UNL     1      12.797 -48.516 -24.613  1.00  0.00     0.060 A 
ATOM      2  C   UNL     1      13.667 -47.675 -25.329  1.00  0.00     0.029 A 
ATOM      3  C   UNL     1      13.522 -46.283 -25.317  1.00  0.00     0.024 A 
ATOM      4  C   UNL     1      12.495 -45.705 -24.572  1.00  0.00     0.082 A 
ATOM      5  C   UNL     1      11.605 -46.504 -23.862  1.00  0.00     0.024 A 
ATOM      6  C   UNL     1      11.766 -47.894 -23.883  1.00  0.00     0.029 A 
ENDROOT
BRANCH   1   7
ATOM      7  N   UNL     1      12.936 -49.903 -24.607  1.00  0.00    -0.257 N 
ATOM      8  C   UNL     1      13.689 -50.692 -25.591  1.00  0.00     0.148 C 
ATOM      9  C   UNL     1      13.145 -52.106 -25.375  1.00  0.00     0.091 C 
ATOM     10  C   UNL     1      12.369 -51.907 -24.103  1.00  0.00     0.071 C 
ATOM     11  N   UNL     1      12.241 -50.673 -23.719  1.00  0.00    -0.176 NA
BRANCH   8  12
ATOM     12  C   UNL     1      15.199 -50.656 -25.379  1.00  0.00     0.019 A 
ATOM     13  C   UNL     1      17.998 -50.625 -25.026  1.00  0.00     0.122 A 
ATOM     14  C   UNL     1      17.158 -50.991 -23.976  1.00  0.00     0.047 A 
ATOM     15  C   UNL     1      17.441 -50.285 -26.261  1.00  0.00     0.093 A 
ATOM     16  C   UNL     1      15.775 -51.012 -24.149  1.00  0.00     0.013 A 
ATOM     17  C   UNL     1      16.050 -50.302 -26.446  1.00  0.00     0.127 A 
BRANCH  13  18
ATOM     18  O   UNL     1      19.331 -50.647 -24.721  1.00  0.00    -0.497 OA
ATOM     19  C   UNL     1      20.133 -51.620 -25.377  1.00  0.00     0.278 C 
ENDBRANCH  13  18
BRANCH  17  20
ATOM     20  O   UNL     1      15.421 -50.008 -27.630  1.00  0.00    -0.496 OA
ATOM     21  C   UNL     1      15.749 -48.779 -28.266  1.00  0.00     0.278 C 
ENDBRANCH  17  20
ENDBRANCH   8  12
BRANCH  10  22
ATOM     22  C   UNL     1      11.768 -53.043 -23.367  1.00  0.00     0.004 A 
ATOM     23  C   UNL     1      11.631 -54.303 -23.955  1.00  0.00     0.049 A 
ATOM     24  C   UNL     1      11.328 -52.842 -22.053  1.00  0.00     0.049 A 
ATOM     25  C   UNL     1      11.059 -55.341 -23.223  1.00  0.00     0.126 A 
ATOM     26  C   UNL     1      10.760 -53.897 -21.346  1.00  0.00     0.126 A 
ATOM     27  C   UNL     1      10.621 -55.152 -21.920  1.00  0.00     0.078 A 
ATOM     28  F   UNL     1      10.929 -56.547 -23.791  1.00  0.00    -0.207 F 
ATOM     29  F   UNL     1      10.341 -53.699 -20.090  1.00  0.00    -0.207 F 
ENDBRANCH  10  22
ENDBRANCH   1   7
BRANCH   4  30
ATOM     30  S   UNL     1      12.318 -43.943 -24.550  1.00  0.00     0.238 S 
ATOM     31  O   UNL     1      13.453 -43.372 -23.861  1.00  0.00    -0.207 OA
ATOM     32  O   UNL     1      10.955 -43.622 -24.204  1.00  0.00    -0.207 OA
BRANCH  30  33
ATOM     33  N   UNL     1      12.543 -43.567 -26.178  1.00  0.00    -0.225 NA
ATOM     34  H   UNL     1      13.546 -43.537 -26.371  1.00  0.00     0.137 HD
ATOM     35  H   UNL     1      12.055 -44.205 -26.805  1.00  0.00     0.137 HD
ENDBRANCH  30  33
ENDBRANCH   4  30
TORSDOF 7
ENDMDL
MODEL 2
REMARK VINA RESULT:    -9.184      0.729      1.623
REMARK INTER + INTRA:         -14.032
REMARK INTER:                 -12.819
REMARK INTRA:                  -1.213
REMARK UNBOUND:                -1.359
REMARK SMILES COc1ccc([C@H]2CC(c3cc(F)cc(F)c3)=NN2c2ccc(S(N)(=O)=O)cc2)c(OC)c1
REMARK SMILES IDX 20 1 21 2 22 3 23 4 28 5 29 6 19 7 7 8 8 9 9 10 18 11 6 12
REMARK SMILES IDX 3 13 4 14 33 15 5 16 30 17 2 18 1 19 31 20 32 21 10 22 11 23
REMARK SMILES IDX 17 24 12 25 15 26 14 27 13 28 16 29 24 30 26 31 27 32 25 33
REMARK H PARENT 25 34 25 35
ROOT
ATOM      1  C   UNL     1      12.847 -48.568 -24.683  1.00  0.00     0.060 A 
ATOM      2  C   UNL     1      13.804 -47.831 -25.403  1.00  0.00     0.029 A 
ATOM      3  C   UNL     1      13.736 -46.437 -25.504  1.00  0.00     0.024 A 
ATOM      4  C   UNL     1      12.701 -45.751 -24.870  1.00  0.00     0.082 A 
ATOM      5  C   UNL     1      11.727 -46.446 -24.159  1.00  0.00     0.024 A 
ATOM      6  C   UNL     1      11.811 -47.839 -24.067  1.00  0.00     0.029 A 
ENDROOT
BRANCH   1   7
ATOM      7  N   UNL     1      12.909 -49.956 -24.564  1.00  0.00    -0.257 N 
ATOM      8  C   UNL     1      13.636 -50.860 -25.464  1.00  0.00     0.148 C 
ATOM      9  C   UNL     1      13.009 -52.221 -25.152  1.00  0.00     0.091 C 
ATOM     10  C   UNL     1      12.219 -51.879 -23.919  1.00  0.00     0.071 C 
ATOM     11  N   UNL     1      12.153 -50.614 -23.637  1.00  0.00    -0.176 NA
BRANCH   8  12
ATOM     12  C   UNL     1      15.141 -50.890 -25.217  1.00  0.00     0.019 A 
ATOM     13  C   UNL     1      17.930 -50.974 -24.803  1.00  0.00     0.122 A 
ATOM     14  C   UNL     1      17.057 -51.435 -23.820  1.00  0.00     0.047 A 
ATOM     15  C   UNL     1      17.413 -50.482 -26.002  1.00  0.00     0.093 A 
ATOM     16  C   UNL     1      15.678 -51.398 -24.023  1.00  0.00     0.013 A 
ATOM     17  C   UNL     1      16.026 -50.440 -26.218  1.00  0.00     0.127 A 
BRANCH  13  18
ATOM     18  O   UNL     1      19.255 -51.067 -24.473  1.00  0.00    -0.497 OA
ATOM     19  C   UNL     1      20.090 -51.823 -25.340  1.00  0.00     0.278 C 
ENDBRANCH  13  18
BRANCH  17  20
ATOM     20  O   UNL     1      15.434 -49.997 -27.374  1.00  0.00    -0.496 OA
ATOM     21  C   UNL     1      16.223 -49.217 -28.265  1.00  0.00     0.278 C 
ENDBRANCH  17  20
ENDBRANCH   8  12
BRANCH  10  22
ATOM     22  C   UNL     1      11.540 -52.919 -23.113  1.00  0.00     0.004 A 
ATOM     23  C   UNL     1      11.451 -52.822 -21.722  1.00  0.00     0.049 A 
ATOM     24  C   UNL     1      10.980 -54.025 -23.766  1.00  0.00     0.049 A 
ATOM     25  C   UNL     1      10.803 -53.826 -21.006  1.00  0.00     0.126 A 
ATOM     26  C   UNL     1      10.339 -55.012 -23.024  1.00  0.00     0.126 A 
ATOM     27  C   UNL     1      10.244 -54.924 -21.644  1.00  0.00     0.078 A 
ATOM     28  F   UNL     1      10.720 -53.728 -19.672  1.00  0.00    -0.207 F 
ATOM     29  F   UNL     1       9.805 -56.066 -23.654  1.00  0.00    -0.207 F 
ENDBRANCH  10  22
ENDBRANCH   1   7
BRANCH   4  30
ATOM     30  S   UNL     1      12.622 -43.986 -24.991  1.00  0.00     0.238 S 
ATOM     31  O   UNL     1      12.854 -43.605 -26.365  1.00  0.00    -0.207 OA
ATOM     32  O   UNL     1      13.360 -43.416 -23.890  1.00  0.00    -0.207 OA
BRANCH  30  33
ATOM     33  N   UNL     1      10.982 -43.708 -24.715  1.00  0.00    -0.225 NA
ATOM     34  H   UNL     1      10.530 -44.601 -24.508  1.00  0.00     0.137 HD
ATOM     35  H   UNL     1      10.813 -43.019 -23.984  1.00  0.00     0.137 HD
ENDBRANCH  30  33
ENDBRANCH   4  30
TORSDOF 7
ENDMDL
MODEL 3
REMARK VINA RESULT:    -8.896      3.004      5.845
REMARK INTER + INTRA:         -13.635
REMARK INTER:                 -12.370
REMARK INTRA:                  -1.266
REMARK UNBOUND:                -1.359
REMARK SMILES COc1ccc([C@H]2CC(c3cc(F)cc(F)c3)=NN2c2ccc(S(N)(=O)=O)cc2)c(OC)c1
REMARK SMILES IDX 20 1 21 2 22 3 23 4 28 5 29 6 19 7 7 8 8 9 9 10 18 11 6 12
REMARK SMILES IDX 3 13 4 14 33 15 5 16 30 17 2 18 1 19 31 20 32 21 10 22 11 23
REMARK SMILES IDX 17 24 12 25 15 26 14 27 13 28 16 29 24 30 26 31 27 32 25 33
REMARK H PARENT 25 34 25 35
ROOT
ATOM      1  C   UNL     1      14.408 -48.696 -26.441  1.00  0.00     0.060 A 
ATOM      2  C   UNL     1      14.653 -47.314 -26.524  1.00  0.00     0.029 A 
ATOM      3  C   UNL     1      15.206 -46.732 -27.670  1.00  0.00     0.024 A 
ATOM      4  C   UNL     1      15.519 -47.533 -28.766  1.00  0.00     0.082 A 
ATOM      5  C   UNL     1      15.304 -48.907 -28.718  1.00  0.00     0.024 A 
ATOM      6  C   UNL     1      14.748 -49.473 -27.566  1.00  0.00     0.029 A 
ENDROOT
BRANCH   1   7
ATOM      7  N   UNL     1      13.847 -49.288 -25.311  1.00  0.00    -0.257 N 
ATOM      8  C   UNL     1      13.970 -48.792 -23.934  1.00  0.00     0.148 C 
ATOM      9  C   UNL     1      13.577 -50.013 -23.100  1.00  0.00     0.091 C 
ATOM     10  C   UNL     1      13.032 -50.912 -24.175  1.00  0.00     0.071 C 
ATOM     11  N   UNL     1      13.225 -50.501 -25.391  1.00  0.00    -0.176 NA
BRANCH   8  12
ATOM     12  C   UNL     1      13.055 -47.610 -23.625  1.00  0.00     0.019 A 
ATOM     13  C   UNL     1      11.364 -45.440 -23.004  1.00  0.00     0.122 A 
ATOM     14  C   UNL     1      10.973 -46.393 -23.942  1.00  0.00     0.047 A 
ATOM     15  C   UNL     1      12.596 -45.576 -22.363  1.00  0.00     0.093 A 
ATOM     16  C   UNL     1      11.805 -47.469 -24.249  1.00  0.00     0.013 A 
ATOM     17  C   UNL     1      13.443 -46.655 -22.663  1.00  0.00     0.127 A 
BRANCH  13  18
ATOM     18  O   UNL     1      10.454 -44.439 -22.800  1.00  0.00    -0.497 OA
ATOM     19  C   UNL     1      10.580 -43.272 -23.601  1.00  0.00     0.278 C 
ENDBRANCH  13  18
BRANCH  17  20
ATOM     20  O   UNL     1      14.657 -46.879 -22.064  1.00  0.00    -0.496 OA
ATOM     21  C   UNL     1      14.664 -47.166 -20.671  1.00  0.00     0.278 C 
ENDBRANCH  17  20
ENDBRANCH   8  12
BRANCH  10  22
ATOM     22  C   UNL     1      12.354 -52.189 -23.856  1.00  0.00     0.004 A 
ATOM     23  C   UNL     1      11.573 -52.335 -22.707  1.00  0.00     0.049 A 
ATOM     24  C   UNL     1      12.507 -53.273 -24.730  1.00  0.00     0.049 A 
ATOM     25  C   UNL     1      10.956 -53.557 -22.449  1.00  0.00     0.126 A 
ATOM     26  C   UNL     1      11.879 -54.482 -24.446  1.00  0.00     0.126 A 
ATOM     27  C   UNL     1      11.100 -54.636 -23.309  1.00  0.00     0.078 A 
ATOM     28  F   UNL     1      10.208 -53.691 -21.346  1.00  0.00    -0.207 F 
ATOM     29  F   UNL     1      12.028 -55.515 -25.286  1.00  0.00    -0.207 F 
ENDBRANCH  10  22
ENDBRANCH   1   7
BRANCH   4  30
ATOM     30  S   UNL     1      16.210 -46.794 -30.219  1.00  0.00     0.238 S 
ATOM     31  O   UNL     1      16.799 -47.833 -31.033  1.00  0.00    -0.207 OA
ATOM     32  O   UNL     1      16.932 -45.606 -29.832  1.00  0.00    -0.207 OA
BRANCH  30  33
ATOM     33  N   UNL     1      14.819 -46.311 -31.040  1.00  0.00    -0.225 NA
ATOM     34  H   UNL     1      14.634 -45.330 -30.820  1.00  0.00     0.137 HD
ATOM     35  H   UNL     1      14.875 -46.469 -32.045  1.00  0.00     0.137 HD
ENDBRANCH  30  33
ENDBRANCH   4  30
TORSDOF 7
ENDMDL
MODEL 4
REMARK VINA RESULT:    -8.610      4.493      7.608
REMARK INTER + INTRA:         -13.240
REMARK INTER:                 -11.920
REMARK INTRA:                  -1.320
REMARK UNBOUND:                -1.359
REMARK SMILES COc1ccc([C@H]2CC(c3cc(F)cc(F)c3)=NN2c2ccc(S(N)(=O)=O)cc2)c(OC)c1
REMARK SMILES IDX 20 1 21 2 22 3 23 4 28 5 29 6 19 7 7 8 8 9 9 10 18 11 6 12
REMARK SMILES IDX 3 13 4 14 33 15 5 16 30 17 2 18 1 19 31 20 32 21 10 22 11 23
REMARK SMILES IDX 17 24 12 25 15 26 14 27 13 28 16 29 24 30 26 31 27 32 25 33
REMARK H PARENT 25 34 25 35
ROOT
ATOM      1  C   UNL     1      12.290 -50.461 -22.929  1.00  0.00     0.060 A 
ATOM      2  C   UNL     1      11.441 -50.821 -21.867  1.00  0.00     0.029 A 
ATOM      3  C   UNL     1      10.869 -52.095 -21.781  1.00  0.00     0.024 A 
ATOM      4  C   UNL     1      11.147 -53.042 -22.765  1.00  0.00     0.082 A 
ATOM      5  C   UNL     1      11.971 -52.720 -23.839  1.00  0.00     0.024 A 
ATOM      6  C   UNL     1      12.537 -51.442 -23.908  1.00  0.00     0.029 A 
ENDROOT
BRANCH   1   7
ATOM      7  N   UNL     1      12.876 -49.200 -23.021  1.00  0.00    -0.257 N 
ATOM      8  C   UNL     1      14.314 -48.932 -23.159  1.00  0.00     0.148 C 
ATOM      9  C   UNL     1      14.421 -47.457 -22.765  1.00  0.00     0.091 C 
ATOM     10  C   UNL     1      12.966 -47.077 -22.738  1.00  0.00     0.071 C 
ATOM     11  N   UNL     1      12.133 -48.067 -22.848  1.00  0.00    -0.176 NA
BRANCH   8  12
ATOM     12  C   UNL     1      14.845 -49.153 -24.571  1.00  0.00     0.019 A 
ATOM     13  C   UNL     1      15.873 -49.540 -27.170  1.00  0.00     0.122 A 
ATOM     14  C   UNL     1      14.708 -48.802 -26.975  1.00  0.00     0.047 A 
ATOM     15  C   UNL     1      16.536 -50.077 -26.064  1.00  0.00     0.093 A 
ATOM     16  C   UNL     1      14.199 -48.606 -25.691  1.00  0.00     0.013 A 
ATOM     17  C   UNL     1      16.033 -49.886 -24.768  1.00  0.00     0.127 A 
BRANCH  13  18
ATOM     18  O   UNL     1      16.259 -49.656 -28.477  1.00  0.00    -0.497 OA
ATOM     19  C   UNL     1      15.530 -48.906 -29.440  1.00  0.00     0.278 C 
ENDBRANCH  13  18
BRANCH  17  20
ATOM     20  O   UNL     1      16.633 -50.356 -23.626  1.00  0.00    -0.496 OA
ATOM     21  C   UNL     1      16.684 -51.764 -23.436  1.00  0.00     0.278 C 
ENDBRANCH  17  20
ENDBRANCH   8  12
BRANCH  10  22
ATOM     22  C   UNL     1      12.527 -45.674 -22.563  1.00  0.00     0.004 A 
ATOM     23  C   UNL     1      11.291 -45.230 -23.040  1.00  0.00     0.049 A 
ATOM     24  C   UNL     1      13.378 -44.776 -21.906  1.00  0.00     0.049 A 
ATOM     25  C   UNL     1      10.923 -43.899 -22.851  1.00  0.00     0.126 A 
ATOM     26  C   UNL     1      12.983 -43.453 -21.732  1.00  0.00     0.126 A 
ATOM     27  C   UNL     1      11.758 -43.003 -22.200  1.00  0.00     0.078 A 
ATOM     28  F   UNL     1       9.737 -43.479 -23.311  1.00  0.00    -0.207 F 
ATOM     29  F   UNL     1      13.800 -42.599 -21.102  1.00  0.00    -0.207 F 
ENDBRANCH  10  22
ENDBRANCH   1   7
BRANCH   4  30
ATOM     30  S   UNL     1      10.429 -54.657 -22.651  1.00  0.00     0.238 S 
ATOM     31  O   UNL     1      11.286 -55.488 -21.836  1.00  0.00    -0.207 OA
ATOM     32  O   UNL     1       9.979 -55.054 -23.962  1.00  0.00    -0.207 OA
BRANCH  30  33
ATOM     33  N   UNL     1       9.068 -54.348 -21.706  1.00  0.00    -0.225 NA
ATOM     34  H   UNL     1       8.637 -53.479 -22.028  1.00  0.00     0.137 HD
ATOM     35  H   UNL     1       8.404 -55.121 -21.701  1.00  0.00     0.137 HD
ENDBRANCH  30  33
ENDBRANCH   4  30
TORSDOF 7
ENDMDL
MODEL 5
REMARK VINA RESULT:    -8.464      4.865      7.989
REMARK INTER + INTRA:         -13.039
REMARK INTER:                 -11.675
REMARK INTRA:                  -1.363
REMARK UNBOUND:                -1.359
REMARK SMILES COc1ccc([C@H]2CC(c3cc(F)cc(F)c3)=NN2c2ccc(S(N)(=O)=O)cc2)c(OC)c1
REMARK SMILES IDX 20 1 21 2 22 3 23 4 28 5 29 6 19 7 7 8 8 9 9 10 18 11 6 12
REMARK SMILES IDX 3 13 4 14 33 15 5 16 30 17 2 18 1 19 31 20 32 21 10 22 11 23
REMARK SMILES IDX 17 24 12 25 15 26 14 27 13 28 16 29 24 30 26 31 27 32 25 33
REMARK H PARENT 25 34 25 35
ROOT
ATOM      1  C   UNL     1      13.119 -51.627 -25.040  1.00  0.00     0.060 A 
ATOM      2  C   UNL     1      12.389 -51.535 -23.842  1.00  0.00     0.029 A 
ATOM      3  C   UNL     1      11.710 -52.636 -23.307  1.00  0.00     0.024 A 
ATOM      4  C   UNL     1      11.760 -53.862 -23.968  1.00  0.00     0.082 A 
ATOM      5  C   UNL     1      12.461 -53.990 -25.163  1.00  0.00     0.024 A 
ATOM      6  C   UNL     1      13.135 -52.880 -25.683  1.00  0.00     0.029 A 
ENDROOT
BRANCH   1   7
ATOM      7  N   UNL     1      13.810 -50.542 -25.578  1.00  0.00    -0.257 N 
ATOM      8  C   UNL     1      13.755 -49.161 -25.082  1.00  0.00     0.148 C 
ATOM      9  C   UNL     1      14.303 -48.357 -26.263  1.00  0.00     0.091 C 
ATOM     10  C   UNL     1      14.833 -49.469 -27.126  1.00  0.00     0.071 C 
ATOM     11  N   UNL     1      14.516 -50.668 -26.741  1.00  0.00    -0.176 NA
BRANCH   8  12
ATOM     12  C   UNL     1      14.597 -48.926 -23.832  1.00  0.00     0.019 A 
ATOM     13  C   UNL     1      16.152 -48.440 -21.529  1.00  0.00     0.122 A 
ATOM     14  C   UNL     1      16.631 -49.268 -22.542  1.00  0.00     0.047 A 
ATOM     15  C   UNL     1      14.899 -47.842 -21.669  1.00  0.00     0.093 A 
ATOM     16  C   UNL     1      15.867 -49.507 -23.683  1.00  0.00     0.013 A 
ATOM     17  C   UNL     1      14.120 -48.075 -22.813  1.00  0.00     0.127 A 
BRANCH  13  18
ATOM     18  O   UNL     1      17.002 -48.293 -20.467  1.00  0.00    -0.497 OA
ATOM     19  C   UNL     1      18.215 -49.034 -20.497  1.00  0.00     0.278 C 
ENDBRANCH  13  18
BRANCH  17  20
ATOM     20  O   UNL     1      12.891 -47.509 -23.045  1.00  0.00    -0.496 OA
ATOM     21  C   UNL     1      12.351 -46.665 -22.035  1.00  0.00     0.278 C 
ENDBRANCH  17  20
ENDBRANCH   8  12
BRANCH  10  22
ATOM     22  C   UNL     1      15.629 -49.202 -28.345  1.00  0.00     0.004 A 
ATOM     23  C   UNL     1      15.054 -48.627 -29.482  1.00  0.00     0.049 A 
ATOM     24  C   UNL     1      16.989 -49.537 -28.353  1.00  0.00     0.049 A 
ATOM     25  C   UNL     1      15.844 -48.395 -30.605  1.00  0.00     0.126 A 
ATOM     26  C   UNL     1      17.753 -49.294 -29.490  1.00  0.00     0.126 A 
ATOM     27  C   UNL     1      17.192 -48.723 -30.622  1.00  0.00     0.078 A 
ATOM     28  F   UNL     1      15.288 -47.845 -31.692  1.00  0.00    -0.207 F 
ATOM     29  F   UNL     1      19.053 -49.616 -29.491  1.00  0.00    -0.207 F 
ENDBRANCH  10  22
ENDBRANCH   1   7
BRANCH   4  30
ATOM     30  S   UNL     1      10.908 -55.257 -23.285  1.00  0.00     0.238 S 
ATOM     31  O   UNL     1       9.570 -55.295 -23.830  1.00  0.00    -0.207 OA
ATOM     32  O   UNL     1      11.172 -55.308 -21.867  1.00  0.00    -0.207 OA
BRANCH  30  33
ATOM     33  N   UNL     1      11.730 -56.536 -24.012  1.00  0.00    -0.225 NA
ATOM     34  H   UNL     1      12.666 -56.595 -23.608  1.00  0.00     0.137 HD
ATOM     35  H   UNL     1      11.230 -57.421 -23.942  1.00  0.00     0.137 HD
ENDBRANCH  30  33
ENDBRANCH   4  30
TORSDOF 7
ENDMDL
MODEL 6
REMARK VINA RESULT:    -8.334      4.946      7.997
REMARK INTER + INTRA:         -12.859
REMARK INTER:                 -11.490
REMARK INTRA:                  -1.369
REMARK UNBOUND:                -1.359
REMARK SMILES COc1ccc([C@H]2CC(c3cc(F)cc(F)c3)=NN2c2ccc(S(N)(=O)=O)cc2)c(OC)c1
REMARK SMILES IDX 20 1 21 2 22 3 23 4 28 5 29 6 19 7 7 8 8 9 9 10 18 11 6 12
REMARK SMILES IDX 3 13 4 14 33 15 5 16 30 17 2 18 1 19 31 20 32 21 10 22 11 23
REMARK SMILES IDX 17 24 12 25 15 26 14 27 13 28 16 29 24 30 26 31 27 32 25 33
REMARK H PARENT 25 34 25 35
ROOT
ATOM      1  C   UNL     1      12.406 -50.675 -23.610  1.00  0.00     0.060 A 
ATOM      2  C   UNL     1      12.480 -51.954 -24.189  1.00  0.00     0.029 A 
ATOM      3  C   UNL     1      11.889 -53.070 -23.586  1.00  0.00     0.024 A 
ATOM      4  C   UNL     1      11.201 -52.918 -22.383  1.00  0.00     0.082 A 
ATOM      5  C   UNL     1      11.118 -51.671 -21.771  1.00  0.00     0.024 A 
ATOM      6  C   UNL     1      11.712 -50.566 -22.389  1.00  0.00     0.029 A 
ENDROOT
BRANCH   1   7
ATOM      7  N   UNL     1      12.980 -49.552 -24.205  1.00  0.00    -0.257 N 
ATOM      8  C   UNL     1      12.679 -48.155 -23.864  1.00  0.00     0.148 C 
ATOM      9  C   UNL     1      13.213 -47.391 -25.077  1.00  0.00     0.091 C 
ATOM     10  C   UNL     1      13.976 -48.484 -25.773  1.00  0.00     0.071 C 
ATOM     11  N   UNL     1      13.802 -49.676 -25.288  1.00  0.00    -0.176 NA
BRANCH   8  12
ATOM     12  C   UNL     1      13.357 -47.678 -22.584  1.00  0.00     0.019 A 
ATOM     13  C   UNL     1      14.600 -46.745 -20.229  1.00  0.00     0.122 A 
ATOM     14  C   UNL     1      15.314 -47.513 -21.148  1.00  0.00     0.047 A 
ATOM     15  C   UNL     1      13.266 -46.430 -20.491  1.00  0.00     0.093 A 
ATOM     16  C   UNL     1      14.704 -47.971 -22.314  1.00  0.00     0.013 A 
ATOM     17  C   UNL     1      12.641 -46.887 -21.662  1.00  0.00     0.127 A 
BRANCH  13  18
ATOM     18  O   UNL     1      15.319 -46.363 -19.130  1.00  0.00    -0.497 OA
ATOM     19  C   UNL     1      16.715 -46.631 -19.139  1.00  0.00     0.278 C 
ENDBRANCH  13  18
BRANCH  17  20
ATOM     20  O   UNL     1      11.344 -46.604 -22.011  1.00  0.00    -0.496 OA
ATOM     21  C   UNL     1      11.002 -45.242 -22.238  1.00  0.00     0.278 C 
ENDBRANCH  17  20
ENDBRANCH   8  12
BRANCH  10  22
ATOM     22  C   UNL     1      14.836 -48.213 -26.947  1.00  0.00     0.004 A 
ATOM     23  C   UNL     1      15.419 -49.249 -27.681  1.00  0.00     0.049 A 
ATOM     24  C   UNL     1      15.069 -46.884 -27.323  1.00  0.00     0.049 A 
ATOM     25  C   UNL     1      16.222 -48.943 -28.778  1.00  0.00     0.126 A 
ATOM     26  C   UNL     1      15.875 -46.609 -28.424  1.00  0.00     0.126 A 
ATOM     27  C   UNL     1      16.456 -47.631 -29.159  1.00  0.00     0.078 A 
ATOM     28  F   UNL     1      16.778 -49.941 -29.478  1.00  0.00    -0.207 F 
ATOM     29  F   UNL     1      16.093 -45.336 -28.780  1.00  0.00    -0.207 F 
ENDBRANCH  10  22
ENDBRANCH   1   7
BRANCH   4  30
ATOM     30  S   UNL     1      10.446 -54.330 -21.625  1.00  0.00     0.238 S 
ATOM     31  O   UNL     1      11.180 -55.513 -22.015  1.00  0.00    -0.207 OA
ATOM     32  O   UNL     1       9.015 -54.220 -21.770  1.00  0.00    -0.207 OA
BRANCH  30  33
ATOM     33  N   UNL     1      10.825 -54.078 -20.002  1.00  0.00    -0.225 NA
ATOM     34  H   UNL     1      11.383 -54.867 -19.671  1.00  0.00     0.137 HD
ATOM     35  H   UNL     1      11.291 -53.188 -19.836  1.00  0.00     0.137 HD
ENDBRANCH  30  33
ENDBRANCH   4  30
TORSDOF 7
ENDMDL
MODEL 7
REMARK VINA RESULT:    -8.326      4.450      7.472
REMARK INTER + INTRA:         -12.849
REMARK INTER:                 -11.390
REMARK INTRA:                  -1.459
REMARK UNBOUND:                -1.359
REMARK SMILES COc1ccc([C@H]2CC(c3cc(F)cc(F)c3)=NN2c2ccc(S(N)(=O)=O)cc2)c(OC)c1
REMARK SMILES IDX 20 1 21 2 22 3 23 4 28 5 29 6 19 7 7 8 8 9 9 10 18 11 6 12
REMARK SMILES IDX 3 13 4 14 33 15 5 16 30 17 2 18 1 19 31 20 32 21 10 22 11 23
REMARK SMILES IDX 17 24 12 25 15 26 14 27 13 28 16 29 24 30 26 31 27 32 25 33
REMARK H PARENT 25 34 25 35
ROOT
ATOM      1  C   UNL     1      12.558 -50.820 -23.663  1.00  0.00     0.060 A 
ATOM      2  C   UNL     1      11.699 -51.150 -22.600  1.00  0.00     0.029 A 
ATOM      3  C   UNL     1      11.160 -52.434 -22.461  1.00  0.00     0.024 A 
ATOM      4  C   UNL     1      11.482 -53.420 -23.392  1.00  0.00     0.082 A 
ATOM      5  C   UNL     1      12.317 -53.128 -24.466  1.00  0.00     0.024 A 
ATOM      6  C   UNL     1      12.850 -51.841 -24.588  1.00  0.00     0.029 A 
ENDROOT
BRANCH   1   7
ATOM      7  N   UNL     1      13.112 -49.549 -23.808  1.00  0.00    -0.257 N 
ATOM      8  C   UNL     1      14.501 -49.181 -23.506  1.00  0.00     0.148 C 
ATOM      9  C   UNL     1      14.432 -47.656 -23.408  1.00  0.00     0.091 C 
ATOM     10  C   UNL     1      13.051 -47.411 -23.949  1.00  0.00     0.071 C 
ATOM     11  N   UNL     1      12.330 -48.476 -24.130  1.00  0.00    -0.176 NA
BRANCH   8  12
ATOM     12  C   UNL     1      15.495 -49.609 -24.581  1.00  0.00     0.019 A 
ATOM     13  C   UNL     1      17.373 -50.392 -26.535  1.00  0.00     0.122 A 
ATOM     14  C   UNL     1      16.513 -49.321 -26.772  1.00  0.00     0.047 A 
ATOM     15  C   UNL     1      17.306 -51.067 -25.315  1.00  0.00     0.093 A 
ATOM     16  C   UNL     1      15.587 -48.929 -25.806  1.00  0.00     0.013 A 
ATOM     17  C   UNL     1      16.377 -50.681 -24.336  1.00  0.00     0.127 A 
BRANCH  13  18
ATOM     18  O   UNL     1      18.229 -50.670 -27.565  1.00  0.00    -0.497 OA
ATOM     19  C   UNL     1      18.110 -49.881 -28.741  1.00  0.00     0.278 C 
ENDBRANCH  13  18
BRANCH  17  20
ATOM     20  O   UNL     1      16.261 -51.271 -23.102  1.00  0.00    -0.496 OA
ATOM     21  C   UNL     1      17.337 -51.109 -22.187  1.00  0.00     0.278 C 
ENDBRANCH  17  20
ENDBRANCH   8  12
BRANCH  10  22
ATOM     22  C   UNL     1      12.548 -46.045 -24.222  1.00  0.00     0.004 A 
ATOM     23  C   UNL     1      13.193 -45.196 -25.124  1.00  0.00     0.049 A 
ATOM     24  C   UNL     1      11.401 -45.600 -23.553  1.00  0.00     0.049 A 
ATOM     25  C   UNL     1      12.682 -43.919 -25.347  1.00  0.00     0.126 A 
ATOM     26  C   UNL     1      10.914 -44.319 -23.795  1.00  0.00     0.126 A 
ATOM     27  C   UNL     1      11.546 -43.470 -24.690  1.00  0.00     0.078 A 
ATOM     28  F   UNL     1      13.305 -43.109 -26.213  1.00  0.00    -0.207 F 
ATOM     29  F   UNL     1       9.816 -43.900 -23.153  1.00  0.00    -0.207 F 
ENDBRANCH  10  22
ENDBRANCH   1   7
BRANCH   4  30
ATOM     30  S   UNL     1      10.806 -55.047 -23.210  1.00  0.00     0.238 S 
ATOM     31  O   UNL     1       9.493 -55.073 -23.813  1.00  0.00    -0.207 OA
ATOM     32  O   UNL     1      11.051 -55.499 -21.862  1.00  0.00    -0.207 OA
BRANCH  30  33
ATOM     33  N   UNL     1      11.796 -55.936 -24.244  1.00  0.00    -0.225 NA
ATOM     34  H   UNL     1      12.220 -55.296 -24.920  1.00  0.00     0.137 HD
ATOM     35  H   UNL     1      12.498 -56.483 -23.749  1.00  0.00     0.137 HD
ENDBRANCH  30  33
ENDBRANCH   4  30
TORSDOF 7
ENDMDL
MODEL 8
REMARK VINA RESULT:    -8.064      4.732      7.473
REMARK INTER + INTRA:         -12.487
REMARK INTER:                 -11.046
REMARK INTRA:                  -1.441
REMARK UNBOUND:                -1.359
REMARK SMILES COc1ccc([C@H]2CC(c3cc(F)cc(F)c3)=NN2c2ccc(S(N)(=O)=O)cc2)c(OC)c1
REMARK SMILES IDX 20 1 21 2 22 3 23 4 28 5 29 6 19 7 7 8 8 9 9 10 18 11 6 12
REMARK SMILES IDX 3 13 4 14 33 15 5 16 30 17 2 18 1 19 31 20 32 21 10 22 11 23
REMARK SMILES IDX 17 24 12 25 15 26 14 27 13 28 16 29 24 30 26 31 27 32 25 33
REMARK H PARENT 25 34 25 35
ROOT
ATOM      1  C   UNL     1      13.116 -50.644 -24.218  1.00  0.00     0.060 A 
ATOM      2  C   UNL     1      12.355 -50.209 -23.119  1.00  0.00     0.029 A 
ATOM      3  C   UNL     1      11.449 -51.055 -22.470  1.00  0.00     0.024 A 
ATOM      4  C   UNL     1      11.296 -52.368 -22.912  1.00  0.00     0.082 A 
ATOM      5  C   UNL     1      12.021 -52.832 -24.005  1.00  0.00     0.024 A 
ATOM      6  C   UNL     1      12.924 -51.973 -24.642  1.00  0.00     0.029 A 
ENDROOT
BRANCH   1   7
ATOM      7  N   UNL     1      14.031 -49.816 -24.868  1.00  0.00    -0.257 N 
ATOM      8  C   UNL     1      14.669 -48.627 -24.289  1.00  0.00     0.148 C 
ATOM      9  C   UNL     1      15.184 -47.886 -25.525  1.00  0.00     0.091 C 
ATOM     10  C   UNL     1      14.981 -48.941 -26.578  1.00  0.00     0.071 C 
ATOM     11  N   UNL     1      14.310 -49.984 -26.194  1.00  0.00    -0.176 NA
BRANCH   8  12
ATOM     12  C   UNL     1      15.816 -48.950 -23.337  1.00  0.00     0.019 A 
ATOM     13  C   UNL     1      17.948 -49.496 -21.571  1.00  0.00     0.122 A 
ATOM     14  C   UNL     1      17.929 -50.053 -22.848  1.00  0.00     0.047 A 
ATOM     15  C   UNL     1      16.907 -48.653 -21.176  1.00  0.00     0.093 A 
ATOM     16  C   UNL     1      16.879 -49.782 -23.724  1.00  0.00     0.013 A 
ATOM     17  C   UNL     1      15.844 -48.373 -22.050  1.00  0.00     0.127 A 
BRANCH  13  18
ATOM     18  O   UNL     1      19.034 -49.845 -20.816  1.00  0.00    -0.497 OA
ATOM     19  C   UNL     1      18.791 -50.596 -19.634  1.00  0.00     0.278 C 
ENDBRANCH  13  18
BRANCH  17  20
ATOM     20  O   UNL     1      14.796 -47.537 -21.755  1.00  0.00    -0.496 OA
ATOM     21  C   UNL     1      14.500 -47.308 -20.382  1.00  0.00     0.278 C 
ENDBRANCH  17  20
ENDBRANCH   8  12
BRANCH  10  22
ATOM     22  C   UNL     1      15.486 -48.775 -27.960  1.00  0.00     0.004 A 
ATOM     23  C   UNL     1      16.566 -49.521 -28.437  1.00  0.00     0.049 A 
ATOM     24  C   UNL     1      14.864 -47.843 -28.800  1.00  0.00     0.049 A 
ATOM     25  C   UNL     1      17.005 -49.328 -29.746  1.00  0.00     0.126 A 
ATOM     26  C   UNL     1      15.325 -47.672 -30.102  1.00  0.00     0.126 A 
ATOM     27  C   UNL     1      16.395 -48.409 -30.586  1.00  0.00     0.078 A 
ATOM     28  F   UNL     1      18.041 -50.047 -30.199  1.00  0.00    -0.207 F 
ATOM     29  F   UNL     1      14.725 -46.780 -30.901  1.00  0.00    -0.207 F 
ENDBRANCH  10  22
ENDBRANCH   1   7
BRANCH   4  30
ATOM     30  S   UNL     1      10.156 -53.441 -22.083  1.00  0.00     0.238 S 
ATOM     31  O   UNL     1      10.506 -53.495 -20.682  1.00  0.00    -0.207 OA
ATOM     32  O   UNL     1       9.973 -54.626 -22.886  1.00  0.00    -0.207 OA
BRANCH  30  33
ATOM     33  N   UNL     1       8.735 -52.537 -22.160  1.00  0.00    -0.225 NA
ATOM     34  H   UNL     1       8.254 -52.608 -21.261  1.00  0.00     0.137 HD
ATOM     35  H   UNL     1       8.894 -51.568 -22.429  1.00  0.00     0.137 HD
ENDBRANCH  30  33
ENDBRANCH   4  30
TORSDOF 7
ENDMDL
MODEL 9
REMARK VINA RESULT:    -7.870      2.075      2.380
REMARK INTER + INTRA:         -12.219
REMARK INTER:                 -10.757
REMARK INTRA:                  -1.461
REMARK UNBOUND:                -1.359
REMARK SMILES COc1ccc([C@H]2CC(c3cc(F)cc(F)c3)=NN2c2ccc(S(N)(=O)=O)cc2)c(OC)c1
REMARK SMILES IDX 20 1 21 2 22 3 23 4 28 5 29 6 19 7 7 8 8 9 9 10 18 11 6 12
REMARK SMILES IDX 3 13 4 14 33 15 5 16 30 17 2 18 1 19 31 20 32 21 10 22 11 23
REMARK SMILES IDX 17 24 12 25 15 26 14 27 13 28 16 29 24 30 26 31 27 32 25 33
REMARK H PARENT 25 34 25 35
ROOT
ATOM      1  C   UNL     1      12.858 -47.304 -24.220  1.00  0.00     0.060 A 
ATOM      2  C   UNL     1      13.187 -46.305 -25.153  1.00  0.00     0.029 A 
ATOM      3  C   UNL     1      12.739 -44.987 -25.008  1.00  0.00     0.024 A 
ATOM      4  C   UNL     1      11.951 -44.645 -23.911  1.00  0.00     0.082 A 
ATOM      5  C   UNL     1      11.591 -45.608 -22.974  1.00  0.00     0.024 A 
ATOM      6  C   UNL     1      12.050 -46.921 -23.132  1.00  0.00     0.029 A 
ENDROOT
BRANCH   1   7
ATOM      7  N   UNL     1      13.307 -48.618 -24.344  1.00  0.00    -0.257 N 
ATOM      8  C   UNL     1      14.587 -49.033 -24.931  1.00  0.00     0.148 C 
ATOM      9  C   UNL     1      14.361 -50.519 -25.217  1.00  0.00     0.091 C 
ATOM     10  C   UNL     1      13.070 -50.744 -24.478  1.00  0.00     0.071 C 
ATOM     11  N   UNL     1      12.492 -49.670 -24.035  1.00  0.00    -0.176 NA
BRANCH   8  12
ATOM     12  C   UNL     1      15.780 -48.838 -24.000  1.00  0.00     0.019 A 
ATOM     13  C   UNL     1      18.017 -48.495 -22.316  1.00  0.00     0.122 A 
ATOM     14  C   UNL     1      16.949 -49.296 -21.916  1.00  0.00     0.047 A 
ATOM     15  C   UNL     1      17.976 -47.872 -23.565  1.00  0.00     0.093 A 
ATOM     16  C   UNL     1      15.844 -49.471 -22.749  1.00  0.00     0.013 A 
ATOM     17  C   UNL     1      16.868 -48.040 -24.411  1.00  0.00     0.127 A 
BRANCH  13  18
ATOM     18  O   UNL     1      19.033 -48.410 -21.405  1.00  0.00    -0.497 OA
ATOM     19  C   UNL     1      19.448 -49.616 -20.777  1.00  0.00     0.278 C 
ENDBRANCH  13  18
BRANCH  17  20
ATOM     20  O   UNL     1      16.756 -47.488 -25.662  1.00  0.00    -0.496 OA
ATOM     21  C   UNL     1      17.747 -47.825 -26.625  1.00  0.00     0.278 C 
ENDBRANCH  17  20
ENDBRANCH   8  12
BRANCH  10  22
ATOM     22  C   UNL     1      12.494 -52.097 -24.305  1.00  0.00     0.004 A 
ATOM     23  C   UNL     1      12.778 -53.132 -25.199  1.00  0.00     0.049 A 
ATOM     24  C   UNL     1      11.642 -52.336 -23.219  1.00  0.00     0.049 A 
ATOM     25  C   UNL     1      12.210 -54.388 -24.995  1.00  0.00     0.126 A 
ATOM     26  C   UNL     1      11.090 -53.600 -23.041  1.00  0.00     0.126 A 
ATOM     27  C   UNL     1      11.367 -54.635 -23.922  1.00  0.00     0.078 A 
ATOM     28  F   UNL     1      12.486 -55.377 -25.856  1.00  0.00    -0.207 F 
ATOM     29  F   UNL     1      10.277 -53.823 -22.000  1.00  0.00    -0.207 F 
ENDBRANCH  10  22
ENDBRANCH   1   7
BRANCH   4  30
ATOM     30  S   UNL     1      11.391 -42.975 -23.725  1.00  0.00     0.238 S 
ATOM     31  O   UNL     1      12.470 -42.082 -24.086  1.00  0.00    -0.207 OA
ATOM     32  O   UNL     1      10.676 -42.865 -22.478  1.00  0.00    -0.207 OA
BRANCH  30  33
ATOM     33  N   UNL     1      10.270 -42.859 -24.979  1.00  0.00    -0.225 NA
ATOM     34  H   UNL     1      10.367 -41.942 -25.420  1.00  0.00     0.137 HD
ATOM     35  H   UNL     1      10.351 -43.615 -25.656  1.00  0.00     0.137 HD
ENDBRANCH  30  33
ENDBRANCH   4  30
TORSDOF 7
ENDMDL
