MODEL 1
REMARK VINA RESULT:    -9.372      0.000      0.000
REMARK INTER + INTRA:         -14.269
REMARK INTER:                 -12.934
REMARK INTRA:                  -1.336
REMARK UNBOUND:                -1.336
REMARK SMILES COc1ccc([C@@H]2CC(c3cc(F)cc(F)c3)=NN2c2ccc(S(N)(=O)=O)cc2)cc1OC
REMARK SMILES IDX 20 1 21 2 22 3 23 4 28 5 29 6 19 7 7 8 8 9 9 10 18 11 6 12
REMARK SMILES IDX 3 13 4 14 31 15 5 16 30 17 2 18 1 19 32 20 33 21 10 22 11 23
REMARK SMILES IDX 17 24 12 25 15 26 14 27 13 28 16 29 24 30 26 31 27 32 25 33
REMARK H PARENT 25 34 25 35
ROOT
ATOM      1  C   UNL     1      12.107 -52.385 -23.869  1.00  0.00     0.060 A 
ATOM      2  C   UNL     1      11.467 -52.748 -22.668  1.00  0.00     0.029 A 
ATOM      3  C   UNL     1      11.079 -54.065 -22.401  1.00  0.00     0.024 A 
ATOM      4  C   UNL     1      11.319 -55.052 -23.353  1.00  0.00     0.082 A 
ATOM      5  C   UNL     1      11.960 -54.735 -24.549  1.00  0.00     0.024 A 
ATOM      6  C   UNL     1      12.344 -53.412 -24.799  1.00  0.00     0.029 A 
ENDROOT
BRANCH   1   7
ATOM      7  N   UNL     1      12.483 -51.063 -24.102  1.00  0.00    -0.257 N 
ATOM      8  C   UNL     1      13.394 -50.597 -25.151  1.00  0.00     0.144 C 
ATOM      9  C   UNL     1      13.187 -49.081 -25.127  1.00  0.00     0.091 C 
ATOM     10  C   UNL     1      12.411 -48.936 -23.846  1.00  0.00     0.071 C 
ATOM     11  N   UNL     1      12.007 -50.051 -23.318  1.00  0.00    -0.176 NA
BRANCH   8  12
ATOM     12  C   UNL     1      14.850 -50.949 -24.891  1.00  0.00    -0.019 A 
ATOM     13  C   UNL     1      17.599 -51.525 -24.478  1.00  0.00     0.160 A 
ATOM     14  C   UNL     1      16.693 -51.532 -23.411  1.00  0.00     0.051 A 
ATOM     15  C   UNL     1      17.114 -51.248 -25.767  1.00  0.00     0.161 A 
ATOM     16  C   UNL     1      15.339 -51.247 -23.614  1.00  0.00     0.010 A 
ATOM     17  C   UNL     1      15.760 -50.941 -25.959  1.00  0.00     0.056 A 
BRANCH  13  18
ATOM     18  O   UNL     1      18.944 -51.745 -24.339  1.00  0.00    -0.493 OA
ATOM     19  C   UNL     1      19.770 -50.631 -24.024  1.00  0.00     0.278 C 
ENDBRANCH  13  18
BRANCH  15  20
ATOM     20  O   UNL     1      17.854 -51.186 -26.921  1.00  0.00    -0.493 OA
ATOM     21  C   UNL     1      18.109 -49.876 -27.420  1.00  0.00     0.278 C 
ENDBRANCH  15  20
ENDBRANCH   8  12
BRANCH  10  22
ATOM     22  C   UNL     1      12.107 -47.612 -23.260  1.00  0.00     0.004 A 
ATOM     23  C   UNL     1      12.678 -47.271 -22.027  1.00  0.00     0.049 A 
ATOM     24  C   UNL     1      11.265 -46.702 -23.905  1.00  0.00     0.049 A 
ATOM     25  C   UNL     1      12.404 -46.031 -21.460  1.00  0.00     0.126 A 
ATOM     26  C   UNL     1      11.008 -45.467 -23.312  1.00  0.00     0.126 A 
ATOM     27  C   UNL     1      11.571 -45.120 -22.092  1.00  0.00     0.078 A 
ATOM     28  F   UNL     1      12.954 -45.709 -20.281  1.00  0.00    -0.207 F 
ATOM     29  F   UNL     1      10.199 -44.600 -23.934  1.00  0.00    -0.207 F 
ENDBRANCH  10  22
ENDBRANCH   1   7
BRANCH   4  30
ATOM     30  S   UNL     1      10.834 -56.725 -23.035  1.00  0.00     0.238 S 
ATOM     31  O   UNL     1      11.345 -57.117 -21.743  1.00  0.00    -0.207 OA
ATOM     32  O   UNL     1       9.445 -56.881 -23.403  1.00  0.00    -0.207 OA
BRANCH  30  33
ATOM     33  N   UNL     1      11.711 -57.555 -24.211  1.00  0.00    -0.225 NA
ATOM     34  H   UNL     1      12.149 -56.936 -24.893  1.00  0.00     0.137 HD
ATOM     35  H   UNL     1      11.095 -58.237 -24.657  1.00  0.00     0.137 HD
ENDBRANCH  30  33
ENDBRANCH   4  30
TORSDOF 7
ENDMDL
MODEL 2
REMARK VINA RESULT:    -9.134      2.034      2.457
REMARK INTER + INTRA:         -13.941
REMARK INTER:                 -12.517
REMARK INTRA:                  -1.424
REMARK UNBOUND:                -1.336
REMARK SMILES COc1ccc([C@@H]2CC(c3cc(F)cc(F)c3)=NN2c2ccc(S(N)(=O)=O)cc2)cc1OC
REMARK SMILES IDX 20 1 21 2 22 3 23 4 28 5 29 6 19 7 7 8 8 9 9 10 18 11 6 12
REMARK SMILES IDX 3 13 4 14 31 15 5 16 30 17 2 18 1 19 32 20 33 21 10 22 11 23
REMARK SMILES IDX 17 24 12 25 15 26 14 27 13 28 16 29 24 30 26 31 27 32 25 33
REMARK H PARENT 25 34 25 35
ROOT
ATOM      1  C   UNL     1      12.355 -51.928 -23.912  1.00  0.00     0.060 A 
ATOM      2  C   UNL     1      11.661 -52.235 -22.726  1.00  0.00     0.029 A 
ATOM      3  C   UNL     1      11.188 -53.523 -22.454  1.00  0.00     0.024 A 
ATOM      4  C   UNL     1      11.395 -54.536 -23.386  1.00  0.00     0.082 A 
ATOM      5  C   UNL     1      12.086 -54.274 -24.568  1.00  0.00     0.024 A 
ATOM      6  C   UNL     1      12.555 -52.980 -24.823  1.00  0.00     0.029 A 
ENDROOT
BRANCH   1   7
ATOM      7  N   UNL     1      12.815 -50.634 -24.151  1.00  0.00    -0.257 N 
ATOM      8  C   UNL     1      14.122 -50.272 -24.707  1.00  0.00     0.144 C 
ATOM      9  C   UNL     1      13.951 -48.786 -25.028  1.00  0.00     0.091 C 
ATOM     10  C   UNL     1      12.662 -48.502 -24.306  1.00  0.00     0.071 C 
ATOM     11  N   UNL     1      12.039 -49.549 -23.858  1.00  0.00    -0.176 NA
BRANCH   8  12
ATOM     12  C   UNL     1      15.275 -50.488 -23.740  1.00  0.00    -0.019 A 
ATOM     13  C   UNL     1      17.370 -50.835 -21.856  1.00  0.00     0.160 A 
ATOM     14  C   UNL     1      17.000 -51.872 -22.721  1.00  0.00     0.051 A 
ATOM     15  C   UNL     1      16.695 -49.607 -21.954  1.00  0.00     0.161 A 
ATOM     16  C   UNL     1      15.968 -51.701 -23.649  1.00  0.00     0.010 A 
ATOM     17  C   UNL     1      15.646 -49.452 -22.871  1.00  0.00     0.056 A 
BRANCH  13  18
ATOM     18  O   UNL     1      18.336 -50.954 -20.893  1.00  0.00    -0.493 OA
ATOM     19  C   UNL     1      19.644 -50.489 -21.202  1.00  0.00     0.278 C 
ENDBRANCH  13  18
BRANCH  15  20
ATOM     20  O   UNL     1      16.913 -48.493 -21.183  1.00  0.00    -0.493 OA
ATOM     21  C   UNL     1      16.262 -47.304 -21.621  1.00  0.00     0.278 C 
ENDBRANCH  15  20
ENDBRANCH   8  12
BRANCH  10  22
ATOM     22  C   UNL     1      12.136 -47.127 -24.153  1.00  0.00     0.004 A 
ATOM     23  C   UNL     1      11.033 -46.914 -23.317  1.00  0.00     0.049 A 
ATOM     24  C   UNL     1      12.712 -46.045 -24.824  1.00  0.00     0.049 A 
ATOM     25  C   UNL     1      10.524 -45.628 -23.161  1.00  0.00     0.126 A 
ATOM     26  C   UNL     1      12.179 -44.769 -24.650  1.00  0.00     0.126 A 
ATOM     27  C   UNL     1      11.089 -44.548 -23.822  1.00  0.00     0.078 A 
ATOM     28  F   UNL     1       9.469 -45.430 -22.359  1.00  0.00    -0.207 F 
ATOM     29  F   UNL     1      12.735 -43.736 -25.297  1.00  0.00    -0.207 F 
ENDBRANCH  10  22
ENDBRANCH   1   7
BRANCH   4  30
ATOM     30  S   UNL     1      10.802 -56.172 -23.063  1.00  0.00     0.238 S 
ATOM     31  O   UNL     1      11.188 -56.547 -21.723  1.00  0.00    -0.207 OA
ATOM     32  O   UNL     1       9.440 -56.273 -23.537  1.00  0.00    -0.207 OA
BRANCH  30  33
ATOM     33  N   UNL     1      11.725 -57.081 -24.140  1.00  0.00    -0.225 NA
ATOM     34  H   UNL     1      12.718 -57.088 -23.907  1.00  0.00     0.137 HD
ATOM     35  H   UNL     1      11.559 -56.733 -25.087  1.00  0.00     0.137 HD
ENDBRANCH  30  33
ENDBRANCH   4  30
TORSDOF 7
ENDMDL
MODEL 3
REMARK VINA RESULT:    -9.112      3.991      6.480
REMARK INTER + INTRA:         -13.910
REMARK INTER:                 -12.713
REMARK INTRA:                  -1.196
REMARK UNBOUND:                -1.336
REMARK SMILES COc1ccc([C@@H]2CC(c3cc(F)cc(F)c3)=NN2c2ccc(S(N)(=O)=O)cc2)cc1OC
REMARK SMILES IDX 20 1 21 2 22 3 23 4 28 5 29 6 19 7 7 8 8 9 9 10 18 11 6 12
REMARK SMILES IDX 3 13 4 14 31 15 5 16 30 17 2 18 1 19 32 20 33 21 10 22 11 23
REMARK SMILES IDX 17 24 12 25 15 26 14 27 13 28 16 29 24 30 26 31 27 32 25 33
REMARK H PARENT 25 34 25 35
ROOT
ATOM      1  C   UNL     1      12.926 -51.377 -24.437  1.00  0.00     0.060 A 
ATOM      2  C   UNL     1      12.885 -52.629 -25.079  1.00  0.00     0.029 A 
ATOM      3  C   UNL     1      12.138 -53.700 -24.575  1.00  0.00     0.024 A 
ATOM      4  C   UNL     1      11.419 -53.532 -23.395  1.00  0.00     0.082 A 
ATOM      5  C   UNL     1      11.426 -52.304 -22.735  1.00  0.00     0.024 A 
ATOM      6  C   UNL     1      12.177 -51.243 -23.255  1.00  0.00     0.029 A 
ENDROOT
BRANCH   1   7
ATOM      7  N   UNL     1      13.679 -50.331 -24.968  1.00  0.00    -0.257 N 
ATOM      8  C   UNL     1      14.196 -49.176 -24.228  1.00  0.00     0.144 C 
ATOM      9  C   UNL     1      15.177 -48.551 -25.221  1.00  0.00     0.091 C 
ATOM     10  C   UNL     1      14.807 -49.301 -26.472  1.00  0.00     0.071 C 
ATOM     11  N   UNL     1      14.000 -50.302 -26.296  1.00  0.00    -0.176 NA
BRANCH   8  12
ATOM     12  C   UNL     1      13.120 -48.179 -23.828  1.00  0.00    -0.019 A 
ATOM     13  C   UNL     1      11.190 -46.256 -23.032  1.00  0.00     0.160 A 
ATOM     14  C   UNL     1      11.142 -46.840 -24.304  1.00  0.00     0.051 A 
ATOM     15  C   UNL     1      12.203 -46.658 -22.147  1.00  0.00     0.161 A 
ATOM     16  C   UNL     1      12.094 -47.788 -24.696  1.00  0.00     0.010 A 
ATOM     17  C   UNL     1      13.167 -47.591 -22.556  1.00  0.00     0.056 A 
BRANCH  13  18
ATOM     18  O   UNL     1      10.320 -45.287 -22.605  1.00  0.00    -0.493 OA
ATOM     19  C   UNL     1      10.473 -43.977 -23.136  1.00  0.00     0.278 C 
ENDBRANCH  13  18
BRANCH  15  20
ATOM     20  O   UNL     1      12.410 -46.186 -20.875  1.00  0.00    -0.493 OA
ATOM     21  C   UNL     1      13.544 -46.718 -20.197  1.00  0.00     0.278 C 
ENDBRANCH  15  20
ENDBRANCH   8  12
BRANCH  10  22
ATOM     22  C   UNL     1      15.356 -48.935 -27.796  1.00  0.00     0.004 A 
ATOM     23  C   UNL     1      16.498 -49.600 -28.262  1.00  0.00     0.049 A 
ATOM     24  C   UNL     1      14.766 -47.944 -28.585  1.00  0.00     0.049 A 
ATOM     25  C   UNL     1      17.030 -49.269 -29.505  1.00  0.00     0.126 A 
ATOM     26  C   UNL     1      15.321 -47.634 -29.825  1.00  0.00     0.126 A 
ATOM     27  C   UNL     1      16.450 -48.288 -30.295  1.00  0.00     0.078 A 
ATOM     28  F   UNL     1      18.121 -49.909 -29.946  1.00  0.00    -0.207 F 
ATOM     29  F   UNL     1      14.752 -46.682 -30.575  1.00  0.00    -0.207 F 
ENDBRANCH  10  22
ENDBRANCH   1   7
BRANCH   4  30
ATOM     30  S   UNL     1      10.470 -54.874 -22.739  1.00  0.00     0.238 S 
ATOM     31  O   UNL     1       9.624 -55.397 -23.786  1.00  0.00    -0.207 OA
ATOM     32  O   UNL     1      11.341 -55.715 -21.950  1.00  0.00    -0.207 OA
BRANCH  30  33
ATOM     33  N   UNL     1       9.485 -54.074 -21.630  1.00  0.00    -0.225 NA
ATOM     34  H   UNL     1       9.724 -53.089 -21.522  1.00  0.00     0.137 HD
ATOM     35  H   UNL     1       9.522 -54.574 -20.739  1.00  0.00     0.137 HD
ENDBRANCH  30  33
ENDBRANCH   4  30
TORSDOF 7
ENDMDL
MODEL 4
REMARK VINA RESULT:    -9.087      3.984      6.496
REMARK INTER + INTRA:         -13.876
REMARK INTER:                 -12.717
REMARK INTRA:                  -1.159
REMARK UNBOUND:                -1.336
REMARK SMILES COc1ccc([C@@H]2CC(c3cc(F)cc(F)c3)=NN2c2ccc(S(N)(=O)=O)cc2)cc1OC
REMARK SMILES IDX 20 1 21 2 22 3 23 4 28 5 29 6 19 7 7 8 8 9 9 10 18 11 6 12
REMARK SMILES IDX 3 13 4 14 31 15 5 16 30 17 2 18 1 19 32 20 33 21 10 22 11 23
REMARK SMILES IDX 17 24 12 25 15 26 14 27 13 28 16 29 24 30 26 31 27 32 25 33
REMARK H PARENT 25 34 25 35
ROOT
ATOM      1  C   UNL     1      12.947 -51.377 -24.491  1.00  0.00     0.060 A 
ATOM      2  C   UNL     1      12.209 -51.222 -23.302  1.00  0.00     0.029 A 
ATOM      3  C   UNL     1      11.451 -52.263 -22.755  1.00  0.00     0.024 A 
ATOM      4  C   UNL     1      11.412 -53.492 -23.408  1.00  0.00     0.082 A 
ATOM      5  C   UNL     1      12.137 -53.688 -24.582  1.00  0.00     0.024 A 
ATOM      6  C   UNL     1      12.893 -52.636 -25.114  1.00  0.00     0.029 A 
ENDROOT
BRANCH   1   7
ATOM      7  N   UNL     1      13.694 -50.319 -25.006  1.00  0.00    -0.257 N 
ATOM      8  C   UNL     1      14.223 -49.184 -24.245  1.00  0.00     0.144 C 
ATOM      9  C   UNL     1      15.191 -48.536 -25.237  1.00  0.00     0.091 C 
ATOM     10  C   UNL     1      14.802 -49.254 -26.501  1.00  0.00     0.071 C 
ATOM     11  N   UNL     1      13.996 -50.258 -26.337  1.00  0.00    -0.176 NA
BRANCH   8  12
ATOM     12  C   UNL     1      13.155 -48.196 -23.806  1.00  0.00    -0.019 A 
ATOM     13  C   UNL     1      11.239 -46.292 -22.932  1.00  0.00     0.160 A 
ATOM     14  C   UNL     1      11.201 -46.806 -24.233  1.00  0.00     0.051 A 
ATOM     15  C   UNL     1      12.235 -46.756 -22.056  1.00  0.00     0.161 A 
ATOM     16  C   UNL     1      12.146 -47.744 -24.664  1.00  0.00     0.010 A 
ATOM     17  C   UNL     1      13.192 -47.678 -22.503  1.00  0.00     0.056 A 
BRANCH  13  18
ATOM     18  O   UNL     1      10.376 -45.337 -22.464  1.00  0.00    -0.493 OA
ATOM     19  C   UNL     1      10.438 -44.042 -23.049  1.00  0.00     0.278 C 
ENDBRANCH  13  18
BRANCH  15  20
ATOM     20  O   UNL     1      12.431 -46.356 -20.758  1.00  0.00    -0.493 OA
ATOM     21  C   UNL     1      13.768 -46.455 -20.278  1.00  0.00     0.278 C 
ENDBRANCH  15  20
ENDBRANCH   8  12
BRANCH  10  22
ATOM     22  C   UNL     1      15.334 -48.857 -27.823  1.00  0.00     0.004 A 
ATOM     23  C   UNL     1      14.745 -47.777 -28.492  1.00  0.00     0.049 A 
ATOM     24  C   UNL     1      16.403 -49.535 -28.415  1.00  0.00     0.049 A 
ATOM     25  C   UNL     1      15.230 -47.389 -29.737  1.00  0.00     0.126 A 
ATOM     26  C   UNL     1      16.867 -49.124 -29.664  1.00  0.00     0.126 A 
ATOM     27  C   UNL     1      16.291 -48.054 -30.333  1.00  0.00     0.078 A 
ATOM     28  F   UNL     1      14.663 -46.354 -30.372  1.00  0.00    -0.207 F 
ATOM     29  F   UNL     1      17.891 -49.779 -30.227  1.00  0.00    -0.207 F 
ENDBRANCH  10  22
ENDBRANCH   1   7
BRANCH   4  30
ATOM     30  S   UNL     1      10.457 -54.822 -22.735  1.00  0.00     0.238 S 
ATOM     31  O   UNL     1       9.602 -55.349 -23.773  1.00  0.00    -0.207 OA
ATOM     32  O   UNL     1      11.328 -55.661 -21.943  1.00  0.00    -0.207 OA
BRANCH  30  33
ATOM     33  N   UNL     1       9.483 -54.006 -21.628  1.00  0.00    -0.225 NA
ATOM     34  H   UNL     1       8.527 -54.358 -21.603  1.00  0.00     0.137 HD
ATOM     35  H   UNL     1       9.515 -53.006 -21.839  1.00  0.00     0.137 HD
ENDBRANCH  30  33
ENDBRANCH   4  30
TORSDOF 7
ENDMDL
MODEL 5
REMARK VINA RESULT:    -8.847      5.368      8.047
REMARK INTER + INTRA:         -13.544
REMARK INTER:                 -12.152
REMARK INTRA:                  -1.392
REMARK UNBOUND:                -1.336
REMARK SMILES COc1ccc([C@@H]2CC(c3cc(F)cc(F)c3)=NN2c2ccc(S(N)(=O)=O)cc2)cc1OC
REMARK SMILES IDX 20 1 21 2 22 3 23 4 28 5 29 6 19 7 7 8 8 9 9 10 18 11 6 12
REMARK SMILES IDX 3 13 4 14 31 15 5 16 30 17 2 18 1 19 32 20 33 21 10 22 11 23
REMARK SMILES IDX 17 24 12 25 15 26 14 27 13 28 16 29 24 30 26 31 27 32 25 33
REMARK H PARENT 25 34 25 35
ROOT
ATOM      1  C   UNL     1      12.848 -47.244 -23.829  1.00  0.00     0.060 A 
ATOM      2  C   UNL     1      11.596 -46.758 -24.252  1.00  0.00     0.029 A 
ATOM      3  C   UNL     1      11.188 -45.442 -24.007  1.00  0.00     0.024 A 
ATOM      4  C   UNL     1      12.037 -44.584 -23.313  1.00  0.00     0.082 A 
ATOM      5  C   UNL     1      13.288 -45.025 -22.887  1.00  0.00     0.024 A 
ATOM      6  C   UNL     1      13.682 -46.344 -23.143  1.00  0.00     0.029 A 
ENDROOT
BRANCH   1   7
ATOM      7  N   UNL     1      13.224 -48.560 -24.092  1.00  0.00    -0.257 N 
ATOM      8  C   UNL     1      14.525 -49.000 -24.605  1.00  0.00     0.144 C 
ATOM      9  C   UNL     1      14.473 -50.515 -24.399  1.00  0.00     0.091 C 
ATOM     10  C   UNL     1      13.013 -50.693 -24.082  1.00  0.00     0.071 C 
ATOM     11  N   UNL     1      12.354 -49.593 -23.886  1.00  0.00    -0.176 NA
BRANCH   8  12
ATOM     12  C   UNL     1      14.747 -48.660 -26.070  1.00  0.00    -0.019 A 
ATOM     13  C   UNL     1      15.239 -47.950 -28.774  1.00  0.00     0.160 A 
ATOM     14  C   UNL     1      15.033 -49.285 -28.406  1.00  0.00     0.051 A 
ATOM     15  C   UNL     1      15.175 -46.962 -27.778  1.00  0.00     0.161 A 
ATOM     16  C   UNL     1      14.791 -49.635 -27.074  1.00  0.00     0.010 A 
ATOM     17  C   UNL     1      14.956 -47.324 -26.441  1.00  0.00     0.056 A 
BRANCH  13  18
ATOM     18  O   UNL     1      15.530 -47.547 -30.051  1.00  0.00    -0.493 OA
ATOM     19  C   UNL     1      14.464 -47.500 -30.992  1.00  0.00     0.278 C 
ENDBRANCH  13  18
BRANCH  15  20
ATOM     20  O   UNL     1      15.364 -45.614 -27.952  1.00  0.00    -0.493 OA
ATOM     21  C   UNL     1      15.714 -44.884 -26.780  1.00  0.00     0.278 C 
ENDBRANCH  15  20
ENDBRANCH   8  12
BRANCH  10  22
ATOM     22  C   UNL     1      12.393 -52.032 -23.971  1.00  0.00     0.004 A 
ATOM     23  C   UNL     1      11.528 -52.291 -22.900  1.00  0.00     0.049 A 
ATOM     24  C   UNL     1      12.653 -53.038 -24.906  1.00  0.00     0.049 A 
ATOM     25  C   UNL     1      10.936 -53.544 -22.778  1.00  0.00     0.126 A 
ATOM     26  C   UNL     1      12.046 -54.285 -24.757  1.00  0.00     0.126 A 
ATOM     27  C   UNL     1      11.187 -54.549 -23.701  1.00  0.00     0.078 A 
ATOM     28  F   UNL     1      10.110 -53.786 -21.752  1.00  0.00    -0.207 F 
ATOM     29  F   UNL     1      12.301 -55.245 -25.655  1.00  0.00    -0.207 F 
ENDBRANCH  10  22
ENDBRANCH   1   7
BRANCH   4  30
ATOM     30  S   UNL     1      11.538 -42.916 -22.991  1.00  0.00     0.238 S 
ATOM     31  O   UNL     1      11.908 -42.577 -21.637  1.00  0.00    -0.207 OA
ATOM     32  O   UNL     1      11.902 -42.098 -24.125  1.00  0.00    -0.207 OA
BRANCH  30  33
ATOM     33  N   UNL     1       9.860 -43.053 -23.049  1.00  0.00    -0.225 NA
ATOM     34  H   UNL     1       9.469 -42.786 -23.952  1.00  0.00     0.137 HD
ATOM     35  H   UNL     1       9.461 -42.504 -22.285  1.00  0.00     0.137 HD
ENDBRANCH  30  33
ENDBRANCH   4  30
TORSDOF 7
ENDMDL
MODEL 6
REMARK VINA RESULT:    -8.515      3.418      4.637
REMARK INTER + INTRA:         -13.087
REMARK INTER:                 -11.665
REMARK INTRA:                  -1.422
REMARK UNBOUND:                -1.336
REMARK SMILES COc1ccc([C@@H]2CC(c3cc(F)cc(F)c3)=NN2c2ccc(S(N)(=O)=O)cc2)cc1OC
REMARK SMILES IDX 20 1 21 2 22 3 23 4 28 5 29 6 19 7 7 8 8 9 9 10 18 11 6 12
REMARK SMILES IDX 3 13 4 14 31 15 5 16 30 17 2 18 1 19 32 20 33 21 10 22 11 23
REMARK SMILES IDX 17 24 12 25 15 26 14 27 13 28 16 29 24 30 26 31 27 32 25 33
REMARK H PARENT 25 34 25 35
ROOT
ATOM      1  C   UNL     1      13.372 -52.093 -24.901  1.00  0.00     0.060 A 
ATOM      2  C   UNL     1      12.721 -51.638 -23.738  1.00  0.00     0.029 A 
ATOM      3  C   UNL     1      11.763 -52.410 -23.072  1.00  0.00     0.024 A 
ATOM      4  C   UNL     1      11.429 -53.664 -23.576  1.00  0.00     0.082 A 
ATOM      5  C   UNL     1      12.059 -54.154 -24.719  1.00  0.00     0.024 A 
ATOM      6  C   UNL     1      13.018 -53.369 -25.371  1.00  0.00     0.029 A 
ENDROOT
BRANCH   1   7
ATOM      7  N   UNL     1      14.324 -51.298 -25.538  1.00  0.00    -0.257 N 
ATOM      8  C   UNL     1      15.779 -51.411 -25.394  1.00  0.00     0.144 C 
ATOM      9  C   UNL     1      16.298 -50.527 -26.530  1.00  0.00     0.091 C 
ATOM     10  C   UNL     1      15.028 -49.825 -26.927  1.00  0.00     0.071 C 
ATOM     11  N   UNL     1      13.947 -50.296 -26.385  1.00  0.00    -0.176 NA
BRANCH   8  12
ATOM     12  C   UNL     1      16.295 -50.924 -24.049  1.00  0.00    -0.019 A 
ATOM     13  C   UNL     1      17.168 -49.951 -21.529  1.00  0.00     0.160 A 
ATOM     14  C   UNL     1      17.328 -51.298 -21.876  1.00  0.00     0.051 A 
ATOM     15  C   UNL     1      16.583 -49.082 -22.466  1.00  0.00     0.161 A 
ATOM     16  C   UNL     1      16.897 -51.777 -23.118  1.00  0.00     0.010 A 
ATOM     17  C   UNL     1      16.134 -49.576 -23.699  1.00  0.00     0.056 A 
BRANCH  13  18
ATOM     18  O   UNL     1      17.521 -49.430 -20.313  1.00  0.00    -0.493 OA
ATOM     19  C   UNL     1      18.882 -49.072 -20.113  1.00  0.00     0.278 C 
ENDBRANCH  13  18
BRANCH  15  20
ATOM     20  O   UNL     1      16.337 -47.743 -22.293  1.00  0.00    -0.493 OA
ATOM     21  C   UNL     1      15.960 -47.030 -23.467  1.00  0.00     0.278 C 
ENDBRANCH  15  20
ENDBRANCH   8  12
BRANCH  10  22
ATOM     22  C   UNL     1      15.021 -48.704 -27.893  1.00  0.00     0.004 A 
ATOM     23  C   UNL     1      14.932 -47.394 -27.407  1.00  0.00     0.049 A 
ATOM     24  C   UNL     1      15.099 -48.925 -29.271  1.00  0.00     0.049 A 
ATOM     25  C   UNL     1      14.924 -46.326 -28.300  1.00  0.00     0.126 A 
ATOM     26  C   UNL     1      15.087 -47.836 -30.141  1.00  0.00     0.126 A 
ATOM     27  C   UNL     1      15.001 -46.535 -29.669  1.00  0.00     0.078 A 
ATOM     28  F   UNL     1      14.840 -45.074 -27.829  1.00  0.00    -0.207 F 
ATOM     29  F   UNL     1      15.160 -48.054 -31.460  1.00  0.00    -0.207 F 
ENDBRANCH  10  22
ENDBRANCH   1   7
BRANCH   4  30
ATOM     30  S   UNL     1      10.218 -54.656 -22.750  1.00  0.00     0.238 S 
ATOM     31  O   UNL     1       9.507 -53.826 -21.806  1.00  0.00    -0.207 OA
ATOM     32  O   UNL     1       9.542 -55.473 -23.732  1.00  0.00    -0.207 OA
BRANCH  30  33
ATOM     33  N   UNL     1      11.195 -55.714 -21.874  1.00  0.00    -0.225 NA
ATOM     34  H   UNL     1      10.982 -56.695 -22.055  1.00  0.00     0.137 HD
ATOM     35  H   UNL     1      11.117 -55.485 -20.882  1.00  0.00     0.137 HD
ENDBRANCH  30  33
ENDBRANCH   4  30
TORSDOF 7
ENDMDL
MODEL 7
REMARK VINA RESULT:    -8.248      2.271      2.865
REMARK INTER + INTRA:         -12.719
REMARK INTER:                 -11.264
REMARK INTRA:                  -1.455
REMARK UNBOUND:                -1.336
REMARK SMILES COc1ccc([C@@H]2CC(c3cc(F)cc(F)c3)=NN2c2ccc(S(N)(=O)=O)cc2)cc1OC
REMARK SMILES IDX 20 1 21 2 22 3 23 4 28 5 29 6 19 7 7 8 8 9 9 10 18 11 6 12
REMARK SMILES IDX 3 13 4 14 31 15 5 16 30 17 2 18 1 19 32 20 33 21 10 22 11 23
REMARK SMILES IDX 17 24 12 25 15 26 14 27 13 28 16 29 24 30 26 31 27 32 25 33
REMARK H PARENT 25 34 25 35
ROOT
ATOM      1  C   UNL     1      12.198 -50.542 -23.455  1.00  0.00     0.060 A 
ATOM      2  C   UNL     1      11.494 -50.505 -22.236  1.00  0.00     0.029 A 
ATOM      3  C   UNL     1      10.977 -51.661 -21.641  1.00  0.00     0.024 A 
ATOM      4  C   UNL     1      11.150 -52.888 -22.275  1.00  0.00     0.082 A 
ATOM      5  C   UNL     1      11.849 -52.967 -23.478  1.00  0.00     0.024 A 
ATOM      6  C   UNL     1      12.362 -51.801 -24.058  1.00  0.00     0.029 A 
ENDROOT
BRANCH   1   7
ATOM      7  N   UNL     1      12.702 -49.371 -24.019  1.00  0.00    -0.257 N 
ATOM      8  C   UNL     1      13.894 -49.264 -24.866  1.00  0.00     0.144 C 
ATOM      9  C   UNL     1      13.780 -47.847 -25.430  1.00  0.00     0.091 C 
ATOM     10  C   UNL     1      12.691 -47.294 -24.552  1.00  0.00     0.071 C 
ATOM     11  N   UNL     1      12.090 -48.169 -23.804  1.00  0.00    -0.176 NA
BRANCH   8  12
ATOM     12  C   UNL     1      15.198 -49.441 -24.104  1.00  0.00    -0.019 A 
ATOM     13  C   UNL     1      17.685 -49.784 -22.780  1.00  0.00     0.160 A 
ATOM     14  C   UNL     1      16.764 -48.824 -22.345  1.00  0.00     0.051 A 
ATOM     15  C   UNL     1      17.344 -50.592 -23.877  1.00  0.00     0.161 A 
ATOM     16  C   UNL     1      15.539 -48.655 -22.997  1.00  0.00     0.010 A 
ATOM     17  C   UNL     1      16.123 -50.401 -24.540  1.00  0.00     0.056 A 
BRANCH  13  18
ATOM     18  O   UNL     1      18.921 -49.965 -22.217  1.00  0.00    -0.493 OA
ATOM     19  C   UNL     1      18.985 -50.592 -20.943  1.00  0.00     0.278 C 
ENDBRANCH  13  18
BRANCH  15  20
ATOM     20  O   UNL     1      18.123 -51.569 -24.445  1.00  0.00    -0.493 OA
ATOM     21  C   UNL     1      17.437 -52.499 -25.277  1.00  0.00     0.278 C 
ENDBRANCH  15  20
ENDBRANCH   8  12
BRANCH  10  22
ATOM     22  C   UNL     1      12.317 -45.863 -24.573  1.00  0.00     0.004 A 
ATOM     23  C   UNL     1      13.064 -44.980 -25.363  1.00  0.00     0.049 A 
ATOM     24  C   UNL     1      11.244 -45.376 -23.822  1.00  0.00     0.049 A 
ATOM     25  C   UNL     1      12.729 -43.630 -25.395  1.00  0.00     0.126 A 
ATOM     26  C   UNL     1      10.932 -44.018 -23.873  1.00  0.00     0.126 A 
ATOM     27  C   UNL     1      11.664 -43.138 -24.655  1.00  0.00     0.078 A 
ATOM     28  F   UNL     1      13.446 -42.791 -26.155  1.00  0.00    -0.207 F 
ATOM     29  F   UNL     1       9.903 -43.558 -23.150  1.00  0.00    -0.207 F 
ENDBRANCH  10  22
ENDBRANCH   1   7
BRANCH   4  30
ATOM     30  S   UNL     1      10.501 -54.363 -21.540  1.00  0.00     0.238 S 
ATOM     31  O   UNL     1       9.060 -54.325 -21.623  1.00  0.00    -0.207 OA
ATOM     32  O   UNL     1      11.278 -55.490 -22.003  1.00  0.00    -0.207 OA
BRANCH  30  33
ATOM     33  N   UNL     1      10.932 -54.148 -19.925  1.00  0.00    -0.225 NA
ATOM     34  H   UNL     1      10.439 -53.374 -19.480  1.00  0.00     0.137 HD
ATOM     35  H   UNL     1      11.947 -54.034 -19.870  1.00  0.00     0.137 HD
ENDBRANCH  30  33
ENDBRANCH   4  30
TORSDOF 7
ENDMDL
MODEL 8
REMARK VINA RESULT:    -8.243      4.854      7.367
REMARK INTER + INTRA:         -12.710
REMARK INTER:                 -11.293
REMARK INTRA:                  -1.418
REMARK UNBOUND:                -1.336
REMARK SMILES COc1ccc([C@@H]2CC(c3cc(F)cc(F)c3)=NN2c2ccc(S(N)(=O)=O)cc2)cc1OC
REMARK SMILES IDX 20 1 21 2 22 3 23 4 28 5 29 6 19 7 7 8 8 9 9 10 18 11 6 12
REMARK SMILES IDX 3 13 4 14 31 15 5 16 30 17 2 18 1 19 32 20 33 21 10 22 11 23
REMARK SMILES IDX 17 24 12 25 15 26 14 27 13 28 16 29 24 30 26 31 27 32 25 33
REMARK H PARENT 25 34 25 35
ROOT
ATOM      1  C   UNL     1      16.957 -51.288 -25.118  1.00  0.00     0.060 A 
ATOM      2  C   UNL     1      17.779 -52.175 -25.840  1.00  0.00     0.029 A 
ATOM      3  C   UNL     1      19.173 -52.157 -25.725  1.00  0.00     0.024 A 
ATOM      4  C   UNL     1      19.775 -51.228 -24.880  1.00  0.00     0.082 A 
ATOM      5  C   UNL     1      18.995 -50.340 -24.141  1.00  0.00     0.024 A 
ATOM      6  C   UNL     1      17.601 -50.373 -24.266  1.00  0.00     0.029 A 
ENDROOT
BRANCH   1   7
ATOM      7  N   UNL     1      15.571 -51.335 -25.255  1.00  0.00    -0.257 N 
ATOM      8  C   UNL     1      14.799 -50.852 -26.404  1.00  0.00     0.144 C 
ATOM      9  C   UNL     1      13.408 -51.433 -26.144  1.00  0.00     0.091 C 
ATOM     10  C   UNL     1      13.571 -51.893 -24.720  1.00  0.00     0.071 C 
ATOM     11  N   UNL     1      14.786 -51.857 -24.265  1.00  0.00    -0.176 NA
BRANCH   8  12
ATOM     12  C   UNL     1      14.743 -49.335 -26.504  1.00  0.00    -0.019 A 
ATOM     13  C   UNL     1      14.600 -46.515 -26.795  1.00  0.00     0.160 A 
ATOM     14  C   UNL     1      14.203 -47.137 -25.606  1.00  0.00     0.051 A 
ATOM     15  C   UNL     1      15.094 -47.316 -27.839  1.00  0.00     0.161 A 
ATOM     16  C   UNL     1      14.273 -48.527 -25.462  1.00  0.00     0.010 A 
ATOM     17  C   UNL     1      15.139 -48.710 -27.695  1.00  0.00     0.056 A 
BRANCH  13  18
ATOM     18  O   UNL     1      14.510 -45.167 -27.018  1.00  0.00    -0.493 OA
ATOM     19  C   UNL     1      13.402 -44.474 -26.458  1.00  0.00     0.278 C 
ENDBRANCH  13  18
BRANCH  15  20
ATOM     20  O   UNL     1      15.513 -46.883 -29.072  1.00  0.00    -0.493 OA
ATOM     21  C   UNL     1      14.707 -47.288 -30.174  1.00  0.00     0.278 C 
ENDBRANCH  15  20
ENDBRANCH   8  12
BRANCH  10  22
ATOM     22  C   UNL     1      12.427 -52.381 -23.919  1.00  0.00     0.004 A 
ATOM     23  C   UNL     1      11.871 -51.538 -22.950  1.00  0.00     0.049 A 
ATOM     24  C   UNL     1      11.896 -53.661 -24.106  1.00  0.00     0.049 A 
ATOM     25  C   UNL     1      10.795 -51.979 -22.186  1.00  0.00     0.126 A 
ATOM     26  C   UNL     1      10.819 -54.076 -23.325  1.00  0.00     0.126 A 
ATOM     27  C   UNL     1      10.260 -53.246 -22.364  1.00  0.00     0.078 A 
ATOM     28  F   UNL     1      10.266 -51.167 -21.261  1.00  0.00    -0.207 F 
ATOM     29  F   UNL     1      10.316 -55.304 -23.508  1.00  0.00    -0.207 F 
ENDBRANCH  10  22
ENDBRANCH   1   7
BRANCH   4  30
ATOM     30  S   UNL     1      21.537 -51.187 -24.722  1.00  0.00     0.238 S 
ATOM     31  O   UNL     1      22.059 -50.182 -25.618  1.00  0.00    -0.207 OA
ATOM     32  O   UNL     1      21.876 -51.228 -23.317  1.00  0.00    -0.207 OA
BRANCH  30  33
ATOM     33  N   UNL     1      21.962 -52.698 -25.335  1.00  0.00    -0.225 NA
ATOM     34  H   UNL     1      22.561 -53.230 -24.705  1.00  0.00     0.137 HD
ATOM     35  H   UNL     1      22.395 -52.568 -26.252  1.00  0.00     0.137 HD
ENDBRANCH  30  33
ENDBRANCH   4  30
TORSDOF 7
ENDMDL
MODEL 9
REMARK VINA RESULT:    -8.224      3.671      5.199
REMARK INTER + INTRA:         -12.685
REMARK INTER:                 -11.441
REMARK INTRA:                  -1.244
REMARK UNBOUND:                -1.336
REMARK SMILES COc1ccc([C@@H]2CC(c3cc(F)cc(F)c3)=NN2c2ccc(S(N)(=O)=O)cc2)cc1OC
REMARK SMILES IDX 20 1 21 2 22 3 23 4 28 5 29 6 19 7 7 8 8 9 9 10 18 11 6 12
REMARK SMILES IDX 3 13 4 14 31 15 5 16 30 17 2 18 1 19 32 20 33 21 10 22 11 23
REMARK SMILES IDX 17 24 12 25 15 26 14 27 13 28 16 29 24 30 26 31 27 32 25 33
REMARK H PARENT 25 34 25 35
ROOT
ATOM      1  C   UNL     1      13.409 -51.439 -24.457  1.00  0.00     0.060 A 
ATOM      2  C   UNL     1      12.823 -50.868 -23.311  1.00  0.00     0.029 A 
ATOM      3  C   UNL     1      11.803 -51.508 -22.600  1.00  0.00     0.024 A 
ATOM      4  C   UNL     1      11.339 -52.744 -23.040  1.00  0.00     0.082 A 
ATOM      5  C   UNL     1      11.900 -53.348 -24.164  1.00  0.00     0.024 A 
ATOM      6  C   UNL     1      12.923 -52.694 -24.862  1.00  0.00     0.029 A 
ENDROOT
BRANCH   1   7
ATOM      7  N   UNL     1      14.426 -50.775 -25.141  1.00  0.00    -0.257 N 
ATOM      8  C   UNL     1      15.862 -50.879 -24.867  1.00  0.00     0.144 C 
ATOM      9  C   UNL     1      16.488 -50.205 -26.090  1.00  0.00     0.091 C 
ATOM     10  C   UNL     1      15.269 -49.564 -26.696  1.00  0.00     0.071 C 
ATOM     11  N   UNL     1      14.138 -49.923 -26.170  1.00  0.00    -0.176 NA
BRANCH   8  12
ATOM     12  C   UNL     1      16.289 -50.181 -23.586  1.00  0.00    -0.019 A 
ATOM     13  C   UNL     1      17.185 -48.926 -21.203  1.00  0.00     0.160 A 
ATOM     14  C   UNL     1      16.405 -48.230 -22.134  1.00  0.00     0.051 A 
ATOM     15  C   UNL     1      17.499 -50.270 -21.462  1.00  0.00     0.161 A 
ATOM     16  C   UNL     1      15.964 -48.848 -23.308  1.00  0.00     0.010 A 
ATOM     17  C   UNL     1      17.072 -50.875 -22.653  1.00  0.00     0.056 A 
BRANCH  13  18
ATOM     18  O   UNL     1      17.691 -48.365 -20.060  1.00  0.00    -0.493 OA
ATOM     19  C   UNL     1      17.143 -47.125 -19.630  1.00  0.00     0.278 C 
ENDBRANCH  13  18
BRANCH  15  20
ATOM     20  O   UNL     1      18.259 -51.098 -20.674  1.00  0.00    -0.493 OA
ATOM     21  C   UNL     1      19.662 -50.852 -20.696  1.00  0.00     0.278 C 
ENDBRANCH  15  20
ENDBRANCH   8  12
BRANCH  10  22
ATOM     22  C   UNL     1      15.363 -48.620 -27.832  1.00  0.00     0.004 A 
ATOM     23  C   UNL     1      15.763 -47.301 -27.584  1.00  0.00     0.049 A 
ATOM     24  C   UNL     1      15.061 -49.015 -29.138  1.00  0.00     0.049 A 
ATOM     25  C   UNL     1      15.857 -46.399 -28.639  1.00  0.00     0.126 A 
ATOM     26  C   UNL     1      15.163 -48.089 -30.175  1.00  0.00     0.126 A 
ATOM     27  C   UNL     1      15.560 -46.781 -29.939  1.00  0.00     0.078 A 
ATOM     28  F   UNL     1      16.240 -45.138 -28.396  1.00  0.00    -0.207 F 
ATOM     29  F   UNL     1      14.870 -48.474 -31.424  1.00  0.00    -0.207 F 
ENDBRANCH  10  22
ENDBRANCH   1   7
BRANCH   4  30
ATOM     30  S   UNL     1      10.047 -53.570 -22.155  1.00  0.00     0.238 S 
ATOM     31  O   UNL     1       9.645 -54.736 -22.906  1.00  0.00    -0.207 OA
ATOM     32  O   UNL     1      10.410 -53.632 -20.757  1.00  0.00    -0.207 OA
BRANCH  30  33
ATOM     33  N   UNL     1       8.802 -52.439 -22.251  1.00  0.00    -0.225 NA
ATOM     34  H   UNL     1       8.816 -51.902 -23.117  1.00  0.00     0.137 HD
ATOM     35  H   UNL     1       8.846 -51.834 -21.428  1.00  0.00     0.137 HD
ENDBRANCH  30  33
ENDBRANCH   4  30
TORSDOF 7
ENDMDL
