MODEL 1
REMARK VINA RESULT:   -12.117      0.000      0.000
REMARK INTER + INTRA:         -17.076
REMARK INTER:                 -16.367
REMARK INTRA:                  -0.709
REMARK UNBOUND:                -0.709
REMARK SMILES COc1cc2c(cc1OC)C(=O)/C(=C/c1cc[n+](Cc3ccccc3C)cc1)C2
REMARK SMILES IDX 15 1 16 2 17 3 18 4 27 5 28 6 14 7 13 8 3 9 4 10 8 11 5 12
REMARK SMILES IDX 7 13 6 14 29 15 11 16 12 17 2 18 1 19 9 20 10 21 19 22 20 23
REMARK SMILES IDX 21 24 25 25 22 26 24 27 23 28 26 29
REMARK H PARENT
ROOT
ATOM      1  C   UNL     1      10.473 -57.263 -22.878  1.00  0.00    -0.013 A 
ATOM      2  C   UNL     1       9.381 -58.007 -23.318  1.00  0.00     0.079 A 
ATOM      3  C   UNL     1       9.584 -59.259 -23.886  1.00  0.00     0.309 A 
ATOM      4  N   UNL     1      10.834 -59.759 -24.025  1.00  0.00    -0.201 N 
ATOM      5  C   UNL     1      11.908 -59.049 -23.608  1.00  0.00     0.309 A 
ATOM      6  C   UNL     1      11.752 -57.792 -23.033  1.00  0.00     0.079 A 
ENDROOT
BRANCH   1   7
ATOM      7  C   UNL     1      10.250 -55.924 -22.335  1.00  0.00     0.016 C 
BRANCH   7   8
ATOM      8  C   UNL     1      10.808 -54.793 -22.793  1.00  0.00     0.005 C 
ATOM      9  C   UNL     1      12.981 -50.931 -24.420  1.00  0.00     0.161 A 
ATOM     10  C   UNL     1      12.697 -52.261 -24.776  1.00  0.00     0.055 A 
ATOM     11  C   UNL     1      12.489 -50.412 -23.194  1.00  0.00     0.161 A 
ATOM     12  C   UNL     1      11.963 -53.052 -23.901  1.00  0.00    -0.028 A 
ATOM     13  C   UNL     1      11.771 -51.225 -22.309  1.00  0.00     0.063 A 
ATOM     14  C   UNL     1      11.519 -52.526 -22.691  1.00  0.00     0.030 A 
ATOM     15  C   UNL     1      11.552 -54.484 -24.068  1.00  0.00     0.076 C 
ATOM     16  C   UNL     1      10.789 -53.556 -21.951  1.00  0.00     0.189 C 
ATOM     17  O   UNL     1      10.270 -53.436 -20.860  1.00  0.00    -0.289 OA
BRANCH   9  18
ATOM     18  O   UNL     1      13.734 -50.086 -25.193  1.00  0.00    -0.493 OA
ATOM     19  C   UNL     1      14.058 -50.493 -26.514  1.00  0.00     0.278 C 
ENDBRANCH   9  18
BRANCH  11  20
ATOM     20  O   UNL     1      12.709 -49.143 -22.718  1.00  0.00    -0.493 OA
ATOM     21  C   UNL     1      11.658 -48.212 -22.960  1.00  0.00     0.278 C 
ENDBRANCH  11  20
ENDBRANCH   7   8
ENDBRANCH   1   7
BRANCH   4  22
ATOM     22  C   UNL     1      11.031 -61.102 -24.635  1.00  0.00     0.393 C 
BRANCH  22  23
ATOM     23  C   UNL     1       9.984 -62.081 -24.158  1.00  0.00     0.020 A 
ATOM     24  C   UNL     1      10.084 -62.600 -22.851  1.00  0.00     0.010 A 
ATOM     25  C   UNL     1       8.914 -62.501 -24.980  1.00  0.00    -0.042 A 
ATOM     26  C   UNL     1       9.136 -63.495 -22.360  1.00  0.00     0.001 A 
ATOM     27  C   UNL     1       7.968 -63.403 -24.465  1.00  0.00     0.004 A 
ATOM     28  C   UNL     1       8.077 -63.893 -23.165  1.00  0.00     0.000 A 
ATOM     29  C   UNL     1       8.747 -62.028 -26.400  1.00  0.00     0.045 C 
ENDBRANCH  22  23
ENDBRANCH   4  22
TORSDOF 6
ENDMDL
MODEL 2
REMARK VINA RESULT:   -11.437      0.889      1.737
REMARK INTER + INTRA:         -16.157
REMARK INTER:                 -15.455
REMARK INTRA:                  -0.702
REMARK UNBOUND:                -0.709
REMARK SMILES COc1cc2c(cc1OC)C(=O)/C(=C/c1cc[n+](Cc3ccccc3C)cc1)C2
REMARK SMILES IDX 15 1 16 2 17 3 18 4 27 5 28 6 14 7 13 8 3 9 4 10 8 11 5 12
REMARK SMILES IDX 7 13 6 14 29 15 11 16 12 17 2 18 1 19 9 20 10 21 19 22 20 23
REMARK SMILES IDX 21 24 25 25 22 26 24 27 23 28 26 29
REMARK H PARENT
ROOT
ATOM      1  C   UNL     1      10.150 -56.925 -22.677  1.00  0.00    -0.013 A 
ATOM      2  C   UNL     1       9.114 -57.708 -23.180  1.00  0.00     0.079 A 
ATOM      3  C   UNL     1       9.326 -59.060 -23.422  1.00  0.00     0.309 A 
ATOM      4  N   UNL     1      10.533 -59.622 -23.183  1.00  0.00    -0.201 N 
ATOM      5  C   UNL     1      11.554 -58.876 -22.698  1.00  0.00     0.309 A 
ATOM      6  C   UNL     1      11.386 -57.520 -22.441  1.00  0.00     0.079 A 
ENDROOT
BRANCH   1   7
ATOM      7  C   UNL     1       9.930 -55.492 -22.482  1.00  0.00     0.016 C 
BRANCH   7   8
ATOM      8  C   UNL     1      10.668 -54.510 -23.020  1.00  0.00     0.005 C 
ATOM      9  C   UNL     1      13.455 -51.197 -24.902  1.00  0.00     0.161 A 
ATOM     10  C   UNL     1      12.989 -52.502 -25.140  1.00  0.00     0.055 A 
ATOM     11  C   UNL     1      13.001 -50.486 -23.760  1.00  0.00     0.161 A 
ATOM     12  C   UNL     1      12.112 -53.081 -24.231  1.00  0.00    -0.028 A 
ATOM     13  C   UNL     1      12.137 -51.088 -22.839  1.00  0.00     0.063 A 
ATOM     14  C   UNL     1      11.707 -52.372 -23.104  1.00  0.00     0.030 A 
ATOM     15  C   UNL     1      11.498 -54.448 -24.278  1.00  0.00     0.076 C 
ATOM     16  C   UNL     1      10.803 -53.202 -22.305  1.00  0.00     0.189 C 
ATOM     17  O   UNL     1      10.268 -52.893 -21.260  1.00  0.00    -0.289 OA
BRANCH   9  18
ATOM     18  O   UNL     1      14.355 -50.557 -25.713  1.00  0.00    -0.493 OA
ATOM     19  C   UNL     1      15.727 -50.910 -25.605  1.00  0.00     0.278 C 
ENDBRANCH   9  18
BRANCH  11  20
ATOM     20  O   UNL     1      13.391 -49.220 -23.402  1.00  0.00    -0.493 OA
ATOM     21  C   UNL     1      12.578 -48.165 -23.910  1.00  0.00     0.278 C 
ENDBRANCH  11  20
ENDBRANCH   7   8
ENDBRANCH   1   7
BRANCH   4  22
ATOM     22  C   UNL     1      10.741 -61.071 -23.446  1.00  0.00     0.393 C 
BRANCH  22  23
ATOM     23  C   UNL     1      10.019 -61.511 -24.698  1.00  0.00     0.020 A 
ATOM     24  C   UNL     1      10.371 -60.919 -25.929  1.00  0.00     0.010 A 
ATOM     25  C   UNL     1       8.997 -62.487 -24.677  1.00  0.00    -0.042 A 
ATOM     26  C   UNL     1       9.744 -61.301 -27.114  1.00  0.00     0.001 A 
ATOM     27  C   UNL     1       8.379 -62.858 -25.883  1.00  0.00     0.004 A 
ATOM     28  C   UNL     1       8.752 -62.272 -27.090  1.00  0.00     0.000 A 
ATOM     29  C   UNL     1       8.529 -63.146 -23.406  1.00  0.00     0.045 C 
ENDBRANCH  22  23
ENDBRANCH   4  22
TORSDOF 6
ENDMDL
MODEL 3
REMARK VINA RESULT:   -10.784      1.299      2.772
REMARK INTER + INTRA:         -15.275
REMARK INTER:                 -14.911
REMARK INTRA:                  -0.364
REMARK UNBOUND:                -0.709
REMARK SMILES COc1cc2c(cc1OC)C(=O)/C(=C/c1cc[n+](Cc3ccccc3C)cc1)C2
REMARK SMILES IDX 15 1 16 2 17 3 18 4 27 5 28 6 14 7 13 8 3 9 4 10 8 11 5 12
REMARK SMILES IDX 7 13 6 14 29 15 11 16 12 17 2 18 1 19 9 20 10 21 19 22 20 23
REMARK SMILES IDX 21 24 25 25 22 26 24 27 23 28 26 29
REMARK H PARENT
ROOT
ATOM      1  C   UNL     1      10.135 -56.490 -22.544  1.00  0.00    -0.013 A 
ATOM      2  C   UNL     1       9.206 -57.287 -23.208  1.00  0.00     0.079 A 
ATOM      3  C   UNL     1       9.527 -58.603 -23.522  1.00  0.00     0.309 A 
ATOM      4  N   UNL     1      10.737 -59.114 -23.200  1.00  0.00    -0.201 N 
ATOM      5  C   UNL     1      11.655 -58.352 -22.559  1.00  0.00     0.309 A 
ATOM      6  C   UNL     1      11.377 -57.032 -22.224  1.00  0.00     0.079 A 
ENDROOT
BRANCH   1   7
ATOM      7  C   UNL     1       9.807 -55.091 -22.271  1.00  0.00     0.016 C 
BRANCH   7   8
ATOM      8  C   UNL     1      10.590 -54.038 -22.547  1.00  0.00     0.005 C 
ATOM      9  C   UNL     1      13.151 -50.188 -23.500  1.00  0.00     0.161 A 
ATOM     10  C   UNL     1      12.338 -50.743 -22.496  1.00  0.00     0.055 A 
ATOM     11  C   UNL     1      13.411 -50.930 -24.683  1.00  0.00     0.161 A 
ATOM     12  C   UNL     1      11.780 -51.999 -22.698  1.00  0.00    -0.028 A 
ATOM     13  C   UNL     1      12.824 -52.183 -24.886  1.00  0.00     0.063 A 
ATOM     14  C   UNL     1      12.027 -52.691 -23.881  1.00  0.00     0.030 A 
ATOM     15  C   UNL     1      10.886 -52.775 -21.777  1.00  0.00     0.076 C 
ATOM     16  C   UNL     1      11.318 -53.971 -23.853  1.00  0.00     0.189 C 
ATOM     17  O   UNL     1      11.315 -54.818 -24.723  1.00  0.00    -0.289 OA
BRANCH   9  18
ATOM     18  O   UNL     1      13.709 -48.939 -23.416  1.00  0.00    -0.493 OA
ATOM     19  C   UNL     1      12.878 -47.814 -23.660  1.00  0.00     0.278 C 
ENDBRANCH   9  18
BRANCH  11  20
ATOM     20  O   UNL     1      14.167 -50.499 -25.745  1.00  0.00    -0.493 OA
ATOM     21  C   UNL     1      15.541 -50.872 -25.705  1.00  0.00     0.278 C 
ENDBRANCH  11  20
ENDBRANCH   7   8
ENDBRANCH   1   7
BRANCH   4  22
ATOM     22  C   UNL     1      11.062 -60.524 -23.543  1.00  0.00     0.393 C 
BRANCH  22  23
ATOM     23  C   UNL     1      10.498 -60.905 -24.892  1.00  0.00     0.020 A 
ATOM     24  C   UNL     1      10.889 -60.163 -26.025  1.00  0.00     0.010 A 
ATOM     25  C   UNL     1       9.585 -61.971 -25.055  1.00  0.00    -0.042 A 
ATOM     26  C   UNL     1      10.408 -60.482 -27.293  1.00  0.00     0.001 A 
ATOM     27  C   UNL     1       9.114 -62.278 -26.343  1.00  0.00     0.004 A 
ATOM     28  C   UNL     1       9.524 -61.542 -27.451  1.00  0.00     0.000 A 
ATOM     29  C   UNL     1       9.084 -62.795 -23.898  1.00  0.00     0.045 C 
ENDBRANCH  22  23
ENDBRANCH   4  22
TORSDOF 6
ENDMDL
MODEL 4
REMARK VINA RESULT:   -10.501      2.522      4.214
REMARK INTER + INTRA:         -14.893
REMARK INTER:                 -14.321
REMARK INTRA:                  -0.572
REMARK UNBOUND:                -0.709
REMARK SMILES COc1cc2c(cc1OC)C(=O)/C(=C/c1cc[n+](Cc3ccccc3C)cc1)C2
REMARK SMILES IDX 15 1 16 2 17 3 18 4 27 5 28 6 14 7 13 8 3 9 4 10 8 11 5 12
REMARK SMILES IDX 7 13 6 14 29 15 11 16 12 17 2 18 1 19 9 20 10 21 19 22 20 23
REMARK SMILES IDX 21 24 25 25 22 26 24 27 23 28 26 29
REMARK H PARENT
ROOT
ATOM      1  C   UNL     1      10.806 -53.400 -22.098  1.00  0.00    -0.013 A 
ATOM      2  C   UNL     1      10.850 -54.376 -21.105  1.00  0.00     0.079 A 
ATOM      3  C   UNL     1      10.980 -55.714 -21.459  1.00  0.00     0.309 A 
ATOM      4  N   UNL     1      11.053 -56.080 -22.759  1.00  0.00    -0.201 N 
ATOM      5  C   UNL     1      11.008 -55.146 -23.739  1.00  0.00     0.309 A 
ATOM      6  C   UNL     1      10.880 -53.796 -23.431  1.00  0.00     0.079 A 
ENDROOT
BRANCH   1   7
ATOM      7  C   UNL     1      10.612 -52.003 -21.714  1.00  0.00     0.016 C 
BRANCH   7   8
ATOM      8  C   UNL     1      11.092 -50.939 -22.375  1.00  0.00     0.005 C 
ATOM      9  C   UNL     1      12.974 -47.200 -24.559  1.00  0.00     0.161 A 
ATOM     10  C   UNL     1      13.234 -48.554 -24.282  1.00  0.00     0.055 A 
ATOM     11  C   UNL     1      11.755 -46.617 -24.124  1.00  0.00     0.161 A 
ATOM     12  C   UNL     1      12.300 -49.286 -23.560  1.00  0.00    -0.028 A 
ATOM     13  C   UNL     1      10.832 -47.357 -23.377  1.00  0.00     0.063 A 
ATOM     14  C   UNL     1      11.127 -48.680 -23.120  1.00  0.00     0.030 A 
ATOM     15  C   UNL     1      12.369 -50.727 -23.148  1.00  0.00     0.076 C 
ATOM     16  C   UNL     1      10.325 -49.653 -22.377  1.00  0.00     0.189 C 
ATOM     17  O   UNL     1       9.246 -49.457 -21.856  1.00  0.00    -0.289 OA
BRANCH   9  18
ATOM     18  O   UNL     1      13.851 -46.383 -25.223  1.00  0.00    -0.493 OA
ATOM     19  C   UNL     1      15.029 -45.970 -24.546  1.00  0.00     0.278 C 
ENDBRANCH   9  18
BRANCH  11  20
ATOM     20  O   UNL     1      11.386 -45.307 -24.310  1.00  0.00    -0.493 OA
ATOM     21  C   UNL     1      10.572 -44.752 -23.281  1.00  0.00     0.278 C 
ENDBRANCH  11  20
ENDBRANCH   7   8
ENDBRANCH   1   7
BRANCH   4  22
ATOM     22  C   UNL     1      11.193 -57.516 -23.119  1.00  0.00     0.393 C 
BRANCH  22  23
ATOM     23  C   UNL     1       9.859 -58.225 -23.080  1.00  0.00     0.020 A 
ATOM     24  C   UNL     1       8.721 -57.555 -23.573  1.00  0.00     0.010 A 
ATOM     25  C   UNL     1       9.712 -59.530 -22.559  1.00  0.00    -0.042 A 
ATOM     26  C   UNL     1       7.470 -58.169 -23.572  1.00  0.00     0.001 A 
ATOM     27  C   UNL     1       8.443 -60.133 -22.569  1.00  0.00     0.004 A 
ATOM     28  C   UNL     1       7.334 -59.459 -23.074  1.00  0.00     0.000 A 
ATOM     29  C   UNL     1      10.865 -60.308 -21.980  1.00  0.00     0.045 C 
ENDBRANCH  22  23
ENDBRANCH   4  22
TORSDOF 6
ENDMDL
MODEL 5
REMARK VINA RESULT:   -10.339      1.458      2.073
REMARK INTER + INTRA:         -14.675
REMARK INTER:                 -14.051
REMARK INTRA:                  -0.624
REMARK UNBOUND:                -0.709
REMARK SMILES COc1cc2c(cc1OC)C(=O)/C(=C/c1cc[n+](Cc3ccccc3C)cc1)C2
REMARK SMILES IDX 15 1 16 2 17 3 18 4 27 5 28 6 14 7 13 8 3 9 4 10 8 11 5 12
REMARK SMILES IDX 7 13 6 14 29 15 11 16 12 17 2 18 1 19 9 20 10 21 19 22 20 23
REMARK SMILES IDX 21 24 25 25 22 26 24 27 23 28 26 29
REMARK H PARENT
ROOT
ATOM      1  C   UNL     1      10.904 -55.702 -22.501  1.00  0.00    -0.013 A 
ATOM      2  C   UNL     1      10.956 -56.551 -21.398  1.00  0.00     0.079 A 
ATOM      3  C   UNL     1      11.425 -57.851 -21.549  1.00  0.00     0.309 A 
ATOM      4  N   UNL     1      11.821 -58.305 -22.760  1.00  0.00    -0.201 N 
ATOM      5  C   UNL     1      11.774 -57.496 -23.846  1.00  0.00     0.309 A 
ATOM      6  C   UNL     1      11.313 -56.188 -23.740  1.00  0.00     0.079 A 
ENDROOT
BRANCH   1   7
ATOM      7  C   UNL     1      10.356 -54.357 -22.339  1.00  0.00     0.016 C 
BRANCH   7   8
ATOM      8  C   UNL     1      10.932 -53.223 -22.765  1.00  0.00     0.005 C 
ATOM      9  C   UNL     1      13.164 -49.301 -24.152  1.00  0.00     0.161 A 
ATOM     10  C   UNL     1      13.239 -50.701 -24.259  1.00  0.00     0.055 A 
ATOM     11  C   UNL     1      12.090 -48.708 -23.439  1.00  0.00     0.161 A 
ATOM     12  C   UNL     1      12.271 -51.478 -23.636  1.00  0.00    -0.028 A 
ATOM     13  C   UNL     1      11.134 -49.501 -22.794  1.00  0.00     0.063 A 
ATOM     14  C   UNL     1      11.245 -50.870 -22.917  1.00  0.00     0.030 A 
ATOM     15  C   UNL     1      12.156 -52.973 -23.611  1.00  0.00     0.076 C 
ATOM     16  C   UNL     1      10.372 -51.899 -22.349  1.00  0.00     0.189 C 
ATOM     17  O   UNL     1       9.384 -51.717 -21.667  1.00  0.00    -0.289 OA
BRANCH   9  18
ATOM     18  O   UNL     1      14.094 -48.451 -24.692  1.00  0.00    -0.493 OA
ATOM     19  C   UNL     1      14.344 -48.527 -26.088  1.00  0.00     0.278 C 
ENDBRANCH   9  18
BRANCH  11  20
ATOM     20  O   UNL     1      11.909 -47.361 -23.242  1.00  0.00    -0.493 OA
ATOM     21  C   UNL     1      10.902 -47.013 -22.296  1.00  0.00     0.278 C 
ENDBRANCH  11  20
ENDBRANCH   7   8
ENDBRANCH   1   7
BRANCH   4  22
ATOM     22  C   UNL     1      12.321 -59.698 -22.902  1.00  0.00     0.393 C 
BRANCH  22  23
ATOM     23  C   UNL     1      11.216 -60.638 -23.326  1.00  0.00     0.020 A 
ATOM     24  C   UNL     1      10.385 -61.198 -22.334  1.00  0.00     0.010 A 
ATOM     25  C   UNL     1      10.994 -60.981 -24.678  1.00  0.00    -0.042 A 
ATOM     26  C   UNL     1       9.343 -62.059 -22.674  1.00  0.00     0.001 A 
ATOM     27  C   UNL     1       9.937 -61.849 -25.000  1.00  0.00     0.004 A 
ATOM     28  C   UNL     1       9.118 -62.381 -24.006  1.00  0.00     0.000 A 
ATOM     29  C   UNL     1      11.853 -60.460 -25.800  1.00  0.00     0.045 C 
ENDBRANCH  22  23
ENDBRANCH   4  22
TORSDOF 6
ENDMDL
MODEL 6
REMARK VINA RESULT:   -10.221      3.547     10.296
REMARK INTER + INTRA:         -14.515
REMARK INTER:                 -14.049
REMARK INTRA:                  -0.466
REMARK UNBOUND:                -0.709
REMARK SMILES COc1cc2c(cc1OC)C(=O)/C(=C/c1cc[n+](Cc3ccccc3C)cc1)C2
REMARK SMILES IDX 15 1 16 2 17 3 18 4 27 5 28 6 14 7 13 8 3 9 4 10 8 11 5 12
REMARK SMILES IDX 7 13 6 14 29 15 11 16 12 17 2 18 1 19 9 20 10 21 19 22 20 23
REMARK SMILES IDX 21 24 25 25 22 26 24 27 23 28 26 29
REMARK H PARENT
ROOT
ATOM      1  C   UNL     1      11.138 -55.980 -22.229  1.00  0.00    -0.013 A 
ATOM      2  C   UNL     1      11.016 -55.314 -23.446  1.00  0.00     0.079 A 
ATOM      3  C   UNL     1      10.728 -53.954 -23.462  1.00  0.00     0.309 A 
ATOM      4  N   UNL     1      10.554 -53.272 -22.306  1.00  0.00    -0.201 N 
ATOM      5  C   UNL     1      10.664 -53.904 -21.113  1.00  0.00     0.309 A 
ATOM      6  C   UNL     1      10.952 -55.263 -21.050  1.00  0.00     0.079 A 
ENDROOT
BRANCH   1   7
ATOM      7  C   UNL     1      11.384 -57.421 -22.228  1.00  0.00     0.016 C 
BRANCH   7   8
ATOM      8  C   UNL     1      10.669 -58.335 -22.901  1.00  0.00     0.005 C 
ATOM      9  C   UNL     1       8.151 -61.686 -25.072  1.00  0.00     0.161 A 
ATOM     10  C   UNL     1       8.090 -60.805 -23.979  1.00  0.00     0.055 A 
ATOM     11  C   UNL     1       9.280 -61.662 -25.932  1.00  0.00     0.161 A 
ATOM     12  C   UNL     1       9.155 -59.945 -23.745  1.00  0.00    -0.028 A 
ATOM     13  C   UNL     1      10.358 -60.809 -25.673  1.00  0.00     0.063 A 
ATOM     14  C   UNL     1      10.264 -59.964 -24.587  1.00  0.00     0.030 A 
ATOM     15  C   UNL     1       9.308 -58.934 -22.648  1.00  0.00     0.076 C 
ATOM     16  C   UNL     1      11.246 -58.983 -24.121  1.00  0.00     0.189 C 
ATOM     17  O   UNL     1      12.325 -58.742 -24.623  1.00  0.00    -0.289 OA
BRANCH   9  18
ATOM     18  O   UNL     1       7.173 -62.603 -25.359  1.00  0.00    -0.493 OA
ATOM     19  C   UNL     1       7.231 -63.870 -24.721  1.00  0.00     0.278 C 
ENDBRANCH   9  18
BRANCH  11  20
ATOM     20  O   UNL     1       9.475 -62.479 -27.018  1.00  0.00    -0.493 OA
ATOM     21  C   UNL     1       9.079 -61.930 -28.272  1.00  0.00     0.278 C 
ENDBRANCH  11  20
ENDBRANCH   7   8
ENDBRANCH   1   7
BRANCH   4  22
ATOM     22  C   UNL     1      10.248 -51.817 -22.343  1.00  0.00     0.393 C 
BRANCH  22  23
ATOM     23  C   UNL     1      11.452 -51.013 -22.775  1.00  0.00     0.020 A 
ATOM     24  C   UNL     1      12.660 -51.690 -23.042  1.00  0.00     0.010 A 
ATOM     25  C   UNL     1      11.412 -49.608 -22.912  1.00  0.00    -0.042 A 
ATOM     26  C   UNL     1      13.795 -50.995 -23.457  1.00  0.00     0.001 A 
ATOM     27  C   UNL     1      12.566 -48.926 -23.333  1.00  0.00     0.004 A 
ATOM     28  C   UNL     1      13.746 -49.616 -23.605  1.00  0.00     0.000 A 
ATOM     29  C   UNL     1      10.177 -48.798 -22.614  1.00  0.00     0.045 C 
ENDBRANCH  22  23
ENDBRANCH   4  22
TORSDOF 6
ENDMDL
MODEL 7
REMARK VINA RESULT:    -9.843      3.572     10.430
REMARK INTER + INTRA:         -14.005
REMARK INTER:                 -14.175
REMARK INTRA:                   0.170
REMARK UNBOUND:                -0.709
REMARK SMILES COc1cc2c(cc1OC)C(=O)/C(=C/c1cc[n+](Cc3ccccc3C)cc1)C2
REMARK SMILES IDX 15 1 16 2 17 3 18 4 27 5 28 6 14 7 13 8 3 9 4 10 8 11 5 12
REMARK SMILES IDX 7 13 6 14 29 15 11 16 12 17 2 18 1 19 9 20 10 21 19 22 20 23
REMARK SMILES IDX 21 24 25 25 22 26 24 27 23 28 26 29
REMARK H PARENT
ROOT
ATOM      1  C   UNL     1      11.307 -54.958 -22.667  1.00  0.00    -0.013 A 
ATOM      2  C   UNL     1      11.666 -54.111 -23.713  1.00  0.00     0.079 A 
ATOM      3  C   UNL     1      11.689 -52.736 -23.509  1.00  0.00     0.309 A 
ATOM      4  N   UNL     1      11.356 -52.211 -22.308  1.00  0.00    -0.201 N 
ATOM      5  C   UNL     1      11.000 -53.019 -21.280  1.00  0.00     0.309 A 
ATOM      6  C   UNL     1      10.964 -54.400 -21.439  1.00  0.00     0.079 A 
ENDROOT
BRANCH   1   7
ATOM      7  C   UNL     1      11.232 -56.398 -22.911  1.00  0.00     0.016 C 
BRANCH   7   8
ATOM      8  C   UNL     1      10.102 -57.105 -23.066  1.00  0.00     0.005 C 
ATOM      9  C   UNL     1       6.046 -59.496 -23.404  1.00  0.00     0.161 A 
ATOM     10  C   UNL     1       6.542 -58.182 -23.342  1.00  0.00     0.055 A 
ATOM     11  C   UNL     1       6.952 -60.589 -23.404  1.00  0.00     0.161 A 
ATOM     12  C   UNL     1       7.914 -57.982 -23.252  1.00  0.00    -0.028 A 
ATOM     13  C   UNL     1       8.330 -60.377 -23.289  1.00  0.00     0.063 A 
ATOM     14  C   UNL     1       8.777 -59.074 -23.224  1.00  0.00     0.030 A 
ATOM     15  C   UNL     1       8.658 -56.683 -23.169  1.00  0.00     0.076 C 
ATOM     16  C   UNL     1      10.157 -58.600 -23.111  1.00  0.00     0.189 C 
ATOM     17  O   UNL     1      11.158 -59.285 -23.060  1.00  0.00    -0.289 OA
BRANCH   9  18
ATOM     18  O   UNL     1       4.710 -59.798 -23.448  1.00  0.00    -0.493 OA
ATOM     19  C   UNL     1       3.794 -58.887 -22.856  1.00  0.00     0.278 C 
ENDBRANCH   9  18
BRANCH  11  20
ATOM     20  O   UNL     1       6.601 -61.916 -23.441  1.00  0.00    -0.493 OA
ATOM     21  C   UNL     1       7.199 -62.675 -24.487  1.00  0.00     0.278 C 
ENDBRANCH  11  20
ENDBRANCH   7   8
ENDBRANCH   1   7
BRANCH   4  22
ATOM     22  C   UNL     1      11.388 -50.737 -22.108  1.00  0.00     0.393 C 
BRANCH  22  23
ATOM     23  C   UNL     1      12.263 -50.062 -23.138  1.00  0.00     0.020 A 
ATOM     24  C   UNL     1      13.407 -50.740 -23.605  1.00  0.00     0.010 A 
ATOM     25  C   UNL     1      11.980 -48.772 -23.640  1.00  0.00    -0.042 A 
ATOM     26  C   UNL     1      14.239 -50.166 -24.565  1.00  0.00     0.001 A 
ATOM     27  C   UNL     1      12.830 -48.212 -24.608  1.00  0.00     0.004 A 
ATOM     28  C   UNL     1      13.948 -48.905 -25.068  1.00  0.00     0.000 A 
ATOM     29  C   UNL     1      10.801 -47.959 -23.172  1.00  0.00     0.045 C 
ENDBRANCH  22  23
ENDBRANCH   4  22
TORSDOF 6
ENDMDL
MODEL 8
REMARK VINA RESULT:    -9.685      2.853      5.510
REMARK INTER + INTRA:         -13.791
REMARK INTER:                 -13.288
REMARK INTRA:                  -0.503
REMARK UNBOUND:                -0.709
REMARK SMILES COc1cc2c(cc1OC)C(=O)/C(=C/c1cc[n+](Cc3ccccc3C)cc1)C2
REMARK SMILES IDX 15 1 16 2 17 3 18 4 27 5 28 6 14 7 13 8 3 9 4 10 8 11 5 12
REMARK SMILES IDX 7 13 6 14 29 15 11 16 12 17 2 18 1 19 9 20 10 21 19 22 20 23
REMARK SMILES IDX 21 24 25 25 22 26 24 27 23 28 26 29
REMARK H PARENT
ROOT
ATOM      1  C   UNL     1      12.096 -52.593 -23.186  1.00  0.00    -0.013 A 
ATOM      2  C   UNL     1      11.171 -52.747 -22.157  1.00  0.00     0.079 A 
ATOM      3  C   UNL     1      10.258 -53.794 -22.200  1.00  0.00     0.309 A 
ATOM      4  N   UNL     1      10.252 -54.661 -23.239  1.00  0.00    -0.201 N 
ATOM      5  C   UNL     1      11.140 -54.525 -24.252  1.00  0.00     0.309 A 
ATOM      6  C   UNL     1      12.072 -53.493 -24.249  1.00  0.00     0.079 A 
ENDROOT
BRANCH   1   7
ATOM      7  C   UNL     1      13.012 -51.454 -23.156  1.00  0.00     0.016 C 
BRANCH   7   8
ATOM      8  C   UNL     1      12.664 -50.169 -23.318  1.00  0.00     0.005 C 
ATOM      9  C   UNL     1      11.223 -45.719 -23.960  1.00  0.00     0.161 A 
ATOM     10  C   UNL     1      10.908 -46.879 -23.230  1.00  0.00     0.055 A 
ATOM     11  C   UNL     1      12.351 -45.717 -24.822  1.00  0.00     0.161 A 
ATOM     12  C   UNL     1      11.695 -48.012 -23.392  1.00  0.00    -0.028 A 
ATOM     13  C   UNL     1      13.121 -46.871 -24.996  1.00  0.00     0.063 A 
ATOM     14  C   UNL     1      12.777 -47.991 -24.268  1.00  0.00     0.030 A 
ATOM     15  C   UNL     1      11.544 -49.349 -22.728  1.00  0.00     0.076 C 
ATOM     16  C   UNL     1      13.428 -49.302 -24.268  1.00  0.00     0.189 C 
ATOM     17  O   UNL     1      14.400 -49.628 -24.918  1.00  0.00    -0.289 OA
BRANCH   9  18
ATOM     18  O   UNL     1      10.482 -44.567 -23.904  1.00  0.00    -0.493 OA
ATOM     19  C   UNL     1      10.742 -43.652 -22.850  1.00  0.00     0.278 C 
ENDBRANCH   9  18
BRANCH  11  20
ATOM     20  O   UNL     1      12.756 -44.663 -25.603  1.00  0.00    -0.493 OA
ATOM     21  C   UNL     1      13.796 -43.861 -25.052  1.00  0.00     0.278 C 
ENDBRANCH  11  20
ENDBRANCH   7   8
ENDBRANCH   1   7
BRANCH   4  22
ATOM     22  C   UNL     1       9.269 -55.777 -23.268  1.00  0.00     0.393 C 
BRANCH  22  23
ATOM     23  C   UNL     1       9.883 -57.063 -22.766  1.00  0.00     0.020 A 
ATOM     24  C   UNL     1      11.057 -56.997 -21.988  1.00  0.00     0.010 A 
ATOM     25  C   UNL     1       9.327 -58.329 -23.058  1.00  0.00    -0.042 A 
ATOM     26  C   UNL     1      11.654 -58.153 -21.490  1.00  0.00     0.001 A 
ATOM     27  C   UNL     1       9.943 -59.482 -22.545  1.00  0.00     0.004 A 
ATOM     28  C   UNL     1      11.095 -59.394 -21.766  1.00  0.00     0.000 A 
ATOM     29  C   UNL     1       8.096 -58.499 -23.910  1.00  0.00     0.045 C 
ENDBRANCH  22  23
ENDBRANCH   4  22
TORSDOF 6
ENDMDL
MODEL 9
REMARK VINA RESULT:    -9.552      1.835      3.238
REMARK INTER + INTRA:         -13.611
REMARK INTER:                 -13.285
REMARK INTRA:                  -0.326
REMARK UNBOUND:                -0.709
REMARK SMILES COc1cc2c(cc1OC)C(=O)/C(=C/c1cc[n+](Cc3ccccc3C)cc1)C2
REMARK SMILES IDX 15 1 16 2 17 3 18 4 27 5 28 6 14 7 13 8 3 9 4 10 8 11 5 12
REMARK SMILES IDX 7 13 6 14 29 15 11 16 12 17 2 18 1 19 9 20 10 21 19 22 20 23
REMARK SMILES IDX 21 24 25 25 22 26 24 27 23 28 26 29
REMARK H PARENT
ROOT
ATOM      1  C   UNL     1      11.732 -55.616 -23.991  1.00  0.00    -0.013 A 
ATOM      2  C   UNL     1      10.963 -55.476 -22.838  1.00  0.00     0.079 A 
ATOM      3  C   UNL     1      10.619 -56.601 -22.098  1.00  0.00     0.309 A 
ATOM      4  N   UNL     1      11.015 -57.833 -22.491  1.00  0.00    -0.201 N 
ATOM      5  C   UNL     1      11.759 -57.990 -23.612  1.00  0.00     0.309 A 
ATOM      6  C   UNL     1      12.127 -56.893 -24.382  1.00  0.00     0.079 A 
ENDROOT
BRANCH   1   7
ATOM      7  C   UNL     1      12.039 -54.431 -24.791  1.00  0.00     0.016 C 
BRANCH   7   8
ATOM      8  C   UNL     1      12.166 -53.183 -24.319  1.00  0.00     0.005 C 
ATOM      9  C   UNL     1      12.378 -48.755 -22.694  1.00  0.00     0.161 A 
ATOM     10  C   UNL     1      11.749 -49.986 -22.442  1.00  0.00     0.055 A 
ATOM     11  C   UNL     1      13.324 -48.654 -23.748  1.00  0.00     0.161 A 
ATOM     12  C   UNL     1      12.046 -51.075 -23.252  1.00  0.00    -0.028 A 
ATOM     13  C   UNL     1      13.598 -49.750 -24.573  1.00  0.00     0.063 A 
ATOM     14  C   UNL     1      12.955 -50.938 -24.298  1.00  0.00     0.030 A 
ATOM     15  C   UNL     1      11.495 -52.468 -23.172  1.00  0.00     0.076 C 
ATOM     16  C   UNL     1      13.080 -52.215 -25.003  1.00  0.00     0.189 C 
ATOM     17  O   UNL     1      13.786 -52.447 -25.963  1.00  0.00    -0.289 OA
BRANCH   9  18
ATOM     18  O   UNL     1      12.119 -47.613 -21.982  1.00  0.00    -0.493 OA
ATOM     19  C   UNL     1      11.012 -46.814 -22.372  1.00  0.00     0.278 C 
ENDBRANCH   9  18
BRANCH  11  20
ATOM     20  O   UNL     1      13.993 -47.511 -24.113  1.00  0.00    -0.493 OA
ATOM     21  C   UNL     1      13.635 -46.975 -25.383  1.00  0.00     0.278 C 
ENDBRANCH  11  20
ENDBRANCH   7   8
ENDBRANCH   1   7
BRANCH   4  22
ATOM     22  C   UNL     1      10.638 -59.026 -21.686  1.00  0.00     0.393 C 
BRANCH  22  23
ATOM     23  C   UNL     1      10.167 -60.158 -22.568  1.00  0.00     0.020 A 
ATOM     24  C   UNL     1      11.009 -61.274 -22.748  1.00  0.00     0.010 A 
ATOM     25  C   UNL     1       8.917 -60.132 -23.227  1.00  0.00    -0.042 A 
ATOM     26  C   UNL     1      10.615 -62.350 -23.540  1.00  0.00     0.001 A 
ATOM     27  C   UNL     1       8.538 -61.228 -24.020  1.00  0.00     0.004 A 
ATOM     28  C   UNL     1       9.379 -62.328 -24.172  1.00  0.00     0.000 A 
ATOM     29  C   UNL     1       7.968 -58.967 -23.123  1.00  0.00     0.045 C 
ENDBRANCH  22  23
ENDBRANCH   4  22
TORSDOF 6
ENDMDL
