MODEL 1
REMARK VINA RESULT:   -11.320      0.000      0.000
REMARK INTER + INTRA:         -17.558
REMARK INTER:                 -16.945
REMARK INTRA:                  -0.613
REMARK UNBOUND:                -0.613
REMARK SMILES COc1cc2c(cc1OC)SC(=C(O)CCc1cc[n+](Cc3ccc(F)cc3)cc1)C2
REMARK SMILES IDX 15 1 13 2 14 3 12 5 31 6 11 7 5 8 6 9 4 10 7 11 3 12 8 13
REMARK SMILES IDX 2 14 1 15 9 16 10 17 16 18 17 19 18 20 30 21 19 22 29 23
REMARK SMILES IDX 20 24 21 25 22 26 23 27 28 28 24 29 27 30 25 31 26 32
REMARK H PARENT 14 4
ROOT
ATOM      1  C   UNL     1      10.776 -54.801 -22.765  1.00  0.00     0.080 C 
ENDROOT
BRANCH   1   2
ATOM      2  C   UNL     1      11.012 -53.408 -22.228  1.00  0.00     0.103 C 
BRANCH   2   3
ATOM      3  O   UNL     1      10.616 -53.190 -20.916  1.00  0.00    -0.511 OA
ATOM      4  H   UNL     1      10.690 -54.013 -20.404  1.00  0.00     0.293 HD
ENDBRANCH   2   3
BRANCH   2   5
ATOM      5  C   UNL     1      11.572 -52.392 -22.910  1.00  0.00     0.032 C 
ATOM      6  C   UNL     1      12.373 -52.588 -24.185  1.00  0.00     0.083 C 
ATOM      7  S   UNL     1      11.480 -50.709 -22.408  1.00  0.00    -0.090 SA
ATOM      8  C   UNL     1      12.855 -51.232 -24.620  1.00  0.00    -0.025 A 
ATOM      9  C   UNL     1      12.460 -50.181 -23.793  1.00  0.00     0.020 A 
ATOM     10  C   UNL     1      13.633 -50.988 -25.749  1.00  0.00     0.055 A 
ATOM     11  C   UNL     1      12.827 -48.872 -24.070  1.00  0.00     0.066 A 
ATOM     12  C   UNL     1      14.015 -49.673 -26.046  1.00  0.00     0.161 A 
ATOM     13  C   UNL     1      13.608 -48.610 -25.202  1.00  0.00     0.161 A 
BRANCH  12  14
ATOM     14  O   UNL     1      14.781 -49.317 -27.129  1.00  0.00    -0.493 OA
ATOM     15  C   UNL     1      16.178 -49.560 -27.062  1.00  0.00     0.278 C 
ENDBRANCH  12  14
BRANCH  13  16
ATOM     16  O   UNL     1      14.033 -47.357 -25.575  1.00  0.00    -0.493 OA
ATOM     17  C   UNL     1      13.246 -46.244 -25.177  1.00  0.00     0.278 C 
ENDBRANCH  13  16
ENDBRANCH   2   5
ENDBRANCH   1   2
BRANCH   1  18
ATOM     18  C   UNL     1      11.020 -55.863 -21.686  1.00  0.00     0.044 C 
BRANCH  18  19
ATOM     19  C   UNL     1      11.271 -57.229 -22.284  1.00  0.00    -0.036 A 
ATOM     20  C   UNL     1      11.690 -57.374 -23.605  1.00  0.00     0.074 A 
ATOM     21  C   UNL     1      11.069 -58.377 -21.519  1.00  0.00     0.074 A 
ATOM     22  C   UNL     1      11.908 -58.645 -24.123  1.00  0.00     0.308 A 
ATOM     23  C   UNL     1      11.299 -59.630 -22.077  1.00  0.00     0.308 A 
ATOM     24  N   UNL     1      11.717 -59.748 -23.358  1.00  0.00    -0.201 N 
BRANCH  24  25
ATOM     25  C   UNL     1      11.952 -61.093 -23.938  1.00  0.00     0.393 C 
BRANCH  25  26
ATOM     26  C   UNL     1      10.698 -61.930 -23.909  1.00  0.00     0.017 A 
ATOM     27  C   UNL     1       9.804 -61.904 -24.994  1.00  0.00     0.013 A 
ATOM     28  C   UNL     1      10.396 -62.738 -22.798  1.00  0.00     0.013 A 
ATOM     29  C   UNL     1       8.643 -62.680 -24.972  1.00  0.00     0.040 A 
ATOM     30  C   UNL     1       9.234 -63.512 -22.783  1.00  0.00     0.040 A 
ATOM     31  C   UNL     1       8.370 -63.478 -23.869  1.00  0.00     0.123 A 
ATOM     32  F   UNL     1       7.258 -64.222 -23.852  1.00  0.00    -0.207 F 
ENDBRANCH  25  26
ENDBRANCH  24  25
ENDBRANCH  18  19
ENDBRANCH   1  18
TORSDOF 9
ENDMDL
MODEL 2
REMARK VINA RESULT:   -11.016      1.686      2.361
REMARK INTER + INTRA:         -17.103
REMARK INTER:                 -16.400
REMARK INTRA:                  -0.703
REMARK UNBOUND:                -0.613
REMARK SMILES COc1cc2c(cc1OC)SC(=C(O)CCc1cc[n+](Cc3ccc(F)cc3)cc1)C2
REMARK SMILES IDX 15 1 13 2 14 3 12 5 31 6 11 7 5 8 6 9 4 10 7 11 3 12 8 13
REMARK SMILES IDX 2 14 1 15 9 16 10 17 16 18 17 19 18 20 30 21 19 22 29 23
REMARK SMILES IDX 20 24 21 25 22 26 23 27 28 28 24 29 27 30 25 31 26 32
REMARK H PARENT 14 4
ROOT
ATOM      1  C   UNL     1      10.385 -55.495 -22.973  1.00  0.00     0.080 C 
ENDROOT
BRANCH   1   2
ATOM      2  C   UNL     1      11.258 -54.609 -23.831  1.00  0.00     0.103 C 
BRANCH   2   3
ATOM      3  O   UNL     1      11.866 -55.226 -24.915  1.00  0.00    -0.511 OA
ATOM      4  H   UNL     1      11.492 -56.115 -25.047  1.00  0.00     0.293 HD
ENDBRANCH   2   3
BRANCH   2   5
ATOM      5  C   UNL     1      11.476 -53.297 -23.631  1.00  0.00     0.032 C 
ATOM      6  C   UNL     1      12.489 -52.491 -24.425  1.00  0.00     0.083 C 
ATOM      7  S   UNL     1      10.645 -52.343 -22.410  1.00  0.00    -0.090 SA
ATOM      8  C   UNL     1      12.460 -51.087 -23.888  1.00  0.00    -0.025 A 
ATOM      9  C   UNL     1      11.551 -50.880 -22.850  1.00  0.00     0.020 A 
ATOM     10  C   UNL     1      13.253 -50.040 -24.350  1.00  0.00     0.055 A 
ATOM     11  C   UNL     1      11.411 -49.633 -22.256  1.00  0.00     0.066 A 
ATOM     12  C   UNL     1      13.129 -48.774 -23.763  1.00  0.00     0.161 A 
ATOM     13  C   UNL     1      12.201 -48.570 -22.711  1.00  0.00     0.161 A 
BRANCH  12  14
ATOM     14  O   UNL     1      13.859 -47.673 -24.138  1.00  0.00    -0.493 OA
ATOM     15  C   UNL     1      15.261 -47.700 -23.915  1.00  0.00     0.278 C 
ENDBRANCH  12  14
BRANCH  13  16
ATOM     16  O   UNL     1      12.152 -47.296 -22.199  1.00  0.00    -0.493 OA
ATOM     17  C   UNL     1      10.914 -46.602 -22.266  1.00  0.00     0.278 C 
ENDBRANCH  13  16
ENDBRANCH   2   5
ENDBRANCH   1   2
BRANCH   1  18
ATOM     18  C   UNL     1      11.225 -56.332 -22.000  1.00  0.00     0.044 C 
BRANCH  18  19
ATOM     19  C   UNL     1      11.250 -57.793 -22.389  1.00  0.00    -0.036 A 
ATOM     20  C   UNL     1      10.811 -58.782 -21.510  1.00  0.00     0.074 A 
ATOM     21  C   UNL     1      11.731 -58.178 -23.640  1.00  0.00     0.074 A 
ATOM     22  C   UNL     1      10.851 -60.116 -21.900  1.00  0.00     0.308 A 
ATOM     23  C   UNL     1      11.753 -59.524 -23.989  1.00  0.00     0.308 A 
ATOM     24  N   UNL     1      11.312 -60.467 -23.125  1.00  0.00    -0.201 N 
BRANCH  24  25
ATOM     25  C   UNL     1      11.348 -61.899 -23.512  1.00  0.00     0.393 C 
BRANCH  25  26
ATOM     26  C   UNL     1       9.997 -62.373 -23.987  1.00  0.00     0.017 A 
ATOM     27  C   UNL     1       9.200 -63.183 -23.159  1.00  0.00     0.013 A 
ATOM     28  C   UNL     1       9.520 -62.028 -25.264  1.00  0.00     0.013 A 
ATOM     29  C   UNL     1       7.947 -63.621 -23.594  1.00  0.00     0.040 A 
ATOM     30  C   UNL     1       8.266 -62.469 -25.693  1.00  0.00     0.040 A 
ATOM     31  C   UNL     1       7.491 -63.259 -24.854  1.00  0.00     0.123 A 
ATOM     32  F   UNL     1       6.290 -63.679 -25.267  1.00  0.00    -0.207 F 
ENDBRANCH  25  26
ENDBRANCH  24  25
ENDBRANCH  18  19
ENDBRANCH   1  18
TORSDOF 9
ENDMDL
MODEL 3
REMARK VINA RESULT:   -10.962      0.859      2.170
REMARK INTER + INTRA:         -17.023
REMARK INTER:                 -16.281
REMARK INTRA:                  -0.742
REMARK UNBOUND:                -0.613
REMARK SMILES COc1cc2c(cc1OC)SC(=C(O)CCc1cc[n+](Cc3ccc(F)cc3)cc1)C2
REMARK SMILES IDX 15 1 13 2 14 3 12 5 31 6 11 7 5 8 6 9 4 10 7 11 3 12 8 13
REMARK SMILES IDX 2 14 1 15 9 16 10 17 16 18 17 19 18 20 30 21 19 22 29 23
REMARK SMILES IDX 20 24 21 25 22 26 23 27 28 28 24 29 27 30 25 31 26 32
REMARK H PARENT 14 4
ROOT
ATOM      1  C   UNL     1      10.874 -54.696 -23.135  1.00  0.00     0.080 C 
ENDROOT
BRANCH   1   2
ATOM      2  C   UNL     1      11.296 -53.301 -22.737  1.00  0.00     0.103 C 
BRANCH   2   3
ATOM      3  O   UNL     1      10.969 -52.914 -21.446  1.00  0.00    -0.511 OA
ATOM      4  H   UNL     1      10.518 -53.642 -20.983  1.00  0.00     0.293 HD
ENDBRANCH   2   3
BRANCH   2   5
ATOM      5  C   UNL     1      11.959 -52.431 -23.522  1.00  0.00     0.032 C 
ATOM      6  C   UNL     1      12.015 -50.939 -23.248  1.00  0.00     0.083 C 
ATOM      7  S   UNL     1      12.822 -52.894 -24.983  1.00  0.00    -0.090 SA
ATOM      8  C   UNL     1      12.813 -50.312 -24.358  1.00  0.00    -0.025 A 
ATOM      9  C   UNL     1      13.287 -51.212 -25.312  1.00  0.00     0.020 A 
ATOM     10  C   UNL     1      13.087 -48.952 -24.472  1.00  0.00     0.055 A 
ATOM     11  C   UNL     1      14.042 -50.780 -26.393  1.00  0.00     0.066 A 
ATOM     12  C   UNL     1      13.846 -48.495 -25.557  1.00  0.00     0.161 A 
ATOM     13  C   UNL     1      14.328 -49.415 -26.522  1.00  0.00     0.161 A 
BRANCH  12  14
ATOM     14  O   UNL     1      14.176 -47.179 -25.770  1.00  0.00    -0.493 OA
ATOM     15  C   UNL     1      15.002 -46.538 -24.809  1.00  0.00     0.278 C 
ENDBRANCH  12  14
BRANCH  13  16
ATOM     16  O   UNL     1      15.062 -48.872 -27.549  1.00  0.00    -0.493 OA
ATOM     17  C   UNL     1      16.417 -49.276 -27.681  1.00  0.00     0.278 C 
ENDBRANCH  13  16
ENDBRANCH   2   5
ENDBRANCH   1   2
BRANCH   1  18
ATOM     18  C   UNL     1      11.019 -55.677 -21.965  1.00  0.00     0.044 C 
BRANCH  18  19
ATOM     19  C   UNL     1      11.278 -57.089 -22.439  1.00  0.00    -0.036 A 
ATOM     20  C   UNL     1      11.197 -58.172 -21.566  1.00  0.00     0.074 A 
ATOM     21  C   UNL     1      11.620 -57.330 -23.770  1.00  0.00     0.074 A 
ATOM     22  C   UNL     1      11.443 -59.456 -22.037  1.00  0.00     0.308 A 
ATOM     23  C   UNL     1      11.858 -58.631 -24.199  1.00  0.00     0.308 A 
ATOM     24  N   UNL     1      11.763 -59.669 -23.337  1.00  0.00    -0.201 N 
BRANCH  24  25
ATOM     25  C   UNL     1      12.027 -61.050 -23.810  1.00  0.00     0.393 C 
BRANCH  25  26
ATOM     26  C   UNL     1      10.763 -61.873 -23.833  1.00  0.00     0.017 A 
ATOM     27  C   UNL     1      10.459 -62.734 -22.765  1.00  0.00     0.013 A 
ATOM     28  C   UNL     1       9.877 -61.804 -24.924  1.00  0.00     0.013 A 
ATOM     29  C   UNL     1       9.288 -63.496 -22.781  1.00  0.00     0.040 A 
ATOM     30  C   UNL     1       8.707 -62.567 -24.934  1.00  0.00     0.040 A 
ATOM     31  C   UNL     1       8.422 -63.404 -23.863  1.00  0.00     0.123 A 
ATOM     32  F   UNL     1       7.301 -64.133 -23.874  1.00  0.00    -0.207 F 
ENDBRANCH  25  26
ENDBRANCH  24  25
ENDBRANCH  18  19
ENDBRANCH   1  18
TORSDOF 9
ENDMDL
MODEL 4
REMARK VINA RESULT:   -10.907      0.971      1.940
REMARK INTER + INTRA:         -16.941
REMARK INTER:                 -16.237
REMARK INTRA:                  -0.703
REMARK UNBOUND:                -0.613
REMARK SMILES COc1cc2c(cc1OC)SC(=C(O)CCc1cc[n+](Cc3ccc(F)cc3)cc1)C2
REMARK SMILES IDX 15 1 13 2 14 3 12 5 31 6 11 7 5 8 6 9 4 10 7 11 3 12 8 13
REMARK SMILES IDX 2 14 1 15 9 16 10 17 16 18 17 19 18 20 30 21 19 22 29 23
REMARK SMILES IDX 20 24 21 25 22 26 23 27 28 28 24 29 27 30 25 31 26 32
REMARK H PARENT 14 4
ROOT
ATOM      1  C   UNL     1      10.937 -55.328 -23.060  1.00  0.00     0.080 C 
ENDROOT
BRANCH   1   2
ATOM      2  C   UNL     1      11.084 -53.887 -22.630  1.00  0.00     0.103 C 
BRANCH   2   3
ATOM      3  O   UNL     1      10.518 -53.560 -21.406  1.00  0.00    -0.511 OA
ATOM      4  H   UNL     1      10.403 -54.361 -20.866  1.00  0.00     0.293 HD
ENDBRANCH   2   3
BRANCH   2   5
ATOM      5  C   UNL     1      11.715 -52.924 -23.326  1.00  0.00     0.032 C 
ATOM      6  C   UNL     1      11.728 -51.465 -22.905  1.00  0.00     0.083 C 
ATOM      7  S   UNL     1      12.584 -53.213 -24.828  1.00  0.00    -0.090 SA
ATOM      8  C   UNL     1      12.501 -50.708 -23.948  1.00  0.00    -0.025 A 
ATOM      9  C   UNL     1      12.997 -51.493 -24.989  1.00  0.00     0.020 A 
ATOM     10  C   UNL     1      12.735 -49.335 -23.927  1.00  0.00     0.055 A 
ATOM     11  C   UNL     1      13.733 -50.933 -26.024  1.00  0.00     0.066 A 
ATOM     12  C   UNL     1      13.474 -48.749 -24.963  1.00  0.00     0.161 A 
ATOM     13  C   UNL     1      13.976 -49.553 -26.016  1.00  0.00     0.161 A 
BRANCH  12  14
ATOM     14  O   UNL     1      13.762 -47.410 -25.044  1.00  0.00    -0.493 OA
ATOM     15  C   UNL     1      12.723 -46.488 -24.749  1.00  0.00     0.278 C 
ENDBRANCH  12  14
BRANCH  13  16
ATOM     16  O   UNL     1      14.688 -48.889 -26.985  1.00  0.00    -0.493 OA
ATOM     17  C   UNL     1      16.091 -49.105 -27.044  1.00  0.00     0.278 C 
ENDBRANCH  13  16
ENDBRANCH   2   5
ENDBRANCH   1   2
BRANCH   1  18
ATOM     18  C   UNL     1      11.030 -56.280 -21.861  1.00  0.00     0.044 C 
BRANCH  18  19
ATOM     19  C   UNL     1      11.123 -57.726 -22.293  1.00  0.00    -0.036 A 
ATOM     20  C   UNL     1      11.528 -58.071 -23.581  1.00  0.00     0.074 A 
ATOM     21  C   UNL     1      10.789 -58.747 -21.403  1.00  0.00     0.074 A 
ATOM     22  C   UNL     1      11.601 -59.411 -23.945  1.00  0.00     0.308 A 
ATOM     23  C   UNL     1      10.876 -60.074 -21.809  1.00  0.00     0.308 A 
ATOM     24  N   UNL     1      11.282 -60.387 -23.061  1.00  0.00    -0.201 N 
BRANCH  24  25
ATOM     25  C   UNL     1      11.363 -61.809 -23.478  1.00  0.00     0.393 C 
BRANCH  25  26
ATOM     26  C   UNL     1      10.024 -62.320 -23.949  1.00  0.00     0.017 A 
ATOM     27  C   UNL     1       9.551 -61.989 -25.230  1.00  0.00     0.013 A 
ATOM     28  C   UNL     1       9.225 -63.122 -23.115  1.00  0.00     0.013 A 
ATOM     29  C   UNL     1       8.313 -62.463 -25.671  1.00  0.00     0.040 A 
ATOM     30  C   UNL     1       7.988 -63.594 -23.562  1.00  0.00     0.040 A 
ATOM     31  C   UNL     1       7.545 -63.262 -24.835  1.00  0.00     0.123 A 
ATOM     32  F   UNL     1       6.361 -63.716 -25.261  1.00  0.00    -0.207 F 
ENDBRANCH  25  26
ENDBRANCH  24  25
ENDBRANCH  18  19
ENDBRANCH   1  18
TORSDOF 9
ENDMDL
MODEL 5
REMARK VINA RESULT:   -10.384      1.616      2.084
REMARK INTER + INTRA:         -16.157
REMARK INTER:                 -15.612
REMARK INTRA:                  -0.545
REMARK UNBOUND:                -0.613
REMARK SMILES COc1cc2c(cc1OC)SC(=C(O)CCc1cc[n+](Cc3ccc(F)cc3)cc1)C2
REMARK SMILES IDX 15 1 13 2 14 3 12 5 31 6 11 7 5 8 6 9 4 10 7 11 3 12 8 13
REMARK SMILES IDX 2 14 1 15 9 16 10 17 16 18 17 19 18 20 30 21 19 22 29 23
REMARK SMILES IDX 20 24 21 25 22 26 23 27 28 28 24 29 27 30 25 31 26 32
REMARK H PARENT 14 4
ROOT
ATOM      1  C   UNL     1      10.630 -55.211 -22.886  1.00  0.00     0.080 C 
ENDROOT
BRANCH   1   2
ATOM      2  C   UNL     1      10.743 -53.911 -22.123  1.00  0.00     0.103 C 
BRANCH   2   3
ATOM      3  O   UNL     1      10.302 -53.942 -20.808  1.00  0.00    -0.511 OA
ATOM      4  H   UNL     1       9.332 -53.869 -20.778  1.00  0.00     0.293 HD
ENDBRANCH   2   3
BRANCH   2   5
ATOM      5  C   UNL     1      11.236 -52.758 -22.611  1.00  0.00     0.032 C 
ATOM      6  C   UNL     1      12.110 -52.687 -23.851  1.00  0.00     0.083 C 
ATOM      7  S   UNL     1      10.963 -51.187 -21.871  1.00  0.00    -0.090 SA
ATOM      8  C   UNL     1      12.482 -51.244 -24.050  1.00  0.00    -0.025 A 
ATOM      9  C   UNL     1      11.952 -50.370 -23.100  1.00  0.00     0.020 A 
ATOM     10  C   UNL     1      13.285 -50.763 -25.081  1.00  0.00     0.055 A 
ATOM     11  C   UNL     1      12.207 -49.007 -23.157  1.00  0.00     0.066 A 
ATOM     12  C   UNL     1      13.555 -49.390 -25.156  1.00  0.00     0.161 A 
ATOM     13  C   UNL     1      13.012 -48.508 -24.189  1.00  0.00     0.161 A 
BRANCH  12  14
ATOM     14  O   UNL     1      14.333 -48.808 -26.126  1.00  0.00    -0.493 OA
ATOM     15  C   UNL     1      14.787 -49.627 -27.193  1.00  0.00     0.278 C 
ENDBRANCH  12  14
BRANCH  13  16
ATOM     16  O   UNL     1      13.334 -47.181 -24.345  1.00  0.00    -0.493 OA
ATOM     17  C   UNL     1      12.306 -46.294 -24.762  1.00  0.00     0.278 C 
ENDBRANCH  13  16
ENDBRANCH   2   5
ENDBRANCH   1   2
BRANCH   1  18
ATOM     18  C   UNL     1      11.334 -56.355 -22.147  1.00  0.00     0.044 C 
BRANCH  18  19
ATOM     19  C   UNL     1      10.697 -57.694 -22.440  1.00  0.00    -0.036 A 
ATOM     20  C   UNL     1       9.447 -57.782 -23.051  1.00  0.00     0.074 A 
ATOM     21  C   UNL     1      11.351 -58.874 -22.088  1.00  0.00     0.074 A 
ATOM     22  C   UNL     1       8.890 -59.030 -23.303  1.00  0.00     0.308 A 
ATOM     23  C   UNL     1      10.758 -60.102 -22.359  1.00  0.00     0.308 A 
ATOM     24  N   UNL     1       9.549 -60.165 -22.963  1.00  0.00    -0.201 N 
BRANCH  24  25
ATOM     25  C   UNL     1       8.928 -61.484 -23.240  1.00  0.00     0.393 C 
BRANCH  25  26
ATOM     26  C   UNL     1       8.928 -61.792 -24.716  1.00  0.00     0.017 A 
ATOM     27  C   UNL     1       8.049 -62.756 -25.239  1.00  0.00     0.013 A 
ATOM     28  C   UNL     1       9.811 -61.132 -25.590  1.00  0.00     0.013 A 
ATOM     29  C   UNL     1       8.043 -63.042 -26.606  1.00  0.00     0.040 A 
ATOM     30  C   UNL     1       9.800 -61.421 -26.957  1.00  0.00     0.040 A 
ATOM     31  C   UNL     1       8.916 -62.370 -27.452  1.00  0.00     0.123 A 
ATOM     32  F   UNL     1       8.907 -62.644 -28.762  1.00  0.00    -0.207 F 
ENDBRANCH  25  26
ENDBRANCH  24  25
ENDBRANCH  18  19
ENDBRANCH   1  18
TORSDOF 9
ENDMDL
MODEL 6
REMARK VINA RESULT:   -10.016      2.214      3.297
REMARK INTER + INTRA:         -15.607
REMARK INTER:                 -15.288
REMARK INTRA:                  -0.319
REMARK UNBOUND:                -0.613
REMARK SMILES COc1cc2c(cc1OC)SC(=C(O)CCc1cc[n+](Cc3ccc(F)cc3)cc1)C2
REMARK SMILES IDX 15 1 13 2 14 3 12 5 31 6 11 7 5 8 6 9 4 10 7 11 3 12 8 13
REMARK SMILES IDX 2 14 1 15 9 16 10 17 16 18 17 19 18 20 30 21 19 22 29 23
REMARK SMILES IDX 20 24 21 25 22 26 23 27 28 28 24 29 27 30 25 31 26 32
REMARK H PARENT 14 4
ROOT
ATOM      1  C   UNL     1      10.534 -55.974 -22.446  1.00  0.00     0.080 C 
ENDROOT
BRANCH   1   2
ATOM      2  C   UNL     1      11.367 -55.344 -23.538  1.00  0.00     0.103 C 
BRANCH   2   3
ATOM      3  O   UNL     1      11.833 -56.208 -24.518  1.00  0.00    -0.511 OA
ATOM      4  H   UNL     1      11.189 -56.266 -25.245  1.00  0.00     0.293 HD
ENDBRANCH   2   3
BRANCH   2   5
ATOM      5  C   UNL     1      11.675 -54.037 -23.630  1.00  0.00     0.032 C 
ATOM      6  C   UNL     1      11.164 -52.991 -22.655  1.00  0.00     0.083 C 
ATOM      7  S   UNL     1      12.680 -53.357 -24.902  1.00  0.00    -0.090 SA
ATOM      8  C   UNL     1      11.695 -51.661 -23.111  1.00  0.00    -0.025 A 
ATOM      9  C   UNL     1      12.492 -51.714 -24.254  1.00  0.00     0.020 A 
ATOM     10  C   UNL     1      11.445 -50.444 -22.480  1.00  0.00     0.055 A 
ATOM     11  C   UNL     1      13.055 -50.564 -24.791  1.00  0.00     0.066 A 
ATOM     12  C   UNL     1      12.002 -49.272 -23.007  1.00  0.00     0.161 A 
ATOM     13  C   UNL     1      12.813 -49.333 -24.168  1.00  0.00     0.161 A 
BRANCH  12  14
ATOM     14  O   UNL     1      11.822 -48.022 -22.470  1.00  0.00    -0.493 OA
ATOM     15  C   UNL     1      10.864 -47.170 -23.081  1.00  0.00     0.278 C 
ENDBRANCH  12  14
BRANCH  13  16
ATOM     16  O   UNL     1      13.314 -48.132 -24.609  1.00  0.00    -0.493 OA
ATOM     17  C   UNL     1      14.670 -48.093 -25.031  1.00  0.00     0.278 C 
ENDBRANCH  13  16
ENDBRANCH   2   5
ENDBRANCH   1   2
BRANCH   1  18
ATOM     18  C   UNL     1      11.202 -57.240 -21.895  1.00  0.00     0.044 C 
BRANCH  18  19
ATOM     19  C   UNL     1      10.438 -58.490 -22.268  1.00  0.00    -0.036 A 
ATOM     20  C   UNL     1      10.947 -59.758 -21.992  1.00  0.00     0.074 A 
ATOM     21  C   UNL     1       9.206 -58.392 -22.915  1.00  0.00     0.074 A 
ATOM     22  C   UNL     1      10.218 -60.886 -22.351  1.00  0.00     0.308 A 
ATOM     23  C   UNL     1       8.510 -59.546 -23.257  1.00  0.00     0.308 A 
ATOM     24  N   UNL     1       9.017 -60.767 -22.969  1.00  0.00    -0.201 N 
BRANCH  24  25
ATOM     25  C   UNL     1       8.263 -61.989 -23.346  1.00  0.00     0.393 C 
BRANCH  25  26
ATOM     26  C   UNL     1       8.380 -62.272 -24.823  1.00  0.00     0.017 A 
ATOM     27  C   UNL     1       7.536 -63.217 -25.432  1.00  0.00     0.013 A 
ATOM     28  C   UNL     1       9.339 -61.609 -25.610  1.00  0.00     0.013 A 
ATOM     29  C   UNL     1       7.639 -63.480 -26.799  1.00  0.00     0.040 A 
ATOM     30  C   UNL     1       9.437 -61.876 -26.978  1.00  0.00     0.040 A 
ATOM     31  C   UNL     1       8.586 -62.806 -27.560  1.00  0.00     0.123 A 
ATOM     32  F   UNL     1       8.681 -63.058 -28.870  1.00  0.00    -0.207 F 
ENDBRANCH  25  26
ENDBRANCH  24  25
ENDBRANCH  18  19
ENDBRANCH   1  18
TORSDOF 9
ENDMDL
MODEL 7
REMARK VINA RESULT:    -9.629      1.987      3.149
REMARK INTER + INTRA:         -15.027
REMARK INTER:                 -14.304
REMARK INTRA:                  -0.723
REMARK UNBOUND:                -0.613
REMARK SMILES COc1cc2c(cc1OC)SC(=C(O)CCc1cc[n+](Cc3ccc(F)cc3)cc1)C2
REMARK SMILES IDX 15 1 13 2 14 3 12 5 31 6 11 7 5 8 6 9 4 10 7 11 3 12 8 13
REMARK SMILES IDX 2 14 1 15 9 16 10 17 16 18 17 19 18 20 30 21 19 22 29 23
REMARK SMILES IDX 20 24 21 25 22 26 23 27 28 28 24 29 27 30 25 31 26 32
REMARK H PARENT 14 4
ROOT
ATOM      1  C   UNL     1      10.853 -53.157 -22.098  1.00  0.00     0.080 C 
ENDROOT
BRANCH   1   2
ATOM      2  C   UNL     1      10.165 -51.818 -22.230  1.00  0.00     0.103 C 
BRANCH   2   3
ATOM      3  O   UNL     1       8.799 -51.814 -21.990  1.00  0.00    -0.511 OA
ATOM      4  H   UNL     1       8.581 -52.448 -21.286  1.00  0.00     0.293 HD
ENDBRANCH   2   3
BRANCH   2   5
ATOM      5  C   UNL     1      10.768 -50.658 -22.547  1.00  0.00     0.032 C 
ATOM      6  C   UNL     1      10.097 -49.304 -22.397  1.00  0.00     0.083 C 
ATOM      7  S   UNL     1      12.397 -50.549 -23.201  1.00  0.00    -0.090 SA
ATOM      8  C   UNL     1      11.073 -48.268 -22.881  1.00  0.00    -0.025 A 
ATOM      9  C   UNL     1      12.295 -48.779 -23.319  1.00  0.00     0.020 A 
ATOM     10  C   UNL     1      10.831 -46.897 -22.912  1.00  0.00     0.055 A 
ATOM     11  C   UNL     1      13.296 -47.942 -23.791  1.00  0.00     0.066 A 
ATOM     12  C   UNL     1      11.828 -46.035 -23.386  1.00  0.00     0.161 A 
ATOM     13  C   UNL     1      13.068 -46.561 -23.827  1.00  0.00     0.161 A 
BRANCH  12  14
ATOM     14  O   UNL     1      11.697 -44.670 -23.462  1.00  0.00    -0.493 OA
ATOM     15  C   UNL     1      10.406 -44.115 -23.260  1.00  0.00     0.278 C 
ENDBRANCH  12  14
BRANCH  13  16
ATOM     16  O   UNL     1      13.981 -45.638 -24.275  1.00  0.00    -0.493 OA
ATOM     17  C   UNL     1      15.242 -45.581 -23.623  1.00  0.00     0.278 C 
ENDBRANCH  13  16
ENDBRANCH   2   5
ENDBRANCH   1   2
BRANCH   1  18
ATOM     18  C   UNL     1      10.585 -54.044 -23.320  1.00  0.00     0.044 C 
BRANCH  18  19
ATOM     19  C   UNL     1      11.010 -55.476 -23.083  1.00  0.00    -0.036 A 
ATOM     20  C   UNL     1      11.499 -56.266 -24.122  1.00  0.00     0.074 A 
ATOM     21  C   UNL     1      10.904 -56.038 -21.811  1.00  0.00     0.074 A 
ATOM     22  C   UNL     1      11.878 -57.580 -23.868  1.00  0.00     0.308 A 
ATOM     23  C   UNL     1      11.294 -57.356 -21.601  1.00  0.00     0.308 A 
ATOM     24  N   UNL     1      11.777 -58.102 -22.621  1.00  0.00    -0.201 N 
BRANCH  24  25
ATOM     25  C   UNL     1      12.183 -59.509 -22.380  1.00  0.00     0.393 C 
BRANCH  25  26
ATOM     26  C   UNL     1      11.143 -60.475 -22.887  1.00  0.00     0.017 A 
ATOM     27  C   UNL     1      11.237 -60.999 -24.189  1.00  0.00     0.013 A 
ATOM     28  C   UNL     1      10.058 -60.858 -22.078  1.00  0.00     0.013 A 
ATOM     29  C   UNL     1      10.278 -61.897 -24.661  1.00  0.00     0.040 A 
ATOM     30  C   UNL     1       9.102 -61.757 -22.556  1.00  0.00     0.040 A 
ATOM     31  C   UNL     1       9.221 -62.269 -23.841  1.00  0.00     0.123 A 
ATOM     32  F   UNL     1       8.304 -63.131 -24.295  1.00  0.00    -0.207 F 
ENDBRANCH  25  26
ENDBRANCH  24  25
ENDBRANCH  18  19
ENDBRANCH   1  18
TORSDOF 9
ENDMDL
MODEL 8
REMARK VINA RESULT:    -9.618      2.310      3.385
REMARK INTER + INTRA:         -15.010
REMARK INTER:                 -14.644
REMARK INTRA:                  -0.366
REMARK UNBOUND:                -0.613
REMARK SMILES COc1cc2c(cc1OC)SC(=C(O)CCc1cc[n+](Cc3ccc(F)cc3)cc1)C2
REMARK SMILES IDX 15 1 13 2 14 3 12 5 31 6 11 7 5 8 6 9 4 10 7 11 3 12 8 13
REMARK SMILES IDX 2 14 1 15 9 16 10 17 16 18 17 19 18 20 30 21 19 22 29 23
REMARK SMILES IDX 20 24 21 25 22 26 23 27 28 28 24 29 27 30 25 31 26 32
REMARK H PARENT 14 4
ROOT
ATOM      1  C   UNL     1      10.777 -57.159 -21.773  1.00  0.00     0.080 C 
ENDROOT
BRANCH   1   2
ATOM      2  C   UNL     1      11.226 -56.402 -23.001  1.00  0.00     0.103 C 
BRANCH   2   3
ATOM      3  O   UNL     1      11.479 -57.171 -24.127  1.00  0.00    -0.511 OA
ATOM      4  H   UNL     1      12.019 -57.944 -23.890  1.00  0.00     0.293 HD
ENDBRANCH   2   3
BRANCH   2   5
ATOM      5  C   UNL     1      11.386 -55.068 -23.081  1.00  0.00     0.032 C 
ATOM      6  C   UNL     1      12.152 -54.388 -24.203  1.00  0.00     0.083 C 
ATOM      7  S   UNL     1      10.761 -53.935 -21.891  1.00  0.00    -0.090 SA
ATOM      8  C   UNL     1      12.135 -52.912 -23.921  1.00  0.00    -0.025 A 
ATOM      9  C   UNL     1      11.448 -52.549 -22.762  1.00  0.00     0.020 A 
ATOM     10  C   UNL     1      12.737 -51.941 -24.718  1.00  0.00     0.055 A 
ATOM     11  C   UNL     1      11.346 -51.220 -22.375  1.00  0.00     0.066 A 
ATOM     12  C   UNL     1      12.647 -50.595 -24.344  1.00  0.00     0.161 A 
ATOM     13  C   UNL     1      11.946 -50.232 -23.167  1.00  0.00     0.161 A 
BRANCH  12  14
ATOM     14  O   UNL     1      13.202 -49.557 -25.052  1.00  0.00    -0.493 OA
ATOM     15  C   UNL     1      14.029 -49.879 -26.161  1.00  0.00     0.278 C 
ENDBRANCH  12  14
BRANCH  13  16
ATOM     16  O   UNL     1      11.912 -48.888 -22.883  1.00  0.00    -0.493 OA
ATOM     17  C   UNL     1      10.641 -48.265 -22.770  1.00  0.00     0.278 C 
ENDBRANCH  13  16
ENDBRANCH   2   5
ENDBRANCH   1   2
BRANCH   1  18
ATOM     18  C   UNL     1      11.366 -58.575 -21.744  1.00  0.00     0.044 C 
BRANCH  18  19
ATOM     19  C   UNL     1      10.378 -59.608 -22.236  1.00  0.00    -0.036 A 
ATOM     20  C   UNL     1      10.698 -60.964 -22.254  1.00  0.00     0.074 A 
ATOM     21  C   UNL     1       9.121 -59.214 -22.697  1.00  0.00     0.074 A 
ATOM     22  C   UNL     1       9.766 -61.887 -22.715  1.00  0.00     0.308 A 
ATOM     23  C   UNL     1       8.219 -60.170 -23.149  1.00  0.00     0.308 A 
ATOM     24  N   UNL     1       8.547 -61.483 -23.148  1.00  0.00    -0.201 N 
BRANCH  24  25
ATOM     25  C   UNL     1       7.573 -62.489 -23.639  1.00  0.00     0.393 C 
BRANCH  25  26
ATOM     26  C   UNL     1       7.783 -62.788 -25.102  1.00  0.00     0.017 A 
ATOM     27  C   UNL     1       7.058 -63.817 -25.727  1.00  0.00     0.013 A 
ATOM     28  C   UNL     1       8.714 -62.055 -25.861  1.00  0.00     0.013 A 
ATOM     29  C   UNL     1       7.248 -64.095 -27.082  1.00  0.00     0.040 A 
ATOM     30  C   UNL     1       8.899 -62.336 -27.217  1.00  0.00     0.040 A 
ATOM     31  C   UNL     1       8.164 -63.351 -27.815  1.00  0.00     0.123 A 
ATOM     32  F   UNL     1       8.342 -63.618 -29.114  1.00  0.00    -0.207 F 
ENDBRANCH  25  26
ENDBRANCH  24  25
ENDBRANCH  18  19
ENDBRANCH   1  18
TORSDOF 9
ENDMDL
MODEL 9
REMARK VINA RESULT:    -9.603      1.525      1.930
REMARK INTER + INTRA:         -14.987
REMARK INTER:                 -14.243
REMARK INTRA:                  -0.744
REMARK UNBOUND:                -0.613
REMARK SMILES COc1cc2c(cc1OC)SC(=C(O)CCc1cc[n+](Cc3ccc(F)cc3)cc1)C2
REMARK SMILES IDX 15 1 13 2 14 3 12 5 31 6 11 7 5 8 6 9 4 10 7 11 3 12 8 13
REMARK SMILES IDX 2 14 1 15 9 16 10 17 16 18 17 19 18 20 30 21 19 22 29 23
REMARK SMILES IDX 20 24 21 25 22 26 23 27 28 28 24 29 27 30 25 31 26 32
REMARK H PARENT 14 4
ROOT
ATOM      1  C   UNL     1      10.526 -53.951 -22.135  1.00  0.00     0.080 C 
ENDROOT
BRANCH   1   2
ATOM      2  C   UNL     1      10.090 -52.516 -22.325  1.00  0.00     0.103 C 
BRANCH   2   3
ATOM      3  O   UNL     1       8.755 -52.250 -22.063  1.00  0.00    -0.511 OA
ATOM      4  H   UNL     1       8.191 -52.922 -22.482  1.00  0.00     0.293 HD
ENDBRANCH   2   3
BRANCH   2   5
ATOM      5  C   UNL     1      10.887 -51.503 -22.711  1.00  0.00     0.032 C 
ATOM      6  C   UNL     1      12.206 -51.711 -23.435  1.00  0.00     0.083 C 
ATOM      7  S   UNL     1      10.530 -49.808 -22.407  1.00  0.00    -0.090 SA
ATOM      8  C   UNL     1      12.808 -50.352 -23.661  1.00  0.00    -0.025 A 
ATOM      9  C   UNL     1      12.042 -49.290 -23.181  1.00  0.00     0.020 A 
ATOM     10  C   UNL     1      14.027 -50.115 -24.292  1.00  0.00     0.055 A 
ATOM     11  C   UNL     1      12.469 -47.976 -23.321  1.00  0.00     0.066 A 
ATOM     12  C   UNL     1      14.476 -48.797 -24.442  1.00  0.00     0.161 A 
ATOM     13  C   UNL     1      13.692 -47.722 -23.954  1.00  0.00     0.161 A 
BRANCH  12  14
ATOM     14  O   UNL     1      15.659 -48.448 -25.045  1.00  0.00    -0.493 OA
ATOM     15  C   UNL     1      16.849 -49.073 -24.584  1.00  0.00     0.278 C 
ENDBRANCH  12  14
BRANCH  13  16
ATOM     16  O   UNL     1      14.216 -46.467 -24.147  1.00  0.00    -0.493 OA
ATOM     17  C   UNL     1      13.310 -45.376 -24.241  1.00  0.00     0.278 C 
ENDBRANCH  13  16
ENDBRANCH   2   5
ENDBRANCH   1   2
BRANCH   1  18
ATOM     18  C   UNL     1      10.193 -54.802 -23.367  1.00  0.00     0.044 C 
BRANCH  18  19
ATOM     19  C   UNL     1      10.224 -56.281 -23.058  1.00  0.00    -0.036 A 
ATOM     20  C   UNL     1      11.391 -56.904 -22.619  1.00  0.00     0.074 A 
ATOM     21  C   UNL     1       9.077 -57.057 -23.223  1.00  0.00     0.074 A 
ATOM     22  C   UNL     1      11.384 -58.267 -22.346  1.00  0.00     0.308 A 
ATOM     23  C   UNL     1       9.114 -58.417 -22.938  1.00  0.00     0.308 A 
ATOM     24  N   UNL     1      10.255 -58.999 -22.502  1.00  0.00    -0.201 N 
BRANCH  24  25
ATOM     25  C   UNL     1      10.277 -60.454 -22.208  1.00  0.00     0.393 C 
BRANCH  25  26
ATOM     26  C   UNL     1       9.628 -61.247 -23.314  1.00  0.00     0.017 A 
ATOM     27  C   UNL     1       8.450 -61.974 -23.068  1.00  0.00     0.013 A 
ATOM     28  C   UNL     1      10.194 -61.286 -24.602  1.00  0.00     0.013 A 
ATOM     29  C   UNL     1       7.844 -62.707 -24.090  1.00  0.00     0.040 A 
ATOM     30  C   UNL     1       9.583 -62.021 -25.620  1.00  0.00     0.040 A 
ATOM     31  C   UNL     1       8.414 -62.722 -25.356  1.00  0.00     0.123 A 
ATOM     32  F   UNL     1       7.830 -63.424 -26.334  1.00  0.00    -0.207 F 
ENDBRANCH  25  26
ENDBRANCH  24  25
ENDBRANCH  18  19
ENDBRANCH   1  18
TORSDOF 9
ENDMDL
