MODEL 1
REMARK VINA RESULT:   -10.859      0.000      0.000
REMARK INTER + INTRA:         -14.983
REMARK INTER:                 -14.350
REMARK INTRA:                  -0.633
REMARK UNBOUND:                -0.633
REMARK SMILES COc1cc2c(cc1OC)C(O)=C(CC1CCN(c3ccccc3)CC1)C2
REMARK SMILES IDX 11 1 13 2 27 3 5 4 4 5 3 6 8 7 7 8 6 9 12 10 14 12 15 13
REMARK SMILES IDX 16 14 26 15 17 16 25 17 18 18 19 19 20 20 24 21 21 22 23 23
REMARK SMILES IDX 22 24 9 25 10 26 2 27 1 28
REMARK H PARENT 12 11
ROOT
ATOM      1  C   UNL     1      11.335 -52.375 -22.510  1.00  0.00     0.122 C 
ATOM      2  C   UNL     1      11.215 -53.679 -22.818  1.00  0.00    -0.023 C 
ATOM      3  C   UNL     1      11.931 -53.997 -24.121  1.00  0.00     0.071 C 
ATOM      4  C   UNL     1      12.483 -52.654 -24.497  1.00  0.00    -0.029 A 
ATOM      5  C   UNL     1      13.248 -52.305 -25.599  1.00  0.00     0.055 A 
ATOM      6  C   UNL     1      13.665 -50.976 -25.721  1.00  0.00     0.161 A 
ATOM      7  C   UNL     1      13.256 -50.015 -24.772  1.00  0.00     0.161 A 
ATOM      8  C   UNL     1      12.504 -50.383 -23.652  1.00  0.00     0.062 A 
ATOM      9  C   UNL     1      12.121 -51.706 -23.531  1.00  0.00     0.024 A 
ENDROOT
BRANCH   1  10
ATOM     10  O   UNL     1      10.854 -51.683 -21.448  1.00  0.00    -0.507 OA
ATOM     11  H   UNL     1       9.887 -51.764 -21.447  1.00  0.00     0.293 HD
ENDBRANCH   1  10
BRANCH   2  12
ATOM     12  C   UNL     1      10.480 -54.753 -22.079  1.00  0.00     0.039 C 
BRANCH  12  13
ATOM     13  C   UNL     1      10.586 -56.143 -22.731  1.00  0.00    -0.003 C 
ATOM     14  C   UNL     1      11.361 -57.140 -21.850  1.00  0.00     0.025 C 
ATOM     15  C   UNL     1       9.180 -56.696 -23.019  1.00  0.00     0.025 C 
ATOM     16  C   UNL     1      11.376 -58.538 -22.469  1.00  0.00     0.117 C 
ATOM     17  C   UNL     1       9.235 -58.105 -23.609  1.00  0.00     0.117 C 
ATOM     18  N   UNL     1       9.999 -58.987 -22.710  1.00  0.00    -0.372 N 
BRANCH  18  19
ATOM     19  C   UNL     1       9.807 -60.354 -22.995  1.00  0.00     0.037 A 
ATOM     20  C   UNL     1       9.577 -60.855 -24.285  1.00  0.00     0.026 A 
ATOM     21  C   UNL     1       9.867 -61.287 -21.946  1.00  0.00     0.026 A 
ATOM     22  C   UNL     1       9.395 -62.224 -24.513  1.00  0.00     0.002 A 
ATOM     23  C   UNL     1       9.688 -62.656 -22.167  1.00  0.00     0.002 A 
ATOM     24  C   UNL     1       9.450 -63.124 -23.455  1.00  0.00     0.000 A 
ENDBRANCH  18  19
ENDBRANCH  12  13
ENDBRANCH   2  12
BRANCH   7  25
ATOM     25  O   UNL     1      13.597 -48.691 -24.890  1.00  0.00    -0.493 OA
ATOM     26  C   UNL     1      12.507 -47.875 -24.456  1.00  0.00     0.278 C 
ENDBRANCH   7  25
BRANCH   6  27
ATOM     27  O   UNL     1      14.425 -50.701 -26.829  1.00  0.00    -0.493 OA
ATOM     28  C   UNL     1      15.776 -50.365 -26.516  1.00  0.00     0.278 C 
ENDBRANCH   6  27
TORSDOF 6
ENDMDL
MODEL 2
REMARK VINA RESULT:   -10.548      1.081      2.147
REMARK INTER + INTRA:         -14.573
REMARK INTER:                 -14.281
REMARK INTRA:                  -0.292
REMARK UNBOUND:                -0.633
REMARK SMILES COc1cc2c(cc1OC)C(O)=C(CC1CCN(c3ccccc3)CC1)C2
REMARK SMILES IDX 11 1 13 2 27 3 5 4 4 5 3 6 8 7 7 8 6 9 12 10 14 12 15 13
REMARK SMILES IDX 16 14 26 15 17 16 25 17 18 18 19 19 20 20 24 21 21 22 23 23
REMARK SMILES IDX 22 24 9 25 10 26 2 27 1 28
REMARK H PARENT 12 11
ROOT
ATOM      1  C   UNL     1      11.723 -54.155 -24.109  1.00  0.00     0.122 C 
ATOM      2  C   UNL     1      11.014 -54.021 -22.974  1.00  0.00    -0.023 C 
ATOM      3  C   UNL     1      11.158 -52.618 -22.406  1.00  0.00     0.071 C 
ATOM      4  C   UNL     1      12.064 -51.976 -23.414  1.00  0.00    -0.029 A 
ATOM      5  C   UNL     1      12.553 -50.680 -23.443  1.00  0.00     0.055 A 
ATOM      6  C   UNL     1      13.375 -50.307 -24.511  1.00  0.00     0.161 A 
ATOM      7  C   UNL     1      13.739 -51.256 -25.491  1.00  0.00     0.161 A 
ATOM      8  C   UNL     1      13.221 -52.555 -25.463  1.00  0.00     0.062 A 
ATOM      9  C   UNL     1      12.388 -52.901 -24.415  1.00  0.00     0.024 A 
ENDROOT
BRANCH   1  10
ATOM     10  O   UNL     1      11.867 -55.228 -24.924  1.00  0.00    -0.507 OA
ATOM     11  H   UNL     1      10.984 -55.580 -25.120  1.00  0.00     0.293 HD
ENDBRANCH   1  10
BRANCH   2  12
ATOM     12  C   UNL     1      10.188 -55.044 -22.258  1.00  0.00     0.039 C 
BRANCH  12  13
ATOM     13  C   UNL     1      10.264 -56.452 -22.878  1.00  0.00    -0.003 C 
ATOM     14  C   UNL     1      11.068 -57.429 -22.002  1.00  0.00     0.025 C 
ATOM     15  C   UNL     1       8.846 -57.005 -23.096  1.00  0.00     0.025 C 
ATOM     16  C   UNL     1      11.055 -58.842 -22.584  1.00  0.00     0.117 C 
ATOM     17  C   UNL     1       8.872 -58.429 -23.651  1.00  0.00     0.117 C 
ATOM     18  N   UNL     1       9.667 -59.291 -22.759  1.00  0.00    -0.372 N 
BRANCH  18  19
ATOM     19  C   UNL     1       9.460 -60.663 -23.001  1.00  0.00     0.037 A 
ATOM     20  C   UNL     1       8.818 -61.164 -24.143  1.00  0.00     0.026 A 
ATOM     21  C   UNL     1       9.932 -61.603 -22.067  1.00  0.00     0.026 A 
ATOM     22  C   UNL     1       8.640 -62.540 -24.335  1.00  0.00     0.002 A 
ATOM     23  C   UNL     1       9.759 -62.978 -22.254  1.00  0.00     0.002 A 
ATOM     24  C   UNL     1       9.110 -63.446 -23.391  1.00  0.00     0.000 A 
ENDBRANCH  18  19
ENDBRANCH  12  13
ENDBRANCH   2  12
BRANCH   7  25
ATOM     25  O   UNL     1      14.590 -50.942 -26.521  1.00  0.00    -0.493 OA
ATOM     26  C   UNL     1      15.941 -50.990 -26.057  1.00  0.00     0.278 C 
ENDBRANCH   7  25
BRANCH   6  27
ATOM     27  O   UNL     1      13.818 -49.009 -24.483  1.00  0.00    -0.493 OA
ATOM     28  C   UNL     1      12.782 -48.056 -24.718  1.00  0.00     0.278 C 
ENDBRANCH   6  27
TORSDOF 6
ENDMDL
MODEL 3
REMARK VINA RESULT:   -10.405      4.196     10.013
REMARK INTER + INTRA:         -14.384
REMARK INTER:                 -13.747
REMARK INTRA:                  -0.637
REMARK UNBOUND:                -0.633
REMARK SMILES COc1cc2c(cc1OC)C(O)=C(CC1CCN(c3ccccc3)CC1)C2
REMARK SMILES IDX 11 1 13 2 27 3 5 4 4 5 3 6 8 7 7 8 6 9 12 10 14 12 15 13
REMARK SMILES IDX 16 14 26 15 17 16 25 17 18 18 19 19 20 20 24 21 21 22 23 23
REMARK SMILES IDX 22 24 9 25 10 26 2 27 1 28
REMARK H PARENT 12 11
ROOT
ATOM      1  C   UNL     1      10.961 -59.360 -24.275  1.00  0.00     0.122 C 
ATOM      2  C   UNL     1      10.684 -58.845 -23.064  1.00  0.00    -0.023 C 
ATOM      3  C   UNL     1       9.394 -59.428 -22.508  1.00  0.00     0.071 C 
ATOM      4  C   UNL     1       8.990 -60.366 -23.606  1.00  0.00    -0.029 A 
ATOM      5  C   UNL     1       7.885 -61.200 -23.676  1.00  0.00     0.055 A 
ATOM      6  C   UNL     1       7.734 -62.005 -24.809  1.00  0.00     0.161 A 
ATOM      7  C   UNL     1       8.656 -61.912 -25.873  1.00  0.00     0.161 A 
ATOM      8  C   UNL     1       9.780 -61.083 -25.783  1.00  0.00     0.062 A 
ATOM      9  C   UNL     1       9.929 -60.313 -24.644  1.00  0.00     0.024 A 
ENDROOT
BRANCH   1  10
ATOM     10  O   UNL     1      12.002 -59.115 -25.108  1.00  0.00    -0.507 OA
ATOM     11  H   UNL     1      12.071 -59.855 -25.732  1.00  0.00     0.293 HD
ENDBRANCH   1  10
BRANCH   2  12
ATOM     12  C   UNL     1      11.443 -57.816 -22.286  1.00  0.00     0.039 C 
BRANCH  12  13
ATOM     13  C   UNL     1      10.842 -56.401 -22.372  1.00  0.00    -0.003 C 
ATOM     14  C   UNL     1      11.093 -55.586 -21.090  1.00  0.00     0.025 C 
ATOM     15  C   UNL     1      11.432 -55.653 -23.579  1.00  0.00     0.025 C 
ATOM     16  C   UNL     1      10.573 -54.155 -21.227  1.00  0.00     0.117 C 
ATOM     17  C   UNL     1      10.912 -54.218 -23.667  1.00  0.00     0.117 C 
ATOM     18  N   UNL     1      11.184 -53.517 -22.401  1.00  0.00    -0.372 N 
BRANCH  18  19
ATOM     19  C   UNL     1      11.056 -52.119 -22.514  1.00  0.00     0.037 A 
ATOM     20  C   UNL     1       9.942 -51.400 -22.056  1.00  0.00     0.026 A 
ATOM     21  C   UNL     1      12.100 -51.380 -23.098  1.00  0.00     0.026 A 
ATOM     22  C   UNL     1       9.866 -50.008 -22.192  1.00  0.00     0.002 A 
ATOM     23  C   UNL     1      12.031 -49.990 -23.235  1.00  0.00     0.002 A 
ATOM     24  C   UNL     1      10.910 -49.304 -22.781  1.00  0.00     0.000 A 
ENDBRANCH  18  19
ENDBRANCH  12  13
ENDBRANCH   2  12
BRANCH   7  25
ATOM     25  O   UNL     1       8.508 -62.643 -27.025  1.00  0.00    -0.493 OA
ATOM     26  C   UNL     1       9.089 -61.932 -28.121  1.00  0.00     0.278 C 
ENDBRANCH   7  25
BRANCH   6  27
ATOM     27  O   UNL     1       6.625 -62.813 -24.810  1.00  0.00    -0.493 OA
ATOM     28  C   UNL     1       6.941 -64.202 -24.740  1.00  0.00     0.278 C 
ENDBRANCH   6  27
TORSDOF 6
ENDMDL
MODEL 4
REMARK VINA RESULT:    -9.861      2.401      4.596
REMARK INTER + INTRA:         -13.665
REMARK INTER:                 -13.486
REMARK INTRA:                  -0.179
REMARK UNBOUND:                -0.633
REMARK SMILES COc1cc2c(cc1OC)C(O)=C(CC1CCN(c3ccccc3)CC1)C2
REMARK SMILES IDX 11 1 13 2 27 3 5 4 4 5 3 6 8 7 7 8 6 9 12 10 14 12 15 13
REMARK SMILES IDX 16 14 26 15 17 16 25 17 18 18 19 19 20 20 24 21 21 22 23 23
REMARK SMILES IDX 22 24 9 25 10 26 2 27 1 28
REMARK H PARENT 12 11
ROOT
ATOM      1  C   UNL     1      11.776 -57.335 -23.368  1.00  0.00     0.122 C 
ATOM      2  C   UNL     1      11.261 -57.693 -22.179  1.00  0.00    -0.023 C 
ATOM      3  C   UNL     1      10.794 -56.473 -21.400  1.00  0.00     0.071 C 
ATOM      4  C   UNL     1      11.126 -55.363 -22.352  1.00  0.00    -0.029 A 
ATOM      5  C   UNL     1      10.925 -54.000 -22.203  1.00  0.00     0.055 A 
ATOM      6  C   UNL     1      11.305 -53.156 -23.252  1.00  0.00     0.161 A 
ATOM      7  C   UNL     1      11.934 -53.689 -24.397  1.00  0.00     0.161 A 
ATOM      8  C   UNL     1      12.112 -55.068 -24.546  1.00  0.00     0.062 A 
ATOM      9  C   UNL     1      11.707 -55.892 -23.512  1.00  0.00     0.024 A 
ENDROOT
BRANCH   1  10
ATOM     10  O   UNL     1      12.299 -58.101 -24.357  1.00  0.00    -0.507 OA
ATOM     11  H   UNL     1      11.623 -58.741 -24.633  1.00  0.00     0.293 HD
ENDBRANCH   1  10
BRANCH   2  12
ATOM     12  C   UNL     1      11.138 -59.061 -21.583  1.00  0.00     0.039 C 
BRANCH  12  13
ATOM     13  C   UNL     1      10.278 -60.029 -22.416  1.00  0.00    -0.003 C 
ATOM     14  C   UNL     1       9.367 -59.287 -23.410  1.00  0.00     0.025 C 
ATOM     15  C   UNL     1      11.182 -61.009 -23.181  1.00  0.00     0.025 C 
ATOM     16  C   UNL     1       8.589 -60.264 -24.293  1.00  0.00     0.117 C 
ATOM     17  C   UNL     1      10.373 -61.950 -24.073  1.00  0.00     0.117 C 
ATOM     18  N   UNL     1       9.526 -61.160 -24.983  1.00  0.00    -0.372 N 
BRANCH  18  19
ATOM     19  C   UNL     1       9.019 -61.921 -26.054  1.00  0.00     0.037 A 
ATOM     20  C   UNL     1       8.075 -62.947 -25.901  1.00  0.00     0.026 A 
ATOM     21  C   UNL     1       9.454 -61.640 -27.361  1.00  0.00     0.026 A 
ATOM     22  C   UNL     1       7.601 -63.673 -27.001  1.00  0.00     0.002 A 
ATOM     23  C   UNL     1       8.984 -62.359 -28.464  1.00  0.00     0.002 A 
ATOM     24  C   UNL     1       8.056 -63.379 -28.282  1.00  0.00     0.000 A 
ENDBRANCH  18  19
ENDBRANCH  12  13
ENDBRANCH   2  12
BRANCH   7  25
ATOM     25  O   UNL     1      12.373 -52.886 -25.421  1.00  0.00    -0.493 OA
ATOM     26  C   UNL     1      13.439 -52.056 -24.954  1.00  0.00     0.278 C 
ENDBRANCH   7  25
BRANCH   6  27
ATOM     27  O   UNL     1      11.070 -51.821 -23.043  1.00  0.00    -0.493 OA
ATOM     28  C   UNL     1      10.037 -51.574 -22.091  1.00  0.00     0.278 C 
ENDBRANCH   6  27
TORSDOF 6
ENDMDL
MODEL 5
REMARK VINA RESULT:    -9.568      2.129      2.997
REMARK INTER + INTRA:         -13.278
REMARK INTER:                 -12.560
REMARK INTRA:                  -0.718
REMARK UNBOUND:                -0.633
REMARK SMILES COc1cc2c(cc1OC)C(O)=C(CC1CCN(c3ccccc3)CC1)C2
REMARK SMILES IDX 11 1 13 2 27 3 5 4 4 5 3 6 8 7 7 8 6 9 12 10 14 12 15 13
REMARK SMILES IDX 16 14 26 15 17 16 25 17 18 18 19 19 20 20 24 21 21 22 23 23
REMARK SMILES IDX 22 24 9 25 10 26 2 27 1 28
REMARK H PARENT 12 11
ROOT
ATOM      1  C   UNL     1      10.231 -50.059 -22.300  1.00  0.00     0.122 C 
ATOM      2  C   UNL     1      10.682 -51.324 -22.374  1.00  0.00    -0.023 C 
ATOM      3  C   UNL     1      12.061 -51.372 -23.012  1.00  0.00     0.071 C 
ATOM      4  C   UNL     1      12.319 -49.919 -23.282  1.00  0.00    -0.029 A 
ATOM      5  C   UNL     1      13.432 -49.324 -23.854  1.00  0.00     0.055 A 
ATOM      6  C   UNL     1      13.446 -47.932 -23.983  1.00  0.00     0.161 A 
ATOM      7  C   UNL     1      12.320 -47.173 -23.596  1.00  0.00     0.161 A 
ATOM      8  C   UNL     1      11.211 -47.782 -22.999  1.00  0.00     0.062 A 
ATOM      9  C   UNL     1      11.224 -49.157 -22.854  1.00  0.00     0.024 A 
ENDROOT
BRANCH   1  10
ATOM     10  O   UNL     1       9.062 -49.579 -21.807  1.00  0.00    -0.507 OA
ATOM     11  H   UNL     1       8.782 -48.835 -22.363  1.00  0.00     0.293 HD
ENDBRANCH   1  10
BRANCH   2  12
ATOM     12  C   UNL     1      10.003 -52.589 -21.950  1.00  0.00     0.039 C 
BRANCH  12  13
ATOM     13  C   UNL     1      10.831 -53.860 -22.213  1.00  0.00    -0.003 C 
ATOM     14  C   UNL     1      10.591 -54.941 -21.144  1.00  0.00     0.025 C 
ATOM     15  C   UNL     1      10.493 -54.428 -23.602  1.00  0.00     0.025 C 
ATOM     16  C   UNL     1      11.348 -56.228 -21.470  1.00  0.00     0.117 C 
ATOM     17  C   UNL     1      11.246 -55.729 -23.881  1.00  0.00     0.117 C 
ATOM     18  N   UNL     1      10.967 -56.699 -22.808  1.00  0.00    -0.372 N 
BRANCH  18  19
ATOM     19  C   UNL     1      11.332 -58.015 -23.156  1.00  0.00     0.037 A 
ATOM     20  C   UNL     1      12.060 -58.341 -24.309  1.00  0.00     0.026 A 
ATOM     21  C   UNL     1      10.973 -59.073 -22.303  1.00  0.00     0.026 A 
ATOM     22  C   UNL     1      12.398 -59.667 -24.607  1.00  0.00     0.002 A 
ATOM     23  C   UNL     1      11.309 -60.399 -22.593  1.00  0.00     0.002 A 
ATOM     24  C   UNL     1      12.022 -60.695 -23.749  1.00  0.00     0.000 A 
ENDBRANCH  18  19
ENDBRANCH  12  13
ENDBRANCH   2  12
BRANCH   7  25
ATOM     25  O   UNL     1      12.274 -45.811 -23.761  1.00  0.00    -0.493 OA
ATOM     26  C   UNL     1      11.860 -45.195 -22.540  1.00  0.00     0.278 C 
ENDBRANCH   7  25
BRANCH   6  27
ATOM     27  O   UNL     1      14.580 -47.407 -24.549  1.00  0.00    -0.493 OA
ATOM     28  C   UNL     1      15.540 -48.400 -24.907  1.00  0.00     0.278 C 
ENDBRANCH   6  27
TORSDOF 6
ENDMDL
MODEL 6
REMARK VINA RESULT:    -9.467      3.484      9.507
REMARK INTER + INTRA:         -13.145
REMARK INTER:                 -12.725
REMARK INTRA:                  -0.420
REMARK UNBOUND:                -0.633
REMARK SMILES COc1cc2c(cc1OC)C(O)=C(CC1CCN(c3ccccc3)CC1)C2
REMARK SMILES IDX 11 1 13 2 27 3 5 4 4 5 3 6 8 7 7 8 6 9 12 10 14 12 15 13
REMARK SMILES IDX 16 14 26 15 17 16 25 17 18 18 19 19 20 20 24 21 21 22 23 23
REMARK SMILES IDX 22 24 9 25 10 26 2 27 1 28
REMARK H PARENT 12 11
ROOT
ATOM      1  C   UNL     1       9.788 -56.698 -23.032  1.00  0.00     0.122 C 
ATOM      2  C   UNL     1      10.575 -56.301 -22.017  1.00  0.00    -0.023 C 
ATOM      3  C   UNL     1      11.375 -57.469 -21.462  1.00  0.00     0.071 C 
ATOM      4  C   UNL     1      10.913 -58.595 -22.338  1.00  0.00    -0.029 A 
ATOM      5  C   UNL     1      11.299 -59.925 -22.321  1.00  0.00     0.055 A 
ATOM      6  C   UNL     1      10.735 -60.791 -23.264  1.00  0.00     0.161 A 
ATOM      7  C   UNL     1       9.752 -60.318 -24.160  1.00  0.00     0.161 A 
ATOM      8  C   UNL     1       9.387 -58.968 -24.184  1.00  0.00     0.062 A 
ATOM      9  C   UNL     1       9.974 -58.120 -23.263  1.00  0.00     0.024 A 
ENDROOT
BRANCH   1  10
ATOM     10  O   UNL     1       8.925 -55.984 -23.796  1.00  0.00    -0.507 OA
ATOM     11  H   UNL     1       8.714 -55.162 -23.326  1.00  0.00     0.293 HD
ENDBRANCH   1  10
BRANCH   2  12
ATOM     12  C   UNL     1      10.708 -54.939 -21.410  1.00  0.00     0.039 C 
BRANCH  12  13
ATOM     13  C   UNL     1      10.858 -53.808 -22.443  1.00  0.00    -0.003 C 
ATOM     14  C   UNL     1      11.317 -52.488 -21.796  1.00  0.00     0.025 C 
ATOM     15  C   UNL     1      11.863 -54.222 -23.531  1.00  0.00     0.025 C 
ATOM     16  C   UNL     1      11.552 -51.403 -22.847  1.00  0.00     0.117 C 
ATOM     17  C   UNL     1      12.095 -53.103 -24.546  1.00  0.00     0.117 C 
ATOM     18  N   UNL     1      12.519 -51.880 -23.843  1.00  0.00    -0.372 N 
BRANCH  18  19
ATOM     19  C   UNL     1      13.079 -50.921 -24.709  1.00  0.00     0.037 A 
ATOM     20  C   UNL     1      13.725 -51.241 -25.913  1.00  0.00     0.026 A 
ATOM     21  C   UNL     1      12.979 -49.558 -24.378  1.00  0.00     0.026 A 
ATOM     22  C   UNL     1      14.262 -50.246 -26.739  1.00  0.00     0.002 A 
ATOM     23  C   UNL     1      13.511 -48.560 -25.200  1.00  0.00     0.002 A 
ATOM     24  C   UNL     1      14.156 -48.906 -26.382  1.00  0.00     0.000 A 
ENDBRANCH  18  19
ENDBRANCH  12  13
ENDBRANCH   2  12
BRANCH   7  25
ATOM     25  O   UNL     1       9.134 -61.150 -25.061  1.00  0.00    -0.493 OA
ATOM     26  C   UNL     1       9.140 -60.543 -26.355  1.00  0.00     0.278 C 
ENDBRANCH   7  25
BRANCH   6  27
ATOM     27  O   UNL     1      11.166 -62.091 -23.197  1.00  0.00    -0.493 OA
ATOM     28  C   UNL     1      10.213 -62.969 -22.600  1.00  0.00     0.278 C 
ENDBRANCH   6  27
TORSDOF 6
ENDMDL
MODEL 7
REMARK VINA RESULT:    -9.209      1.434      2.081
REMARK INTER + INTRA:         -12.802
REMARK INTER:                 -12.649
REMARK INTRA:                  -0.153
REMARK UNBOUND:                -0.633
REMARK SMILES COc1cc2c(cc1OC)C(O)=C(CC1CCN(c3ccccc3)CC1)C2
REMARK SMILES IDX 11 1 13 2 27 3 5 4 4 5 3 6 8 7 7 8 6 9 12 10 14 12 15 13
REMARK SMILES IDX 16 14 26 15 17 16 25 17 18 18 19 19 20 20 24 21 21 22 23 23
REMARK SMILES IDX 22 24 9 25 10 26 2 27 1 28
REMARK H PARENT 12 11
ROOT
ATOM      1  C   UNL     1      11.947 -50.757 -23.113  1.00  0.00     0.122 C 
ATOM      2  C   UNL     1      11.727 -52.074 -23.275  1.00  0.00    -0.023 C 
ATOM      3  C   UNL     1      12.415 -52.589 -24.530  1.00  0.00     0.071 C 
ATOM      4  C   UNL     1      13.069 -51.343 -25.048  1.00  0.00    -0.029 A 
ATOM      5  C   UNL     1      13.857 -51.179 -26.176  1.00  0.00     0.055 A 
ATOM      6  C   UNL     1      14.375 -49.908 -26.442  1.00  0.00     0.161 A 
ATOM      7  C   UNL     1      14.042 -48.818 -25.609  1.00  0.00     0.161 A 
ATOM      8  C   UNL     1      13.265 -49.000 -24.461  1.00  0.00     0.062 A 
ATOM      9  C   UNL     1      12.782 -50.268 -24.197  1.00  0.00     0.024 A 
ENDROOT
BRANCH   1  10
ATOM     10  O   UNL     1      11.522 -49.917 -22.139  1.00  0.00    -0.507 OA
ATOM     11  H   UNL     1      11.940 -50.183 -21.305  1.00  0.00     0.293 HD
ENDBRANCH   1  10
BRANCH   2  12
ATOM     12  C   UNL     1      10.912 -53.000 -22.427  1.00  0.00     0.039 C 
BRANCH  12  13
ATOM     13  C   UNL     1      11.409 -54.457 -22.440  1.00  0.00    -0.003 C 
ATOM     14  C   UNL     1      10.891 -55.258 -21.232  1.00  0.00     0.025 C 
ATOM     15  C   UNL     1      10.970 -55.149 -23.741  1.00  0.00     0.025 C 
ATOM     16  C   UNL     1      11.315 -56.724 -21.309  1.00  0.00     0.117 C 
ATOM     17  C   UNL     1      11.386 -56.620 -23.771  1.00  0.00     0.117 C 
ATOM     18  N   UNL     1      10.857 -57.305 -22.578  1.00  0.00    -0.372 N 
BRANCH  18  19
ATOM     19  C   UNL     1      10.895 -58.708 -22.695  1.00  0.00     0.037 A 
ATOM     20  C   UNL     1      10.071 -59.573 -21.960  1.00  0.00     0.026 A 
ATOM     21  C   UNL     1      11.788 -59.296 -23.609  1.00  0.00     0.026 A 
ATOM     22  C   UNL     1      10.148 -60.963 -22.118  1.00  0.00     0.002 A 
ATOM     23  C   UNL     1      11.868 -60.682 -23.773  1.00  0.00     0.002 A 
ATOM     24  C   UNL     1      11.046 -61.517 -23.023  1.00  0.00     0.000 A 
ENDBRANCH  18  19
ENDBRANCH  12  13
ENDBRANCH   2  12
BRANCH   7  25
ATOM     25  O   UNL     1      14.484 -47.545 -25.871  1.00  0.00    -0.493 OA
ATOM     26  C   UNL     1      13.548 -46.598 -25.352  1.00  0.00     0.278 C 
ENDBRANCH   7  25
BRANCH   6  27
ATOM     27  O   UNL     1      15.153 -49.816 -27.568  1.00  0.00    -0.493 OA
ATOM     28  C   UNL     1      16.527 -49.555 -27.283  1.00  0.00     0.278 C 
ENDBRANCH   6  27
TORSDOF 6
ENDMDL
MODEL 8
REMARK VINA RESULT:    -9.122      4.619     10.298
REMARK INTER + INTRA:         -12.688
REMARK INTER:                 -12.268
REMARK INTRA:                  -0.420
REMARK UNBOUND:                -0.633
REMARK SMILES COc1cc2c(cc1OC)C(O)=C(CC1CCN(c3ccccc3)CC1)C2
REMARK SMILES IDX 11 1 13 2 27 3 5 4 4 5 3 6 8 7 7 8 6 9 12 10 14 12 15 13
REMARK SMILES IDX 16 14 26 15 17 16 25 17 18 18 19 19 20 20 24 21 21 22 23 23
REMARK SMILES IDX 22 24 9 25 10 26 2 27 1 28
REMARK H PARENT 12 11
ROOT
ATOM      1  C   UNL     1      10.473 -61.215 -24.417  1.00  0.00     0.122 C 
ATOM      2  C   UNL     1      10.193 -61.188 -23.102  1.00  0.00    -0.023 C 
ATOM      3  C   UNL     1       8.901 -61.932 -22.806  1.00  0.00     0.071 C 
ATOM      4  C   UNL     1       8.499 -62.393 -24.176  1.00  0.00    -0.029 A 
ATOM      5  C   UNL     1       7.394 -63.139 -24.554  1.00  0.00     0.055 A 
ATOM      6  C   UNL     1       7.245 -63.464 -25.906  1.00  0.00     0.161 A 
ATOM      7  C   UNL     1       8.171 -62.983 -26.856  1.00  0.00     0.161 A 
ATOM      8  C   UNL     1       9.295 -62.250 -26.461  1.00  0.00     0.062 A 
ATOM      9  C   UNL     1       9.442 -61.960 -25.117  1.00  0.00     0.024 A 
ENDROOT
BRANCH   1  10
ATOM     10  O   UNL     1      11.518 -60.680 -25.095  1.00  0.00    -0.507 OA
ATOM     11  H   UNL     1      12.338 -60.976 -24.670  1.00  0.00     0.293 HD
ENDBRANCH   1  10
BRANCH   2  12
ATOM     12  C   UNL     1      10.951 -60.524 -21.995  1.00  0.00     0.039 C 
BRANCH  12  13
ATOM     13  C   UNL     1      10.574 -59.047 -21.779  1.00  0.00    -0.003 C 
ATOM     14  C   UNL     1      11.665 -58.275 -21.016  1.00  0.00     0.025 C 
ATOM     15  C   UNL     1      10.317 -58.368 -23.134  1.00  0.00     0.025 C 
ATOM     16  C   UNL     1      11.318 -56.791 -20.892  1.00  0.00     0.117 C 
ATOM     17  C   UNL     1      10.002 -56.881 -22.974  1.00  0.00     0.117 C 
ATOM     18  N   UNL     1      11.089 -56.224 -22.227  1.00  0.00    -0.372 N 
BRANCH  18  19
ATOM     19  C   UNL     1      11.052 -54.820 -22.333  1.00  0.00     0.037 A 
ATOM     20  C   UNL     1      10.523 -53.979 -21.344  1.00  0.00     0.026 A 
ATOM     21  C   UNL     1      11.588 -54.205 -23.479  1.00  0.00     0.026 A 
ATOM     22  C   UNL     1      10.513 -52.587 -21.499  1.00  0.00     0.002 A 
ATOM     23  C   UNL     1      11.583 -52.816 -23.639  1.00  0.00     0.002 A 
ATOM     24  C   UNL     1      11.042 -52.006 -22.646  1.00  0.00     0.000 A 
ENDBRANCH  18  19
ENDBRANCH  12  13
ENDBRANCH   2  12
BRANCH   7  25
ATOM     25  O   UNL     1       8.026 -63.233 -28.198  1.00  0.00    -0.493 OA
ATOM     26  C   UNL     1       9.142 -62.689 -28.908  1.00  0.00     0.278 C 
ENDBRANCH   7  25
BRANCH   6  27
ATOM     27  O   UNL     1       6.135 -64.210 -26.210  1.00  0.00    -0.493 OA
ATOM     28  C   UNL     1       6.046 -65.419 -25.457  1.00  0.00     0.278 C 
ENDBRANCH   6  27
TORSDOF 6
ENDMDL
MODEL 9
REMARK VINA RESULT:    -9.041      2.189      4.044
REMARK INTER + INTRA:         -12.581
REMARK INTER:                 -11.974
REMARK INTRA:                  -0.608
REMARK UNBOUND:                -0.633
REMARK SMILES COc1cc2c(cc1OC)C(O)=C(CC1CCN(c3ccccc3)CC1)C2
REMARK SMILES IDX 11 1 13 2 27 3 5 4 4 5 3 6 8 7 7 8 6 9 12 10 14 12 15 13
REMARK SMILES IDX 16 14 26 15 17 16 25 17 18 18 19 19 20 20 24 21 21 22 23 23
REMARK SMILES IDX 22 24 9 25 10 26 2 27 1 28
REMARK H PARENT 12 11
ROOT
ATOM      1  C   UNL     1      14.546 -50.975 -23.493  1.00  0.00     0.122 C 
ATOM      2  C   UNL     1      13.212 -50.901 -23.648  1.00  0.00    -0.023 C 
ATOM      3  C   UNL     1      12.852 -50.480 -25.064  1.00  0.00     0.071 C 
ATOM      4  C   UNL     1      14.208 -50.334 -25.689  1.00  0.00    -0.029 A 
ATOM      5  C   UNL     1      14.534 -49.975 -26.987  1.00  0.00     0.055 A 
ATOM      6  C   UNL     1      15.886 -49.927 -27.341  1.00  0.00     0.161 A 
ATOM      7  C   UNL     1      16.881 -50.178 -26.373  1.00  0.00     0.161 A 
ATOM      8  C   UNL     1      16.541 -50.563 -25.072  1.00  0.00     0.062 A 
ATOM      9  C   UNL     1      15.199 -50.631 -24.744  1.00  0.00     0.024 A 
ENDROOT
BRANCH   1  10
ATOM     10  O   UNL     1      15.279 -51.308 -22.403  1.00  0.00    -0.507 OA
ATOM     11  H   UNL     1      15.896 -50.582 -22.219  1.00  0.00     0.293 HD
ENDBRANCH   1  10
BRANCH   2  12
ATOM     12  C   UNL     1      12.136 -51.144 -22.636  1.00  0.00     0.039 C 
BRANCH  12  13
ATOM     13  C   UNL     1      11.330 -52.432 -22.881  1.00  0.00    -0.003 C 
ATOM     14  C   UNL     1      12.085 -53.428 -23.779  1.00  0.00     0.025 C 
ATOM     15  C   UNL     1      10.995 -53.104 -21.538  1.00  0.00     0.025 C 
ATOM     16  C   UNL     1      11.313 -54.738 -23.935  1.00  0.00     0.117 C 
ATOM     17  C   UNL     1      10.249 -54.423 -21.735  1.00  0.00     0.117 C 
ATOM     18  N   UNL     1      11.035 -55.309 -22.611  1.00  0.00    -0.372 N 
BRANCH  18  19
ATOM     19  C   UNL     1      10.600 -56.648 -22.565  1.00  0.00     0.037 A 
ATOM     20  C   UNL     1       9.462 -57.120 -23.237  1.00  0.00     0.026 A 
ATOM     21  C   UNL     1      11.343 -57.585 -21.826  1.00  0.00     0.026 A 
ATOM     22  C   UNL     1       9.075 -58.463 -23.159  1.00  0.00     0.002 A 
ATOM     23  C   UNL     1      10.963 -58.928 -21.746  1.00  0.00     0.002 A 
ATOM     24  C   UNL     1       9.824 -59.366 -22.413  1.00  0.00     0.000 A 
ENDBRANCH  18  19
ENDBRANCH  12  13
ENDBRANCH   2  12
BRANCH   7  25
ATOM     25  O   UNL     1      18.218 -50.084 -26.668  1.00  0.00    -0.493 OA
ATOM     26  C   UNL     1      18.926 -51.149 -26.030  1.00  0.00     0.278 C 
ENDBRANCH   7  25
BRANCH   6  27
ATOM     27  O   UNL     1      16.138 -49.572 -28.642  1.00  0.00    -0.493 OA
ATOM     28  C   UNL     1      15.485 -48.365 -29.033  1.00  0.00     0.278 C 
ENDBRANCH   6  27
TORSDOF 6
ENDMDL
