MODEL 1
REMARK VINA RESULT:   -13.101      0.000      0.000
REMARK INTER + INTRA:         -18.943
REMARK INTER:                 -18.079
REMARK INTRA:                  -0.864
REMARK UNBOUND:                -0.864
REMARK SMILES O=C1C(NCCCNc2c3c(nc4cc(Cl)ccc24)CCCC3)=CC(=O)c2c(O)cccc21
REMARK SMILES IDX 5 1 4 2 3 4 2 5 33 6 24 7 32 8 27 9 25 10 31 11 28 12 30 13
REMARK SMILES IDX 1 14 26 15 29 16 6 18 7 19 8 20 9 22 10 23 19 24 11 25 23 26
REMARK SMILES IDX 18 27 13 28 12 29 20 30 22 31 17 32 14 33 21 34 15 35 16 36
REMARK H PARENT 4 3 29 17 8 21
ROOT
ATOM      1  C   UNL     1      10.266 -57.991 -22.622  1.00  0.00     0.115 C 
ENDROOT
BRANCH   1   2
ATOM      2  N   UNL     1      10.924 -57.009 -23.477  1.00  0.00    -0.382 N 
ATOM      3  H   UNL     1      10.686 -57.122 -24.474  1.00  0.00     0.160 HD
BRANCH   2   4
ATOM      4  C   UNL     1      11.039 -55.650 -23.188  1.00  0.00     0.087 C 
ATOM      5  C   UNL     1      11.738 -54.830 -24.233  1.00  0.00     0.209 C 
ATOM      6  C   UNL     1      11.976 -53.398 -23.974  1.00  0.00     0.039 A 
ATOM      7  C   UNL     1      10.600 -55.040 -22.084  1.00  0.00     0.082 C 
ATOM      8  C   UNL     1      12.681 -52.657 -24.937  1.00  0.00     0.013 A 
ATOM      9  C   UNL     1      11.514 -52.786 -22.807  1.00  0.00     0.075 A 
ATOM     10  C   UNL     1      10.769 -53.598 -21.814  1.00  0.00     0.192 C 
ATOM     11  C   UNL     1      12.930 -51.302 -24.735  1.00  0.00     0.005 A 
ATOM     12  C   UNL     1      11.774 -51.419 -22.614  1.00  0.00     0.127 A 
ATOM     13  C   UNL     1      12.477 -50.682 -23.573  1.00  0.00     0.047 A 
ATOM     14  O   UNL     1      12.091 -55.354 -25.287  1.00  0.00    -0.287 OA
ATOM     15  O   UNL     1      10.287 -53.151 -20.781  1.00  0.00    -0.289 OA
BRANCH  12  16
ATOM     16  O   UNL     1      11.349 -50.778 -21.487  1.00  0.00    -0.507 OA
ATOM     17  H   UNL     1      11.728 -51.188 -20.694  1.00  0.00     0.293 HD
ENDBRANCH  12  16
ENDBRANCH   2   4
ENDBRANCH   1   2
BRANCH   1  18
ATOM     18  C   UNL     1      11.257 -59.058 -22.153  1.00  0.00     0.042 C 
BRANCH  18  19
ATOM     19  C   UNL     1      10.667 -60.471 -22.170  1.00  0.00     0.114 C 
BRANCH  19  20
ATOM     20  N   UNL     1      11.348 -61.289 -23.180  1.00  0.00    -0.384 N 
ATOM     21  H   UNL     1      11.511 -62.227 -22.801  1.00  0.00     0.160 HD
BRANCH  20  22
ATOM     22  C   UNL     1      10.610 -61.364 -24.392  1.00  0.00     0.049 A 
ATOM     23  C   UNL     1       9.534 -62.259 -24.473  1.00  0.00    -0.003 A 
ATOM     24  C   UNL     1      10.986 -60.628 -25.551  1.00  0.00     0.024 A 
ATOM     25  C   UNL     1       8.875 -62.390 -25.694  1.00  0.00     0.046 A 
ATOM     26  C   UNL     1       9.052 -63.110 -23.327  1.00  0.00     0.039 C 
ATOM     27  C   UNL     1      12.065 -59.710 -25.598  1.00  0.00     0.014 A 
ATOM     28  C   UNL     1      10.233 -60.838 -26.731  1.00  0.00     0.074 A 
ATOM     29  N   UNL     1       9.211 -61.698 -26.804  1.00  0.00    -0.252 NA
ATOM     30  C   UNL     1       7.747 -63.381 -25.797  1.00  0.00     0.056 C 
ATOM     31  C   UNL     1       7.522 -63.134 -23.248  1.00  0.00     0.005 C 
ATOM     32  C   UNL     1      12.380 -59.016 -26.766  1.00  0.00     0.021 A 
ATOM     33  C   UNL     1      10.561 -60.137 -27.882  1.00  0.00     0.049 A 
ATOM     34  C   UNL     1       6.807 -63.255 -24.601  1.00  0.00     0.007 C 
ATOM     35  C   UNL     1      11.619 -59.234 -27.905  1.00  0.00     0.043 A 
ATOM     36  Cl  UNL     1      11.992 -58.387 -29.356  1.00  0.00    -0.084 Cl
ENDBRANCH  20  22
ENDBRANCH  19  20
ENDBRANCH  18  19
ENDBRANCH   1  18
TORSDOF 7
ENDMDL
MODEL 2
REMARK VINA RESULT:   -12.159      0.900      1.961
REMARK INTER + INTRA:         -17.644
REMARK INTER:                 -16.820
REMARK INTRA:                  -0.823
REMARK UNBOUND:                -0.864
REMARK SMILES O=C1C(NCCCNc2c3c(nc4cc(Cl)ccc24)CCCC3)=CC(=O)c2c(O)cccc21
REMARK SMILES IDX 5 1 4 2 3 4 2 5 33 6 24 7 32 8 27 9 25 10 31 11 28 12 30 13
REMARK SMILES IDX 1 14 26 15 29 16 6 18 7 19 8 20 9 22 10 23 19 24 11 25 23 26
REMARK SMILES IDX 18 27 13 28 12 29 20 30 22 31 17 32 14 33 21 34 15 35 16 36
REMARK H PARENT 4 3 29 17 8 21
ROOT
ATOM      1  C   UNL     1      10.202 -57.742 -22.998  1.00  0.00     0.115 C 
ENDROOT
BRANCH   1   2
ATOM      2  N   UNL     1      10.257 -56.425 -22.371  1.00  0.00    -0.382 N 
ATOM      3  H   UNL     1      10.468 -56.469 -21.363  1.00  0.00     0.160 HD
BRANCH   2   4
ATOM      4  C   UNL     1      10.883 -55.307 -22.919  1.00  0.00     0.087 C 
ATOM      5  C   UNL     1      10.845 -54.070 -22.069  1.00  0.00     0.209 C 
ATOM      6  C   UNL     1      11.412 -52.819 -22.604  1.00  0.00     0.039 A 
ATOM      7  C   UNL     1      11.489 -55.247 -24.109  1.00  0.00     0.082 C 
ATOM      8  C   UNL     1      11.317 -51.658 -21.820  1.00  0.00     0.013 A 
ATOM      9  C   UNL     1      12.032 -52.781 -23.855  1.00  0.00     0.075 A 
ATOM     10  C   UNL     1      12.119 -54.028 -24.654  1.00  0.00     0.192 C 
ATOM     11  C   UNL     1      11.839 -50.453 -22.284  1.00  0.00     0.005 A 
ATOM     12  C   UNL     1      12.552 -51.560 -24.313  1.00  0.00     0.127 A 
ATOM     13  C   UNL     1      12.456 -50.403 -23.531  1.00  0.00     0.047 A 
ATOM     14  O   UNL     1      10.354 -54.117 -20.943  1.00  0.00    -0.287 OA
ATOM     15  O   UNL     1      12.676 -54.112 -25.741  1.00  0.00    -0.289 OA
BRANCH  12  16
ATOM     16  O   UNL     1      13.160 -51.470 -25.531  1.00  0.00    -0.507 OA
ATOM     17  H   UNL     1      13.154 -52.328 -25.983  1.00  0.00     0.293 HD
ENDBRANCH  12  16
ENDBRANCH   2   4
ENDBRANCH   1   2
BRANCH   1  18
ATOM     18  C   UNL     1      11.170 -58.711 -22.317  1.00  0.00     0.042 C 
BRANCH  18  19
ATOM     19  C   UNL     1      10.621 -60.138 -22.224  1.00  0.00     0.114 C 
BRANCH  19  20
ATOM     20  N   UNL     1      11.330 -61.012 -23.166  1.00  0.00    -0.384 N 
ATOM     21  H   UNL     1      11.498 -61.920 -22.723  1.00  0.00     0.160 HD
BRANCH  20  22
ATOM     22  C   UNL     1      10.614 -61.178 -24.382  1.00  0.00     0.049 A 
ATOM     23  C   UNL     1       9.557 -62.098 -24.424  1.00  0.00    -0.003 A 
ATOM     24  C   UNL     1      10.996 -60.509 -25.580  1.00  0.00     0.024 A 
ATOM     25  C   UNL     1       8.921 -62.317 -25.645  1.00  0.00     0.046 A 
ATOM     26  C   UNL     1       9.072 -62.884 -23.235  1.00  0.00     0.039 C 
ATOM     27  C   UNL     1      12.058 -59.574 -25.668  1.00  0.00     0.014 A 
ATOM     28  C   UNL     1      10.268 -60.807 -26.756  1.00  0.00     0.074 A 
ATOM     29  N   UNL     1       9.263 -61.691 -26.791  1.00  0.00    -0.252 NA
ATOM     30  C   UNL     1       7.815 -63.336 -25.703  1.00  0.00     0.056 C 
ATOM     31  C   UNL     1       7.541 -62.934 -23.178  1.00  0.00     0.005 C 
ATOM     32  C   UNL     1      12.379 -58.949 -26.872  1.00  0.00     0.021 A 
ATOM     33  C   UNL     1      10.601 -60.173 -27.943  1.00  0.00     0.049 A 
ATOM     34  C   UNL     1       6.851 -63.153 -24.533  1.00  0.00     0.007 C 
ATOM     35  C   UNL     1      11.643 -59.253 -28.007  1.00  0.00     0.043 A 
ATOM     36  Cl  UNL     1      12.025 -58.491 -29.502  1.00  0.00    -0.084 Cl
ENDBRANCH  20  22
ENDBRANCH  19  20
ENDBRANCH  18  19
ENDBRANCH   1  18
TORSDOF 7
ENDMDL
MODEL 3
REMARK VINA RESULT:   -11.805      2.029      3.765
REMARK INTER + INTRA:         -17.154
REMARK INTER:                 -16.480
REMARK INTRA:                  -0.674
REMARK UNBOUND:                -0.864
REMARK SMILES O=C1C(NCCCNc2c3c(nc4cc(Cl)ccc24)CCCC3)=CC(=O)c2c(O)cccc21
REMARK SMILES IDX 5 1 4 2 3 4 2 5 33 6 24 7 32 8 27 9 25 10 31 11 28 12 30 13
REMARK SMILES IDX 1 14 26 15 29 16 6 18 7 19 8 20 9 22 10 23 19 24 11 25 23 26
REMARK SMILES IDX 18 27 13 28 12 29 20 30 22 31 17 32 14 33 21 34 15 35 16 36
REMARK H PARENT 4 3 29 17 8 21
ROOT
ATOM      1  C   UNL     1      11.013 -56.905 -21.926  1.00  0.00     0.115 C 
ENDROOT
BRANCH   1   2
ATOM      2  N   UNL     1      10.754 -56.086 -23.106  1.00  0.00    -0.382 N 
ATOM      3  H   UNL     1       9.802 -56.212 -23.481  1.00  0.00     0.160 HD
BRANCH   2   4
ATOM      4  C   UNL     1      11.125 -54.749 -23.245  1.00  0.00     0.087 C 
ATOM      5  C   UNL     1      11.917 -54.428 -24.479  1.00  0.00     0.209 C 
ATOM      6  C   UNL     1      12.420 -53.055 -24.667  1.00  0.00     0.039 A 
ATOM      7  C   UNL     1      10.848 -53.762 -22.388  1.00  0.00     0.082 C 
ATOM      8  C   UNL     1      13.207 -52.785 -25.798  1.00  0.00     0.013 A 
ATOM      9  C   UNL     1      12.123 -52.044 -23.751  1.00  0.00     0.075 A 
ATOM     10  C   UNL     1      11.285 -52.363 -22.570  1.00  0.00     0.192 C 
ATOM     11  C   UNL     1      13.704 -51.503 -26.017  1.00  0.00     0.005 A 
ATOM     12  C   UNL     1      12.633 -50.755 -23.982  1.00  0.00     0.127 A 
ATOM     13  C   UNL     1      13.418 -50.487 -25.108  1.00  0.00     0.047 A 
ATOM     14  O   UNL     1      12.126 -55.304 -25.316  1.00  0.00    -0.287 OA
ATOM     15  O   UNL     1      10.934 -51.543 -21.732  1.00  0.00    -0.289 OA
BRANCH  12  16
ATOM     16  O   UNL     1      12.377 -49.735 -23.112  1.00  0.00    -0.507 OA
ATOM     17  H   UNL     1      12.018 -48.965 -23.581  1.00  0.00     0.293 HD
ENDBRANCH  12  16
ENDBRANCH   2   4
ENDBRANCH   1   2
BRANCH   1  18
ATOM     18  C   UNL     1      11.357 -58.342 -22.324  1.00  0.00     0.042 C 
BRANCH  18  19
ATOM     19  C   UNL     1      12.046 -58.435 -23.689  1.00  0.00     0.114 C 
BRANCH  19  20
ATOM     20  N   UNL     1      12.440 -59.822 -23.960  1.00  0.00    -0.384 N 
ATOM     21  H   UNL     1      12.548 -60.322 -23.072  1.00  0.00     0.160 HD
BRANCH  20  22
ATOM     22  C   UNL     1      11.504 -60.490 -24.795  1.00  0.00     0.049 A 
ATOM     23  C   UNL     1      11.406 -60.108 -26.140  1.00  0.00    -0.003 A 
ATOM     24  C   UNL     1      10.603 -61.467 -24.286  1.00  0.00     0.024 A 
ATOM     25  C   UNL     1      10.423 -60.707 -26.926  1.00  0.00     0.046 A 
ATOM     26  C   UNL     1      12.284 -59.072 -26.792  1.00  0.00     0.039 C 
ATOM     27  C   UNL     1      10.591 -61.921 -22.943  1.00  0.00     0.014 A 
ATOM     28  C   UNL     1       9.654 -62.012 -25.184  1.00  0.00     0.074 A 
ATOM     29  N   UNL     1       9.561 -61.639 -26.466  1.00  0.00    -0.252 NA
ATOM     30  C   UNL     1      10.286 -60.268 -28.359  1.00  0.00     0.056 C 
ATOM     31  C   UNL     1      12.739 -59.517 -28.187  1.00  0.00     0.005 C 
ATOM     32  C   UNL     1       9.683 -62.885 -22.508  1.00  0.00     0.021 A 
ATOM     33  C   UNL     1       8.761 -62.972 -24.733  1.00  0.00     0.049 A 
ATOM     34  C   UNL     1      11.654 -60.195 -29.034  1.00  0.00     0.007 C 
ATOM     35  C   UNL     1       8.771 -63.409 -23.412  1.00  0.00     0.043 A 
ATOM     36  Cl  UNL     1       7.643 -64.601 -22.894  1.00  0.00    -0.084 Cl
ENDBRANCH  20  22
ENDBRANCH  19  20
ENDBRANCH  18  19
ENDBRANCH   1  18
TORSDOF 7
ENDMDL
MODEL 4
REMARK VINA RESULT:   -11.139      3.501      9.283
REMARK INTER + INTRA:         -16.235
REMARK INTER:                 -15.645
REMARK INTRA:                  -0.590
REMARK UNBOUND:                -0.864
REMARK SMILES O=C1C(NCCCNc2c3c(nc4cc(Cl)ccc24)CCCC3)=CC(=O)c2c(O)cccc21
REMARK SMILES IDX 5 1 4 2 3 4 2 5 33 6 24 7 32 8 27 9 25 10 31 11 28 12 30 13
REMARK SMILES IDX 1 14 26 15 29 16 6 18 7 19 8 20 9 22 10 23 19 24 11 25 23 26
REMARK SMILES IDX 18 27 13 28 12 29 20 30 22 31 17 32 14 33 21 34 15 35 16 36
REMARK H PARENT 4 3 29 17 8 21
ROOT
ATOM      1  C   UNL     1      12.394 -57.945 -26.543  1.00  0.00     0.115 C 
ENDROOT
BRANCH   1   2
ATOM      2  N   UNL     1      12.518 -59.319 -26.067  1.00  0.00    -0.382 N 
ATOM      3  H   UNL     1      13.200 -59.418 -25.301  1.00  0.00     0.160 HD
BRANCH   2   4
ATOM      4  C   UNL     1      11.448 -60.182 -25.838  1.00  0.00     0.087 C 
ATOM      5  C   UNL     1      11.409 -60.808 -24.473  1.00  0.00     0.209 C 
ATOM      6  C   UNL     1      10.358 -61.796 -24.171  1.00  0.00     0.039 A 
ATOM      7  C   UNL     1      10.487 -60.497 -26.713  1.00  0.00     0.082 C 
ATOM      8  C   UNL     1      10.370 -62.414 -22.910  1.00  0.00     0.013 A 
ATOM      9  C   UNL     1       9.371 -62.113 -25.107  1.00  0.00     0.075 A 
ATOM     10  C   UNL     1       9.386 -61.438 -26.427  1.00  0.00     0.192 C 
ATOM     11  C   UNL     1       9.398 -63.355 -22.580  1.00  0.00     0.005 A 
ATOM     12  C   UNL     1       8.397 -63.065 -24.763  1.00  0.00     0.127 A 
ATOM     13  C   UNL     1       8.410 -63.681 -23.507  1.00  0.00     0.047 A 
ATOM     14  O   UNL     1      12.241 -60.484 -23.629  1.00  0.00    -0.287 OA
ATOM     15  O   UNL     1       8.546 -61.613 -27.300  1.00  0.00    -0.289 OA
BRANCH  12  16
ATOM     16  O   UNL     1       7.416 -63.414 -25.645  1.00  0.00    -0.507 OA
ATOM     17  H   UNL     1       6.577 -62.987 -25.413  1.00  0.00     0.293 HD
ENDBRANCH  12  16
ENDBRANCH   2   4
ENDBRANCH   1   2
BRANCH   1  18
ATOM     18  C   UNL     1      12.496 -56.954 -25.382  1.00  0.00     0.042 C 
BRANCH  18  19
ATOM     19  C   UNL     1      13.048 -55.590 -25.806  1.00  0.00     0.114 C 
BRANCH  19  20
ATOM     20  N   UNL     1      11.964 -54.603 -25.865  1.00  0.00    -0.384 N 
ATOM     21  H   UNL     1      11.063 -55.089 -25.831  1.00  0.00     0.160 HD
BRANCH  20  22
ATOM     22  C   UNL     1      12.054 -53.650 -24.815  1.00  0.00     0.049 A 
ATOM     23  C   UNL     1      11.351 -53.886 -23.625  1.00  0.00    -0.003 A 
ATOM     24  C   UNL     1      12.759 -52.422 -24.970  1.00  0.00     0.024 A 
ATOM     25  C   UNL     1      11.374 -52.901 -22.639  1.00  0.00     0.046 A 
ATOM     26  C   UNL     1      10.550 -55.131 -23.349  1.00  0.00     0.039 C 
ATOM     27  C   UNL     1      13.490 -52.062 -26.130  1.00  0.00     0.014 A 
ATOM     28  C   UNL     1      12.718 -51.505 -23.893  1.00  0.00     0.074 A 
ATOM     29  N   UNL     1      12.039 -51.733 -22.762  1.00  0.00    -0.252 NA
ATOM     30  C   UNL     1      10.584 -53.132 -21.379  1.00  0.00     0.056 C 
ATOM     31  C   UNL     1      10.774 -55.639 -21.920  1.00  0.00     0.005 C 
ATOM     32  C   UNL     1      14.164 -50.844 -26.216  1.00  0.00     0.021 A 
ATOM     33  C   UNL     1      13.396 -50.300 -23.997  1.00  0.00     0.049 A 
ATOM     34  C   UNL     1      10.820 -54.543 -20.845  1.00  0.00     0.007 C 
ATOM     35  C   UNL     1      14.114 -49.969 -25.142  1.00  0.00     0.043 A 
ATOM     36  Cl  UNL     1      14.940 -48.461 -25.230  1.00  0.00    -0.084 Cl
ENDBRANCH  20  22
ENDBRANCH  19  20
ENDBRANCH  18  19
ENDBRANCH   1  18
TORSDOF 7
ENDMDL
MODEL 5
REMARK VINA RESULT:   -11.003      4.372     10.532
REMARK INTER + INTRA:         -16.047
REMARK INTER:                 -15.638
REMARK INTRA:                  -0.409
REMARK UNBOUND:                -0.864
REMARK SMILES O=C1C(NCCCNc2c3c(nc4cc(Cl)ccc24)CCCC3)=CC(=O)c2c(O)cccc21
REMARK SMILES IDX 5 1 4 2 3 4 2 5 33 6 24 7 32 8 27 9 25 10 31 11 28 12 30 13
REMARK SMILES IDX 1 14 26 15 29 16 6 18 7 19 8 20 9 22 10 23 19 24 11 25 23 26
REMARK SMILES IDX 18 27 13 28 12 29 20 30 22 31 17 32 14 33 21 34 15 35 16 36
REMARK H PARENT 4 3 29 17 8 21
ROOT
ATOM      1  C   UNL     1       9.857 -53.926 -21.999  1.00  0.00     0.115 C 
ENDROOT
BRANCH   1   2
ATOM      2  N   UNL     1      10.508 -55.110 -22.548  1.00  0.00    -0.382 N 
ATOM      3  H   UNL     1      11.455 -55.262 -22.167  1.00  0.00     0.160 HD
BRANCH   2   4
ATOM      4  C   UNL     1       9.890 -56.346 -22.733  1.00  0.00     0.087 C 
ATOM      5  C   UNL     1      10.607 -57.519 -22.127  1.00  0.00     0.209 C 
ATOM      6  C   UNL     1      10.067 -58.873 -22.343  1.00  0.00     0.039 A 
ATOM      7  C   UNL     1       8.751 -56.566 -23.395  1.00  0.00     0.082 C 
ATOM      8  C   UNL     1      10.780 -59.964 -21.818  1.00  0.00     0.013 A 
ATOM      9  C   UNL     1       8.878 -59.076 -23.047  1.00  0.00     0.075 A 
ATOM     10  C   UNL     1       8.149 -57.901 -23.584  1.00  0.00     0.192 C 
ATOM     11  C   UNL     1      10.309 -61.262 -21.997  1.00  0.00     0.005 A 
ATOM     12  C   UNL     1       8.415 -60.390 -23.223  1.00  0.00     0.127 A 
ATOM     13  C   UNL     1       9.126 -61.476 -22.700  1.00  0.00     0.047 A 
ATOM     14  O   UNL     1      11.619 -57.336 -21.456  1.00  0.00    -0.287 OA
ATOM     15  O   UNL     1       7.081 -57.966 -24.178  1.00  0.00    -0.289 OA
BRANCH  12  16
ATOM     16  O   UNL     1       7.262 -60.641 -23.910  1.00  0.00    -0.507 OA
ATOM     17  H   UNL     1       6.955 -61.547 -23.748  1.00  0.00     0.293 HD
ENDBRANCH  12  16
ENDBRANCH   2   4
ENDBRANCH   1   2
BRANCH   1  18
ATOM     18  C   UNL     1      10.891 -52.876 -21.587  1.00  0.00     0.042 C 
BRANCH  18  19
ATOM     19  C   UNL     1      10.489 -51.453 -21.983  1.00  0.00     0.114 C 
BRANCH  19  20
ATOM     20  N   UNL     1      11.594 -50.525 -21.718  1.00  0.00    -0.384 N 
ATOM     21  H   UNL     1      12.399 -51.051 -21.365  1.00  0.00     0.160 HD
BRANCH  20  22
ATOM     22  C   UNL     1      11.954 -49.780 -22.873  1.00  0.00     0.049 A 
ATOM     23  C   UNL     1      12.789 -50.376 -23.829  1.00  0.00    -0.003 A 
ATOM     24  C   UNL     1      11.569 -48.419 -23.043  1.00  0.00     0.024 A 
ATOM     25  C   UNL     1      13.207 -49.605 -24.911  1.00  0.00     0.046 A 
ATOM     26  C   UNL     1      13.282 -51.797 -23.752  1.00  0.00     0.039 C 
ATOM     27  C   UNL     1      10.746 -47.703 -22.138  1.00  0.00     0.014 A 
ATOM     28  C   UNL     1      12.049 -47.743 -24.190  1.00  0.00     0.074 A 
ATOM     29  N   UNL     1      12.851 -48.316 -25.095  1.00  0.00    -0.252 NA
ATOM     30  C   UNL     1      14.139 -50.228 -25.916  1.00  0.00     0.056 C 
ATOM     31  C   UNL     1      13.215 -52.491 -25.117  1.00  0.00     0.005 C 
ATOM     32  C   UNL     1      10.402 -46.371 -22.365  1.00  0.00     0.021 A 
ATOM     33  C   UNL     1      11.694 -46.419 -24.399  1.00  0.00     0.049 A 
ATOM     34  C   UNL     1      13.657 -51.624 -26.305  1.00  0.00     0.007 C 
ATOM     35  C   UNL     1      10.879 -45.736 -23.502  1.00  0.00     0.043 A 
ATOM     36  Cl  UNL     1      10.465 -44.092 -23.800  1.00  0.00    -0.084 Cl
ENDBRANCH  20  22
ENDBRANCH  19  20
ENDBRANCH  18  19
ENDBRANCH   1  18
TORSDOF 7
ENDMDL
MODEL 6
REMARK VINA RESULT:   -10.730      4.731     10.887
REMARK INTER + INTRA:         -15.670
REMARK INTER:                 -14.947
REMARK INTRA:                  -0.724
REMARK UNBOUND:                -0.864
REMARK SMILES O=C1C(NCCCNc2c3c(nc4cc(Cl)ccc24)CCCC3)=CC(=O)c2c(O)cccc21
REMARK SMILES IDX 5 1 4 2 3 4 2 5 33 6 24 7 32 8 27 9 25 10 31 11 28 12 30 13
REMARK SMILES IDX 1 14 26 15 29 16 6 18 7 19 8 20 9 22 10 23 19 24 11 25 23 26
REMARK SMILES IDX 18 27 13 28 12 29 20 30 22 31 17 32 14 33 21 34 15 35 16 36
REMARK H PARENT 4 3 29 17 8 21
ROOT
ATOM      1  C   UNL     1       9.770 -52.490 -22.735  1.00  0.00     0.115 C 
ENDROOT
BRANCH   1   2
ATOM      2  N   UNL     1      11.097 -53.080 -22.880  1.00  0.00    -0.382 N 
ATOM      3  H   UNL     1      11.726 -52.852 -22.095  1.00  0.00     0.160 HD
BRANCH   2   4
ATOM      4  C   UNL     1      11.347 -54.386 -23.299  1.00  0.00     0.087 C 
ATOM      5  C   UNL     1      11.043 -55.453 -22.288  1.00  0.00     0.209 C 
ATOM      6  C   UNL     1      11.354 -56.856 -22.616  1.00  0.00     0.039 A 
ATOM      7  C   UNL     1      11.832 -54.752 -24.489  1.00  0.00     0.082 C 
ATOM      8  C   UNL     1      11.116 -57.836 -21.639  1.00  0.00     0.013 A 
ATOM      9  C   UNL     1      11.868 -57.211 -23.865  1.00  0.00     0.075 A 
ATOM     10  C   UNL     1      12.103 -56.151 -24.876  1.00  0.00     0.192 C 
ATOM     11  C   UNL     1      11.395 -59.174 -21.904  1.00  0.00     0.005 A 
ATOM     12  C   UNL     1      12.147 -58.564 -24.120  1.00  0.00     0.127 A 
ATOM     13  C   UNL     1      11.911 -59.539 -23.145  1.00  0.00     0.047 A 
ATOM     14  O   UNL     1      10.534 -55.149 -21.212  1.00  0.00    -0.287 OA
ATOM     15  O   UNL     1      12.511 -56.359 -26.011  1.00  0.00    -0.289 OA
BRANCH  12  16
ATOM     16  O   UNL     1      12.658 -58.960 -25.322  1.00  0.00    -0.507 OA
ATOM     17  H   UNL     1      13.097 -59.821 -25.242  1.00  0.00     0.293 HD
ENDBRANCH  12  16
ENDBRANCH   2   4
ENDBRANCH   1   2
BRANCH   1  18
ATOM     18  C   UNL     1       9.790 -51.343 -21.723  1.00  0.00     0.042 C 
BRANCH  18  19
ATOM     19  C   UNL     1      10.027 -49.977 -22.372  1.00  0.00     0.114 C 
BRANCH  19  20
ATOM     20  N   UNL     1      11.392 -49.516 -22.095  1.00  0.00    -0.384 N 
ATOM     21  H   UNL     1      11.988 -50.326 -21.902  1.00  0.00     0.160 HD
BRANCH  20  22
ATOM     22  C   UNL     1      11.926 -48.751 -23.167  1.00  0.00     0.049 A 
ATOM     23  C   UNL     1      12.842 -49.356 -24.039  1.00  0.00    -0.003 A 
ATOM     24  C   UNL     1      11.629 -47.368 -23.327  1.00  0.00     0.024 A 
ATOM     25  C   UNL     1      13.426 -48.570 -25.030  1.00  0.00     0.046 A 
ATOM     26  C   UNL     1      13.256 -50.802 -23.961  1.00  0.00     0.039 C 
ATOM     27  C   UNL     1      10.735 -46.642 -22.499  1.00  0.00     0.014 A 
ATOM     28  C   UNL     1      12.277 -46.677 -24.379  1.00  0.00     0.074 A 
ATOM     29  N   UNL     1      13.156 -47.259 -25.203  1.00  0.00    -0.252 NA
ATOM     30  C   UNL     1      14.443 -49.205 -25.940  1.00  0.00     0.056 C 
ATOM     31  C   UNL     1      13.324 -51.444 -25.351  1.00  0.00     0.005 C 
ATOM     32  C   UNL     1      10.484 -45.287 -22.712  1.00  0.00     0.021 A 
ATOM     33  C   UNL     1      12.012 -45.331 -24.575  1.00  0.00     0.049 A 
ATOM     34  C   UNL     1      13.948 -50.560 -26.441  1.00  0.00     0.007 C 
ATOM     35  C   UNL     1      11.126 -44.638 -23.756  1.00  0.00     0.043 A 
ATOM     36  Cl  UNL     1      10.829 -42.966 -24.034  1.00  0.00    -0.084 Cl
ENDBRANCH  20  22
ENDBRANCH  19  20
ENDBRANCH  18  19
ENDBRANCH   1  18
TORSDOF 7
ENDMDL
MODEL 7
REMARK VINA RESULT:   -10.334      1.873      2.804
REMARK INTER + INTRA:         -15.124
REMARK INTER:                 -16.422
REMARK INTRA:                   1.298
REMARK UNBOUND:                -0.864
REMARK SMILES O=C1C(NCCCNc2c3c(nc4cc(Cl)ccc24)CCCC3)=CC(=O)c2c(O)cccc21
REMARK SMILES IDX 5 1 4 2 3 4 2 5 33 6 24 7 32 8 27 9 25 10 31 11 28 12 30 13
REMARK SMILES IDX 1 14 26 15 29 16 6 18 7 19 8 20 9 22 10 23 19 24 11 25 23 26
REMARK SMILES IDX 18 27 13 28 12 29 20 30 22 31 17 32 14 33 21 34 15 35 16 36
REMARK H PARENT 4 3 29 17 8 21
ROOT
ATOM      1  C   UNL     1      11.449 -57.352 -23.338  1.00  0.00     0.115 C 
ENDROOT
BRANCH   1   2
ATOM      2  N   UNL     1      10.659 -56.185 -23.713  1.00  0.00    -0.382 N 
ATOM      3  H   UNL     1       9.645 -56.330 -23.591  1.00  0.00     0.160 HD
BRANCH   2   4
ATOM      4  C   UNL     1      10.973 -54.868 -23.379  1.00  0.00     0.087 C 
ATOM      5  C   UNL     1      11.734 -54.105 -24.425  1.00  0.00     0.209 C 
ATOM      6  C   UNL     1      12.178 -52.732 -24.125  1.00  0.00     0.039 A 
ATOM      7  C   UNL     1      10.671 -54.253 -22.232  1.00  0.00     0.082 C 
ATOM      8  C   UNL     1      12.937 -52.053 -25.091  1.00  0.00     0.013 A 
ATOM      9  C   UNL     1      11.856 -52.115 -22.914  1.00  0.00     0.075 A 
ATOM     10  C   UNL     1      11.049 -52.861 -21.917  1.00  0.00     0.192 C 
ATOM     11  C   UNL     1      13.379 -50.754 -24.851  1.00  0.00     0.005 A 
ATOM     12  C   UNL     1      12.309 -50.806 -22.682  1.00  0.00     0.127 A 
ATOM     13  C   UNL     1      13.066 -50.130 -23.646  1.00  0.00     0.047 A 
ATOM     14  O   UNL     1      11.965 -54.626 -25.514  1.00  0.00    -0.287 OA
ATOM     15  O   UNL     1      10.678 -52.398 -20.846  1.00  0.00    -0.289 OA
BRANCH  12  16
ATOM     16  O   UNL     1      12.027 -50.163 -21.513  1.00  0.00    -0.507 OA
ATOM     17  H   UNL     1      12.202 -49.212 -21.592  1.00  0.00     0.293 HD
ENDBRANCH  12  16
ENDBRANCH   2   4
ENDBRANCH   1   2
BRANCH   1  18
ATOM     18  C   UNL     1      12.166 -57.940 -24.555  1.00  0.00     0.042 C 
BRANCH  18  19
ATOM     19  C   UNL     1      12.212 -59.471 -24.540  1.00  0.00     0.114 C 
BRANCH  19  20
ATOM     20  N   UNL     1      11.507 -60.008 -25.709  1.00  0.00    -0.384 N 
ATOM     21  H   UNL     1      12.189 -60.407 -26.360  1.00  0.00     0.160 HD
BRANCH  20  22
ATOM     22  C   UNL     1      10.537 -60.981 -25.347  1.00  0.00     0.049 A 
ATOM     23  C   UNL     1      10.426 -61.357 -24.001  1.00  0.00    -0.003 A 
ATOM     24  C   UNL     1       9.742 -61.651 -26.320  1.00  0.00     0.024 A 
ATOM     25  C   UNL     1       9.535 -62.377 -23.672  1.00  0.00     0.046 A 
ATOM     26  C   UNL     1      11.226 -60.743 -22.882  1.00  0.00     0.039 C 
ATOM     27  C   UNL     1       9.778 -61.373 -27.710  1.00  0.00     0.014 A 
ATOM     28  C   UNL     1       8.864 -62.663 -25.862  1.00  0.00     0.074 A 
ATOM     29  N   UNL     1       8.768 -63.021 -24.576  1.00  0.00    -0.252 NA
ATOM     30  C   UNL     1       9.445 -62.813 -22.234  1.00  0.00     0.056 C 
ATOM     31  C   UNL     1      10.358 -60.482 -21.646  1.00  0.00     0.005 C 
ATOM     32  C   UNL     1       8.968 -62.064 -28.611  1.00  0.00     0.021 A 
ATOM     33  C   UNL     1       8.066 -63.336 -26.774  1.00  0.00     0.049 A 
ATOM     34  C   UNL     1       9.364 -61.602 -21.307  1.00  0.00     0.007 C 
ATOM     35  C   UNL     1       8.111 -63.043 -28.133  1.00  0.00     0.043 A 
ATOM     36  Cl  UNL     1       7.104 -63.905 -29.231  1.00  0.00    -0.084 Cl
ENDBRANCH  20  22
ENDBRANCH  19  20
ENDBRANCH  18  19
ENDBRANCH   1  18
TORSDOF 7
ENDMDL
