MODEL 1
REMARK VINA RESULT:   -10.096      0.000      0.000
REMARK INTER + INTRA:         -11.267
REMARK INTER:                 -10.981
REMARK INTRA:                  -0.286
REMARK UNBOUND:                -0.286
REMARK SMILES O=c1c(O)c(-c2ccc(F)cc2)oc2cc(F)c(I)cc12
REMARK SMILES IDX 1 1 2 2 3 3 5 4 13 5 14 6 15 7 16 8 17 9 18 10 19 11 20 12
REMARK SMILES IDX 21 13 4 14 6 16 7 17 12 18 8 19 11 20 9 21 10 22
REMARK H PARENT 4 15
ROOT
ATOM      1  O   UNL     1      10.748 -51.654 -21.161  1.00  0.00    -0.285 OA
ATOM      2  C   UNL     1      11.038 -52.508 -21.991  1.00  0.00     0.235 A 
ATOM      3  C   UNL     1      10.607 -53.913 -21.791  1.00  0.00     0.208 A 
ATOM      4  C   UNL     1      10.944 -54.830 -22.717  1.00  0.00     0.180 A 
ATOM      5  O   UNL     1      11.686 -54.547 -23.858  1.00  0.00    -0.452 OA
ATOM      6  C   UNL     1      12.091 -53.257 -24.080  1.00  0.00     0.141 A 
ATOM      7  C   UNL     1      12.820 -53.010 -25.242  1.00  0.00     0.088 A 
ATOM      8  C   UNL     1      13.257 -51.716 -25.515  1.00  0.00     0.140 A 
ATOM      9  F   UNL     1      13.958 -51.507 -26.639  1.00  0.00    -0.206 F 
ATOM     10  C   UNL     1      12.974 -50.666 -24.639  1.00  0.00     0.050 A 
ATOM     11  I   UNL     1      13.629 -48.736 -25.047  1.00  0.00    -0.041 I 
ATOM     12  C   UNL     1      12.245 -50.910 -23.475  1.00  0.00     0.034 A 
ATOM     13  C   UNL     1      11.807 -52.211 -23.205  1.00  0.00     0.070 A 
ENDROOT
BRANCH   3  14
ATOM     14  O   UNL     1       9.894 -54.191 -20.641  1.00  0.00    -0.502 OA
ATOM     15  H   UNL     1      10.323 -53.656 -19.939  1.00  0.00     0.293 HD
ENDBRANCH   3  14
BRANCH   4  16
ATOM     16  C   UNL     1      10.576 -56.260 -22.612  1.00  0.00     0.021 A 
ATOM     17  C   UNL     1      11.348 -57.165 -21.865  1.00  0.00     0.015 A 
ATOM     18  C   UNL     1       9.406 -56.726 -23.235  1.00  0.00     0.015 A 
ATOM     19  C   UNL     1      10.969 -58.506 -21.758  1.00  0.00     0.040 A 
ATOM     20  C   UNL     1       9.027 -58.067 -23.128  1.00  0.00     0.040 A 
ATOM     21  C   UNL     1       9.813 -58.944 -22.392  1.00  0.00     0.123 A 
ATOM     22  F   UNL     1       9.449 -60.228 -22.288  1.00  0.00    -0.207 F 
ENDBRANCH   4  16
TORSDOF 2
ENDMDL
MODEL 2
REMARK VINA RESULT:    -9.367      2.089      3.293
REMARK INTER + INTRA:         -10.475
REMARK INTER:                 -10.202
REMARK INTRA:                  -0.273
REMARK UNBOUND:                -0.286
REMARK SMILES O=c1c(O)c(-c2ccc(F)cc2)oc2cc(F)c(I)cc12
REMARK SMILES IDX 1 1 2 2 3 3 5 4 13 5 14 6 15 7 16 8 17 9 18 10 19 11 20 12
REMARK SMILES IDX 21 13 4 14 6 16 7 17 12 18 8 19 11 20 9 21 10 22
REMARK H PARENT 4 15
ROOT
ATOM      1  O   UNL     1      12.781 -54.454 -25.651  1.00  0.00    -0.285 OA
ATOM      2  C   UNL     1      12.157 -54.657 -24.616  1.00  0.00     0.235 A 
ATOM      3  C   UNL     1      11.769 -56.039 -24.243  1.00  0.00     0.208 A 
ATOM      4  C   UNL     1      11.079 -56.233 -23.103  1.00  0.00     0.180 A 
ATOM      5  O   UNL     1      10.691 -55.209 -22.246  1.00  0.00    -0.452 OA
ATOM      6  C   UNL     1      11.042 -53.921 -22.555  1.00  0.00     0.141 A 
ATOM      7  C   UNL     1      10.649 -52.925 -21.663  1.00  0.00     0.088 A 
ATOM      8  C   UNL     1      10.978 -51.598 -21.929  1.00  0.00     0.140 A 
ATOM      9  F   UNL     1      10.587 -50.659 -21.055  1.00  0.00    -0.206 F 
ATOM     10  C   UNL     1      11.696 -51.256 -23.077  1.00  0.00     0.050 A 
ATOM     11  I   UNL     1      12.187 -49.275 -23.473  1.00  0.00    -0.041 I 
ATOM     12  C   UNL     1      12.092 -52.251 -23.971  1.00  0.00     0.034 A 
ATOM     13  C   UNL     1      11.759 -53.583 -23.700  1.00  0.00     0.070 A 
ENDROOT
BRANCH   3  14
ATOM     14  O   UNL     1      12.134 -57.048 -25.115  1.00  0.00    -0.502 OA
ATOM     15  H   UNL     1      12.096 -57.872 -24.582  1.00  0.00     0.293 HD
ENDBRANCH   3  14
BRANCH   4  16
ATOM     16  C   UNL     1      10.634 -57.567 -22.644  1.00  0.00     0.021 A 
ATOM     17  C   UNL     1       9.492 -58.187 -23.179  1.00  0.00     0.015 A 
ATOM     18  C   UNL     1      11.384 -58.257 -21.677  1.00  0.00     0.015 A 
ATOM     19  C   UNL     1       9.103 -59.458 -22.748  1.00  0.00     0.040 A 
ATOM     20  C   UNL     1      10.995 -59.528 -21.246  1.00  0.00     0.040 A 
ATOM     21  C   UNL     1       9.857 -60.116 -21.784  1.00  0.00     0.123 A 
ATOM     22  F   UNL     1       9.486 -61.334 -21.372  1.00  0.00    -0.207 F 
ENDBRANCH   4  16
TORSDOF 2
ENDMDL
MODEL 3
REMARK VINA RESULT:    -9.311      2.441      3.365
REMARK INTER + INTRA:         -10.413
REMARK INTER:                 -10.271
REMARK INTRA:                  -0.142
REMARK UNBOUND:                -0.286
REMARK SMILES O=c1c(O)c(-c2ccc(F)cc2)oc2cc(F)c(I)cc12
REMARK SMILES IDX 1 1 2 2 3 3 5 4 13 5 14 6 15 7 16 8 17 9 18 10 19 11 20 12
REMARK SMILES IDX 21 13 4 14 6 16 7 17 12 18 8 19 11 20 9 21 10 22
REMARK H PARENT 4 15
ROOT
ATOM      1  O   UNL     1       9.060 -49.249 -21.970  1.00  0.00    -0.285 OA
ATOM      2  C   UNL     1      10.041 -49.916 -22.279  1.00  0.00     0.235 A 
ATOM      3  C   UNL     1       9.959 -51.397 -22.281  1.00  0.00     0.208 A 
ATOM      4  C   UNL     1      11.052 -52.105 -22.619  1.00  0.00     0.180 A 
ATOM      5  O   UNL     1      12.273 -51.534 -22.962  1.00  0.00    -0.452 OA
ATOM      6  C   UNL     1      12.381 -50.168 -22.981  1.00  0.00     0.141 A 
ATOM      7  C   UNL     1      13.616 -49.634 -23.344  1.00  0.00     0.088 A 
ATOM      8  C   UNL     1      13.780 -48.251 -23.378  1.00  0.00     0.140 A 
ATOM      9  F   UNL     1      14.979 -47.763 -23.731  1.00  0.00    -0.206 F 
ATOM     10  C   UNL     1      12.725 -47.397 -23.053  1.00  0.00     0.050 A 
ATOM     11  I   UNL     1      12.973 -45.333 -23.104  1.00  0.00    -0.041 I 
ATOM     12  C   UNL     1      11.487 -47.929 -22.689  1.00  0.00     0.034 A 
ATOM     13  C   UNL     1      11.326 -49.319 -22.657  1.00  0.00     0.070 A 
ENDROOT
BRANCH   3  14
ATOM     14  O   UNL     1       8.750 -51.957 -21.912  1.00  0.00    -0.502 OA
ATOM     15  H   UNL     1       8.280 -52.128 -22.756  1.00  0.00     0.293 HD
ENDBRANCH   3  14
BRANCH   4  16
ATOM     16  C   UNL     1      11.083 -53.584 -22.643  1.00  0.00     0.021 A 
ATOM     17  C   UNL     1      11.344 -54.296 -23.826  1.00  0.00     0.015 A 
ATOM     18  C   UNL     1      10.888 -54.305 -21.453  1.00  0.00     0.015 A 
ATOM     19  C   UNL     1      11.393 -55.693 -23.821  1.00  0.00     0.040 A 
ATOM     20  C   UNL     1      10.938 -55.701 -21.448  1.00  0.00     0.040 A 
ATOM     21  C   UNL     1      11.188 -56.382 -22.633  1.00  0.00     0.123 A 
ATOM     22  F   UNL     1      11.236 -57.720 -22.627  1.00  0.00    -0.207 F 
ENDBRANCH   4  16
TORSDOF 2
ENDMDL
MODEL 4
REMARK VINA RESULT:    -8.881      2.884      4.354
REMARK INTER + INTRA:          -9.946
REMARK INTER:                 -10.392
REMARK INTRA:                   0.447
REMARK UNBOUND:                -0.286
REMARK SMILES O=c1c(O)c(-c2ccc(F)cc2)oc2cc(F)c(I)cc12
REMARK SMILES IDX 1 1 2 2 3 3 5 4 13 5 14 6 15 7 16 8 17 9 18 10 19 11 20 12
REMARK SMILES IDX 21 13 4 14 6 16 7 17 12 18 8 19 11 20 9 21 10 22
REMARK H PARENT 4 15
ROOT
ATOM      1  O   UNL     1      12.676 -55.954 -25.869  1.00  0.00    -0.285 OA
ATOM      2  C   UNL     1      12.135 -56.314 -24.830  1.00  0.00     0.235 A 
ATOM      3  C   UNL     1      11.873 -57.754 -24.591  1.00  0.00     0.208 A 
ATOM      4  C   UNL     1      11.273 -58.122 -23.443  1.00  0.00     0.180 A 
ATOM      5  O   UNL     1      10.867 -57.228 -22.458  1.00  0.00    -0.452 OA
ATOM      6  C   UNL     1      11.103 -55.891 -22.641  1.00  0.00     0.141 A 
ATOM      7  C   UNL     1      10.696 -55.029 -21.624  1.00  0.00     0.088 A 
ATOM      8  C   UNL     1      10.911 -53.659 -21.761  1.00  0.00     0.140 A 
ATOM      9  F   UNL     1      10.509 -52.852 -20.768  1.00  0.00    -0.206 F 
ATOM     10  C   UNL     1      11.528 -53.142 -22.901  1.00  0.00     0.050 A 
ATOM     11  I   UNL     1      11.847 -51.098 -23.103  1.00  0.00    -0.041 I 
ATOM     12  C   UNL     1      11.937 -54.003 -23.920  1.00  0.00     0.034 A 
ATOM     13  C   UNL     1      11.719 -55.378 -23.780  1.00  0.00     0.070 A 
ENDROOT
BRANCH   3  14
ATOM     14  O   UNL     1      12.254 -58.633 -25.588  1.00  0.00    -0.502 OA
ATOM     15  H   UNL     1      11.624 -59.383 -25.521  1.00  0.00     0.293 HD
ENDBRANCH   3  14
BRANCH   4  16
ATOM     16  C   UNL     1      10.955 -59.528 -23.110  1.00  0.00     0.021 A 
ATOM     17  C   UNL     1      10.245 -59.866 -21.946  1.00  0.00     0.015 A 
ATOM     18  C   UNL     1      11.333 -60.555 -23.991  1.00  0.00     0.015 A 
ATOM     19  C   UNL     1       9.934 -61.198 -21.662  1.00  0.00     0.040 A 
ATOM     20  C   UNL     1      11.022 -61.888 -23.707  1.00  0.00     0.040 A 
ATOM     21  C   UNL     1      10.327 -62.196 -22.545  1.00  0.00     0.123 A 
ATOM     22  F   UNL     1      10.028 -63.473 -22.275  1.00  0.00    -0.207 F 
ENDBRANCH   4  16
TORSDOF 2
ENDMDL
MODEL 5
REMARK VINA RESULT:    -8.782      2.458      3.606
REMARK INTER + INTRA:          -9.838
REMARK INTER:                  -9.875
REMARK INTRA:                   0.037
REMARK UNBOUND:                -0.286
REMARK SMILES O=c1c(O)c(-c2ccc(F)cc2)oc2cc(F)c(I)cc12
REMARK SMILES IDX 1 1 2 2 3 3 5 4 13 5 14 6 15 7 16 8 17 9 18 10 19 11 20 12
REMARK SMILES IDX 21 13 4 14 6 16 7 17 12 18 8 19 11 20 9 21 10 22
REMARK H PARENT 4 15
ROOT
ATOM      1  O   UNL     1       9.798 -48.192 -22.300  1.00  0.00    -0.285 OA
ATOM      2  C   UNL     1      10.567 -49.044 -22.731  1.00  0.00     0.235 A 
ATOM      3  C   UNL     1      10.358 -50.472 -22.390  1.00  0.00     0.208 A 
ATOM      4  C   UNL     1      11.222 -51.385 -22.873  1.00  0.00     0.180 A 
ATOM      5  O   UNL     1      12.316 -51.074 -23.672  1.00  0.00    -0.452 OA
ATOM      6  C   UNL     1      12.533 -49.765 -24.015  1.00  0.00     0.141 A 
ATOM      7  C   UNL     1      13.632 -49.495 -24.829  1.00  0.00     0.088 A 
ATOM      8  C   UNL     1      13.898 -48.180 -25.206  1.00  0.00     0.140 A 
ATOM      9  F   UNL     1      14.962 -47.949 -25.990  1.00  0.00    -0.206 F 
ATOM     10  C   UNL     1      13.079 -47.134 -24.779  1.00  0.00     0.050 A 
ATOM     11  I   UNL     1      13.479 -45.173 -25.342  1.00  0.00    -0.041 I 
ATOM     12  C   UNL     1      11.979 -47.401 -23.963  1.00  0.00     0.034 A 
ATOM     13  C   UNL     1      11.714 -48.723 -23.587  1.00  0.00     0.070 A 
ENDROOT
BRANCH   3  14
ATOM     14  O   UNL     1       9.284 -50.770 -21.573  1.00  0.00    -0.502 OA
ATOM     15  H   UNL     1       8.790 -49.926 -21.483  1.00  0.00     0.293 HD
ENDBRANCH   3  14
BRANCH   4  16
ATOM     16  C   UNL     1      11.113 -52.833 -22.587  1.00  0.00     0.021 A 
ATOM     17  C   UNL     1      10.843 -53.309 -21.293  1.00  0.00     0.015 A 
ATOM     18  C   UNL     1      11.241 -53.762 -23.634  1.00  0.00     0.015 A 
ATOM     19  C   UNL     1      10.720 -54.679 -21.049  1.00  0.00     0.040 A 
ATOM     20  C   UNL     1      11.118 -55.132 -23.389  1.00  0.00     0.040 A 
ATOM     21  C   UNL     1      10.860 -55.578 -22.099  1.00  0.00     0.123 A 
ATOM     22  F   UNL     1      10.741 -56.891 -21.867  1.00  0.00    -0.207 F 
ENDBRANCH   4  16
TORSDOF 2
ENDMDL
MODEL 6
REMARK VINA RESULT:    -8.346      3.381      4.858
REMARK INTER + INTRA:          -9.364
REMARK INTER:                  -9.562
REMARK INTRA:                   0.198
REMARK UNBOUND:                -0.286
REMARK SMILES O=c1c(O)c(-c2ccc(F)cc2)oc2cc(F)c(I)cc12
REMARK SMILES IDX 1 1 2 2 3 3 5 4 13 5 14 6 15 7 16 8 17 9 18 10 19 11 20 12
REMARK SMILES IDX 21 13 4 14 6 16 7 17 12 18 8 19 11 20 9 21 10 22
REMARK H PARENT 4 15
ROOT
ATOM      1  O   UNL     1      14.117 -49.298 -25.400  1.00  0.00    -0.285 OA
ATOM      2  C   UNL     1      13.224 -49.579 -24.609  1.00  0.00     0.235 A 
ATOM      3  C   UNL     1      12.938 -50.998 -24.289  1.00  0.00     0.208 A 
ATOM      4  C   UNL     1      11.948 -51.279 -23.420  1.00  0.00     0.180 A 
ATOM      5  O   UNL     1      11.158 -50.315 -22.804  1.00  0.00    -0.452 OA
ATOM      6  C   UNL     1      11.402 -48.992 -23.070  1.00  0.00     0.141 A 
ATOM      7  C   UNL     1      10.599 -48.056 -22.421  1.00  0.00     0.088 A 
ATOM      8  C   UNL     1      10.805 -46.698 -22.657  1.00  0.00     0.140 A 
ATOM      9  F   UNL     1      10.018 -45.818 -22.020  1.00  0.00    -0.206 F 
ATOM     10  C   UNL     1      11.802 -46.267 -23.533  1.00  0.00     0.050 A 
ATOM     11  I   UNL     1      12.106 -44.240 -23.884  1.00  0.00    -0.041 I 
ATOM     12  C   UNL     1      12.607 -47.203 -24.184  1.00  0.00     0.034 A 
ATOM     13  C   UNL     1      12.398 -48.565 -23.944  1.00  0.00     0.070 A 
ENDROOT
BRANCH   3  14
ATOM     14  O   UNL     1      13.709 -51.952 -24.927  1.00  0.00    -0.502 OA
ATOM     15  H   UNL     1      14.280 -52.331 -24.224  1.00  0.00     0.293 HD
ENDBRANCH   3  14
BRANCH   4  16
ATOM     16  C   UNL     1      11.572 -52.658 -23.039  1.00  0.00     0.021 A 
ATOM     17  C   UNL     1      11.091 -52.962 -21.755  1.00  0.00     0.015 A 
ATOM     18  C   UNL     1      11.657 -53.691 -23.989  1.00  0.00     0.015 A 
ATOM     19  C   UNL     1      10.719 -54.268 -21.423  1.00  0.00     0.040 A 
ATOM     20  C   UNL     1      11.284 -54.996 -23.657  1.00  0.00     0.040 A 
ATOM     21  C   UNL     1      10.820 -55.272 -22.377  1.00  0.00     0.123 A 
ATOM     22  F   UNL     1      10.462 -56.523 -22.061  1.00  0.00    -0.207 F 
ENDBRANCH   4  16
TORSDOF 2
ENDMDL
MODEL 7
REMARK VINA RESULT:    -8.009      4.005      5.853
REMARK INTER + INTRA:          -8.998
REMARK INTER:                  -8.719
REMARK INTRA:                  -0.279
REMARK UNBOUND:                -0.286
REMARK SMILES O=c1c(O)c(-c2ccc(F)cc2)oc2cc(F)c(I)cc12
REMARK SMILES IDX 1 1 2 2 3 3 5 4 13 5 14 6 15 7 16 8 17 9 18 10 19 11 20 12
REMARK SMILES IDX 21 13 4 14 6 16 7 17 12 18 8 19 11 20 9 21 10 22
REMARK H PARENT 4 15
ROOT
ATOM      1  O   UNL     1      12.928 -58.225 -24.968  1.00  0.00    -0.285 OA
ATOM      2  C   UNL     1      11.862 -58.426 -24.398  1.00  0.00     0.235 A 
ATOM      3  C   UNL     1      11.295 -59.795 -24.346  1.00  0.00     0.208 A 
ATOM      4  C   UNL     1      10.121 -59.986 -23.717  1.00  0.00     0.180 A 
ATOM      5  O   UNL     1       9.388 -58.970 -23.114  1.00  0.00    -0.452 OA
ATOM      6  C   UNL     1       9.887 -57.694 -23.134  1.00  0.00     0.141 A 
ATOM      7  C   UNL     1       9.130 -56.706 -22.506  1.00  0.00     0.088 A 
ATOM      8  C   UNL     1       9.592 -55.391 -22.499  1.00  0.00     0.140 A 
ATOM      9  F   UNL     1       8.844 -54.460 -21.888  1.00  0.00    -0.206 F 
ATOM     10  C   UNL     1      10.799 -55.054 -23.112  1.00  0.00     0.050 A 
ATOM     11  I   UNL     1      11.486 -53.091 -23.101  1.00  0.00    -0.041 I 
ATOM     12  C   UNL     1      11.559 -56.041 -23.741  1.00  0.00     0.034 A 
ATOM     13  C   UNL     1      11.092 -57.360 -23.746  1.00  0.00     0.070 A 
ENDROOT
BRANCH   3  14
ATOM     14  O   UNL     1      12.016 -60.795 -24.972  1.00  0.00    -0.502 OA
ATOM     15  H   UNL     1      12.822 -60.352 -25.315  1.00  0.00     0.293 HD
ENDBRANCH   3  14
BRANCH   4  16
ATOM     16  C   UNL     1       9.462 -61.307 -23.615  1.00  0.00     0.021 A 
ATOM     17  C   UNL     1       9.853 -62.253 -22.653  1.00  0.00     0.015 A 
ATOM     18  C   UNL     1       8.391 -61.619 -24.471  1.00  0.00     0.015 A 
ATOM     19  C   UNL     1       9.201 -63.486 -22.559  1.00  0.00     0.040 A 
ATOM     20  C   UNL     1       7.739 -62.851 -24.375  1.00  0.00     0.040 A 
ATOM     21  C   UNL     1       8.151 -63.773 -23.422  1.00  0.00     0.123 A 
ATOM     22  F   UNL     1       7.525 -64.953 -23.331  1.00  0.00    -0.207 F 
ENDBRANCH   4  16
TORSDOF 2
ENDMDL
MODEL 8
REMARK VINA RESULT:    -7.854      4.313      6.402
REMARK INTER + INTRA:          -8.829
REMARK INTER:                  -8.544
REMARK INTRA:                  -0.284
REMARK UNBOUND:                -0.286
REMARK SMILES O=c1c(O)c(-c2ccc(F)cc2)oc2cc(F)c(I)cc12
REMARK SMILES IDX 1 1 2 2 3 3 5 4 13 5 14 6 15 7 16 8 17 9 18 10 19 11 20 12
REMARK SMILES IDX 21 13 4 14 6 16 7 17 12 18 8 19 11 20 9 21 10 22
REMARK H PARENT 4 15
ROOT
ATOM      1  O   UNL     1      15.315 -47.427 -21.898  1.00  0.00    -0.285 OA
ATOM      2  C   UNL     1      14.329 -47.804 -22.521  1.00  0.00     0.235 A 
ATOM      3  C   UNL     1      14.209 -49.225 -22.928  1.00  0.00     0.208 A 
ATOM      4  C   UNL     1      13.118 -49.611 -23.616  1.00  0.00     0.180 A 
ATOM      5  O   UNL     1      12.088 -48.754 -23.984  1.00  0.00    -0.452 OA
ATOM      6  C   UNL     1      12.161 -47.436 -23.615  1.00  0.00     0.141 A 
ATOM      7  C   UNL     1      11.102 -46.611 -23.990  1.00  0.00     0.088 A 
ATOM      8  C   UNL     1      11.127 -45.263 -23.641  1.00  0.00     0.140 A 
ATOM      9  F   UNL     1      10.095 -44.491 -24.014  1.00  0.00    -0.206 F 
ATOM     10  C   UNL     1      12.199 -44.730 -22.923  1.00  0.00     0.050 A 
ATOM     11  I   UNL     1      12.235 -42.717 -22.404  1.00  0.00    -0.041 I 
ATOM     12  C   UNL     1      13.261 -45.553 -22.546  1.00  0.00     0.034 A 
ATOM     13  C   UNL     1      13.232 -46.907 -22.898  1.00  0.00     0.070 A 
ENDROOT
BRANCH   3  14
ATOM     14  O   UNL     1      15.251 -50.066 -22.583  1.00  0.00    -0.502 OA
ATOM     15  H   UNL     1      14.907 -50.607 -21.840  1.00  0.00     0.293 HD
ENDBRANCH   3  14
BRANCH   4  16
ATOM     16  C   UNL     1      12.903 -51.000 -24.080  1.00  0.00     0.021 A 
ATOM     17  C   UNL     1      12.112 -51.905 -23.353  1.00  0.00     0.015 A 
ATOM     18  C   UNL     1      13.467 -51.423 -25.296  1.00  0.00     0.015 A 
ATOM     19  C   UNL     1      11.902 -53.205 -23.822  1.00  0.00     0.040 A 
ATOM     20  C   UNL     1      13.256 -52.723 -25.765  1.00  0.00     0.040 A 
ATOM     21  C   UNL     1      12.477 -53.601 -25.023  1.00  0.00     0.123 A 
ATOM     22  F   UNL     1      12.275 -54.845 -25.474  1.00  0.00    -0.207 F 
ENDBRANCH   4  16
TORSDOF 2
ENDMDL
MODEL 9
REMARK VINA RESULT:    -7.628      3.644      5.159
REMARK INTER + INTRA:          -8.583
REMARK INTER:                  -8.296
REMARK INTRA:                  -0.287
REMARK UNBOUND:                -0.286
REMARK SMILES O=c1c(O)c(-c2ccc(F)cc2)oc2cc(F)c(I)cc12
REMARK SMILES IDX 1 1 2 2 3 3 5 4 13 5 14 6 15 7 16 8 17 9 18 10 19 11 20 12
REMARK SMILES IDX 21 13 4 14 6 16 7 17 12 18 8 19 11 20 9 21 10 22
REMARK H PARENT 4 15
ROOT
ATOM      1  O   UNL     1      11.760 -58.183 -20.520  1.00  0.00    -0.285 OA
ATOM      2  C   UNL     1      11.029 -58.085 -21.499  1.00  0.00     0.235 A 
ATOM      3  C   UNL     1      10.504 -59.306 -22.157  1.00  0.00     0.208 A 
ATOM      4  C   UNL     1       9.707 -59.169 -23.233  1.00  0.00     0.180 A 
ATOM      5  O   UNL     1       9.347 -57.943 -23.783  1.00  0.00    -0.452 OA
ATOM      6  C   UNL     1       9.806 -56.794 -23.193  1.00  0.00     0.141 A 
ATOM      7  C   UNL     1       9.411 -55.586 -23.764  1.00  0.00     0.088 A 
ATOM      8  C   UNL     1       9.850 -54.388 -23.205  1.00  0.00     0.140 A 
ATOM      9  F   UNL     1       9.456 -53.240 -23.774  1.00  0.00    -0.206 F 
ATOM     10  C   UNL     1      10.680 -54.385 -22.082  1.00  0.00     0.050 A 
ATOM     11  I   UNL     1      11.335 -52.597 -21.249  1.00  0.00    -0.041 I 
ATOM     12  C   UNL     1      11.077 -55.594 -21.508  1.00  0.00     0.034 A 
ATOM     13  C   UNL     1      10.633 -56.794 -22.073  1.00  0.00     0.070 A 
ENDROOT
BRANCH   3  14
ATOM     14  O   UNL     1      10.889 -60.521 -21.622  1.00  0.00    -0.502 OA
ATOM     15  H   UNL     1      10.448 -61.197 -22.179  1.00  0.00     0.293 HD
ENDBRANCH   3  14
BRANCH   4  16
ATOM     16  C   UNL     1       9.139 -60.318 -23.972  1.00  0.00     0.021 A 
ATOM     17  C   UNL     1       9.822 -60.916 -25.044  1.00  0.00     0.015 A 
ATOM     18  C   UNL     1       7.904 -60.860 -23.574  1.00  0.00     0.015 A 
ATOM     19  C   UNL     1       9.278 -62.016 -25.712  1.00  0.00     0.040 A 
ATOM     20  C   UNL     1       7.361 -61.961 -24.242  1.00  0.00     0.040 A 
ATOM     21  C   UNL     1       8.052 -62.527 -25.305  1.00  0.00     0.123 A 
ATOM     22  F   UNL     1       7.532 -63.582 -25.943  1.00  0.00    -0.207 F 
ENDBRANCH   4  16
TORSDOF 2
ENDMDL
