MODEL 1
REMARK VINA RESULT:   -11.467      0.000      0.000
REMARK INTER + INTRA:         -16.279
REMARK INTER:                 -15.490
REMARK INTRA:                  -0.789
REMARK UNBOUND:                -0.789
REMARK SMILES O=C(NCCCN=c1c2c([nH]c3ccccc13)CCCC2)c1ccc(F)cc1
REMARK SMILES IDX 5 1 6 2 7 3 8 4 11 5 10 6 12 7 9 8 18 9 13 10 17 11 21 12
REMARK SMILES IDX 19 13 14 14 16 15 20 16 15 17 4 19 3 20 2 21 1 23 22 24
REMARK SMILES IDX 23 25 28 26 24 27 27 28 25 29 26 30
REMARK H PARENT 11 18 3 22
ROOT
ATOM      1  C   UNL     1      11.346 -58.288 -22.007  1.00  0.00     0.045 C 
ENDROOT
BRANCH   1   2
ATOM      2  C   UNL     1      10.928 -59.757 -21.928  1.00  0.00     0.144 C 
BRANCH   2   3
ATOM      3  N   UNL     1      11.476 -60.438 -23.081  1.00  0.00    -0.284 NA
BRANCH   3   4
ATOM      4  C   UNL     1      10.793 -61.038 -23.989  1.00  0.00     0.072 A 
ATOM      5  N   UNL     1       9.042 -61.669 -26.129  1.00  0.00    -0.358 N 
ATOM      6  C   UNL     1       8.886 -62.300 -24.910  1.00  0.00     0.021 A 
ATOM      7  C   UNL     1      10.222 -60.979 -26.428  1.00  0.00     0.048 A 
ATOM      8  C   UNL     1       9.690 -62.073 -23.846  1.00  0.00    -0.003 A 
ATOM      9  C   UNL     1       7.752 -63.307 -24.857  1.00  0.00     0.054 C 
ATOM     10  C   UNL     1      10.481 -60.542 -27.734  1.00  0.00     0.027 A 
ATOM     11  C   UNL     1      11.118 -60.645 -25.406  1.00  0.00     0.024 A 
ATOM     12  C   UNL     1       9.575 -62.877 -22.578  1.00  0.00     0.039 C 
ATOM     13  C   UNL     1       7.435 -63.828 -23.459  1.00  0.00     0.007 C 
ATOM     14  C   UNL     1      11.641 -59.821 -28.024  1.00  0.00     0.002 A 
ATOM     15  C   UNL     1      12.280 -59.915 -25.699  1.00  0.00     0.012 A 
ATOM     16  C   UNL     1       8.721 -64.138 -22.711  1.00  0.00     0.005 C 
ATOM     17  C   UNL     1      12.543 -59.511 -27.009  1.00  0.00     0.001 A 
ATOM     18  H   UNL     1       8.542 -62.069 -26.915  1.00  0.00     0.166 HD
ENDBRANCH   3   4
ENDBRANCH   2   3
ENDBRANCH   1   2
BRANCH   1  19
ATOM     19  C   UNL     1      10.322 -57.467 -22.783  1.00  0.00     0.118 C 
BRANCH  19  20
ATOM     20  N   UNL     1      10.949 -56.380 -23.509  1.00  0.00    -0.352 N 
ATOM     21  C   UNL     1      10.758 -55.066 -23.136  1.00  0.00     0.251 C 
ATOM     22  H   UNL     1      11.741 -56.613 -24.093  1.00  0.00     0.163 HD
ATOM     23  O   UNL     1      10.002 -54.717 -22.236  1.00  0.00    -0.269 OA
BRANCH  21  24
ATOM     24  C   UNL     1      11.559 -54.047 -23.869  1.00  0.00     0.040 A 
ATOM     25  C   UNL     1      12.182 -54.427 -25.068  1.00  0.00     0.017 A 
ATOM     26  C   UNL     1      11.728 -52.743 -23.382  1.00  0.00     0.017 A 
ATOM     27  C   UNL     1      12.945 -53.504 -25.786  1.00  0.00     0.040 A 
ATOM     28  C   UNL     1      12.494 -51.823 -24.104  1.00  0.00     0.040 A 
ATOM     29  C   UNL     1      13.092 -52.211 -25.299  1.00  0.00     0.123 A 
ATOM     30  F   UNL     1      13.825 -51.326 -25.985  1.00  0.00    -0.207 F 
ENDBRANCH  21  24
ENDBRANCH  19  20
ENDBRANCH   1  19
TORSDOF 6
ENDMDL
MODEL 2
REMARK VINA RESULT:   -11.032      1.862      4.455
REMARK INTER + INTRA:         -15.691
REMARK INTER:                 -14.552
REMARK INTRA:                  -1.140
REMARK UNBOUND:                -0.789
REMARK SMILES O=C(NCCCN=c1c2c([nH]c3ccccc13)CCCC2)c1ccc(F)cc1
REMARK SMILES IDX 5 1 6 2 7 3 8 4 11 5 10 6 12 7 9 8 18 9 13 10 17 11 21 12
REMARK SMILES IDX 19 13 14 14 16 15 20 16 15 17 4 19 3 20 2 21 1 23 22 24
REMARK SMILES IDX 23 25 28 26 24 27 27 28 25 29 26 30
REMARK H PARENT 11 18 3 22
ROOT
ATOM      1  C   UNL     1      12.367 -59.972 -23.027  1.00  0.00     0.045 C 
ENDROOT
BRANCH   1   2
ATOM      2  C   UNL     1      12.452 -60.280 -24.522  1.00  0.00     0.144 C 
BRANCH   2   3
ATOM      3  N   UNL     1      11.244 -59.786 -25.147  1.00  0.00    -0.284 NA
BRANCH   3   4
ATOM      4  C   UNL     1      10.831 -60.095 -26.324  1.00  0.00     0.072 A 
ATOM      5  N   UNL     1      10.194 -61.446 -28.735  1.00  0.00    -0.358 N 
ATOM      6  C   UNL     1      10.964 -60.301 -28.777  1.00  0.00     0.021 A 
ATOM      7  C   UNL     1       9.461 -61.770 -27.586  1.00  0.00     0.048 A 
ATOM      8  C   UNL     1      11.295 -59.585 -27.678  1.00  0.00    -0.003 A 
ATOM      9  C   UNL     1      11.391 -59.874 -30.170  1.00  0.00     0.054 C 
ATOM     10  C   UNL     1       8.504 -62.792 -27.617  1.00  0.00     0.027 A 
ATOM     11  C   UNL     1       9.739 -61.130 -26.373  1.00  0.00     0.024 A 
ATOM     12  C   UNL     1      12.020 -58.269 -27.776  1.00  0.00     0.039 C 
ATOM     13  C   UNL     1      12.424 -58.753 -30.197  1.00  0.00     0.007 C 
ATOM     14  C   UNL     1       7.800 -63.141 -26.461  1.00  0.00     0.002 A 
ATOM     15  C   UNL     1       9.035 -61.486 -25.212  1.00  0.00     0.012 A 
ATOM     16  C   UNL     1      12.060 -57.679 -29.187  1.00  0.00     0.005 C 
ATOM     17  C   UNL     1       8.062 -62.484 -25.260  1.00  0.00     0.001 A 
ATOM     18  H   UNL     1       9.816 -61.774 -29.617  1.00  0.00     0.166 HD
ENDBRANCH   3   4
ENDBRANCH   2   3
ENDBRANCH   1   2
BRANCH   1  19
ATOM     19  C   UNL     1      11.124 -59.150 -22.705  1.00  0.00     0.118 C 
BRANCH  19  20
ATOM     20  N   UNL     1      11.392 -57.727 -22.777  1.00  0.00    -0.352 N 
ATOM     21  C   UNL     1      10.384 -56.821 -23.039  1.00  0.00     0.251 C 
ATOM     22  H   UNL     1      12.248 -57.397 -22.353  1.00  0.00     0.163 HD
ATOM     23  O   UNL     1       9.231 -57.144 -23.300  1.00  0.00    -0.269 OA
BRANCH  21  24
ATOM     24  C   UNL     1      10.752 -55.381 -22.954  1.00  0.00     0.040 A 
ATOM     25  C   UNL     1      10.375 -54.664 -21.808  1.00  0.00     0.017 A 
ATOM     26  C   UNL     1      11.432 -54.725 -23.991  1.00  0.00     0.017 A 
ATOM     27  C   UNL     1      10.696 -53.311 -21.689  1.00  0.00     0.040 A 
ATOM     28  C   UNL     1      11.751 -53.370 -23.867  1.00  0.00     0.040 A 
ATOM     29  C   UNL     1      11.384 -52.677 -22.717  1.00  0.00     0.123 A 
ATOM     30  F   UNL     1      11.690 -51.379 -22.605  1.00  0.00    -0.207 F 
ENDBRANCH  21  24
ENDBRANCH  19  20
ENDBRANCH   1  19
TORSDOF 6
ENDMDL
MODEL 3
REMARK VINA RESULT:   -10.927      1.466      1.808
REMARK INTER + INTRA:         -15.549
REMARK INTER:                 -15.334
REMARK INTRA:                  -0.214
REMARK UNBOUND:                -0.789
REMARK SMILES O=C(NCCCN=c1c2c([nH]c3ccccc13)CCCC2)c1ccc(F)cc1
REMARK SMILES IDX 5 1 6 2 7 3 8 4 11 5 10 6 12 7 9 8 18 9 13 10 17 11 21 12
REMARK SMILES IDX 19 13 14 14 16 15 20 16 15 17 4 19 3 20 2 21 1 23 22 24
REMARK SMILES IDX 23 25 28 26 24 27 27 28 25 29 26 30
REMARK H PARENT 11 18 3 22
ROOT
ATOM      1  C   UNL     1      11.370 -57.749 -22.540  1.00  0.00     0.045 C 
ENDROOT
BRANCH   1   2
ATOM      2  C   UNL     1      11.835 -58.337 -23.873  1.00  0.00     0.144 C 
BRANCH   2   3
ATOM      3  N   UNL     1      11.810 -59.779 -23.756  1.00  0.00    -0.284 NA
BRANCH   3   4
ATOM      4  C   UNL     1      11.087 -60.573 -24.462  1.00  0.00     0.072 A 
ATOM      5  N   UNL     1       9.181 -61.686 -26.242  1.00  0.00    -0.358 N 
ATOM      6  C   UNL     1       9.205 -62.097 -24.924  1.00  0.00     0.021 A 
ATOM      7  C   UNL     1      10.263 -60.988 -26.791  1.00  0.00     0.048 A 
ATOM      8  C   UNL     1      10.094 -61.633 -24.015  1.00  0.00    -0.003 A 
ATOM      9  C   UNL     1       8.169 -63.147 -24.567  1.00  0.00     0.054 C 
ATOM     10  C   UNL     1      10.348 -60.777 -28.174  1.00  0.00     0.027 A 
ATOM     11  C   UNL     1      11.230 -60.421 -25.953  1.00  0.00     0.024 A 
ATOM     12  C   UNL     1      10.178 -62.202 -22.624  1.00  0.00     0.039 C 
ATOM     13  C   UNL     1       8.044 -63.428 -23.073  1.00  0.00     0.007 C 
ATOM     14  C   UNL     1      11.408 -60.048 -28.717  1.00  0.00     0.002 A 
ATOM     15  C   UNL     1      12.292 -59.684 -26.501  1.00  0.00     0.012 A 
ATOM     16  C   UNL     1       9.421 -63.518 -22.439  1.00  0.00     0.005 C 
ATOM     17  C   UNL     1      12.383 -59.506 -27.881  1.00  0.00     0.001 A 
ATOM     18  H   UNL     1       8.636 -62.251 -26.885  1.00  0.00     0.166 HD
ENDBRANCH   3   4
ENDBRANCH   2   3
ENDBRANCH   1   2
BRANCH   1  19
ATOM     19  C   UNL     1      10.214 -56.775 -22.742  1.00  0.00     0.118 C 
BRANCH  19  20
ATOM     20  N   UNL     1      10.610 -55.411 -22.450  1.00  0.00    -0.352 N 
ATOM     21  C   UNL     1      11.071 -54.572 -23.444  1.00  0.00     0.251 C 
ATOM     22  H   UNL     1      10.273 -55.008 -21.587  1.00  0.00     0.163 HD
ATOM     23  O   UNL     1      11.252 -54.926 -24.603  1.00  0.00    -0.269 OA
BRANCH  21  24
ATOM     24  C   UNL     1      11.318 -53.157 -23.052  1.00  0.00     0.040 A 
ATOM     25  C   UNL     1      12.178 -52.386 -23.848  1.00  0.00     0.017 A 
ATOM     26  C   UNL     1      10.741 -52.592 -21.905  1.00  0.00     0.017 A 
ATOM     27  C   UNL     1      12.440 -51.056 -23.516  1.00  0.00     0.040 A 
ATOM     28  C   UNL     1      11.006 -51.260 -21.575  1.00  0.00     0.040 A 
ATOM     29  C   UNL     1      11.850 -50.504 -22.385  1.00  0.00     0.123 A 
ATOM     30  F   UNL     1      12.101 -49.229 -22.063  1.00  0.00    -0.207 F 
ENDBRANCH  21  24
ENDBRANCH  19  20
ENDBRANCH   1  19
TORSDOF 6
ENDMDL
MODEL 4
REMARK VINA RESULT:   -10.714      4.279     10.642
REMARK INTER + INTRA:         -15.261
REMARK INTER:                 -14.754
REMARK INTRA:                  -0.507
REMARK UNBOUND:                -0.789
REMARK SMILES O=C(NCCCN=c1c2c([nH]c3ccccc13)CCCC2)c1ccc(F)cc1
REMARK SMILES IDX 5 1 6 2 7 3 8 4 11 5 10 6 12 7 9 8 18 9 13 10 17 11 21 12
REMARK SMILES IDX 19 13 14 14 16 15 20 16 15 17 4 19 3 20 2 21 1 23 22 24
REMARK SMILES IDX 23 25 28 26 24 27 27 28 25 29 26 30
REMARK H PARENT 11 18 3 22
ROOT
ATOM      1  C   UNL     1      10.614 -52.286 -21.632  1.00  0.00     0.045 C 
ENDROOT
BRANCH   1   2
ATOM      2  C   UNL     1      10.460 -50.770 -21.768  1.00  0.00     0.144 C 
BRANCH   2   3
ATOM      3  N   UNL     1      11.760 -50.218 -22.083  1.00  0.00    -0.284 NA
BRANCH   3   4
ATOM      4  C   UNL     1      12.067 -49.600 -23.167  1.00  0.00     0.072 A 
ATOM      5  N   UNL     1      13.433 -48.444 -25.368  1.00  0.00    -0.358 N 
ATOM      6  C   UNL     1      12.634 -47.652 -24.567  1.00  0.00     0.021 A 
ATOM      7  C   UNL     1      13.330 -49.840 -25.317  1.00  0.00     0.048 A 
ATOM      8  C   UNL     1      11.932 -48.126 -23.512  1.00  0.00    -0.003 A 
ATOM      9  C   UNL     1      12.571 -46.193 -24.980  1.00  0.00     0.054 C 
ATOM     10  C   UNL     1      13.960 -50.636 -26.283  1.00  0.00     0.027 A 
ATOM     11  C   UNL     1      12.665 -50.457 -24.251  1.00  0.00     0.024 A 
ATOM     12  C   UNL     1      10.968 -47.261 -22.745  1.00  0.00     0.039 C 
ATOM     13  C   UNL     1      11.883 -45.280 -23.970  1.00  0.00     0.007 C 
ATOM     14  C   UNL     1      13.888 -52.029 -26.211  1.00  0.00     0.002 A 
ATOM     15  C   UNL     1      12.600 -51.857 -24.178  1.00  0.00     0.012 A 
ATOM     16  C   UNL     1      10.623 -45.942 -23.439  1.00  0.00     0.005 C 
ATOM     17  C   UNL     1      13.204 -52.639 -25.162  1.00  0.00     0.001 A 
ATOM     18  H   UNL     1      13.729 -48.046 -26.252  1.00  0.00     0.166 HD
ENDBRANCH   3   4
ENDBRANCH   2   3
ENDBRANCH   1   2
BRANCH   1  19
ATOM     19  C   UNL     1       9.516 -53.020 -22.395  1.00  0.00     0.118 C 
BRANCH  19  20
ATOM     20  N   UNL     1       9.566 -54.449 -22.157  1.00  0.00    -0.352 N 
ATOM     21  C   UNL     1      10.171 -55.303 -23.056  1.00  0.00     0.251 C 
ATOM     22  H   UNL     1       9.415 -54.764 -21.208  1.00  0.00     0.163 HD
ATOM     23  O   UNL     1      10.631 -54.942 -24.133  1.00  0.00    -0.269 OA
BRANCH  21  24
ATOM     24  C   UNL     1      10.282 -56.729 -22.642  1.00  0.00     0.040 A 
ATOM     25  C   UNL     1      11.281 -57.079 -21.721  1.00  0.00     0.017 A 
ATOM     26  C   UNL     1       9.440 -57.723 -23.164  1.00  0.00     0.017 A 
ATOM     27  C   UNL     1      11.422 -58.405 -21.308  1.00  0.00     0.040 A 
ATOM     28  C   UNL     1       9.585 -59.049 -22.748  1.00  0.00     0.040 A 
ATOM     29  C   UNL     1      10.572 -59.376 -21.822  1.00  0.00     0.123 A 
ATOM     30  F   UNL     1      10.707 -60.649 -21.429  1.00  0.00    -0.207 F 
ENDBRANCH  21  24
ENDBRANCH  19  20
ENDBRANCH   1  19
TORSDOF 6
ENDMDL
MODEL 5
REMARK VINA RESULT:   -10.558      3.891      7.352
REMARK INTER + INTRA:         -15.051
REMARK INTER:                 -13.101
REMARK INTRA:                  -1.949
REMARK UNBOUND:                -0.789
REMARK SMILES O=C(NCCCN=c1c2c([nH]c3ccccc13)CCCC2)c1ccc(F)cc1
REMARK SMILES IDX 5 1 6 2 7 3 8 4 11 5 10 6 12 7 9 8 18 9 13 10 17 11 21 12
REMARK SMILES IDX 19 13 14 14 16 15 20 16 15 17 4 19 3 20 2 21 1 23 22 24
REMARK SMILES IDX 23 25 28 26 24 27 27 28 25 29 26 30
REMARK H PARENT 11 18 3 22
ROOT
ATOM      1  C   UNL     1      12.908 -59.693 -24.738  1.00  0.00     0.045 C 
ENDROOT
BRANCH   1   2
ATOM      2  C   UNL     1      12.505 -61.083 -24.241  1.00  0.00     0.144 C 
BRANCH   2   3
ATOM      3  N   UNL     1      11.707 -60.914 -23.047  1.00  0.00    -0.284 NA
BRANCH   3   4
ATOM      4  C   UNL     1      10.600 -60.265 -22.973  1.00  0.00     0.072 A 
ATOM      5  N   UNL     1       8.063 -59.111 -23.497  1.00  0.00    -0.358 N 
ATOM      6  C   UNL     1       9.125 -58.298 -23.151  1.00  0.00     0.021 A 
ATOM      7  C   UNL     1       8.124 -60.493 -23.284  1.00  0.00     0.048 A 
ATOM      8  C   UNL     1      10.361 -58.768 -22.864  1.00  0.00    -0.003 A 
ATOM      9  C   UNL     1       8.795 -56.818 -23.079  1.00  0.00     0.054 C 
ATOM     10  C   UNL     1       6.976 -61.285 -23.411  1.00  0.00     0.027 A 
ATOM     11  C   UNL     1       9.354 -61.108 -23.021  1.00  0.00     0.024 A 
ATOM     12  C   UNL     1      11.456 -57.868 -22.359  1.00  0.00     0.039 C 
ATOM     13  C   UNL     1      10.008 -55.907 -22.926  1.00  0.00     0.007 C 
ATOM     14  C   UNL     1       7.046 -62.669 -23.235  1.00  0.00     0.002 A 
ATOM     15  C   UNL     1       9.422 -62.500 -22.850  1.00  0.00     0.012 A 
ATOM     16  C   UNL     1      10.974 -56.488 -21.907  1.00  0.00     0.005 C 
ATOM     17  C   UNL     1       8.267 -63.276 -22.949  1.00  0.00     0.001 A 
ATOM     18  H   UNL     1       7.140 -58.691 -23.469  1.00  0.00     0.166 HD
ENDBRANCH   3   4
ENDBRANCH   2   3
ENDBRANCH   1   2
BRANCH   1  19
ATOM     19  C   UNL     1      12.277 -59.390 -26.093  1.00  0.00     0.118 C 
BRANCH  19  20
ATOM     20  N   UNL     1      11.450 -60.488 -26.554  1.00  0.00    -0.352 N 
ATOM     21  C   UNL     1      10.081 -60.356 -26.664  1.00  0.00     0.251 C 
ATOM     22  H   UNL     1      11.912 -61.233 -27.058  1.00  0.00     0.163 HD
ATOM     23  O   UNL     1       9.465 -59.354 -26.317  1.00  0.00    -0.269 OA
BRANCH  21  24
ATOM     24  C   UNL     1       9.353 -61.502 -27.275  1.00  0.00     0.040 A 
ATOM     25  C   UNL     1       9.467 -61.700 -28.659  1.00  0.00     0.017 A 
ATOM     26  C   UNL     1       8.544 -62.359 -26.515  1.00  0.00     0.017 A 
ATOM     27  C   UNL     1       8.799 -62.760 -29.274  1.00  0.00     0.040 A 
ATOM     28  C   UNL     1       7.876 -63.419 -27.135  1.00  0.00     0.040 A 
ATOM     29  C   UNL     1       8.013 -63.611 -28.506  1.00  0.00     0.123 A 
ATOM     30  F   UNL     1       7.369 -64.627 -29.095  1.00  0.00    -0.207 F 
ENDBRANCH  21  24
ENDBRANCH  19  20
ENDBRANCH   1  19
TORSDOF 6
ENDMDL
MODEL 6
REMARK VINA RESULT:   -10.091      3.512      9.379
REMARK INTER + INTRA:         -14.420
REMARK INTER:                 -13.895
REMARK INTRA:                  -0.525
REMARK UNBOUND:                -0.789
REMARK SMILES O=C(NCCCN=c1c2c([nH]c3ccccc13)CCCC2)c1ccc(F)cc1
REMARK SMILES IDX 5 1 6 2 7 3 8 4 11 5 10 6 12 7 9 8 18 9 13 10 17 11 21 12
REMARK SMILES IDX 19 13 14 14 16 15 20 16 15 17 4 19 3 20 2 21 1 23 22 24
REMARK SMILES IDX 23 25 28 26 24 27 27 28 25 29 26 30
REMARK H PARENT 11 18 3 22
ROOT
ATOM      1  C   UNL     1      10.893 -55.460 -21.791  1.00  0.00     0.045 C 
ENDROOT
BRANCH   1   2
ATOM      2  C   UNL     1      10.668 -53.964 -21.566  1.00  0.00     0.144 C 
BRANCH   2   3
ATOM      3  N   UNL     1      10.571 -53.330 -22.863  1.00  0.00    -0.284 NA
BRANCH   3   4
ATOM      4  C   UNL     1      11.433 -52.520 -23.365  1.00  0.00     0.072 A 
ATOM      5  N   UNL     1      13.818 -51.201 -24.149  1.00  0.00    -0.358 N 
ATOM      6  C   UNL     1      12.853 -50.506 -23.448  1.00  0.00     0.021 A 
ATOM      7  C   UNL     1      13.516 -52.426 -24.755  1.00  0.00     0.048 A 
ATOM      8  C   UNL     1      11.679 -51.053 -23.055  1.00  0.00    -0.003 A 
ATOM      9  C   UNL     1      13.191 -49.052 -23.173  1.00  0.00     0.054 C 
ATOM     10  C   UNL     1      14.411 -53.016 -25.656  1.00  0.00     0.027 A 
ATOM     11  C   UNL     1      12.350 -53.115 -24.401  1.00  0.00     0.024 A 
ATOM     12  C   UNL     1      10.595 -50.230 -22.412  1.00  0.00     0.039 C 
ATOM     13  C   UNL     1      12.238 -48.354 -22.207  1.00  0.00     0.007 C 
ATOM     14  C   UNL     1      14.126 -54.256 -26.232  1.00  0.00     0.002 A 
ATOM     15  C   UNL     1      12.068 -54.364 -24.976  1.00  0.00     0.012 A 
ATOM     16  C   UNL     1      10.800 -48.719 -22.534  1.00  0.00     0.005 C 
ATOM     17  C   UNL     1      12.952 -54.928 -25.896  1.00  0.00     0.001 A 
ATOM     18  H   UNL     1      14.548 -50.649 -24.588  1.00  0.00     0.166 HD
ENDBRANCH   3   4
ENDBRANCH   2   3
ENDBRANCH   1   2
BRANCH   1  19
ATOM     19  C   UNL     1      10.075 -55.968 -22.973  1.00  0.00     0.118 C 
BRANCH  19  20
ATOM     20  N   UNL     1       9.890 -57.404 -22.916  1.00  0.00    -0.352 N 
ATOM     21  C   UNL     1      10.926 -58.271 -23.198  1.00  0.00     0.251 C 
ATOM     22  H   UNL     1       9.095 -57.746 -22.395  1.00  0.00     0.163 HD
ATOM     23  O   UNL     1      12.031 -57.906 -23.585  1.00  0.00    -0.269 OA
BRANCH  21  24
ATOM     24  C   UNL     1      10.657 -59.718 -22.975  1.00  0.00     0.040 A 
ATOM     25  C   UNL     1      11.067 -60.631 -23.958  1.00  0.00     0.017 A 
ATOM     26  C   UNL     1       9.987 -60.182 -21.833  1.00  0.00     0.017 A 
ATOM     27  C   UNL     1      10.832 -61.996 -23.791  1.00  0.00     0.040 A 
ATOM     28  C   UNL     1       9.754 -61.550 -21.669  1.00  0.00     0.040 A 
ATOM     29  C   UNL     1      10.181 -62.444 -22.647  1.00  0.00     0.123 A 
ATOM     30  F   UNL     1       9.953 -63.753 -22.486  1.00  0.00    -0.207 F 
ENDBRANCH  21  24
ENDBRANCH  19  20
ENDBRANCH   1  19
TORSDOF 6
ENDMDL
MODEL 7
REMARK VINA RESULT:    -9.542      6.431      9.680
REMARK INTER + INTRA:         -13.677
REMARK INTER:                 -11.988
REMARK INTRA:                  -1.690
REMARK UNBOUND:                -0.789
REMARK SMILES O=C(NCCCN=c1c2c([nH]c3ccccc13)CCCC2)c1ccc(F)cc1
REMARK SMILES IDX 5 1 6 2 7 3 8 4 11 5 10 6 12 7 9 8 18 9 13 10 17 11 21 12
REMARK SMILES IDX 19 13 14 14 16 15 20 16 15 17 4 19 3 20 2 21 1 23 22 24
REMARK SMILES IDX 23 25 28 26 24 27 27 28 25 29 26 30
REMARK H PARENT 11 18 3 22
ROOT
ATOM      1  C   UNL     1      15.947 -52.090 -24.646  1.00  0.00     0.045 C 
ENDROOT
BRANCH   1   2
ATOM      2  C   UNL     1      14.898 -52.864 -25.445  1.00  0.00     0.144 C 
BRANCH   2   3
ATOM      3  N   UNL     1      13.722 -52.029 -25.562  1.00  0.00    -0.284 NA
BRANCH   3   4
ATOM      4  C   UNL     1      12.885 -51.781 -24.619  1.00  0.00     0.072 A 
ATOM      5  N   UNL     1      11.649 -50.986 -22.193  1.00  0.00    -0.358 N 
ATOM      6  C   UNL     1      11.510 -52.287 -22.636  1.00  0.00     0.021 A 
ATOM      7  C   UNL     1      12.104 -49.984 -23.058  1.00  0.00     0.048 A 
ATOM      8  C   UNL     1      12.048 -52.743 -23.791  1.00  0.00    -0.003 A 
ATOM      9  C   UNL     1      10.669 -53.177 -21.739  1.00  0.00     0.054 C 
ATOM     10  C   UNL     1      12.024 -48.635 -22.690  1.00  0.00     0.027 A 
ATOM     11  C   UNL     1      12.720 -50.327 -24.267  1.00  0.00     0.024 A 
ATOM     12  C   UNL     1      11.763 -54.127 -24.308  1.00  0.00     0.039 C 
ATOM     13  C   UNL     1      10.707 -54.657 -22.102  1.00  0.00     0.007 C 
ATOM     14  C   UNL     1      12.512 -47.637 -23.537  1.00  0.00     0.002 A 
ATOM     15  C   UNL     1      13.215 -49.323 -25.114  1.00  0.00     0.012 A 
ATOM     16  C   UNL     1      10.599 -54.830 -23.608  1.00  0.00     0.005 C 
ATOM     17  C   UNL     1      13.103 -47.981 -24.751  1.00  0.00     0.001 A 
ATOM     18  H   UNL     1      11.029 -50.691 -21.447  1.00  0.00     0.166 HD
ENDBRANCH   3   4
ENDBRANCH   2   3
ENDBRANCH   1   2
BRANCH   1  19
ATOM     19  C   UNL     1      16.963 -51.428 -25.570  1.00  0.00     0.118 C 
BRANCH  19  20
ATOM     20  N   UNL     1      16.317 -50.592 -26.562  1.00  0.00    -0.352 N 
ATOM     21  C   UNL     1      16.401 -49.217 -26.504  1.00  0.00     0.251 C 
ATOM     22  H   UNL     1      16.058 -51.030 -27.436  1.00  0.00     0.163 HD
ATOM     23  O   UNL     1      16.948 -48.607 -25.592  1.00  0.00    -0.269 OA
BRANCH  21  24
ATOM     24  C   UNL     1      15.814 -48.469 -27.650  1.00  0.00     0.040 A 
ATOM     25  C   UNL     1      15.488 -47.117 -27.467  1.00  0.00     0.017 A 
ATOM     26  C   UNL     1      15.555 -49.084 -28.885  1.00  0.00     0.017 A 
ATOM     27  C   UNL     1      14.933 -46.380 -28.513  1.00  0.00     0.040 A 
ATOM     28  C   UNL     1      14.997 -48.342 -29.930  1.00  0.00     0.040 A 
ATOM     29  C   UNL     1      14.695 -46.997 -29.735  1.00  0.00     0.123 A 
ATOM     30  F   UNL     1      14.160 -46.292 -30.740  1.00  0.00    -0.207 F 
ENDBRANCH  21  24
ENDBRANCH  19  20
ENDBRANCH   1  19
TORSDOF 6
ENDMDL
MODEL 8
REMARK VINA RESULT:    -9.453      4.415     10.981
REMARK INTER + INTRA:         -13.558
REMARK INTER:                 -12.969
REMARK INTRA:                  -0.589
REMARK UNBOUND:                -0.789
REMARK SMILES O=C(NCCCN=c1c2c([nH]c3ccccc13)CCCC2)c1ccc(F)cc1
REMARK SMILES IDX 5 1 6 2 7 3 8 4 11 5 10 6 12 7 9 8 18 9 13 10 17 11 21 12
REMARK SMILES IDX 19 13 14 14 16 15 20 16 15 17 4 19 3 20 2 21 1 23 22 24
REMARK SMILES IDX 23 25 28 26 24 27 27 28 25 29 26 30
REMARK H PARENT 11 18 3 22
ROOT
ATOM      1  C   UNL     1      11.386 -52.109 -21.505  1.00  0.00     0.045 C 
ENDROOT
BRANCH   1   2
ATOM      2  C   UNL     1      11.143 -50.602 -21.408  1.00  0.00     0.144 C 
BRANCH   2   3
ATOM      3  N   UNL     1      10.926 -50.100 -22.748  1.00  0.00    -0.284 NA
BRANCH   3   4
ATOM      4  C   UNL     1      11.758 -49.392 -23.424  1.00  0.00     0.072 A 
ATOM      5  N   UNL     1      12.981 -47.651 -25.300  1.00  0.00    -0.358 N 
ATOM      6  C   UNL     1      13.441 -48.947 -25.170  1.00  0.00     0.021 A 
ATOM      7  C   UNL     1      12.157 -47.086 -24.320  1.00  0.00     0.048 A 
ATOM      8  C   UNL     1      12.929 -49.834 -24.286  1.00  0.00    -0.003 A 
ATOM      9  C   UNL     1      14.603 -49.302 -26.080  1.00  0.00     0.054 C 
ATOM     10  C   UNL     1      11.881 -45.712 -24.325  1.00  0.00     0.027 A 
ATOM     11  C   UNL     1      11.531 -47.904 -23.372  1.00  0.00     0.024 A 
ATOM     12  C   UNL     1      13.544 -51.192 -24.078  1.00  0.00     0.039 C 
ATOM     13  C   UNL     1      14.956 -50.785 -26.103  1.00  0.00     0.007 C 
ATOM     14  C   UNL     1      11.029 -45.155 -23.369  1.00  0.00     0.002 A 
ATOM     15  C   UNL     1      10.670 -47.343 -22.416  1.00  0.00     0.012 A 
ATOM     16  C   UNL     1      14.935 -51.351 -24.693  1.00  0.00     0.005 C 
ATOM     17  C   UNL     1      10.427 -45.970 -22.412  1.00  0.00     0.001 A 
ATOM     18  H   UNL     1      13.570 -47.009 -25.819  1.00  0.00     0.166 HD
ENDBRANCH   3   4
ENDBRANCH   2   3
ENDBRANCH   1   2
BRANCH   1  19
ATOM     19  C   UNL     1      10.288 -52.792 -22.314  1.00  0.00     0.118 C 
BRANCH  19  20
ATOM     20  N   UNL     1      10.224 -54.213 -22.032  1.00  0.00    -0.352 N 
ATOM     21  C   UNL     1      10.218 -55.144 -23.050  1.00  0.00     0.251 C 
ATOM     22  H   UNL     1      10.475 -54.509 -21.099  1.00  0.00     0.163 HD
ATOM     23  O   UNL     1      10.187 -54.851 -24.240  1.00  0.00    -0.269 OA
BRANCH  21  24
ATOM     24  C   UNL     1      10.288 -56.574 -22.638  1.00  0.00     0.040 A 
ATOM     25  C   UNL     1      11.274 -56.953 -21.716  1.00  0.00     0.017 A 
ATOM     26  C   UNL     1       9.420 -57.542 -23.165  1.00  0.00     0.017 A 
ATOM     27  C   UNL     1      11.378 -58.283 -21.305  1.00  0.00     0.040 A 
ATOM     28  C   UNL     1       9.528 -58.873 -22.751  1.00  0.00     0.040 A 
ATOM     29  C   UNL     1      10.502 -59.230 -21.823  1.00  0.00     0.123 A 
ATOM     30  F   UNL     1      10.601 -60.506 -21.432  1.00  0.00    -0.207 F 
ENDBRANCH  21  24
ENDBRANCH  19  20
ENDBRANCH   1  19
TORSDOF 6
ENDMDL
MODEL 9
REMARK VINA RESULT:    -9.393      2.290      4.368
REMARK INTER + INTRA:         -13.476
REMARK INTER:                 -12.187
REMARK INTRA:                  -1.289
REMARK UNBOUND:                -0.789
REMARK SMILES O=C(NCCCN=c1c2c([nH]c3ccccc13)CCCC2)c1ccc(F)cc1
REMARK SMILES IDX 5 1 6 2 7 3 8 4 11 5 10 6 12 7 9 8 18 9 13 10 17 11 21 12
REMARK SMILES IDX 19 13 14 14 16 15 20 16 15 17 4 19 3 20 2 21 1 23 22 24
REMARK SMILES IDX 23 25 28 26 24 27 27 28 25 29 26 30
REMARK H PARENT 11 18 3 22
ROOT
ATOM      1  C   UNL     1      12.139 -59.100 -27.562  1.00  0.00     0.045 C 
ENDROOT
BRANCH   1   2
ATOM      2  C   UNL     1      10.685 -59.322 -27.141  1.00  0.00     0.144 C 
BRANCH   2   3
ATOM      3  N   UNL     1      10.576 -60.664 -26.610  1.00  0.00    -0.284 NA
BRANCH   3   4
ATOM      4  C   UNL     1      10.091 -60.976 -25.462  1.00  0.00     0.072 A 
ATOM      5  N   UNL     1       8.403 -61.358 -23.215  1.00  0.00    -0.358 N 
ATOM      6  C   UNL     1       9.590 -60.668 -23.068  1.00  0.00     0.021 A 
ATOM      7  C   UNL     1       8.170 -62.141 -24.353  1.00  0.00     0.048 A 
ATOM      8  C   UNL     1      10.462 -60.460 -24.082  1.00  0.00    -0.003 A 
ATOM      9  C   UNL     1       9.870 -60.181 -21.658  1.00  0.00     0.054 C 
ATOM     10  C   UNL     1       7.081 -63.021 -24.402  1.00  0.00     0.027 A 
ATOM     11  C   UNL     1       8.976 -61.988 -25.487  1.00  0.00     0.024 A 
ATOM     12  C   UNL     1      11.807 -59.823 -23.855  1.00  0.00     0.039 C 
ATOM     13  C   UNL     1      11.055 -59.228 -21.543  1.00  0.00     0.007 C 
ATOM     14  C   UNL     1       6.827 -63.773 -25.551  1.00  0.00     0.002 A 
ATOM     15  C   UNL     1       8.716 -62.741 -26.642  1.00  0.00     0.012 A 
ATOM     16  C   UNL     1      12.216 -59.732 -22.383  1.00  0.00     0.005 C 
ATOM     17  C   UNL     1       7.648 -63.637 -26.669  1.00  0.00     0.001 A 
ATOM     18  H   UNL     1       7.938 -61.653 -22.363  1.00  0.00     0.166 HD
ENDBRANCH   3   4
ENDBRANCH   2   3
ENDBRANCH   1   2
BRANCH   1  19
ATOM     19  C   UNL     1      12.529 -57.631 -27.439  1.00  0.00     0.118 C 
BRANCH  19  20
ATOM     20  N   UNL     1      12.140 -57.083 -26.154  1.00  0.00    -0.352 N 
ATOM     21  C   UNL     1      12.528 -55.816 -25.770  1.00  0.00     0.251 C 
ATOM     22  H   UNL     1      11.359 -57.519 -25.684  1.00  0.00     0.163 HD
ATOM     23  O   UNL     1      13.275 -55.103 -26.432  1.00  0.00    -0.269 OA
BRANCH  21  24
ATOM     24  C   UNL     1      11.958 -55.309 -24.492  1.00  0.00     0.040 A 
ATOM     25  C   UNL     1      11.563 -56.243 -23.522  1.00  0.00     0.017 A 
ATOM     26  C   UNL     1      11.782 -53.939 -24.247  1.00  0.00     0.017 A 
ATOM     27  C   UNL     1      11.020 -55.812 -22.311  1.00  0.00     0.040 A 
ATOM     28  C   UNL     1      11.238 -53.511 -23.033  1.00  0.00     0.040 A 
ATOM     29  C   UNL     1      10.866 -54.451 -22.076  1.00  0.00     0.123 A 
ATOM     30  F   UNL     1      10.344 -54.035 -20.916  1.00  0.00    -0.207 F 
ENDBRANCH  21  24
ENDBRANCH  19  20
ENDBRANCH   1  19
TORSDOF 6
ENDMDL
