MODEL 1
REMARK VINA RESULT:    -7.755      0.000      0.000
REMARK INTER + INTRA:         -10.697
REMARK INTER:                 -10.249
REMARK INTRA:                  -0.448
REMARK UNBOUND:                -0.448
REMARK SMILES COc1ccc([C@@H](C)NS(N)(=O)=O)cc1OC
REMARK SMILES IDX 7 1 8 2 6 3 3 4 4 5 15 6 5 7 14 8 2 9 1 10 16 11 17 12 9 13
REMARK SMILES IDX 10 15 12 16 13 17 11 18
REMARK H PARENT 9 14 11 19 11 20
ROOT
ATOM      1  C   UNL     1      10.652 -59.170 -22.827  1.00  0.00     0.098 C 
ATOM      2  C   UNL     1      11.020 -59.072 -21.344  1.00  0.00     0.031 C 
ENDROOT
BRANCH   1   3
ATOM      3  C   UNL     1       9.153 -59.256 -23.073  1.00  0.00    -0.026 A 
ATOM      4  C   UNL     1       6.363 -59.494 -23.440  1.00  0.00     0.160 A 
ATOM      5  C   UNL     1       6.958 -58.236 -23.310  1.00  0.00     0.051 A 
ATOM      6  C   UNL     1       7.165 -60.648 -23.377  1.00  0.00     0.161 A 
ATOM      7  C   UNL     1       8.338 -58.118 -23.123  1.00  0.00     0.009 A 
ATOM      8  C   UNL     1       8.548 -60.520 -23.187  1.00  0.00     0.055 A 
BRANCH   4   9
ATOM      9  O   UNL     1       5.019 -59.702 -23.624  1.00  0.00    -0.493 OA
ATOM     10  C   UNL     1       4.119 -58.975 -22.799  1.00  0.00     0.278 C 
ENDBRANCH   4   9
BRANCH   6  11
ATOM     11  O   UNL     1       6.509 -61.848 -23.498  1.00  0.00    -0.493 OA
ATOM     12  C   UNL     1       7.111 -62.852 -24.302  1.00  0.00     0.278 C 
ENDBRANCH   6  11
ENDBRANCH   1   3
BRANCH   1  13
ATOM     13  N   UNL     1      11.324 -60.344 -23.394  1.00  0.00    -0.195 NA
ATOM     14  H   UNL     1      10.737 -61.149 -23.597  1.00  0.00     0.143 HD
BRANCH  13  15
ATOM     15  S   UNL     1      12.555 -60.117 -24.465  1.00  0.00     0.274 S 
ATOM     16  O   UNL     1      12.115 -60.592 -25.751  1.00  0.00    -0.195 OA
ATOM     17  O   UNL     1      13.815 -60.475 -23.873  1.00  0.00    -0.195 OA
BRANCH  15  18
ATOM     18  N   UNL     1      12.508 -58.456 -24.567  1.00  0.00    -0.216 NA
ATOM     19  H   UNL     1      12.815 -58.173 -25.499  1.00  0.00     0.138 HD
ATOM     20  H   UNL     1      13.138 -58.075 -23.859  1.00  0.00     0.138 HD
ENDBRANCH  15  18
ENDBRANCH  13  15
ENDBRANCH   1  13
TORSDOF 6
ENDMDL
MODEL 2
REMARK VINA RESULT:    -7.374      2.460      3.569
REMARK INTER + INTRA:         -10.193
REMARK INTER:                  -9.718
REMARK INTRA:                  -0.475
REMARK UNBOUND:                -0.448
REMARK SMILES COc1ccc([C@@H](C)NS(N)(=O)=O)cc1OC
REMARK SMILES IDX 7 1 8 2 6 3 3 4 4 5 15 6 5 7 14 8 2 9 1 10 16 11 17 12 9 13
REMARK SMILES IDX 10 15 12 16 13 17 11 18
REMARK H PARENT 9 14 11 19 11 20
ROOT
ATOM      1  C   UNL     1      11.015 -59.649 -23.363  1.00  0.00     0.098 C 
ATOM      2  C   UNL     1      12.371 -60.215 -23.791  1.00  0.00     0.031 C 
ENDROOT
BRANCH   1   3
ATOM      3  C   UNL     1       9.847 -60.565 -23.693  1.00  0.00    -0.026 A 
ATOM      4  C   UNL     1       7.634 -62.182 -24.377  1.00  0.00     0.160 A 
ATOM      5  C   UNL     1       8.936 -62.679 -24.481  1.00  0.00     0.051 A 
ATOM      6  C   UNL     1       7.431 -60.861 -23.937  1.00  0.00     0.161 A 
ATOM      7  C   UNL     1      10.032 -61.877 -24.148  1.00  0.00     0.009 A 
ATOM      8  C   UNL     1       8.536 -60.065 -23.607  1.00  0.00     0.055 A 
BRANCH   4   9
ATOM      9  O   UNL     1       6.503 -62.896 -24.685  1.00  0.00    -0.493 OA
ATOM     10  C   UNL     1       6.657 -64.070 -25.471  1.00  0.00     0.278 C 
ENDBRANCH   4   9
BRANCH   6  11
ATOM     11  O   UNL     1       6.126 -60.439 -23.874  1.00  0.00    -0.493 OA
ATOM     12  C   UNL     1       5.835 -59.308 -23.064  1.00  0.00     0.278 C 
ENDBRANCH   6  11
ENDBRANCH   1   3
BRANCH   1  13
ATOM     13  N   UNL     1      10.832 -58.346 -24.011  1.00  0.00    -0.195 NA
ATOM     14  H   UNL     1      10.105 -58.290 -24.720  1.00  0.00     0.143 HD
BRANCH  13  15
ATOM     15  S   UNL     1      11.008 -56.976 -23.112  1.00  0.00     0.274 S 
ATOM     16  O   UNL     1      11.767 -56.032 -23.889  1.00  0.00    -0.195 OA
ATOM     17  O   UNL     1      11.305 -57.303 -21.744  1.00  0.00    -0.195 OA
BRANCH  15  18
ATOM     18  N   UNL     1       9.436 -56.429 -23.161  1.00  0.00    -0.216 NA
ATOM     19  H   UNL     1       9.439 -55.439 -23.411  1.00  0.00     0.138 HD
ATOM     20  H   UNL     1       9.024 -56.557 -22.236  1.00  0.00     0.138 HD
ENDBRANCH  15  18
ENDBRANCH  13  15
ENDBRANCH   1  13
TORSDOF 6
ENDMDL
MODEL 3
REMARK VINA RESULT:    -7.229      3.948      5.577
REMARK INTER + INTRA:         -10.001
REMARK INTER:                  -9.498
REMARK INTRA:                  -0.503
REMARK UNBOUND:                -0.448
REMARK SMILES COc1ccc([C@@H](C)NS(N)(=O)=O)cc1OC
REMARK SMILES IDX 7 1 8 2 6 3 3 4 4 5 15 6 5 7 14 8 2 9 1 10 16 11 17 12 9 13
REMARK SMILES IDX 10 15 12 16 13 17 11 18
REMARK H PARENT 9 14 11 19 11 20
ROOT
ATOM      1  C   UNL     1      11.568 -58.692 -22.454  1.00  0.00     0.098 C 
ATOM      2  C   UNL     1      10.859 -59.267 -21.225  1.00  0.00     0.031 C 
ENDROOT
BRANCH   1   3
ATOM      3  C   UNL     1      11.418 -57.185 -22.590  1.00  0.00    -0.026 A 
ATOM      4  C   UNL     1      11.067 -54.403 -22.934  1.00  0.00     0.160 A 
ATOM      5  C   UNL     1      10.858 -54.997 -21.687  1.00  0.00     0.051 A 
ATOM      6  C   UNL     1      11.446 -55.206 -24.027  1.00  0.00     0.161 A 
ATOM      7  C   UNL     1      11.026 -56.374 -21.517  1.00  0.00     0.009 A 
ATOM      8  C   UNL     1      11.610 -56.586 -23.847  1.00  0.00     0.055 A 
BRANCH   4   9
ATOM      9  O   UNL     1      10.923 -53.063 -23.192  1.00  0.00    -0.493 OA
ATOM     10  C   UNL     1      10.032 -52.325 -22.367  1.00  0.00     0.278 C 
ENDBRANCH   4   9
BRANCH   6  11
ATOM     11  O   UNL     1      11.619 -54.555 -25.224  1.00  0.00    -0.493 OA
ATOM     12  C   UNL     1      12.831 -54.781 -25.929  1.00  0.00     0.278 C 
ENDBRANCH   6  11
ENDBRANCH   1   3
BRANCH   1  13
ATOM     13  N   UNL     1      11.038 -59.361 -23.648  1.00  0.00    -0.195 NA
ATOM     14  H   UNL     1      10.605 -58.764 -24.348  1.00  0.00     0.143 HD
BRANCH  13  15
ATOM     15  S   UNL     1      11.857 -60.649 -24.270  1.00  0.00     0.274 S 
ATOM     16  O   UNL     1      11.799 -60.558 -25.706  1.00  0.00    -0.195 OA
ATOM     17  O   UNL     1      11.553 -61.846 -23.535  1.00  0.00    -0.195 OA
BRANCH  15  18
ATOM     18  N   UNL     1      13.405 -60.194 -23.860  1.00  0.00    -0.216 NA
ATOM     19  H   UNL     1      14.066 -60.698 -24.453  1.00  0.00     0.138 HD
ATOM     20  H   UNL     1      13.560 -60.435 -22.880  1.00  0.00     0.138 HD
ENDBRANCH  15  18
ENDBRANCH  13  15
ENDBRANCH   1  13
TORSDOF 6
ENDMDL
MODEL 4
REMARK VINA RESULT:    -7.171      3.761      5.562
REMARK INTER + INTRA:          -9.924
REMARK INTER:                  -9.414
REMARK INTRA:                  -0.510
REMARK UNBOUND:                -0.448
REMARK SMILES COc1ccc([C@@H](C)NS(N)(=O)=O)cc1OC
REMARK SMILES IDX 7 1 8 2 6 3 3 4 4 5 15 6 5 7 14 8 2 9 1 10 16 11 17 12 9 13
REMARK SMILES IDX 10 15 12 16 13 17 11 18
REMARK H PARENT 9 14 11 19 11 20
ROOT
ATOM      1  C   UNL     1       8.928 -61.788 -23.558  1.00  0.00     0.098 C 
ATOM      2  C   UNL     1       9.909 -62.415 -22.565  1.00  0.00     0.031 C 
ENDROOT
BRANCH   1   3
ATOM      3  C   UNL     1       9.582 -61.344 -24.856  1.00  0.00    -0.026 A 
ATOM      4  C   UNL     1      10.693 -60.482 -27.307  1.00  0.00     0.160 A 
ATOM      5  C   UNL     1      11.239 -60.061 -26.092  1.00  0.00     0.051 A 
ATOM      6  C   UNL     1       9.573 -61.334 -27.302  1.00  0.00     0.161 A 
ATOM      7  C   UNL     1      10.687 -60.483 -24.879  1.00  0.00     0.009 A 
ATOM      8  C   UNL     1       9.025 -61.750 -26.081  1.00  0.00     0.055 A 
BRANCH   4   9
ATOM      9  O   UNL     1      11.168 -60.116 -28.541  1.00  0.00    -0.493 OA
ATOM     10  C   UNL     1      11.719 -58.813 -28.677  1.00  0.00     0.278 C 
ENDBRANCH   4   9
BRANCH   6  11
ATOM     11  O   UNL     1       9.082 -61.694 -28.533  1.00  0.00    -0.493 OA
ATOM     12  C   UNL     1       8.773 -63.064 -28.747  1.00  0.00     0.278 C 
ENDBRANCH   6  11
ENDBRANCH   1   3
BRANCH   1  13
ATOM     13  N   UNL     1       8.275 -60.647 -22.906  1.00  0.00    -0.195 NA
ATOM     14  H   UNL     1       8.887 -59.957 -22.480  1.00  0.00     0.143 HD
BRANCH  13  15
ATOM     15  S   UNL     1       6.911 -60.016 -23.583  1.00  0.00     0.274 S 
ATOM     16  O   UNL     1       6.112 -61.111 -24.067  1.00  0.00    -0.195 OA
ATOM     17  O   UNL     1       7.224 -58.852 -24.366  1.00  0.00    -0.195 OA
BRANCH  15  18
ATOM     18  N   UNL     1       6.152 -59.493 -22.197  1.00  0.00    -0.216 NA
ATOM     19  H   UNL     1       5.176 -59.793 -22.220  1.00  0.00     0.138 HD
ATOM     20  H   UNL     1       6.205 -58.473 -22.169  1.00  0.00     0.138 HD
ENDBRANCH  15  18
ENDBRANCH  13  15
ENDBRANCH   1  13
TORSDOF 6
ENDMDL
MODEL 5
REMARK VINA RESULT:    -7.119      4.599      5.469
REMARK INTER + INTRA:          -9.855
REMARK INTER:                  -9.522
REMARK INTRA:                  -0.333
REMARK UNBOUND:                -0.448
REMARK SMILES COc1ccc([C@@H](C)NS(N)(=O)=O)cc1OC
REMARK SMILES IDX 7 1 8 2 6 3 3 4 4 5 15 6 5 7 14 8 2 9 1 10 16 11 17 12 9 13
REMARK SMILES IDX 10 15 12 16 13 17 11 18
REMARK H PARENT 9 14 11 19 11 20
ROOT
ATOM      1  C   UNL     1      11.172 -55.402 -22.993  1.00  0.00     0.098 C 
ATOM      2  C   UNL     1      11.745 -55.230 -24.402  1.00  0.00     0.031 C 
ENDROOT
BRANCH   1   3
ATOM      3  C   UNL     1      10.671 -56.809 -22.711  1.00  0.00    -0.026 A 
ATOM      4  C   UNL     1       9.730 -59.441 -22.302  1.00  0.00     0.160 A 
ATOM      5  C   UNL     1      10.918 -59.011 -21.706  1.00  0.00     0.051 A 
ATOM      6  C   UNL     1       9.007 -58.554 -23.121  1.00  0.00     0.161 A 
ATOM      7  C   UNL     1      11.387 -57.710 -21.911  1.00  0.00     0.009 A 
ATOM      8  C   UNL     1       9.486 -57.253 -23.323  1.00  0.00     0.055 A 
BRANCH   4   9
ATOM      9  O   UNL     1       9.199 -60.698 -22.157  1.00  0.00    -0.493 OA
ATOM     10  C   UNL     1      10.051 -61.808 -22.404  1.00  0.00     0.278 C 
ENDBRANCH   4   9
BRANCH   6  11
ATOM     11  O   UNL     1       7.858 -59.052 -23.685  1.00  0.00    -0.493 OA
ATOM     12  C   UNL     1       6.618 -58.652 -23.120  1.00  0.00     0.278 C 
ENDBRANCH   6  11
ENDBRANCH   1   3
BRANCH   1  13
ATOM     13  N   UNL     1      10.083 -54.435 -22.816  1.00  0.00    -0.195 NA
ATOM     14  H   UNL     1       9.155 -54.820 -22.661  1.00  0.00     0.143 HD
BRANCH  13  15
ATOM     15  S   UNL     1      10.383 -53.038 -21.994  1.00  0.00     0.274 S 
ATOM     16  O   UNL     1      11.297 -52.251 -22.780  1.00  0.00    -0.195 OA
ATOM     17  O   UNL     1      10.562 -53.303 -20.592  1.00  0.00    -0.195 OA
BRANCH  15  18
ATOM     18  N   UNL     1       8.899 -52.306 -22.175  1.00  0.00    -0.216 NA
ATOM     19  H   UNL     1       8.894 -51.781 -23.051  1.00  0.00     0.138 HD
ATOM     20  H   UNL     1       8.756 -51.673 -21.386  1.00  0.00     0.138 HD
ENDBRANCH  15  18
ENDBRANCH  13  15
ENDBRANCH   1  13
TORSDOF 6
ENDMDL
MODEL 6
REMARK VINA RESULT:    -6.946      5.295      6.934
REMARK INTER + INTRA:          -9.627
REMARK INTER:                  -9.250
REMARK INTRA:                  -0.376
REMARK UNBOUND:                -0.448
REMARK SMILES COc1ccc([C@@H](C)NS(N)(=O)=O)cc1OC
REMARK SMILES IDX 7 1 8 2 6 3 3 4 4 5 15 6 5 7 14 8 2 9 1 10 16 11 17 12 9 13
REMARK SMILES IDX 10 15 12 16 13 17 11 18
REMARK H PARENT 9 14 11 19 11 20
ROOT
ATOM      1  C   UNL     1      10.845 -57.103 -22.888  1.00  0.00     0.098 C 
ATOM      2  C   UNL     1      11.304 -57.824 -21.618  1.00  0.00     0.031 C 
ENDROOT
BRANCH   1   3
ATOM      3  C   UNL     1      10.993 -55.592 -22.812  1.00  0.00    -0.026 A 
ATOM      4  C   UNL     1      11.222 -52.776 -22.780  1.00  0.00     0.160 A 
ATOM      5  C   UNL     1      10.577 -53.449 -21.738  1.00  0.00     0.051 A 
ATOM      6  C   UNL     1      11.750 -53.514 -23.856  1.00  0.00     0.161 A 
ATOM      7  C   UNL     1      10.459 -54.841 -21.756  1.00  0.00     0.009 A 
ATOM      8  C   UNL     1      11.625 -54.909 -23.866  1.00  0.00     0.055 A 
BRANCH   4   9
ATOM      9  O   UNL     1      11.381 -51.415 -22.845  1.00  0.00    -0.493 OA
ATOM     10  C   UNL     1      10.583 -50.615 -21.983  1.00  0.00     0.278 C 
ENDBRANCH   4   9
BRANCH   6  11
ATOM     11  O   UNL     1      12.357 -52.784 -24.849  1.00  0.00    -0.493 OA
ATOM     12  C   UNL     1      13.351 -53.430 -25.631  1.00  0.00     0.278 C 
ENDBRANCH   6  11
ENDBRANCH   1   3
BRANCH   1  13
ATOM     13  N   UNL     1       9.444 -57.460 -23.142  1.00  0.00    -0.195 NA
ATOM     14  H   UNL     1       8.836 -56.711 -23.462  1.00  0.00     0.143 HD
BRANCH  13  15
ATOM     15  S   UNL     1       9.104 -58.935 -23.794  1.00  0.00     0.274 S 
ATOM     16  O   UNL     1       8.680 -59.802 -22.725  1.00  0.00    -0.195 OA
ATOM     17  O   UNL     1      10.094 -59.300 -24.769  1.00  0.00    -0.195 OA
BRANCH  15  18
ATOM     18  N   UNL     1       7.714 -58.539 -24.620  1.00  0.00    -0.216 NA
ATOM     19  H   UNL     1       7.436 -57.590 -24.365  1.00  0.00     0.138 HD
ATOM     20  H   UNL     1       6.984 -59.202 -24.354  1.00  0.00     0.138 HD
ENDBRANCH  15  18
ENDBRANCH  13  15
ENDBRANCH   1  13
TORSDOF 6
ENDMDL
MODEL 7
REMARK VINA RESULT:    -6.945      4.827      6.161
REMARK INTER + INTRA:          -9.626
REMARK INTER:                  -9.192
REMARK INTRA:                  -0.434
REMARK UNBOUND:                -0.448
REMARK SMILES COc1ccc([C@@H](C)NS(N)(=O)=O)cc1OC
REMARK SMILES IDX 7 1 8 2 6 3 3 4 4 5 15 6 5 7 14 8 2 9 1 10 16 11 17 12 9 13
REMARK SMILES IDX 10 15 12 16 13 17 11 18
REMARK H PARENT 9 14 11 19 11 20
ROOT
ATOM      1  C   UNL     1      11.573 -54.836 -23.553  1.00  0.00     0.098 C 
ATOM      2  C   UNL     1      11.809 -54.554 -25.039  1.00  0.00     0.031 C 
ENDROOT
BRANCH   1   3
ATOM      3  C   UNL     1      11.463 -56.318 -23.228  1.00  0.00    -0.026 A 
ATOM      4  C   UNL     1      11.370 -59.083 -22.658  1.00  0.00     0.160 A 
ATOM      5  C   UNL     1      10.969 -58.146 -21.702  1.00  0.00     0.051 A 
ATOM      6  C   UNL     1      11.832 -58.637 -23.911  1.00  0.00     0.161 A 
ATOM      7  C   UNL     1      11.020 -56.777 -21.981  1.00  0.00     0.009 A 
ATOM      8  C   UNL     1      11.881 -57.263 -24.181  1.00  0.00     0.055 A 
BRANCH   4   9
ATOM      9  O   UNL     1      11.355 -60.442 -22.469  1.00  0.00    -0.493 OA
ATOM     10  C   UNL     1      10.190 -61.016 -21.893  1.00  0.00     0.278 C 
ENDBRANCH   4   9
BRANCH   6  11
ATOM     11  O   UNL     1      12.222 -59.614 -24.794  1.00  0.00    -0.493 OA
ATOM     12  C   UNL     1      11.661 -59.588 -26.098  1.00  0.00     0.278 C 
ENDBRANCH   6  11
ENDBRANCH   1   3
BRANCH   1  13
ATOM     13  N   UNL     1      10.352 -54.137 -23.138  1.00  0.00    -0.195 NA
ATOM     14  H   UNL     1       9.521 -54.709 -23.016  1.00  0.00     0.143 HD
BRANCH  13  15
ATOM     15  S   UNL     1      10.474 -52.884 -22.074  1.00  0.00     0.274 S 
ATOM     16  O   UNL     1      11.370 -51.910 -22.640  1.00  0.00    -0.195 OA
ATOM     17  O   UNL     1      10.577 -53.372 -20.725  1.00  0.00    -0.195 OA
BRANCH  15  18
ATOM     18  N   UNL     1       8.949 -52.241 -22.254  1.00  0.00    -0.216 NA
ATOM     19  H   UNL     1       8.907 -51.347 -21.762  1.00  0.00     0.138 HD
ATOM     20  H   UNL     1       8.277 -52.896 -21.851  1.00  0.00     0.138 HD
ENDBRANCH  15  18
ENDBRANCH  13  15
ENDBRANCH   1  13
TORSDOF 6
ENDMDL
MODEL 8
REMARK VINA RESULT:    -6.901      4.003      5.771
REMARK INTER + INTRA:          -9.567
REMARK INTER:                  -9.220
REMARK INTRA:                  -0.347
REMARK UNBOUND:                -0.448
REMARK SMILES COc1ccc([C@@H](C)NS(N)(=O)=O)cc1OC
REMARK SMILES IDX 7 1 8 2 6 3 3 4 4 5 15 6 5 7 14 8 2 9 1 10 16 11 17 12 9 13
REMARK SMILES IDX 10 15 12 16 13 17 11 18
REMARK H PARENT 9 14 11 19 11 20
ROOT
ATOM      1  C   UNL     1       9.990 -61.501 -23.669  1.00  0.00     0.098 C 
ATOM      2  C   UNL     1      10.307 -60.490 -22.564  1.00  0.00     0.031 C 
ENDROOT
BRANCH   1   3
ATOM      3  C   UNL     1      10.465 -61.061 -25.045  1.00  0.00    -0.026 A 
ATOM      4  C   UNL     1      11.240 -60.204 -27.623  1.00  0.00     0.160 A 
ATOM      5  C   UNL     1      11.979 -59.830 -26.498  1.00  0.00     0.051 A 
ATOM      6  C   UNL     1      10.094 -61.006 -27.462  1.00  0.00     0.161 A 
ATOM      7  C   UNL     1      11.594 -60.249 -25.221  1.00  0.00     0.009 A 
ATOM      8  C   UNL     1       9.715 -61.420 -26.178  1.00  0.00     0.055 A 
BRANCH   4   9
ATOM      9  O   UNL     1      11.543 -59.836 -28.910  1.00  0.00    -0.493 OA
ATOM     10  C   UNL     1      11.919 -58.485 -29.139  1.00  0.00     0.278 C 
ENDBRANCH   4   9
BRANCH   6  11
ATOM     11  O   UNL     1       9.411 -61.321 -28.611  1.00  0.00    -0.493 OA
ATOM     12  C   UNL     1       8.762 -62.583 -28.669  1.00  0.00     0.278 C 
ENDBRANCH   6  11
ENDBRANCH   1   3
BRANCH   1  13
ATOM     13  N   UNL     1       8.541 -61.729 -23.686  1.00  0.00    -0.195 NA
ATOM     14  H   UNL     1       7.990 -61.103 -24.268  1.00  0.00     0.143 HD
BRANCH  13  15
ATOM     15  S   UNL     1       7.976 -63.276 -23.631  1.00  0.00     0.274 S 
ATOM     16  O   UNL     1       8.795 -64.011 -22.702  1.00  0.00    -0.195 OA
ATOM     17  O   UNL     1       7.653 -63.745 -24.951  1.00  0.00    -0.195 OA
BRANCH  15  18
ATOM     18  N   UNL     1       6.541 -63.001 -22.835  1.00  0.00    -0.216 NA
ATOM     19  H   UNL     1       6.742 -62.751 -21.866  1.00  0.00     0.138 HD
ATOM     20  H   UNL     1       5.987 -63.859 -22.869  1.00  0.00     0.138 HD
ENDBRANCH  15  18
ENDBRANCH  13  15
ENDBRANCH   1  13
TORSDOF 6
ENDMDL
MODEL 9
REMARK VINA RESULT:    -6.730      3.229      5.636
REMARK INTER + INTRA:          -9.342
REMARK INTER:                  -8.911
REMARK INTRA:                  -0.431
REMARK UNBOUND:                -0.448
REMARK SMILES COc1ccc([C@@H](C)NS(N)(=O)=O)cc1OC
REMARK SMILES IDX 7 1 8 2 6 3 3 4 4 5 15 6 5 7 14 8 2 9 1 10 16 11 17 12 9 13
REMARK SMILES IDX 10 15 12 16 13 17 11 18
REMARK H PARENT 9 14 11 19 11 20
ROOT
ATOM      1  C   UNL     1       8.681 -61.576 -25.801  1.00  0.00     0.098 C 
ATOM      2  C   UNL     1       9.320 -61.739 -27.183  1.00  0.00     0.031 C 
ENDROOT
BRANCH   1   3
ATOM      3  C   UNL     1       9.423 -60.599 -24.903  1.00  0.00    -0.026 A 
ATOM      4  C   UNL     1      10.872 -58.760 -23.323  1.00  0.00     0.160 A 
ATOM      5  C   UNL     1       9.481 -58.671 -23.421  1.00  0.00     0.051 A 
ATOM      6  C   UNL     1      11.552 -59.771 -24.029  1.00  0.00     0.161 A 
ATOM      7  C   UNL     1       8.764 -59.578 -24.206  1.00  0.00     0.009 A 
ATOM      8  C   UNL     1      10.824 -60.674 -24.815  1.00  0.00     0.055 A 
BRANCH   4   9
ATOM      9  O   UNL     1      11.655 -57.913 -22.579  1.00  0.00    -0.493 OA
ATOM     10  C   UNL     1      11.199 -56.579 -22.401  1.00  0.00     0.278 C 
ENDBRANCH   4   9
BRANCH   6  11
ATOM     11  O   UNL     1      12.918 -59.786 -23.896  1.00  0.00    -0.493 OA
ATOM     12  C   UNL     1      13.643 -60.759 -24.635  1.00  0.00     0.278 C 
ENDBRANCH   6  11
ENDBRANCH   1   3
BRANCH   1  13
ATOM     13  N   UNL     1       8.616 -62.897 -25.164  1.00  0.00    -0.195 NA
ATOM     14  H   UNL     1       9.477 -63.244 -24.751  1.00  0.00     0.143 HD
BRANCH  13  15
ATOM     15  S   UNL     1       7.251 -63.318 -24.342  1.00  0.00     0.274 S 
ATOM     16  O   UNL     1       6.369 -62.180 -24.339  1.00  0.00    -0.195 OA
ATOM     17  O   UNL     1       7.581 -64.072 -23.163  1.00  0.00    -0.195 OA
BRANCH  15  18
ATOM     18  N   UNL     1       6.600 -64.380 -25.446  1.00  0.00    -0.216 NA
ATOM     19  H   UNL     1       5.650 -64.616 -25.157  1.00  0.00     0.138 HD
ATOM     20  H   UNL     1       7.181 -65.220 -25.461  1.00  0.00     0.138 HD
ENDBRANCH  15  18
ENDBRANCH  13  15
ENDBRANCH   1  13
TORSDOF 6
ENDMDL
