MODEL 1
REMARK VINA RESULT:   -12.388      0.000      0.000
REMARK INTER + INTRA:         -17.941
REMARK INTER:                 -17.095
REMARK INTRA:                  -0.845
REMARK UNBOUND:                -0.845
REMARK SMILES O=C(CC[C@H]1CC[N@@H+](Cc2ccc(O)cc2)CC1)c1cc2c3c(ccn3C(=O)CC2)c1
REMARK SMILES IDX 7 1 8 2 17 3 6 4 5 5 18 6 9 8 10 9 11 10 16 11 12 12 15 13
REMARK SMILES IDX 13 14 14 15 4 17 3 18 2 19 1 20 19 21 20 22 31 23 21 24
REMARK SMILES IDX 23 25 22 26 30 27 24 28 26 29 29 30 25 31 27 32 28 33
REMARK H PARENT 8 7 14 16
ROOT
ATOM      1  C   UNL     1      11.990 -59.525 -22.986  1.00  0.00     0.262 C 
ATOM      2  N   UNL     1      10.688 -60.117 -23.461  1.00  0.00    -0.331 N 
ATOM      3  C   UNL     1       9.683 -59.058 -23.847  1.00  0.00     0.262 C 
ATOM      4  C   UNL     1      11.728 -58.631 -21.785  1.00  0.00     0.065 C 
ATOM      5  C   UNL     1      10.716 -57.514 -22.081  1.00  0.00     0.000 C 
ATOM      6  C   UNL     1       9.434 -58.124 -22.667  1.00  0.00     0.065 C 
ATOM      7  H   UNL     1      10.281 -60.640 -22.675  1.00  0.00     0.348 HD
ENDROOT
BRANCH   2   8
ATOM      8  C   UNL     1      10.916 -61.136 -24.561  1.00  0.00     0.299 C 
BRANCH   8   9
ATOM      9  C   UNL     1       9.713 -62.000 -24.827  1.00  0.00     0.006 A 
ATOM     10  C   UNL     1       9.130 -62.042 -26.104  1.00  0.00     0.013 A 
ATOM     11  C   UNL     1       9.147 -62.765 -23.795  1.00  0.00     0.013 A 
ATOM     12  C   UNL     1       7.998 -62.826 -26.343  1.00  0.00     0.046 A 
ATOM     13  C   UNL     1       8.015 -63.544 -24.035  1.00  0.00     0.046 A 
ATOM     14  C   UNL     1       7.449 -63.568 -25.304  1.00  0.00     0.115 A 
BRANCH  14  15
ATOM     15  O   UNL     1       6.345 -64.345 -25.485  1.00  0.00    -0.508 OA
ATOM     16  H   UNL     1       6.421 -64.831 -26.323  1.00  0.00     0.293 HD
ENDBRANCH  14  15
ENDBRANCH   8   9
ENDBRANCH   2   8
BRANCH   5  17
ATOM     17  C   UNL     1      11.332 -56.422 -22.989  1.00  0.00     0.012 C 
BRANCH  17  18
ATOM     18  C   UNL     1      10.349 -55.297 -23.353  1.00  0.00     0.081 C 
BRANCH  18  19
ATOM     19  C   UNL     1      10.507 -54.075 -22.460  1.00  0.00     0.162 C 
ATOM     20  O   UNL     1      10.011 -54.033 -21.335  1.00  0.00    -0.294 OA
BRANCH  19  21
ATOM     21  C   UNL     1      11.280 -52.898 -22.971  1.00  0.00     0.019 A 
ATOM     22  C   UNL     1      12.056 -53.075 -24.132  1.00  0.00     0.017 A 
ATOM     23  C   UNL     1      11.252 -51.652 -22.309  1.00  0.00     0.022 A 
ATOM     24  C   UNL     1      12.797 -52.021 -24.670  1.00  0.00    -0.022 A 
ATOM     25  C   UNL     1      12.012 -50.587 -22.830  1.00  0.00     0.001 A 
ATOM     26  C   UNL     1      12.732 -50.811 -23.989  1.00  0.00     0.059 A 
ATOM     27  C   UNL     1      13.726 -52.111 -25.840  1.00  0.00     0.047 C 
ATOM     28  C   UNL     1      12.279 -49.243 -22.451  1.00  0.00     0.029 A 
ATOM     29  N   UNL     1      13.389 -49.654 -24.350  1.00  0.00    -0.287 N 
ATOM     30  C   UNL     1      13.943 -50.728 -26.482  1.00  0.00     0.106 C 
ATOM     31  C   UNL     1      13.149 -48.705 -23.381  1.00  0.00     0.095 A 
ATOM     32  C   UNL     1      14.149 -49.560 -25.523  1.00  0.00     0.231 C 
ATOM     33  O   UNL     1      14.799 -48.549 -25.746  1.00  0.00    -0.274 OA
ENDBRANCH  19  21
ENDBRANCH  18  19
ENDBRANCH  17  18
ENDBRANCH   5  17
TORSDOF 7
ENDMDL
MODEL 2
REMARK VINA RESULT:   -12.094      0.429      2.018
REMARK INTER + INTRA:         -17.536
REMARK INTER:                 -16.698
REMARK INTRA:                  -0.838
REMARK UNBOUND:                -0.845
REMARK SMILES O=C(CC[C@H]1CC[N@@H+](Cc2ccc(O)cc2)CC1)c1cc2c3c(ccn3C(=O)CC2)c1
REMARK SMILES IDX 7 1 8 2 17 3 6 4 5 5 18 6 9 8 10 9 11 10 16 11 12 12 15 13
REMARK SMILES IDX 13 14 14 15 4 17 3 18 2 19 1 20 19 21 20 22 31 23 21 24
REMARK SMILES IDX 23 25 22 26 30 27 24 28 26 29 29 30 25 31 27 32 28 33
REMARK H PARENT 8 7 14 16
ROOT
ATOM      1  C   UNL     1      11.826 -59.766 -22.870  1.00  0.00     0.262 C 
ATOM      2  N   UNL     1      10.513 -60.305 -23.381  1.00  0.00    -0.331 N 
ATOM      3  C   UNL     1       9.589 -59.209 -23.856  1.00  0.00     0.262 C 
ATOM      4  C   UNL     1      11.562 -58.808 -21.719  1.00  0.00     0.065 C 
ATOM      5  C   UNL     1      10.630 -57.650 -22.106  1.00  0.00     0.000 C 
ATOM      6  C   UNL     1       9.342 -58.213 -22.727  1.00  0.00     0.065 C 
ATOM      7  H   UNL     1      10.043 -60.770 -22.594  1.00  0.00     0.348 HD
ENDROOT
BRANCH   2   8
ATOM      8  C   UNL     1      10.731 -61.380 -24.427  1.00  0.00     0.299 C 
BRANCH   8   9
ATOM      9  C   UNL     1       9.497 -62.195 -24.705  1.00  0.00     0.006 A 
ATOM     10  C   UNL     1       8.884 -62.939 -23.682  1.00  0.00     0.013 A 
ATOM     11  C   UNL     1       8.951 -62.237 -25.998  1.00  0.00     0.013 A 
ATOM     12  C   UNL     1       7.753 -63.715 -23.949  1.00  0.00     0.046 A 
ATOM     13  C   UNL     1       7.824 -63.016 -26.262  1.00  0.00     0.046 A 
ATOM     14  C   UNL     1       7.236 -63.749 -25.238  1.00  0.00     0.115 A 
BRANCH  14  15
ATOM     15  O   UNL     1       6.137 -64.492 -25.549  1.00  0.00    -0.508 OA
ATOM     16  H   UNL     1       5.359 -63.914 -25.615  1.00  0.00     0.293 HD
ENDBRANCH  14  15
ENDBRANCH   8   9
ENDBRANCH   2   8
BRANCH   5  17
ATOM     17  C   UNL     1      11.347 -56.634 -23.028  1.00  0.00     0.012 C 
BRANCH  17  18
ATOM     18  C   UNL     1      10.456 -55.456 -23.456  1.00  0.00     0.081 C 
BRANCH  18  19
ATOM     19  C   UNL     1      10.688 -54.214 -22.607  1.00  0.00     0.162 C 
ATOM     20  O   UNL     1      10.247 -54.127 -21.462  1.00  0.00    -0.294 OA
BRANCH  19  21
ATOM     21  C   UNL     1      11.464 -53.073 -23.188  1.00  0.00     0.019 A 
ATOM     22  C   UNL     1      11.469 -51.854 -22.483  1.00  0.00     0.017 A 
ATOM     23  C   UNL     1      12.157 -53.197 -24.411  1.00  0.00     0.022 A 
ATOM     24  C   UNL     1      12.177 -50.749 -22.961  1.00  0.00    -0.022 A 
ATOM     25  C   UNL     1      12.857 -52.083 -24.914  1.00  0.00     0.001 A 
ATOM     26  C   UNL     1      12.851 -50.922 -24.165  1.00  0.00     0.059 A 
ATOM     27  C   UNL     1      12.183 -49.382 -22.351  1.00  0.00     0.047 C 
ATOM     28  C   UNL     1      13.612 -51.796 -26.084  1.00  0.00     0.029 A 
ATOM     29  N   UNL     1      13.600 -49.959 -24.806  1.00  0.00    -0.287 N 
ATOM     30  C   UNL     1      13.432 -48.590 -22.780  1.00  0.00     0.106 C 
ATOM     31  C   UNL     1      14.029 -50.479 -26.007  1.00  0.00     0.095 A 
ATOM     32  C   UNL     1      13.829 -48.694 -24.249  1.00  0.00     0.231 C 
ATOM     33  O   UNL     1      14.408 -47.838 -24.902  1.00  0.00    -0.274 OA
ENDBRANCH  19  21
ENDBRANCH  18  19
ENDBRANCH  17  18
ENDBRANCH   5  17
TORSDOF 7
ENDMDL
MODEL 3
REMARK VINA RESULT:   -11.260      1.683      2.919
REMARK INTER + INTRA:         -16.384
REMARK INTER:                 -16.326
REMARK INTRA:                  -0.058
REMARK UNBOUND:                -0.845
REMARK SMILES O=C(CC[C@H]1CC[N@@H+](Cc2ccc(O)cc2)CC1)c1cc2c3c(ccn3C(=O)CC2)c1
REMARK SMILES IDX 7 1 8 2 17 3 6 4 5 5 18 6 9 8 10 9 11 10 16 11 12 12 15 13
REMARK SMILES IDX 13 14 14 15 4 17 3 18 2 19 1 20 19 21 20 22 31 23 21 24
REMARK SMILES IDX 23 25 22 26 30 27 24 28 26 29 29 30 25 31 27 32 28 33
REMARK H PARENT 8 7 14 16
ROOT
ATOM      1  C   UNL     1      10.408 -59.923 -23.994  1.00  0.00     0.262 C 
ATOM      2  N   UNL     1       9.282 -60.750 -23.426  1.00  0.00    -0.331 N 
ATOM      3  C   UNL     1       8.875 -60.293 -22.046  1.00  0.00     0.262 C 
ATOM      4  C   UNL     1      11.612 -60.009 -23.069  1.00  0.00     0.065 C 
ATOM      5  C   UNL     1      11.297 -59.560 -21.635  1.00  0.00     0.000 C 
ATOM      6  C   UNL     1      10.079 -60.334 -21.109  1.00  0.00     0.065 C 
ATOM      7  H   UNL     1       9.625 -61.714 -23.331  1.00  0.00     0.348 HD
ENDROOT
BRANCH   2   8
ATOM      8  C   UNL     1       8.113 -60.820 -24.388  1.00  0.00     0.299 C 
BRANCH   8   9
ATOM      9  C   UNL     1       8.456 -61.489 -25.692  1.00  0.00     0.006 A 
ATOM     10  C   UNL     1       9.284 -60.849 -26.629  1.00  0.00     0.013 A 
ATOM     11  C   UNL     1       7.938 -62.759 -25.995  1.00  0.00     0.013 A 
ATOM     12  C   UNL     1       9.581 -61.462 -27.849  1.00  0.00     0.046 A 
ATOM     13  C   UNL     1       8.234 -63.366 -27.216  1.00  0.00     0.046 A 
ATOM     14  C   UNL     1       9.050 -62.715 -28.132  1.00  0.00     0.115 A 
BRANCH  14  15
ATOM     15  O   UNL     1       9.307 -63.352 -29.308  1.00  0.00    -0.508 OA
ATOM     16  H   UNL     1      10.181 -63.774 -29.267  1.00  0.00     0.293 HD
ENDBRANCH  14  15
ENDBRANCH   8   9
ENDBRANCH   2   8
BRANCH   5  17
ATOM     17  C   UNL     1      11.114 -58.025 -21.553  1.00  0.00     0.012 C 
BRANCH  17  18
ATOM     18  C   UNL     1      11.640 -57.275 -22.788  1.00  0.00     0.081 C 
BRANCH  18  19
ATOM     19  C   UNL     1      10.679 -56.194 -23.264  1.00  0.00     0.162 C 
ATOM     20  O   UNL     1       9.485 -56.429 -23.441  1.00  0.00    -0.294 OA
BRANCH  19  21
ATOM     21  C   UNL     1      11.208 -54.819 -23.528  1.00  0.00     0.019 A 
ATOM     22  C   UNL     1      10.842 -53.791 -22.638  1.00  0.00     0.017 A 
ATOM     23  C   UNL     1      12.034 -54.546 -24.639  1.00  0.00     0.022 A 
ATOM     24  C   UNL     1      11.303 -52.485 -22.817  1.00  0.00    -0.022 A 
ATOM     25  C   UNL     1      12.489 -53.228 -24.842  1.00  0.00     0.001 A 
ATOM     26  C   UNL     1      12.121 -52.266 -23.920  1.00  0.00     0.059 A 
ATOM     27  C   UNL     1      10.911 -51.297 -21.996  1.00  0.00     0.047 C 
ATOM     28  C   UNL     1      13.268 -52.557 -25.824  1.00  0.00     0.029 A 
ATOM     29  N   UNL     1      12.674 -51.055 -24.276  1.00  0.00    -0.287 N 
ATOM     30  C   UNL     1      11.966 -50.180 -22.100  1.00  0.00     0.106 C 
ATOM     31  C   UNL     1      13.340 -51.223 -25.470  1.00  0.00     0.095 A 
ATOM     32  C   UNL     1      12.527 -49.904 -23.491  1.00  0.00     0.231 C 
ATOM     33  O   UNL     1      12.944 -48.831 -23.901  1.00  0.00    -0.274 OA
ENDBRANCH  19  21
ENDBRANCH  18  19
ENDBRANCH  17  18
ENDBRANCH   5  17
TORSDOF 7
ENDMDL
MODEL 4
REMARK VINA RESULT:   -10.805      2.088     11.074
REMARK INTER + INTRA:         -15.757
REMARK INTER:                 -15.767
REMARK INTRA:                   0.011
REMARK UNBOUND:                -0.845
REMARK SMILES O=C(CC[C@H]1CC[N@@H+](Cc2ccc(O)cc2)CC1)c1cc2c3c(ccn3C(=O)CC2)c1
REMARK SMILES IDX 7 1 8 2 17 3 6 4 5 5 18 6 9 8 10 9 11 10 16 11 12 12 15 13
REMARK SMILES IDX 13 14 14 15 4 17 3 18 2 19 1 20 19 21 20 22 31 23 21 24
REMARK SMILES IDX 23 25 22 26 30 27 24 28 26 29 29 30 25 31 27 32 28 33
REMARK H PARENT 8 7 14 16
ROOT
ATOM      1  C   UNL     1      12.108 -52.710 -23.025  1.00  0.00     0.262 C 
ATOM      2  N   UNL     1      11.221 -51.507 -22.822  1.00  0.00    -0.331 N 
ATOM      3  C   UNL     1       9.959 -51.847 -22.066  1.00  0.00     0.262 C 
ATOM      4  C   UNL     1      11.344 -53.776 -23.793  1.00  0.00     0.065 C 
ATOM      5  C   UNL     1      10.039 -54.193 -23.098  1.00  0.00     0.000 C 
ATOM      6  C   UNL     1       9.194 -52.945 -22.799  1.00  0.00     0.065 C 
ATOM      7  H   UNL     1      10.931 -51.177 -23.751  1.00  0.00     0.348 HD
ENDROOT
BRANCH   2   8
ATOM      8  C   UNL     1      11.987 -50.359 -22.196  1.00  0.00     0.299 C 
BRANCH   8   9
ATOM      9  C   UNL     1      11.936 -49.096 -23.014  1.00  0.00     0.006 A 
ATOM     10  C   UNL     1      12.936 -48.814 -23.959  1.00  0.00     0.013 A 
ATOM     11  C   UNL     1      10.894 -48.174 -22.829  1.00  0.00     0.013 A 
ATOM     12  C   UNL     1      12.900 -47.629 -24.699  1.00  0.00     0.046 A 
ATOM     13  C   UNL     1      10.863 -46.990 -23.567  1.00  0.00     0.046 A 
ATOM     14  C   UNL     1      11.864 -46.726 -24.493  1.00  0.00     0.115 A 
BRANCH  14  15
ATOM     15  O   UNL     1      11.786 -45.556 -25.187  1.00  0.00    -0.508 OA
ATOM     16  H   UNL     1      10.864 -45.249 -25.207  1.00  0.00     0.293 HD
ENDBRANCH  14  15
ENDBRANCH   8   9
ENDBRANCH   2   8
BRANCH   5  17
ATOM     17  C   UNL     1      10.320 -55.044 -21.836  1.00  0.00     0.012 C 
BRANCH  17  18
ATOM     18  C   UNL     1      11.400 -56.118 -22.046  1.00  0.00     0.081 C 
BRANCH  18  19
ATOM     19  C   UNL     1      11.234 -56.860 -23.365  1.00  0.00     0.162 C 
ATOM     20  O   UNL     1      11.965 -56.630 -24.327  1.00  0.00    -0.294 OA
BRANCH  19  21
ATOM     21  C   UNL     1      10.151 -57.885 -23.489  1.00  0.00     0.019 A 
ATOM     22  C   UNL     1      10.499 -59.152 -23.996  1.00  0.00     0.017 A 
ATOM     23  C   UNL     1       8.817 -57.598 -23.130  1.00  0.00     0.022 A 
ATOM     24  C   UNL     1       9.543 -60.160 -24.132  1.00  0.00    -0.022 A 
ATOM     25  C   UNL     1       7.839 -58.600 -23.284  1.00  0.00     0.001 A 
ATOM     26  C   UNL     1       8.244 -59.834 -23.758  1.00  0.00     0.059 A 
ATOM     27  C   UNL     1       9.772 -61.509 -24.740  1.00  0.00     0.047 C 
ATOM     28  C   UNL     1       6.434 -58.693 -23.087  1.00  0.00     0.029 A 
ATOM     29  N   UNL     1       7.158 -60.680 -23.820  1.00  0.00    -0.287 N 
ATOM     30  C   UNL     1       8.716 -62.520 -24.258  1.00  0.00     0.106 C 
ATOM     31  C   UNL     1       6.038 -59.967 -23.453  1.00  0.00     0.095 A 
ATOM     32  C   UNL     1       7.275 -62.022 -24.204  1.00  0.00     0.231 C 
ATOM     33  O   UNL     1       6.270 -62.703 -24.346  1.00  0.00    -0.274 OA
ENDBRANCH  19  21
ENDBRANCH  18  19
ENDBRANCH  17  18
ENDBRANCH   5  17
TORSDOF 7
ENDMDL
MODEL 5
REMARK VINA RESULT:   -10.772      2.417     11.119
REMARK INTER + INTRA:         -15.710
REMARK INTER:                 -15.320
REMARK INTRA:                  -0.390
REMARK UNBOUND:                -0.845
REMARK SMILES O=C(CC[C@H]1CC[N@@H+](Cc2ccc(O)cc2)CC1)c1cc2c3c(ccn3C(=O)CC2)c1
REMARK SMILES IDX 7 1 8 2 17 3 6 4 5 5 18 6 9 8 10 9 11 10 16 11 12 12 15 13
REMARK SMILES IDX 13 14 14 15 4 17 3 18 2 19 1 20 19 21 20 22 31 23 21 24
REMARK SMILES IDX 23 25 22 26 30 27 24 28 26 29 29 30 25 31 27 32 28 33
REMARK H PARENT 8 7 14 16
ROOT
ATOM      1  C   UNL     1      14.577 -49.982 -23.207  1.00  0.00     0.262 C 
ATOM      2  N   UNL     1      14.451 -49.334 -24.563  1.00  0.00    -0.331 N 
ATOM      3  C   UNL     1      13.293 -49.888 -25.358  1.00  0.00     0.262 C 
ATOM      4  C   UNL     1      14.768 -51.480 -23.380  1.00  0.00     0.065 C 
ATOM      5  C   UNL     1      13.633 -52.139 -24.177  1.00  0.00     0.000 C 
ATOM      6  C   UNL     1      13.444 -51.399 -25.510  1.00  0.00     0.065 C 
ATOM      7  H   UNL     1      15.305 -49.554 -25.090  1.00  0.00     0.348 HD
ENDROOT
BRANCH   2   8
ATOM      8  C   UNL     1      14.412 -47.823 -24.448  1.00  0.00     0.299 C 
BRANCH   8   9
ATOM      9  C   UNL     1      13.185 -47.313 -23.743  1.00  0.00     0.006 A 
ATOM     10  C   UNL     1      11.966 -47.182 -24.430  1.00  0.00     0.013 A 
ATOM     11  C   UNL     1      13.247 -46.945 -22.389  1.00  0.00     0.013 A 
ATOM     12  C   UNL     1      10.834 -46.684 -23.779  1.00  0.00     0.046 A 
ATOM     13  C   UNL     1      12.115 -46.445 -21.743  1.00  0.00     0.046 A 
ATOM     14  C   UNL     1      10.921 -46.317 -22.441  1.00  0.00     0.115 A 
BRANCH  14  15
ATOM     15  O   UNL     1       9.847 -45.824 -21.763  1.00  0.00    -0.508 OA
ATOM     16  H   UNL     1       9.618 -44.945 -22.109  1.00  0.00     0.293 HD
ENDBRANCH  14  15
ENDBRANCH   8   9
ENDBRANCH   2   8
BRANCH   5  17
ATOM     17  C   UNL     1      12.331 -52.217 -23.343  1.00  0.00     0.012 C 
BRANCH  17  18
ATOM     18  C   UNL     1      11.416 -53.388 -23.738  1.00  0.00     0.081 C 
BRANCH  18  19
ATOM     19  C   UNL     1      10.732 -54.022 -22.534  1.00  0.00     0.162 C 
ATOM     20  O   UNL     1      10.411 -53.355 -21.553  1.00  0.00    -0.294 OA
BRANCH  19  21
ATOM     21  C   UNL     1      10.454 -55.493 -22.551  1.00  0.00     0.019 A 
ATOM     22  C   UNL     1       9.256 -55.930 -23.149  1.00  0.00     0.017 A 
ATOM     23  C   UNL     1      11.346 -56.421 -21.973  1.00  0.00     0.022 A 
ATOM     24  C   UNL     1       8.933 -57.287 -23.208  1.00  0.00    -0.022 A 
ATOM     25  C   UNL     1      11.021 -57.791 -22.006  1.00  0.00     0.001 A 
ATOM     26  C   UNL     1       9.847 -58.163 -22.633  1.00  0.00     0.059 A 
ATOM     27  C   UNL     1       7.655 -57.862 -23.733  1.00  0.00     0.047 C 
ATOM     28  C   UNL     1      11.607 -58.991 -21.517  1.00  0.00     0.029 A 
ATOM     29  N   UNL     1       9.714 -59.534 -22.580  1.00  0.00    -0.287 N 
ATOM     30  C   UNL     1       7.838 -59.334 -24.143  1.00  0.00     0.106 C 
ATOM     31  C   UNL     1      10.771 -60.039 -21.855  1.00  0.00     0.095 A 
ATOM     32  C   UNL     1       8.650 -60.208 -23.192  1.00  0.00     0.231 C 
ATOM     33  O   UNL     1       8.517 -61.412 -23.028  1.00  0.00    -0.274 OA
ENDBRANCH  19  21
ENDBRANCH  18  19
ENDBRANCH  17  18
ENDBRANCH   5  17
TORSDOF 7
ENDMDL
MODEL 6
REMARK VINA RESULT:   -10.758      1.869     10.896
REMARK INTER + INTRA:         -15.692
REMARK INTER:                 -16.499
REMARK INTRA:                   0.807
REMARK UNBOUND:                -0.845
REMARK SMILES O=C(CC[C@H]1CC[N@@H+](Cc2ccc(O)cc2)CC1)c1cc2c3c(ccn3C(=O)CC2)c1
REMARK SMILES IDX 7 1 8 2 17 3 6 4 5 5 18 6 9 8 10 9 11 10 16 11 12 12 15 13
REMARK SMILES IDX 13 14 14 15 4 17 3 18 2 19 1 20 19 21 20 22 31 23 21 24
REMARK SMILES IDX 23 25 22 26 30 27 24 28 26 29 29 30 25 31 27 32 28 33
REMARK H PARENT 8 7 14 16
ROOT
ATOM      1  C   UNL     1      11.393 -53.775 -23.862  1.00  0.00     0.262 C 
ATOM      2  N   UNL     1      11.048 -52.933 -22.660  1.00  0.00    -0.331 N 
ATOM      3  C   UNL     1      10.967 -53.749 -21.392  1.00  0.00     0.262 C 
ATOM      4  C   UNL     1      10.341 -54.858 -24.037  1.00  0.00     0.065 C 
ATOM      5  C   UNL     1      10.187 -55.748 -22.795  1.00  0.00     0.000 C 
ATOM      6  C   UNL     1       9.944 -54.869 -21.559  1.00  0.00     0.065 C 
ATOM      7  H   UNL     1      10.112 -52.538 -22.818  1.00  0.00     0.348 HD
ENDROOT
BRANCH   2   8
ATOM      8  C   UNL     1      11.982 -51.746 -22.533  1.00  0.00     0.299 C 
BRANCH   8   9
ATOM      9  C   UNL     1      12.647 -51.374 -23.831  1.00  0.00     0.006 A 
ATOM     10  C   UNL     1      13.121 -52.368 -24.703  1.00  0.00     0.013 A 
ATOM     11  C   UNL     1      12.817 -50.025 -24.180  1.00  0.00     0.013 A 
ATOM     12  C   UNL     1      13.761 -52.020 -25.896  1.00  0.00     0.046 A 
ATOM     13  C   UNL     1      13.459 -49.681 -25.370  1.00  0.00     0.046 A 
ATOM     14  C   UNL     1      13.927 -50.678 -26.217  1.00  0.00     0.115 A 
BRANCH  14  15
ATOM     15  O   UNL     1      14.546 -50.288 -27.365  1.00  0.00    -0.508 OA
ATOM     16  H   UNL     1      14.773 -49.344 -27.310  1.00  0.00     0.293 HD
ENDBRANCH  14  15
ENDBRANCH   8   9
ENDBRANCH   2   8
BRANCH   5  17
ATOM     17  C   UNL     1      11.398 -56.697 -22.628  1.00  0.00     0.012 C 
BRANCH  17  18
ATOM     18  C   UNL     1      11.038 -58.051 -21.996  1.00  0.00     0.081 C 
BRANCH  18  19
ATOM     19  C   UNL     1      11.605 -59.228 -22.779  1.00  0.00     0.162 C 
ATOM     20  O   UNL     1      12.809 -59.327 -23.007  1.00  0.00    -0.294 OA
BRANCH  19  21
ATOM     21  C   UNL     1      10.668 -60.280 -23.285  1.00  0.00     0.019 A 
ATOM     22  C   UNL     1      10.327 -60.256 -24.651  1.00  0.00     0.017 A 
ATOM     23  C   UNL     1      10.125 -61.260 -22.427  1.00  0.00     0.022 A 
ATOM     24  C   UNL     1       9.465 -61.210 -25.195  1.00  0.00    -0.022 A 
ATOM     25  C   UNL     1       9.237 -62.215 -22.960  1.00  0.00     0.001 A 
ATOM     26  C   UNL     1       8.961 -62.160 -24.313  1.00  0.00     0.059 A 
ATOM     27  C   UNL     1       8.959 -61.232 -26.604  1.00  0.00     0.047 C 
ATOM     28  C   UNL     1       8.470 -63.295 -22.443  1.00  0.00     0.029 A 
ATOM     29  N   UNL     1       8.095 -63.179 -24.646  1.00  0.00    -0.287 N 
ATOM     30  C   UNL     1       8.498 -62.646 -27.004  1.00  0.00     0.106 C 
ATOM     31  C   UNL     1       7.757 -63.848 -23.491  1.00  0.00     0.095 A 
ATOM     32  C   UNL     1       7.687 -63.414 -25.965  1.00  0.00     0.231 C 
ATOM     33  O   UNL     1       6.837 -64.261 -26.197  1.00  0.00    -0.274 OA
ENDBRANCH  19  21
ENDBRANCH  18  19
ENDBRANCH  17  18
ENDBRANCH   5  17
TORSDOF 7
ENDMDL
MODEL 7
REMARK VINA RESULT:   -10.582      2.138     11.657
REMARK INTER + INTRA:         -15.448
REMARK INTER:                 -14.922
REMARK INTRA:                  -0.527
REMARK UNBOUND:                -0.845
REMARK SMILES O=C(CC[C@H]1CC[N@@H+](Cc2ccc(O)cc2)CC1)c1cc2c3c(ccn3C(=O)CC2)c1
REMARK SMILES IDX 7 1 8 2 17 3 6 4 5 5 18 6 9 8 10 9 11 10 16 11 12 12 15 13
REMARK SMILES IDX 13 14 14 15 4 17 3 18 2 19 1 20 19 21 20 22 31 23 21 24
REMARK SMILES IDX 23 25 22 26 30 27 24 28 26 29 29 30 25 31 27 32 28 33
REMARK H PARENT 8 7 14 16
ROOT
ATOM      1  C   UNL     1      10.152 -50.726 -21.779  1.00  0.00     0.262 C 
ATOM      2  N   UNL     1      11.084 -49.709 -22.389  1.00  0.00    -0.331 N 
ATOM      3  C   UNL     1      11.877 -50.277 -23.541  1.00  0.00     0.262 C 
ATOM      4  C   UNL     1      10.959 -51.916 -21.285  1.00  0.00     0.065 C 
ATOM      5  C   UNL     1      11.802 -52.568 -22.391  1.00  0.00     0.000 C 
ATOM      6  C   UNL     1      12.666 -51.498 -23.077  1.00  0.00     0.065 C 
ATOM      7  H   UNL     1      11.762 -49.439 -21.665  1.00  0.00     0.348 HD
ENDROOT
BRANCH   2   8
ATOM      8  C   UNL     1      10.344 -48.438 -22.757  1.00  0.00     0.299 C 
BRANCH   8   9
ATOM      9  C   UNL     1      11.262 -47.284 -23.056  1.00  0.00     0.006 A 
ATOM     10  C   UNL     1      11.399 -46.798 -24.367  1.00  0.00     0.013 A 
ATOM     11  C   UNL     1      12.009 -46.686 -22.027  1.00  0.00     0.013 A 
ATOM     12  C   UNL     1      12.271 -45.743 -24.646  1.00  0.00     0.046 A 
ATOM     13  C   UNL     1      12.881 -45.635 -22.310  1.00  0.00     0.046 A 
ATOM     14  C   UNL     1      13.007 -45.173 -23.614  1.00  0.00     0.115 A 
BRANCH  14  15
ATOM     15  O   UNL     1      13.872 -44.144 -23.835  1.00  0.00    -0.508 OA
ATOM     16  H   UNL     1      14.422 -44.005 -23.046  1.00  0.00     0.293 HD
ENDBRANCH  14  15
ENDBRANCH   8   9
ENDBRANCH   2   8
BRANCH   5  17
ATOM     17  C   UNL     1      10.913 -53.351 -23.388  1.00  0.00     0.012 C 
BRANCH  17  18
ATOM     18  C   UNL     1      11.366 -54.805 -23.605  1.00  0.00     0.081 C 
BRANCH  18  19
ATOM     19  C   UNL     1      10.915 -55.728 -22.481  1.00  0.00     0.162 C 
ATOM     20  O   UNL     1      11.010 -55.396 -21.301  1.00  0.00    -0.294 OA
BRANCH  19  21
ATOM     21  C   UNL     1      10.352 -57.071 -22.828  1.00  0.00     0.019 A 
ATOM     22  C   UNL     1      11.253 -58.144 -22.976  1.00  0.00     0.017 A 
ATOM     23  C   UNL     1       8.968 -57.264 -23.021  1.00  0.00     0.022 A 
ATOM     24  C   UNL     1      10.799 -59.426 -23.292  1.00  0.00    -0.022 A 
ATOM     25  C   UNL     1       8.500 -58.549 -23.361  1.00  0.00     0.001 A 
ATOM     26  C   UNL     1       9.427 -59.570 -23.464  1.00  0.00     0.059 A 
ATOM     27  C   UNL     1      11.662 -60.618 -23.564  1.00  0.00     0.047 C 
ATOM     28  C   UNL     1       7.238 -59.127 -23.671  1.00  0.00     0.029 A 
ATOM     29  N   UNL     1       8.780 -60.745 -23.782  1.00  0.00    -0.287 N 
ATOM     30  C   UNL     1      10.881 -61.928 -23.345  1.00  0.00     0.106 C 
ATOM     31  C   UNL     1       7.443 -60.464 -23.955  1.00  0.00     0.095 A 
ATOM     32  C   UNL     1       9.456 -61.966 -23.889  1.00  0.00     0.231 C 
ATOM     33  O   UNL     1       8.860 -62.960 -24.277  1.00  0.00    -0.274 OA
ENDBRANCH  19  21
ENDBRANCH  18  19
ENDBRANCH  17  18
ENDBRANCH   5  17
TORSDOF 7
ENDMDL
MODEL 8
REMARK VINA RESULT:   -10.249      2.620      4.807
REMARK INTER + INTRA:         -14.989
REMARK INTER:                 -14.468
REMARK INTRA:                  -0.522
REMARK UNBOUND:                -0.845
REMARK SMILES O=C(CC[C@H]1CC[N@@H+](Cc2ccc(O)cc2)CC1)c1cc2c3c(ccn3C(=O)CC2)c1
REMARK SMILES IDX 7 1 8 2 17 3 6 4 5 5 18 6 9 8 10 9 11 10 16 11 12 12 15 13
REMARK SMILES IDX 13 14 14 15 4 17 3 18 2 19 1 20 19 21 20 22 31 23 21 24
REMARK SMILES IDX 23 25 22 26 30 27 24 28 26 29 29 30 25 31 27 32 28 33
REMARK H PARENT 8 7 14 16
ROOT
ATOM      1  C   UNL     1      10.904 -54.948 -21.221  1.00  0.00     0.262 C 
ATOM      2  N   UNL     1      10.780 -56.054 -22.238  1.00  0.00    -0.331 N 
ATOM      3  C   UNL     1      11.323 -55.654 -23.589  1.00  0.00     0.262 C 
ATOM      4  C   UNL     1      10.149 -53.723 -21.715  1.00  0.00     0.065 C 
ATOM      5  C   UNL     1      10.635 -53.236 -23.088  1.00  0.00     0.000 C 
ATOM      6  C   UNL     1      10.607 -54.402 -24.088  1.00  0.00     0.065 C 
ATOM      7  H   UNL     1       9.778 -56.246 -22.366  1.00  0.00     0.348 HD
ENDROOT
BRANCH   2   8
ATOM      8  C   UNL     1      11.386 -57.344 -21.723  1.00  0.00     0.299 C 
BRANCH   8   9
ATOM      9  C   UNL     1      10.562 -58.560 -22.054  1.00  0.00     0.006 A 
ATOM     10  C   UNL     1      10.651 -59.721 -21.269  1.00  0.00     0.013 A 
ATOM     11  C   UNL     1       9.704 -58.554 -23.166  1.00  0.00     0.013 A 
ATOM     12  C   UNL     1       9.905 -60.857 -21.593  1.00  0.00     0.046 A 
ATOM     13  C   UNL     1       8.963 -59.691 -23.489  1.00  0.00     0.046 A 
ATOM     14  C   UNL     1       9.069 -60.832 -22.704  1.00  0.00     0.115 A 
BRANCH  14  15
ATOM     15  O   UNL     1       8.324 -61.913 -23.063  1.00  0.00    -0.508 OA
ATOM     16  H   UNL     1       8.903 -62.685 -23.181  1.00  0.00     0.293 HD
ENDBRANCH  14  15
ENDBRANCH   8   9
ENDBRANCH   2   8
BRANCH   5  17
ATOM     17  C   UNL     1      12.026 -52.564 -22.987  1.00  0.00     0.012 C 
BRANCH  17  18
ATOM     18  C   UNL     1      12.610 -52.151 -24.348  1.00  0.00     0.081 C 
BRANCH  18  19
ATOM     19  C   UNL     1      13.651 -51.047 -24.223  1.00  0.00     0.162 C 
ATOM     20  O   UNL     1      14.848 -51.303 -24.101  1.00  0.00    -0.294 OA
BRANCH  19  21
ATOM     21  C   UNL     1      13.199 -49.620 -24.243  1.00  0.00     0.019 A 
ATOM     22  C   UNL     1      12.113 -49.262 -23.421  1.00  0.00     0.017 A 
ATOM     23  C   UNL     1      13.822 -48.659 -25.067  1.00  0.00     0.022 A 
ATOM     24  C   UNL     1      11.642 -47.948 -23.383  1.00  0.00    -0.022 A 
ATOM     25  C   UNL     1      13.342 -47.335 -25.053  1.00  0.00     0.001 A 
ATOM     26  C   UNL     1      12.292 -47.035 -24.205  1.00  0.00     0.059 A 
ATOM     27  C   UNL     1      10.444 -47.469 -22.623  1.00  0.00     0.047 C 
ATOM     28  C   UNL     1      13.652 -46.129 -25.741  1.00  0.00     0.029 A 
ATOM     29  N   UNL     1      11.979 -45.697 -24.318  1.00  0.00    -0.287 N 
ATOM     30  C   UNL     1      10.524 -45.953 -22.363  1.00  0.00     0.106 C 
ATOM     31  C   UNL     1      12.783 -45.151 -25.294  1.00  0.00     0.095 A 
ATOM     32  C   UNL     1      10.995 -45.089 -23.529  1.00  0.00     0.231 C 
ATOM     33  O   UNL     1      10.680 -43.927 -23.739  1.00  0.00    -0.274 OA
ENDBRANCH  19  21
ENDBRANCH  18  19
ENDBRANCH  17  18
ENDBRANCH   5  17
TORSDOF 7
ENDMDL
MODEL 9
REMARK VINA RESULT:   -10.112      2.133      2.789
REMARK INTER + INTRA:         -14.800
REMARK INTER:                 -14.485
REMARK INTRA:                  -0.315
REMARK UNBOUND:                -0.845
REMARK SMILES O=C(CC[C@H]1CC[N@@H+](Cc2ccc(O)cc2)CC1)c1cc2c3c(ccn3C(=O)CC2)c1
REMARK SMILES IDX 7 1 8 2 17 3 6 4 5 5 18 6 9 8 10 9 11 10 16 11 12 12 15 13
REMARK SMILES IDX 13 14 14 15 4 17 3 18 2 19 1 20 19 21 20 22 31 23 21 24
REMARK SMILES IDX 23 25 22 26 30 27 24 28 26 29 29 30 25 31 27 32 28 33
REMARK H PARENT 8 7 14 16
ROOT
ATOM      1  C   UNL     1      11.083 -60.382 -25.283  1.00  0.00     0.262 C 
ATOM      2  N   UNL     1      10.324 -61.052 -24.166  1.00  0.00    -0.331 N 
ATOM      3  C   UNL     1      10.260 -60.198 -22.922  1.00  0.00     0.262 C 
ATOM      4  C   UNL     1      12.499 -60.078 -24.818  1.00  0.00     0.065 C 
ATOM      5  C   UNL     1      12.538 -59.205 -23.554  1.00  0.00     0.000 C 
ATOM      6  C   UNL     1      11.671 -59.846 -22.460  1.00  0.00     0.065 C 
ATOM      7  H   UNL     1      10.837 -61.906 -23.913  1.00  0.00     0.348 HD
ENDROOT
BRANCH   2   8
ATOM      8  C   UNL     1       8.957 -61.513 -24.630  1.00  0.00     0.299 C 
BRANCH   8   9
ATOM      9  C   UNL     1       7.837 -60.640 -24.133  1.00  0.00     0.006 A 
ATOM     10  C   UNL     1       7.886 -59.246 -24.303  1.00  0.00     0.013 A 
ATOM     11  C   UNL     1       6.733 -61.207 -23.477  1.00  0.00     0.013 A 
ATOM     12  C   UNL     1       6.856 -58.435 -23.819  1.00  0.00     0.046 A 
ATOM     13  C   UNL     1       5.708 -60.394 -22.991  1.00  0.00     0.046 A 
ATOM     14  C   UNL     1       5.778 -59.018 -23.164  1.00  0.00     0.115 A 
BRANCH  14  15
ATOM     15  O   UNL     1       4.751 -58.270 -22.671  1.00  0.00    -0.508 OA
ATOM     16  H   UNL     1       4.221 -57.918 -23.406  1.00  0.00     0.293 HD
ENDBRANCH  14  15
ENDBRANCH   8   9
ENDBRANCH   2   8
BRANCH   5  17
ATOM     17  C   UNL     1      12.131 -57.745 -23.865  1.00  0.00     0.012 C 
BRANCH  17  18
ATOM     18  C   UNL     1      11.430 -57.038 -22.693  1.00  0.00     0.081 C 
BRANCH  18  19
ATOM     19  C   UNL     1      10.515 -55.913 -23.156  1.00  0.00     0.162 C 
ATOM     20  O   UNL     1       9.337 -56.120 -23.446  1.00  0.00    -0.294 OA
BRANCH  19  21
ATOM     21  C   UNL     1      11.069 -54.527 -23.266  1.00  0.00     0.019 A 
ATOM     22  C   UNL     1      11.887 -54.231 -24.374  1.00  0.00     0.017 A 
ATOM     23  C   UNL     1      10.802 -53.544 -22.289  1.00  0.00     0.022 A 
ATOM     24  C   UNL     1      12.433 -52.958 -24.546  1.00  0.00    -0.022 A 
ATOM     25  C   UNL     1      11.365 -52.262 -22.441  1.00  0.00     0.001 A 
ATOM     26  C   UNL     1      12.136 -52.021 -23.563  1.00  0.00     0.059 A 
ATOM     27  C   UNL     1      13.386 -52.552 -25.627  1.00  0.00     0.047 C 
ATOM     28  C   UNL     1      11.375 -51.057 -21.687  1.00  0.00     0.029 A 
ATOM     29  N   UNL     1      12.578 -50.716 -23.543  1.00  0.00    -0.287 N 
ATOM     30  C   UNL     1      13.359 -51.028 -25.845  1.00  0.00     0.106 C 
ATOM     31  C   UNL     1      12.150 -50.137 -22.369  1.00  0.00     0.095 A 
ATOM     32  C   UNL     1      13.330 -50.164 -24.588  1.00  0.00     0.231 C 
ATOM     33  O   UNL     1      13.789 -49.037 -24.477  1.00  0.00    -0.274 OA
ENDBRANCH  19  21
ENDBRANCH  18  19
ENDBRANCH  17  18
ENDBRANCH   5  17
TORSDOF 7
ENDMDL
