MODEL 1
REMARK VINA RESULT:   -10.758      0.000      0.000
REMARK INTER + INTRA:         -17.823
REMARK INTER:                 -16.418
REMARK INTRA:                  -1.405
REMARK UNBOUND:                -1.405
REMARK SMILES CC[N@@H+](CCC(=O)N1CC[NH+](CCN=c2c3c([nH]c4ccccc24)CCCC3)CC1)C1CCCCC1
REMARK SMILES IDX 11 1 10 2 9 3 8 4 6 5 7 6 30 7 29 8 12 10 13 11 14 12 15 13
REMARK SMILES IDX 18 14 17 15 19 16 16 17 25 18 20 19 24 20 28 21 26 22 21 23
REMARK SMILES IDX 23 24 27 25 22 26 5 28 4 29 3 30 2 32 1 33 31 34 32 35 36 36
REMARK SMILES IDX 33 37 35 38 34 39
REMARK H PARENT 11 9 18 27 3 31
ROOT
ATOM      1  N   UNL     1      12.635 -57.566 -27.328  1.00  0.00    -0.330 N 
ATOM      2  C   UNL     1      11.932 -58.083 -28.590  1.00  0.00     0.284 C 
ATOM      3  C   UNL     1      12.033 -59.615 -28.649  1.00  0.00     0.181 C 
ATOM      4  N   UNL     1      11.495 -60.234 -27.427  1.00  0.00    -0.331 N 
ATOM      5  C   UNL     1      10.330 -60.980 -27.518  1.00  0.00     0.228 C 
ATOM      6  O   UNL     1       9.698 -61.048 -28.571  1.00  0.00    -0.275 OA
ATOM      7  C   UNL     1      12.141 -59.781 -26.190  1.00  0.00     0.181 C 
ATOM      8  C   UNL     1      12.090 -58.242 -26.068  1.00  0.00     0.284 C 
ATOM      9  H   UNL     1      13.634 -57.802 -27.406  1.00  0.00     0.348 HD
ENDROOT
BRANCH   1  10
ATOM     10  C   UNL     1      12.550 -56.050 -27.189  1.00  0.00     0.286 C 
BRANCH  10  11
ATOM     11  C   UNL     1      12.891 -55.562 -25.770  1.00  0.00     0.204 C 
BRANCH  11  12
ATOM     12  N   UNL     1      11.956 -54.514 -25.451  1.00  0.00    -0.278 NA
BRANCH  12  13
ATOM     13  C   UNL     1      12.140 -53.476 -24.714  1.00  0.00     0.072 A 
ATOM     14  N   UNL     1      12.252 -51.304 -22.876  1.00  0.00    -0.358 N 
ATOM     15  C   UNL     1      12.894 -51.203 -24.087  1.00  0.00     0.021 A 
ATOM     16  C   UNL     1      11.639 -52.484 -22.456  1.00  0.00     0.048 A 
ATOM     17  C   UNL     1      12.879 -52.178 -25.028  1.00  0.00    -0.003 A 
ATOM     18  C   UNL     1      13.654 -49.903 -24.284  1.00  0.00     0.054 C 
ATOM     19  C   UNL     1      11.069 -52.568 -21.180  1.00  0.00     0.027 A 
ATOM     20  C   UNL     1      11.539 -53.572 -23.329  1.00  0.00     0.024 A 
ATOM     21  C   UNL     1      13.585 -51.997 -26.348  1.00  0.00     0.039 C 
ATOM     22  C   UNL     1      14.714 -49.971 -25.378  1.00  0.00     0.007 C 
ATOM     23  C   UNL     1      10.425 -53.735 -20.765  1.00  0.00     0.002 A 
ATOM     24  C   UNL     1      10.889 -54.744 -22.906  1.00  0.00     0.012 A 
ATOM     25  C   UNL     1      14.119 -50.588 -26.628  1.00  0.00     0.005 C 
ATOM     26  C   UNL     1      10.339 -54.825 -21.627  1.00  0.00     0.001 A 
ATOM     27  H   UNL     1      12.421 -50.585 -22.181  1.00  0.00     0.166 HD
ENDBRANCH  12  13
ENDBRANCH  11  12
ENDBRANCH  10  11
ENDBRANCH   1  10
BRANCH   5  28
ATOM     28  C   UNL     1       9.845 -61.726 -26.288  1.00  0.00     0.161 C 
BRANCH  28  29
ATOM     29  C   UNL     1       8.803 -60.861 -25.571  1.00  0.00     0.272 C 
BRANCH  29  30
ATOM     30  N   UNL     1       8.509 -61.314 -24.134  1.00  0.00    -0.332 N 
ATOM     31  H   UNL     1       9.161 -62.100 -23.981  1.00  0.00     0.348 HD
BRANCH  30  32
ATOM     32  C   UNL     1       7.119 -61.918 -23.955  1.00  0.00     0.258 C 
ATOM     33  C   UNL     1       7.163 -63.242 -23.209  1.00  0.00     0.071 C 
ENDBRANCH  30  32
BRANCH  30  34
ATOM     34  C   UNL     1       8.875 -60.282 -23.027  1.00  0.00     0.184 C 
ATOM     35  C   UNL     1       9.977 -60.860 -22.118  1.00  0.00     0.065 C 
ATOM     36  C   UNL     1       9.345 -58.962 -23.664  1.00  0.00     0.065 C 
ATOM     37  C   UNL     1      10.499 -59.842 -21.106  1.00  0.00     0.006 C 
ATOM     38  C   UNL     1       9.870 -57.962 -22.636  1.00  0.00     0.006 C 
ATOM     39  C   UNL     1      10.976 -58.565 -21.782  1.00  0.00     0.000 C 
ENDBRANCH  30  34
ENDBRANCH  29  30
ENDBRANCH  28  29
ENDBRANCH   5  28
TORSDOF 9
ENDMDL
MODEL 2
REMARK VINA RESULT:   -10.661      1.636      3.187
REMARK INTER + INTRA:         -17.675
REMARK INTER:                 -16.192
REMARK INTRA:                  -1.483
REMARK UNBOUND:                -1.405
REMARK SMILES CC[N@@H+](CCC(=O)N1CC[NH+](CCN=c2c3c([nH]c4ccccc24)CCCC3)CC1)C1CCCCC1
REMARK SMILES IDX 11 1 10 2 9 3 8 4 6 5 7 6 30 7 29 8 12 10 13 11 14 12 15 13
REMARK SMILES IDX 18 14 17 15 19 16 16 17 25 18 20 19 24 20 28 21 26 22 21 23
REMARK SMILES IDX 23 24 27 25 22 26 5 28 4 29 3 30 2 32 1 33 31 34 32 35 36 36
REMARK SMILES IDX 33 37 35 38 34 39
REMARK H PARENT 11 9 18 27 3 31
ROOT
ATOM      1  N   UNL     1      12.580 -57.819 -24.800  1.00  0.00    -0.330 N 
ATOM      2  C   UNL     1      12.748 -59.265 -25.282  1.00  0.00     0.284 C 
ATOM      3  C   UNL     1      12.970 -60.191 -24.077  1.00  0.00     0.181 C 
ATOM      4  N   UNL     1      11.883 -60.062 -23.094  1.00  0.00    -0.331 N 
ATOM      5  C   UNL     1      11.026 -61.135 -22.907  1.00  0.00     0.228 C 
ATOM      6  O   UNL     1      11.102 -62.142 -23.609  1.00  0.00    -0.275 OA
ATOM      7  C   UNL     1      11.687 -58.697 -22.591  1.00  0.00     0.181 C 
ATOM      8  C   UNL     1      11.469 -57.703 -23.754  1.00  0.00     0.284 C 
ATOM      9  H   UNL     1      13.464 -57.532 -24.355  1.00  0.00     0.348 HD
ENDROOT
BRANCH   1  10
ATOM     10  C   UNL     1      12.327 -56.844 -25.945  1.00  0.00     0.286 C 
BRANCH  10  11
ATOM     11  C   UNL     1      13.071 -55.509 -25.767  1.00  0.00     0.204 C 
BRANCH  11  12
ATOM     12  N   UNL     1      12.076 -54.509 -25.481  1.00  0.00    -0.278 NA
BRANCH  12  13
ATOM     13  C   UNL     1      12.190 -53.451 -24.759  1.00  0.00     0.072 A 
ATOM     14  N   UNL     1      12.147 -51.242 -22.962  1.00  0.00    -0.358 N 
ATOM     15  C   UNL     1      12.828 -51.138 -24.150  1.00  0.00     0.021 A 
ATOM     16  C   UNL     1      11.567 -52.438 -22.541  1.00  0.00     0.048 A 
ATOM     17  C   UNL     1      12.888 -52.129 -25.072  1.00  0.00    -0.003 A 
ATOM     18  C   UNL     1      13.541 -49.811 -24.346  1.00  0.00     0.054 C 
ATOM     19  C   UNL     1      10.955 -52.522 -21.284  1.00  0.00     0.027 A 
ATOM     20  C   UNL     1      11.544 -53.546 -23.394  1.00  0.00     0.024 A 
ATOM     21  C   UNL     1      13.633 -51.944 -26.369  1.00  0.00     0.039 C 
ATOM     22  C   UNL     1      14.643 -49.855 -25.400  1.00  0.00     0.007 C 
ATOM     23  C   UNL     1      10.344 -53.707 -20.869  1.00  0.00     0.002 A 
ATOM     24  C   UNL     1      10.927 -54.735 -22.972  1.00  0.00     0.012 A 
ATOM     25  C   UNL     1      14.119 -50.520 -26.659  1.00  0.00     0.005 C 
ATOM     26  C   UNL     1      10.334 -54.815 -21.712  1.00  0.00     0.001 A 
ATOM     27  H   UNL     1      12.261 -50.504 -22.275  1.00  0.00     0.166 HD
ENDBRANCH  12  13
ENDBRANCH  11  12
ENDBRANCH  10  11
ENDBRANCH   1  10
BRANCH   5  28
ATOM     28  C   UNL     1       9.986 -61.052 -21.803  1.00  0.00     0.161 C 
BRANCH  28  29
ATOM     29  C   UNL     1       8.600 -60.934 -22.445  1.00  0.00     0.272 C 
BRANCH  29  30
ATOM     30  N   UNL     1       8.573 -60.042 -23.694  1.00  0.00    -0.332 N 
ATOM     31  H   UNL     1       9.560 -59.768 -23.827  1.00  0.00     0.348 HD
BRANCH  30  32
ATOM     32  C   UNL     1       7.826 -58.727 -23.491  1.00  0.00     0.258 C 
ATOM     33  C   UNL     1       6.444 -58.942 -22.894  1.00  0.00     0.071 C 
ENDBRANCH  30  32
BRANCH  30  34
ATOM     34  C   UNL     1       8.188 -60.767 -25.017  1.00  0.00     0.184 C 
ATOM     35  C   UNL     1       9.325 -60.615 -26.046  1.00  0.00     0.065 C 
ATOM     36  C   UNL     1       7.908 -62.257 -24.746  1.00  0.00     0.065 C 
ATOM     37  C   UNL     1       9.086 -61.435 -27.312  1.00  0.00     0.006 C 
ATOM     38  C   UNL     1       7.679 -63.058 -26.025  1.00  0.00     0.006 C 
ATOM     39  C   UNL     1       8.839 -62.904 -26.998  1.00  0.00     0.000 C 
ENDBRANCH  30  34
ENDBRANCH  29  30
ENDBRANCH  28  29
ENDBRANCH   5  28
TORSDOF 9
ENDMDL
MODEL 3
REMARK VINA RESULT:   -10.010      2.417      5.145
REMARK INTER + INTRA:         -16.681
REMARK INTER:                 -15.349
REMARK INTRA:                  -1.333
REMARK UNBOUND:                -1.405
REMARK SMILES CC[N@@H+](CCC(=O)N1CC[NH+](CCN=c2c3c([nH]c4ccccc24)CCCC3)CC1)C1CCCCC1
REMARK SMILES IDX 11 1 10 2 9 3 8 4 6 5 7 6 30 7 29 8 12 10 13 11 14 12 15 13
REMARK SMILES IDX 18 14 17 15 19 16 16 17 25 18 20 19 24 20 28 21 26 22 21 23
REMARK SMILES IDX 23 24 27 25 22 26 5 28 4 29 3 30 2 32 1 33 31 34 32 35 36 36
REMARK SMILES IDX 33 37 35 38 34 39
REMARK H PARENT 11 9 18 27 3 31
ROOT
ATOM      1  N   UNL     1      10.904 -54.104 -22.050  1.00  0.00    -0.330 N 
ATOM      2  C   UNL     1      10.076 -54.466 -23.290  1.00  0.00     0.284 C 
ATOM      3  C   UNL     1      10.607 -55.769 -23.905  1.00  0.00     0.181 C 
ATOM      4  N   UNL     1      10.625 -56.860 -22.917  1.00  0.00    -0.331 N 
ATOM      5  C   UNL     1       9.753 -57.924 -23.089  1.00  0.00     0.228 C 
ATOM      6  O   UNL     1       8.912 -57.922 -23.986  1.00  0.00    -0.275 OA
ATOM      7  C   UNL     1      11.412 -56.568 -21.714  1.00  0.00     0.181 C 
ATOM      8  C   UNL     1      10.941 -55.257 -21.046  1.00  0.00     0.284 C 
ATOM      9  H   UNL     1      11.869 -53.922 -22.359  1.00  0.00     0.348 HD
ENDROOT
BRANCH   1  10
ATOM     10  C   UNL     1      10.413 -52.831 -21.369  1.00  0.00     0.286 C 
BRANCH  10  11
ATOM     11  C   UNL     1      10.180 -51.676 -22.360  1.00  0.00     0.204 C 
BRANCH  11  12
ATOM     12  N   UNL     1      11.304 -50.785 -22.236  1.00  0.00    -0.278 NA
BRANCH  12  13
ATOM     13  C   UNL     1      11.774 -49.963 -23.108  1.00  0.00     0.072 A 
ATOM     14  N   UNL     1      13.076 -48.410 -25.107  1.00  0.00    -0.358 N 
ATOM     15  C   UNL     1      12.211 -47.801 -24.230  1.00  0.00     0.021 A 
ATOM     16  C   UNL     1      13.255 -49.792 -25.134  1.00  0.00     0.048 A 
ATOM     17  C   UNL     1      11.562 -48.457 -23.238  1.00  0.00    -0.003 A 
ATOM     18  C   UNL     1      12.017 -46.315 -24.476  1.00  0.00     0.054 C 
ATOM     19  C   UNL     1      14.083 -50.378 -26.100  1.00  0.00     0.027 A 
ATOM     20  C   UNL     1      12.654 -50.597 -24.162  1.00  0.00     0.024 A 
ATOM     21  C   UNL     1      10.643 -47.726 -22.292  1.00  0.00     0.039 C 
ATOM     22  C   UNL     1      10.754 -45.747 -23.838  1.00  0.00     0.007 C 
ATOM     23  C   UNL     1      14.293 -51.758 -26.113  1.00  0.00     0.002 A 
ATOM     24  C   UNL     1      12.869 -51.986 -24.179  1.00  0.00     0.012 A 
ATOM     25  C   UNL     1      10.665 -46.198 -22.392  1.00  0.00     0.005 C 
ATOM     26  C   UNL     1      13.682 -52.563 -25.155  1.00  0.00     0.001 A 
ATOM     27  H   UNL     1      13.417 -47.873 -25.897  1.00  0.00     0.166 HD
ENDBRANCH  12  13
ENDBRANCH  11  12
ENDBRANCH  10  11
ENDBRANCH   1  10
BRANCH   5  28
ATOM     28  C   UNL     1       9.859 -59.110 -22.145  1.00  0.00     0.161 C 
BRANCH  28  29
ATOM     29  C   UNL     1      10.664 -60.215 -22.837  1.00  0.00     0.272 C 
BRANCH  29  30
ATOM     30  N   UNL     1       9.942 -60.846 -24.035  1.00  0.00    -0.332 N 
ATOM     31  H   UNL     1       9.192 -60.172 -24.259  1.00  0.00     0.348 HD
BRANCH  30  32
ATOM     32  C   UNL     1       9.213 -62.144 -23.696  1.00  0.00     0.258 C 
ATOM     33  C   UNL     1       9.782 -62.811 -22.454  1.00  0.00     0.071 C 
ENDBRANCH  30  32
BRANCH  30  34
ATOM     34  C   UNL     1      10.785 -60.942 -25.340  1.00  0.00     0.184 C 
ATOM     35  C   UNL     1       9.962 -60.415 -26.532  1.00  0.00     0.065 C 
ATOM     36  C   UNL     1      12.088 -60.135 -25.193  1.00  0.00     0.065 C 
ATOM     37  C   UNL     1      10.780 -60.329 -27.820  1.00  0.00     0.006 C 
ATOM     38  C   UNL     1      12.886 -60.056 -26.493  1.00  0.00     0.006 C 
ATOM     39  C   UNL     1      12.044 -59.503 -27.634  1.00  0.00     0.000 C 
ENDBRANCH  30  34
ENDBRANCH  29  30
ENDBRANCH  28  29
ENDBRANCH   5  28
TORSDOF 9
ENDMDL
MODEL 4
REMARK VINA RESULT:   -10.003      2.500      5.407
REMARK INTER + INTRA:         -16.670
REMARK INTER:                 -15.687
REMARK INTRA:                  -0.983
REMARK UNBOUND:                -1.405
REMARK SMILES CC[N@@H+](CCC(=O)N1CC[NH+](CCN=c2c3c([nH]c4ccccc24)CCCC3)CC1)C1CCCCC1
REMARK SMILES IDX 11 1 10 2 9 3 8 4 6 5 7 6 30 7 29 8 12 10 13 11 14 12 15 13
REMARK SMILES IDX 18 14 17 15 19 16 16 17 25 18 20 19 24 20 28 21 26 22 21 23
REMARK SMILES IDX 23 24 27 25 22 26 5 28 4 29 3 30 2 32 1 33 31 34 32 35 36 36
REMARK SMILES IDX 33 37 35 38 34 39
REMARK H PARENT 11 9 18 27 3 31
ROOT
ATOM      1  N   UNL     1      10.335 -53.381 -22.496  1.00  0.00    -0.330 N 
ATOM      2  C   UNL     1      10.280 -54.065 -23.868  1.00  0.00     0.284 C 
ATOM      3  C   UNL     1      11.337 -55.178 -23.935  1.00  0.00     0.181 C 
ATOM      4  N   UNL     1      11.171 -56.140 -22.834  1.00  0.00    -0.331 N 
ATOM      5  C   UNL     1      10.767 -57.431 -23.135  1.00  0.00     0.228 C 
ATOM      6  O   UNL     1      10.454 -57.750 -24.281  1.00  0.00    -0.275 OA
ATOM      7  C   UNL     1      11.226 -55.538 -21.497  1.00  0.00     0.181 C 
ATOM      8  C   UNL     1      10.195 -54.395 -21.359  1.00  0.00     0.284 C 
ATOM      9  H   UNL     1      11.257 -52.931 -22.406  1.00  0.00     0.348 HD
ENDROOT
BRANCH   1  10
ATOM     10  C   UNL     1       9.291 -52.280 -22.348  1.00  0.00     0.286 C 
BRANCH  10  11
ATOM     11  C   UNL     1       9.901 -50.935 -21.916  1.00  0.00     0.204 C 
BRANCH  11  12
ATOM     12  N   UNL     1      11.235 -50.886 -22.456  1.00  0.00    -0.278 NA
BRANCH  12  13
ATOM     13  C   UNL     1      11.748 -50.007 -23.243  1.00  0.00     0.072 A 
ATOM     14  N   UNL     1      13.155 -48.318 -25.052  1.00  0.00    -0.358 N 
ATOM     15  C   UNL     1      12.226 -47.774 -24.199  1.00  0.00     0.021 A 
ATOM     16  C   UNL     1      13.355 -49.693 -25.154  1.00  0.00     0.048 A 
ATOM     17  C   UNL     1      11.523 -48.498 -23.294  1.00  0.00    -0.003 A 
ATOM     18  C   UNL     1      12.026 -46.278 -24.365  1.00  0.00     0.054 C 
ATOM     19  C   UNL     1      14.252 -50.209 -26.097  1.00  0.00     0.027 A 
ATOM     20  C   UNL     1      12.704 -50.564 -24.274  1.00  0.00     0.024 A 
ATOM     21  C   UNL     1      10.533 -47.837 -22.368  1.00  0.00     0.039 C 
ATOM     22  C   UNL     1      10.715 -45.764 -23.777  1.00  0.00     0.007 C 
ATOM     23  C   UNL     1      14.483 -51.583 -26.182  1.00  0.00     0.002 A 
ATOM     24  C   UNL     1      12.940 -51.946 -24.363  1.00  0.00     0.012 A 
ATOM     25  C   UNL     1      10.539 -46.306 -22.371  1.00  0.00     0.005 C 
ATOM     26  C   UNL     1      13.824 -52.452 -25.317  1.00  0.00     0.001 A 
ATOM     27  H   UNL     1      13.538 -47.729 -25.784  1.00  0.00     0.166 HD
ENDBRANCH  12  13
ENDBRANCH  11  12
ENDBRANCH  10  11
ENDBRANCH   1  10
BRANCH   5  28
ATOM     28  C   UNL     1      10.721 -58.459 -22.018  1.00  0.00     0.161 C 
BRANCH  28  29
ATOM     29  C   UNL     1      11.951 -59.365 -22.136  1.00  0.00     0.272 C 
BRANCH  29  30
ATOM     30  N   UNL     1      11.777 -60.513 -23.140  1.00  0.00    -0.332 N 
ATOM     31  H   UNL     1      12.337 -61.283 -22.739  1.00  0.00     0.348 HD
BRANCH  30  32
ATOM     32  C   UNL     1      12.410 -60.236 -24.501  1.00  0.00     0.258 C 
ATOM     33  C   UNL     1      13.779 -60.884 -24.637  1.00  0.00     0.071 C 
ENDBRANCH  30  32
BRANCH  30  34
ATOM     34  C   UNL     1      10.336 -61.091 -23.242  1.00  0.00     0.184 C 
ATOM     35  C   UNL     1       9.867 -61.070 -24.710  1.00  0.00     0.065 C 
ATOM     36  C   UNL     1      10.297 -62.527 -22.689  1.00  0.00     0.065 C 
ATOM     37  C   UNL     1       8.524 -61.769 -24.909  1.00  0.00     0.006 C 
ATOM     38  C   UNL     1       8.948 -63.209 -22.906  1.00  0.00     0.006 C 
ATOM     39  C   UNL     1       8.540 -63.192 -24.372  1.00  0.00     0.000 C 
ENDBRANCH  30  34
ENDBRANCH  29  30
ENDBRANCH  28  29
ENDBRANCH   5  28
TORSDOF 9
ENDMDL
MODEL 5
REMARK VINA RESULT:    -9.830      2.408      5.186
REMARK INTER + INTRA:         -16.407
REMARK INTER:                 -15.605
REMARK INTRA:                  -0.803
REMARK UNBOUND:                -1.405
REMARK SMILES CC[N@@H+](CCC(=O)N1CC[NH+](CCN=c2c3c([nH]c4ccccc24)CCCC3)CC1)C1CCCCC1
REMARK SMILES IDX 11 1 10 2 9 3 8 4 6 5 7 6 30 7 29 8 12 10 13 11 14 12 15 13
REMARK SMILES IDX 18 14 17 15 19 16 16 17 25 18 20 19 24 20 28 21 26 22 21 23
REMARK SMILES IDX 23 24 27 25 22 26 5 28 4 29 3 30 2 32 1 33 31 34 32 35 36 36
REMARK SMILES IDX 33 37 35 38 34 39
REMARK H PARENT 11 9 18 27 3 31
ROOT
ATOM      1  N   UNL     1      10.532 -53.638 -22.556  1.00  0.00    -0.330 N 
ATOM      2  C   UNL     1      10.757 -54.284 -23.929  1.00  0.00     0.284 C 
ATOM      3  C   UNL     1      11.797 -55.408 -23.810  1.00  0.00     0.181 C 
ATOM      4  N   UNL     1      11.402 -56.397 -22.795  1.00  0.00    -0.331 N 
ATOM      5  C   UNL     1      11.060 -57.674 -23.211  1.00  0.00     0.228 C 
ATOM      6  O   UNL     1      10.989 -57.958 -24.406  1.00  0.00    -0.275 OA
ATOM      7  C   UNL     1      11.184 -55.833 -21.458  1.00  0.00     0.181 C 
ATOM      8  C   UNL     1      10.154 -54.681 -21.502  1.00  0.00     0.284 C 
ATOM      9  H   UNL     1      11.418 -53.202 -22.265  1.00  0.00     0.348 HD
ENDROOT
BRANCH   1  10
ATOM     10  C   UNL     1       9.487 -52.529 -22.594  1.00  0.00     0.286 C 
BRANCH  10  11
ATOM     11  C   UNL     1      10.010 -51.198 -22.025  1.00  0.00     0.204 C 
BRANCH  11  12
ATOM     12  N   UNL     1      11.362 -51.044 -22.495  1.00  0.00    -0.278 NA
BRANCH  12  13
ATOM     13  C   UNL     1      11.840 -50.139 -23.274  1.00  0.00     0.072 A 
ATOM     14  N   UNL     1      13.176 -48.383 -25.074  1.00  0.00    -0.358 N 
ATOM     15  C   UNL     1      12.241 -47.879 -24.202  1.00  0.00     0.021 A 
ATOM     16  C   UNL     1      13.415 -49.751 -25.198  1.00  0.00     0.048 A 
ATOM     17  C   UNL     1      11.570 -48.636 -23.300  1.00  0.00    -0.003 A 
ATOM     18  C   UNL     1      11.995 -46.387 -24.344  1.00  0.00     0.054 C 
ATOM     19  C   UNL     1      14.316 -50.226 -26.159  1.00  0.00     0.027 A 
ATOM     20  C   UNL     1      12.800 -50.653 -24.324  1.00  0.00     0.024 A 
ATOM     21  C   UNL     1      10.573 -48.019 -22.353  1.00  0.00     0.039 C 
ATOM     22  C   UNL     1      10.678 -45.920 -23.734  1.00  0.00     0.007 C 
ATOM     23  C   UNL     1      14.586 -51.591 -26.266  1.00  0.00     0.002 A 
ATOM     24  C   UNL     1      13.076 -52.026 -24.436  1.00  0.00     0.012 A 
ATOM     25  C   UNL     1      10.534 -46.488 -22.335  1.00  0.00     0.005 C 
ATOM     26  C   UNL     1      13.963 -52.492 -25.407  1.00  0.00     0.001 A 
ATOM     27  H   UNL     1      13.534 -47.773 -25.801  1.00  0.00     0.166 HD
ENDBRANCH  12  13
ENDBRANCH  11  12
ENDBRANCH  10  11
ENDBRANCH   1  10
BRANCH   5  28
ATOM     28  C   UNL     1      10.778 -58.732 -22.157  1.00  0.00     0.161 C 
BRANCH  28  29
ATOM     29  C   UNL     1       9.339 -59.227 -22.334  1.00  0.00     0.272 C 
BRANCH  29  30
ATOM     30  N   UNL     1       8.923 -59.401 -23.801  1.00  0.00    -0.332 N 
ATOM     31  H   UNL     1       9.605 -58.829 -24.325  1.00  0.00     0.348 HD
BRANCH  30  32
ATOM     32  C   UNL     1       7.564 -58.786 -24.128  1.00  0.00     0.258 C 
ATOM     33  C   UNL     1       6.710 -58.592 -22.885  1.00  0.00     0.071 C 
ENDBRANCH  30  32
BRANCH  30  34
ATOM     34  C   UNL     1       9.097 -60.838 -24.372  1.00  0.00     0.184 C 
ATOM     35  C   UNL     1       7.922 -61.726 -23.920  1.00  0.00     0.065 C 
ATOM     36  C   UNL     1       9.174 -60.795 -25.910  1.00  0.00     0.065 C 
ATOM     37  C   UNL     1       7.942 -63.107 -24.574  1.00  0.00     0.006 C 
ATOM     38  C   UNL     1       9.185 -62.185 -26.541  1.00  0.00     0.006 C 
ATOM     39  C   UNL     1       7.992 -63.015 -26.092  1.00  0.00     0.000 C 
ENDBRANCH  30  34
ENDBRANCH  29  30
ENDBRANCH  28  29
ENDBRANCH   5  28
TORSDOF 9
ENDMDL
MODEL 6
REMARK VINA RESULT:    -9.799      2.992     10.697
REMARK INTER + INTRA:         -16.359
REMARK INTER:                 -15.142
REMARK INTRA:                  -1.217
REMARK UNBOUND:                -1.405
REMARK SMILES CC[N@@H+](CCC(=O)N1CC[NH+](CCN=c2c3c([nH]c4ccccc24)CCCC3)CC1)C1CCCCC1
REMARK SMILES IDX 11 1 10 2 9 3 8 4 6 5 7 6 30 7 29 8 12 10 13 11 14 12 15 13
REMARK SMILES IDX 18 14 17 15 19 16 16 17 25 18 20 19 24 20 28 21 26 22 21 23
REMARK SMILES IDX 23 24 27 25 22 26 5 28 4 29 3 30 2 32 1 33 31 34 32 35 36 36
REMARK SMILES IDX 33 37 35 38 34 39
REMARK H PARENT 11 9 18 27 3 31
ROOT
ATOM      1  N   UNL     1      10.849 -56.494 -22.897  1.00  0.00    -0.330 N 
ATOM      2  C   UNL     1      11.632 -55.816 -24.027  1.00  0.00     0.284 C 
ATOM      3  C   UNL     1      11.017 -54.442 -24.333  1.00  0.00     0.181 C 
ATOM      4  N   UNL     1      10.956 -53.603 -23.127  1.00  0.00    -0.331 N 
ATOM      5  C   UNL     1      11.762 -52.477 -23.059  1.00  0.00     0.228 C 
ATOM      6  O   UNL     1      12.586 -52.229 -23.939  1.00  0.00    -0.275 OA
ATOM      7  C   UNL     1      10.207 -54.201 -22.015  1.00  0.00     0.181 C 
ATOM      8  C   UNL     1      10.764 -55.598 -21.659  1.00  0.00     0.284 C 
ATOM      9  H   UNL     1       9.890 -56.659 -23.234  1.00  0.00     0.348 HD
ENDROOT
BRANCH   1  10
ATOM     10  C   UNL     1      11.423 -57.855 -22.520  1.00  0.00     0.286 C 
BRANCH  10  11
ATOM     11  C   UNL     1      10.377 -58.982 -22.584  1.00  0.00     0.204 C 
BRANCH  11  12
ATOM     12  N   UNL     1      10.907 -59.997 -23.456  1.00  0.00    -0.278 NA
BRANCH  12  13
ATOM     13  C   UNL     1      10.312 -60.623 -24.410  1.00  0.00     0.072 A 
ATOM     14  N   UNL     1       9.121 -61.731 -26.747  1.00  0.00    -0.358 N 
ATOM     15  C   UNL     1       8.703 -62.150 -25.507  1.00  0.00     0.021 A 
ATOM     16  C   UNL     1      10.199 -60.862 -26.912  1.00  0.00     0.048 A 
ATOM     17  C   UNL     1       9.199 -61.666 -24.343  1.00  0.00    -0.003 A 
ATOM     18  C   UNL     1       7.638 -63.233 -25.542  1.00  0.00     0.054 C 
ATOM     19  C   UNL     1      10.646 -60.527 -28.196  1.00  0.00     0.027 A 
ATOM     20  C   UNL     1      10.805 -60.275 -25.797  1.00  0.00     0.024 A 
ATOM     21  C   UNL     1       8.680 -62.151 -23.013  1.00  0.00     0.039 C 
ATOM     22  C   UNL     1       7.510 -64.010 -24.235  1.00  0.00     0.007 C 
ATOM     23  C   UNL     1      11.703 -59.632 -28.370  1.00  0.00     0.002 A 
ATOM     24  C   UNL     1      11.868 -59.375 -25.977  1.00  0.00     0.012 A 
ATOM     25  C   UNL     1       7.435 -63.042 -23.071  1.00  0.00     0.005 C 
ATOM     26  C   UNL     1      12.317 -59.059 -27.260  1.00  0.00     0.001 A 
ATOM     27  H   UNL     1       8.792 -62.236 -27.562  1.00  0.00     0.166 HD
ENDBRANCH  12  13
ENDBRANCH  11  12
ENDBRANCH  10  11
ENDBRANCH   1  10
BRANCH   5  28
ATOM     28  C   UNL     1      11.607 -51.539 -21.874  1.00  0.00     0.161 C 
BRANCH  28  29
ATOM     29  C   UNL     1      10.863 -50.284 -22.339  1.00  0.00     0.272 C 
BRANCH  29  30
ATOM     30  N   UNL     1      11.771 -49.238 -23.001  1.00  0.00    -0.332 N 
ATOM     31  H   UNL     1      12.028 -49.667 -23.905  1.00  0.00     0.348 HD
BRANCH  30  32
ATOM     32  C   UNL     1      13.097 -49.032 -22.275  1.00  0.00     0.258 C 
ATOM     33  C   UNL     1      14.291 -49.349 -23.162  1.00  0.00     0.071 C 
ENDBRANCH  30  32
BRANCH  30  34
ATOM     34  C   UNL     1      11.071 -47.903 -23.387  1.00  0.00     0.184 C 
ATOM     35  C   UNL     1      10.816 -47.062 -22.122  1.00  0.00     0.065 C 
ATOM     36  C   UNL     1      11.939 -47.116 -24.386  1.00  0.00     0.065 C 
ATOM     37  C   UNL     1      10.277 -45.669 -22.439  1.00  0.00     0.006 C 
ATOM     38  C   UNL     1      11.385 -45.724 -24.683  1.00  0.00     0.006 C 
ATOM     39  C   UNL     1      11.178 -44.919 -23.409  1.00  0.00     0.000 C 
ENDBRANCH  30  34
ENDBRANCH  29  30
ENDBRANCH  28  29
ENDBRANCH   5  28
TORSDOF 9
ENDMDL
MODEL 7
REMARK VINA RESULT:    -9.795      2.286      9.991
REMARK INTER + INTRA:         -16.354
REMARK INTER:                 -15.322
REMARK INTRA:                  -1.032
REMARK UNBOUND:                -1.405
REMARK SMILES CC[N@@H+](CCC(=O)N1CC[NH+](CCN=c2c3c([nH]c4ccccc24)CCCC3)CC1)C1CCCCC1
REMARK SMILES IDX 11 1 10 2 9 3 8 4 6 5 7 6 30 7 29 8 12 10 13 11 14 12 15 13
REMARK SMILES IDX 18 14 17 15 19 16 16 17 25 18 20 19 24 20 28 21 26 22 21 23
REMARK SMILES IDX 23 24 27 25 22 26 5 28 4 29 3 30 2 32 1 33 31 34 32 35 36 36
REMARK SMILES IDX 33 37 35 38 34 39
REMARK H PARENT 11 9 18 27 3 31
ROOT
ATOM      1  N   UNL     1      10.551 -58.326 -21.877  1.00  0.00    -0.330 N 
ATOM      2  C   UNL     1      10.014 -57.925 -23.257  1.00  0.00     0.284 C 
ATOM      3  C   UNL     1       9.296 -56.570 -23.160  1.00  0.00     0.181 C 
ATOM      4  N   UNL     1      10.177 -55.537 -22.591  1.00  0.00    -0.331 N 
ATOM      5  C   UNL     1      10.594 -54.498 -23.408  1.00  0.00     0.228 C 
ATOM      6  O   UNL     1      10.323 -54.481 -24.607  1.00  0.00    -0.275 OA
ATOM      7  C   UNL     1      10.710 -55.867 -21.265  1.00  0.00     0.181 C 
ATOM      8  C   UNL     1      11.438 -57.230 -21.282  1.00  0.00     0.284 C 
ATOM      9  H   UNL     1       9.744 -58.453 -21.251  1.00  0.00     0.348 HD
ENDROOT
BRANCH   1  10
ATOM     10  C   UNL     1      11.302 -59.652 -21.903  1.00  0.00     0.286 C 
BRANCH  10  11
ATOM     11  C   UNL     1      12.263 -59.770 -23.099  1.00  0.00     0.204 C 
BRANCH  11  12
ATOM     12  N   UNL     1      12.008 -61.044 -23.719  1.00  0.00    -0.278 NA
BRANCH  12  13
ATOM     13  C   UNL     1      11.044 -61.373 -24.504  1.00  0.00     0.072 A 
ATOM     14  N   UNL     1       9.023 -61.812 -26.461  1.00  0.00    -0.358 N 
ATOM     15  C   UNL     1       8.893 -62.372 -25.213  1.00  0.00     0.021 A 
ATOM     16  C   UNL     1      10.173 -61.128 -26.852  1.00  0.00     0.048 A 
ATOM     17  C   UNL     1       9.794 -62.202 -24.215  1.00  0.00    -0.003 A 
ATOM     18  C   UNL     1       7.651 -63.230 -25.040  1.00  0.00     0.054 C 
ATOM     19  C   UNL     1      10.297 -60.646 -28.161  1.00  0.00     0.027 A 
ATOM     20  C   UNL     1      11.185 -60.868 -25.923  1.00  0.00     0.024 A 
ATOM     21  C   UNL     1       9.582 -62.824 -22.859  1.00  0.00     0.039 C 
ATOM     22  C   UNL     1       7.732 -64.198 -23.864  1.00  0.00     0.007 C 
ATOM     23  C   UNL     1      11.431 -59.931 -28.550  1.00  0.00     0.002 A 
ATOM     24  C   UNL     1      12.324 -60.147 -26.320  1.00  0.00     0.012 A 
ATOM     25  C   UNL     1       8.208 -63.461 -22.627  1.00  0.00     0.005 C 
ATOM     26  C   UNL     1      12.446 -59.685 -27.630  1.00  0.00     0.001 A 
ATOM     27  H   UNL     1       8.372 -62.096 -27.185  1.00  0.00     0.166 HD
ENDBRANCH  12  13
ENDBRANCH  11  12
ENDBRANCH  10  11
ENDBRANCH   1  10
BRANCH   5  28
ATOM     28  C   UNL     1      11.395 -53.364 -22.790  1.00  0.00     0.161 C 
BRANCH  28  29
ATOM     29  C   UNL     1      12.146 -52.632 -23.907  1.00  0.00     0.272 C 
BRANCH  29  30
ATOM     30  N   UNL     1      12.858 -51.356 -23.438  1.00  0.00    -0.332 N 
ATOM     31  H   UNL     1      13.747 -51.697 -23.039  1.00  0.00     0.348 HD
BRANCH  30  32
ATOM     32  C   UNL     1      12.154 -50.654 -22.278  1.00  0.00     0.258 C 
ATOM     33  C   UNL     1      11.066 -49.707 -22.759  1.00  0.00     0.071 C 
ENDBRANCH  30  32
BRANCH  30  34
ATOM     34  C   UNL     1      13.286 -50.381 -24.573  1.00  0.00     0.184 C 
ATOM     35  C   UNL     1      14.495 -49.543 -24.113  1.00  0.00     0.065 C 
ATOM     36  C   UNL     1      13.637 -51.170 -25.848  1.00  0.00     0.065 C 
ATOM     37  C   UNL     1      15.071 -48.678 -25.232  1.00  0.00     0.006 C 
ATOM     38  C   UNL     1      14.218 -50.287 -26.950  1.00  0.00     0.006 C 
ATOM     39  C   UNL     1      15.426 -49.502 -26.461  1.00  0.00     0.000 C 
ENDBRANCH  30  34
ENDBRANCH  29  30
ENDBRANCH  28  29
ENDBRANCH   5  28
TORSDOF 9
ENDMDL
MODEL 8
REMARK VINA RESULT:    -9.723      2.900      6.157
REMARK INTER + INTRA:         -16.244
REMARK INTER:                 -15.444
REMARK INTRA:                  -0.800
REMARK UNBOUND:                -1.405
REMARK SMILES CC[N@@H+](CCC(=O)N1CC[NH+](CCN=c2c3c([nH]c4ccccc24)CCCC3)CC1)C1CCCCC1
REMARK SMILES IDX 11 1 10 2 9 3 8 4 6 5 7 6 30 7 29 8 12 10 13 11 14 12 15 13
REMARK SMILES IDX 18 14 17 15 19 16 16 17 25 18 20 19 24 20 28 21 26 22 21 23
REMARK SMILES IDX 23 24 27 25 22 26 5 28 4 29 3 30 2 32 1 33 31 34 32 35 36 36
REMARK SMILES IDX 33 37 35 38 34 39
REMARK H PARENT 11 9 18 27 3 31
ROOT
ATOM      1  N   UNL     1      11.182 -52.601 -22.745  1.00  0.00    -0.330 N 
ATOM      2  C   UNL     1      10.834 -53.487 -21.544  1.00  0.00     0.284 C 
ATOM      3  C   UNL     1      10.036 -54.713 -22.017  1.00  0.00     0.181 C 
ATOM      4  N   UNL     1      10.765 -55.457 -23.056  1.00  0.00    -0.331 N 
ATOM      5  C   UNL     1      11.241 -56.723 -22.755  1.00  0.00     0.228 C 
ATOM      6  O   UNL     1      11.149 -57.186 -21.619  1.00  0.00    -0.275 OA
ATOM      7  C   UNL     1      11.115 -54.656 -24.235  1.00  0.00     0.181 C 
ATOM      8  C   UNL     1      11.910 -53.394 -23.833  1.00  0.00     0.284 C 
ATOM      9  H   UNL     1      10.300 -52.253 -23.146  1.00  0.00     0.348 HD
ENDROOT
BRANCH   1  10
ATOM     10  C   UNL     1      12.001 -51.376 -22.353  1.00  0.00     0.286 C 
BRANCH  10  11
ATOM     11  C   UNL     1      13.132 -51.070 -23.350  1.00  0.00     0.204 C 
BRANCH  11  12
ATOM     12  N   UNL     1      12.564 -50.251 -24.389  1.00  0.00    -0.278 NA
BRANCH  12  13
ATOM     13  C   UNL     1      12.794 -49.011 -24.646  1.00  0.00     0.072 A 
ATOM     14  N   UNL     1      13.632 -46.386 -25.360  1.00  0.00    -0.358 N 
ATOM     15  C   UNL     1      12.612 -46.550 -24.455  1.00  0.00     0.021 A 
ATOM     16  C   UNL     1      14.201 -47.461 -26.041  1.00  0.00     0.048 A 
ATOM     17  C   UNL     1      12.160 -47.759 -24.043  1.00  0.00    -0.003 A 
ATOM     18  C   UNL     1      12.003 -45.250 -23.958  1.00  0.00     0.054 C 
ATOM     19  C   UNL     1      15.180 -47.240 -27.018  1.00  0.00     0.027 A 
ATOM     20  C   UNL     1      13.839 -48.771 -25.713  1.00  0.00     0.024 A 
ATOM     21  C   UNL     1      11.052 -47.873 -23.028  1.00  0.00     0.039 C 
ATOM     22  C   UNL     1      10.618 -45.417 -23.341  1.00  0.00     0.007 C 
ATOM     23  C   UNL     1      15.779 -48.313 -27.680  1.00  0.00     0.002 A 
ATOM     24  C   UNL     1      14.445 -49.847 -26.382  1.00  0.00     0.012 A 
ATOM     25  C   UNL     1      10.636 -46.564 -22.350  1.00  0.00     0.005 C 
ATOM     26  C   UNL     1      15.408 -49.617 -27.365  1.00  0.00     0.001 A 
ATOM     27  H   UNL     1      13.819 -45.452 -25.710  1.00  0.00     0.166 HD
ENDBRANCH  12  13
ENDBRANCH  11  12
ENDBRANCH  10  11
ENDBRANCH   1  10
BRANCH   5  28
ATOM     28  C   UNL     1      11.879 -57.544 -23.863  1.00  0.00     0.161 C 
BRANCH  28  29
ATOM     29  C   UNL     1      11.736 -59.029 -23.515  1.00  0.00     0.272 C 
BRANCH  29  30
ATOM     30  N   UNL     1      11.869 -59.962 -24.727  1.00  0.00    -0.332 N 
ATOM     31  H   UNL     1      12.870 -60.218 -24.738  1.00  0.00     0.348 HD
BRANCH  30  32
ATOM     32  C   UNL     1      11.629 -59.266 -26.064  1.00  0.00     0.258 C 
ATOM     33  C   UNL     1      12.567 -59.772 -27.148  1.00  0.00     0.071 C 
ENDBRANCH  30  32
BRANCH  30  34
ATOM     34  C   UNL     1      11.120 -61.320 -24.601  1.00  0.00     0.184 C 
ATOM     35  C   UNL     1      10.934 -61.679 -23.114  1.00  0.00     0.065 C 
ATOM     36  C   UNL     1       9.753 -61.243 -25.306  1.00  0.00     0.065 C 
ATOM     37  C   UNL     1      10.067 -62.920 -22.911  1.00  0.00     0.006 C 
ATOM     38  C   UNL     1       8.901 -62.490 -25.084  1.00  0.00     0.006 C 
ATOM     39  C   UNL     1       8.718 -62.788 -23.603  1.00  0.00     0.000 C 
ENDBRANCH  30  34
ENDBRANCH  29  30
ENDBRANCH  28  29
ENDBRANCH   5  28
TORSDOF 9
ENDMDL
MODEL 9
REMARK VINA RESULT:    -9.689      2.973      5.878
REMARK INTER + INTRA:         -16.192
REMARK INTER:                 -15.224
REMARK INTRA:                  -0.968
REMARK UNBOUND:                -1.405
REMARK SMILES CC[N@@H+](CCC(=O)N1CC[NH+](CCN=c2c3c([nH]c4ccccc24)CCCC3)CC1)C1CCCCC1
REMARK SMILES IDX 11 1 10 2 9 3 8 4 6 5 7 6 30 7 29 8 12 10 13 11 14 12 15 13
REMARK SMILES IDX 18 14 17 15 19 16 16 17 25 18 20 19 24 20 28 21 26 22 21 23
REMARK SMILES IDX 23 24 27 25 22 26 5 28 4 29 3 30 2 32 1 33 31 34 32 35 36 36
REMARK SMILES IDX 33 37 35 38 34 39
REMARK H PARENT 11 9 18 27 3 31
ROOT
ATOM      1  N   UNL     1      10.719 -52.937 -22.455  1.00  0.00    -0.330 N 
ATOM      2  C   UNL     1      10.474 -53.945 -21.325  1.00  0.00     0.284 C 
ATOM      3  C   UNL     1       9.818 -55.213 -21.893  1.00  0.00     0.181 C 
ATOM      4  N   UNL     1      10.625 -55.790 -22.980  1.00  0.00    -0.331 N 
ATOM      5  C   UNL     1      11.240 -57.014 -22.772  1.00  0.00     0.228 C 
ATOM      6  O   UNL     1      11.203 -57.568 -21.674  1.00  0.00    -0.275 OA
ATOM      7  C   UNL     1      10.880 -54.869 -24.094  1.00  0.00     0.181 C 
ATOM      8  C   UNL     1      11.530 -53.559 -23.593  1.00  0.00     0.284 C 
ATOM      9  H   UNL     1       9.802 -52.661 -22.834  1.00  0.00     0.348 HD
ENDROOT
BRANCH   1  10
ATOM     10  C   UNL     1      11.395 -51.661 -21.966  1.00  0.00     0.286 C 
BRANCH  10  11
ATOM     11  C   UNL     1      10.678 -50.386 -22.444  1.00  0.00     0.204 C 
BRANCH  11  12
ATOM     12  N   UNL     1      11.637 -49.314 -22.373  1.00  0.00    -0.278 NA
BRANCH  12  13
ATOM     13  C   UNL     1      12.155 -48.640 -23.338  1.00  0.00     0.072 A 
ATOM     14  N   UNL     1      13.034 -46.889 -25.404  1.00  0.00    -0.358 N 
ATOM     15  C   UNL     1      13.450 -48.199 -25.401  1.00  0.00     0.021 A 
ATOM     16  C   UNL     1      12.286 -46.345 -24.361  1.00  0.00     0.048 A 
ATOM     17  C   UNL     1      13.069 -49.106 -24.469  1.00  0.00    -0.003 A 
ATOM     18  C   UNL     1      14.404 -48.553 -26.528  1.00  0.00     0.054 C 
ATOM     19  C   UNL     1      11.955 -44.984 -24.365  1.00  0.00     0.027 A 
ATOM     20  C   UNL     1      11.813 -47.166 -23.334  1.00  0.00     0.024 A 
ATOM     21  C   UNL     1      13.542 -50.535 -24.534  1.00  0.00     0.039 C 
ATOM     22  C   UNL     1      15.211 -49.823 -26.274  1.00  0.00     0.007 C 
ATOM     23  C   UNL     1      11.179 -44.439 -23.341  1.00  0.00     0.002 A 
ATOM     24  C   UNL     1      11.031 -46.613 -22.306  1.00  0.00     0.012 A 
ATOM     25  C   UNL     1      14.284 -50.932 -25.814  1.00  0.00     0.005 C 
ATOM     26  C   UNL     1      10.720 -45.253 -22.309  1.00  0.00     0.001 A 
ATOM     27  H   UNL     1      13.468 -46.248 -26.060  1.00  0.00     0.166 HD
ENDBRANCH  12  13
ENDBRANCH  11  12
ENDBRANCH  10  11
ENDBRANCH   1  10
BRANCH   5  28
ATOM     28  C   UNL     1      11.964 -57.673 -23.933  1.00  0.00     0.161 C 
BRANCH  28  29
ATOM     29  C   UNL     1      12.101 -59.170 -23.639  1.00  0.00     0.272 C 
BRANCH  29  30
ATOM     30  N   UNL     1      12.041 -60.054 -24.892  1.00  0.00    -0.332 N 
ATOM     31  H   UNL     1      13.009 -60.398 -25.002  1.00  0.00     0.348 HD
BRANCH  30  32
ATOM     32  C   UNL     1      11.755 -59.277 -26.175  1.00  0.00     0.258 C 
ATOM     33  C   UNL     1      12.541 -59.818 -27.358  1.00  0.00     0.071 C 
ENDBRANCH  30  32
BRANCH  30  34
ATOM     34  C   UNL     1      11.181 -61.343 -24.752  1.00  0.00     0.184 C 
ATOM     35  C   UNL     1      11.018 -61.703 -23.263  1.00  0.00     0.065 C 
ATOM     36  C   UNL     1       9.802 -61.138 -25.407  1.00  0.00     0.065 C 
ATOM     37  C   UNL     1      10.053 -62.866 -23.041  1.00  0.00     0.006 C 
ATOM     38  C   UNL     1       8.852 -62.308 -25.166  1.00  0.00     0.006 C 
ATOM     39  C   UNL     1       8.697 -62.608 -23.682  1.00  0.00     0.000 C 
ENDBRANCH  30  34
ENDBRANCH  29  30
ENDBRANCH  28  29
ENDBRANCH   5  28
TORSDOF 9
ENDMDL
