MODEL 1
REMARK VINA RESULT:   -11.914      0.000      0.000
REMARK INTER + INTRA:         -15.907
REMARK INTER:                 -15.396
REMARK INTRA:                  -0.511
REMARK UNBOUND:                -0.511
REMARK SMILES O=C1Cc2c(ccc3c(CC[C@H]4CC[N@@H+](Cc5ccccc5)CC4)noc23)N1
REMARK SMILES IDX 11 1 12 2 14 3 15 4 13 5 23 6 24 7 16 9 17 10 18 11 22 12
REMARK SMILES IDX 19 13 21 14 20 15 10 16 9 17 8 18 25 19 7 20 27 21 26 22
REMARK SMILES IDX 6 23 4 24 5 25 3 26 28 27 2 28 1 30
REMARK H PARENT 15 8 28 29
ROOT
ATOM      1  C   UNL     1      12.123 -58.593 -23.383  1.00  0.00     0.010 C 
ENDROOT
BRANCH   1   2
ATOM      2  C   UNL     1      11.053 -58.500 -22.274  1.00  0.00     0.000 C 
ATOM      3  C   UNL     1      11.286 -56.021 -21.699  1.00  0.00     0.262 C 
ATOM      4  N   UNL     1       9.915 -55.774 -22.285  1.00  0.00    -0.331 N 
ATOM      5  C   UNL     1      11.375 -57.457 -21.193  1.00  0.00     0.065 C 
ATOM      6  C   UNL     1       9.569 -56.743 -23.387  1.00  0.00     0.262 C 
ATOM      7  C   UNL     1       9.674 -58.175 -22.874  1.00  0.00     0.065 C 
ATOM      8  H   UNL     1       9.237 -55.910 -21.525  1.00  0.00     0.348 HD
BRANCH   4   9
ATOM      9  C   UNL     1       9.735 -54.339 -22.744  1.00  0.00     0.299 C 
BRANCH   9  10
ATOM     10  C   UNL     1      10.904 -53.821 -23.535  1.00  0.00     0.006 A 
ATOM     11  C   UNL     1      11.425 -54.562 -24.607  1.00  0.00     0.009 A 
ATOM     12  C   UNL     1      11.505 -52.597 -23.198  1.00  0.00     0.009 A 
ATOM     13  C   UNL     1      12.528 -54.092 -25.321  1.00  0.00     0.001 A 
ATOM     14  C   UNL     1      12.608 -52.132 -23.915  1.00  0.00     0.001 A 
ATOM     15  C   UNL     1      13.119 -52.880 -24.974  1.00  0.00     0.000 A 
ENDBRANCH   9  10
ENDBRANCH   4   9
ENDBRANCH   1   2
BRANCH   1  16
ATOM     16  C   UNL     1      12.506 -60.031 -23.767  1.00  0.00     0.061 C 
BRANCH  16  17
ATOM     17  C   UNL     1      11.408 -60.712 -24.512  1.00  0.00     0.091 A 
ATOM     18  C   UNL     1      10.442 -61.633 -24.034  1.00  0.00     0.045 A 
ATOM     19  N   UNL     1      11.254 -60.462 -25.822  1.00  0.00    -0.084 NA
ATOM     20  C   UNL     1      10.109 -62.256 -22.806  1.00  0.00     0.016 A 
ATOM     21  C   UNL     1       9.689 -61.922 -25.164  1.00  0.00     0.172 A 
ATOM     22  O   UNL     1      10.169 -61.227 -26.225  1.00  0.00    -0.356 OA
ATOM     23  C   UNL     1       9.025 -63.150 -22.758  1.00  0.00     0.027 A 
ATOM     24  C   UNL     1       8.620 -62.796 -25.145  1.00  0.00     0.031 A 
ATOM     25  C   UNL     1       8.319 -63.391 -23.921  1.00  0.00     0.048 A 
ATOM     26  C   UNL     1       7.664 -63.273 -26.199  1.00  0.00     0.142 C 
ATOM     27  N   UNL     1       7.228 -64.230 -24.083  1.00  0.00    -0.325 N 
ATOM     28  C   UNL     1       6.770 -64.225 -25.397  1.00  0.00     0.229 C 
ATOM     29  H   UNL     1       6.794 -64.790 -23.362  1.00  0.00     0.169 HD
ATOM     30  O   UNL     1       5.824 -64.867 -25.822  1.00  0.00    -0.274 OA
ENDBRANCH  16  17
ENDBRANCH   1  16
TORSDOF 5
ENDMDL
MODEL 2
REMARK VINA RESULT:   -11.871      3.557      9.970
REMARK INTER + INTRA:         -15.852
REMARK INTER:                 -15.286
REMARK INTRA:                  -0.565
REMARK UNBOUND:                -0.511
REMARK SMILES O=C1Cc2c(ccc3c(CC[C@H]4CC[N@@H+](Cc5ccccc5)CC4)noc23)N1
REMARK SMILES IDX 11 1 12 2 14 3 15 4 13 5 23 6 24 7 16 9 17 10 18 11 22 12
REMARK SMILES IDX 19 13 21 14 20 15 10 16 9 17 8 18 25 19 7 20 27 21 26 22
REMARK SMILES IDX 6 23 4 24 5 25 3 26 28 27 2 28 1 30
REMARK H PARENT 15 8 28 29
ROOT
ATOM      1  C   UNL     1      11.365 -56.853 -23.072  1.00  0.00     0.010 C 
ENDROOT
BRANCH   1   2
ATOM      2  C   UNL     1      10.599 -57.814 -22.137  1.00  0.00     0.000 C 
ATOM      3  C   UNL     1       9.514 -59.310 -23.902  1.00  0.00     0.262 C 
ATOM      4  N   UNL     1      10.398 -60.451 -23.453  1.00  0.00    -0.331 N 
ATOM      5  C   UNL     1       9.291 -58.348 -22.740  1.00  0.00     0.065 C 
ATOM      6  C   UNL     1      11.719 -59.982 -22.896  1.00  0.00     0.262 C 
ATOM      7  C   UNL     1      11.483 -59.011 -21.745  1.00  0.00     0.065 C 
ATOM      8  H   UNL     1       9.896 -60.937 -22.699  1.00  0.00     0.348 HD
BRANCH   4   9
ATOM      9  C   UNL     1      10.603 -61.486 -24.544  1.00  0.00     0.299 C 
BRANCH   9  10
ATOM     10  C   UNL     1       9.387 -62.336 -24.786  1.00  0.00     0.006 A 
ATOM     11  C   UNL     1       8.796 -62.391 -26.057  1.00  0.00     0.009 A 
ATOM     12  C   UNL     1       8.813 -63.072 -23.736  1.00  0.00     0.009 A 
ATOM     13  C   UNL     1       7.651 -63.159 -26.272  1.00  0.00     0.001 A 
ATOM     14  C   UNL     1       7.667 -63.838 -23.957  1.00  0.00     0.001 A 
ATOM     15  C   UNL     1       7.087 -63.880 -25.223  1.00  0.00     0.000 A 
ENDBRANCH   9  10
ENDBRANCH   4   9
ENDBRANCH   1   2
BRANCH   1  16
ATOM     16  C   UNL     1      10.809 -55.421 -23.092  1.00  0.00     0.061 C 
BRANCH  16  17
ATOM     17  C   UNL     1      11.587 -54.543 -24.013  1.00  0.00     0.091 A 
ATOM     18  C   UNL     1      11.886 -53.162 -23.891  1.00  0.00     0.045 A 
ATOM     19  N   UNL     1      12.109 -55.069 -25.132  1.00  0.00    -0.084 NA
ATOM     20  C   UNL     1      11.625 -52.113 -22.976  1.00  0.00     0.016 A 
ATOM     21  C   UNL     1      12.632 -52.895 -25.032  1.00  0.00     0.172 A 
ATOM     22  O   UNL     1      12.765 -54.026 -25.768  1.00  0.00    -0.356 OA
ATOM     23  C   UNL     1      12.127 -50.827 -23.241  1.00  0.00     0.027 A 
ATOM     24  C   UNL     1      13.136 -51.642 -25.316  1.00  0.00     0.031 A 
ATOM     25  C   UNL     1      12.862 -50.632 -24.395  1.00  0.00     0.048 A 
ATOM     26  C   UNL     1      13.952 -51.095 -26.451  1.00  0.00     0.142 C 
ATOM     27  N   UNL     1      13.440 -49.451 -24.834  1.00  0.00    -0.325 N 
ATOM     28  C   UNL     1      14.107 -49.626 -26.042  1.00  0.00     0.229 C 
ATOM     29  H   UNL     1      13.400 -48.557 -24.364  1.00  0.00     0.169 HD
ATOM     30  O   UNL     1      14.707 -48.759 -26.655  1.00  0.00    -0.274 OA
ENDBRANCH  16  17
ENDBRANCH   1  16
TORSDOF 5
ENDMDL
MODEL 3
REMARK VINA RESULT:   -11.686      3.756     10.128
REMARK INTER + INTRA:         -15.612
REMARK INTER:                 -14.991
REMARK INTRA:                  -0.622
REMARK UNBOUND:                -0.511
REMARK SMILES O=C1Cc2c(ccc3c(CC[C@H]4CC[N@@H+](Cc5ccccc5)CC4)noc23)N1
REMARK SMILES IDX 11 1 12 2 14 3 15 4 13 5 23 6 24 7 16 9 17 10 18 11 22 12
REMARK SMILES IDX 19 13 21 14 20 15 10 16 9 17 8 18 25 19 7 20 27 21 26 22
REMARK SMILES IDX 6 23 4 24 5 25 3 26 28 27 2 28 1 30
REMARK H PARENT 15 8 28 29
ROOT
ATOM      1  C   UNL     1      11.358 -56.749 -23.225  1.00  0.00     0.010 C 
ENDROOT
BRANCH   1   2
ATOM      2  C   UNL     1      10.795 -57.767 -22.211  1.00  0.00     0.000 C 
ATOM      3  C   UNL     1       9.559 -59.308 -23.833  1.00  0.00     0.262 C 
ATOM      4  N   UNL     1      10.566 -60.396 -23.538  1.00  0.00    -0.331 N 
ATOM      5  C   UNL     1       9.448 -58.375 -22.631  1.00  0.00     0.065 C 
ATOM      6  C   UNL     1      11.922 -59.851 -23.168  1.00  0.00     0.262 C 
ATOM      7  C   UNL     1      11.797 -58.910 -21.974  1.00  0.00     0.065 C 
ATOM      8  H   UNL     1      10.209 -60.921 -22.731  1.00  0.00     0.348 HD
BRANCH   4   9
ATOM      9  C   UNL     1      10.674 -61.402 -24.669  1.00  0.00     0.299 C 
BRANCH   9  10
ATOM     10  C   UNL     1       9.446 -62.258 -24.816  1.00  0.00     0.006 A 
ATOM     11  C   UNL     1       8.955 -62.994 -23.727  1.00  0.00     0.009 A 
ATOM     12  C   UNL     1       8.784 -62.348 -26.051  1.00  0.00     0.009 A 
ATOM     13  C   UNL     1       7.831 -63.809 -23.873  1.00  0.00     0.001 A 
ATOM     14  C   UNL     1       7.661 -63.164 -26.192  1.00  0.00     0.001 A 
ATOM     15  C   UNL     1       7.187 -63.894 -25.105  1.00  0.00     0.000 A 
ENDBRANCH   9  10
ENDBRANCH   4   9
ENDBRANCH   1   2
BRANCH   1  16
ATOM     16  C   UNL     1      10.437 -55.547 -23.487  1.00  0.00     0.061 C 
BRANCH  16  17
ATOM     17  C   UNL     1      11.218 -54.303 -23.744  1.00  0.00     0.091 A 
ATOM     18  C   UNL     1      11.306 -53.125 -22.959  1.00  0.00     0.045 A 
ATOM     19  N   UNL     1      11.966 -54.218 -24.855  1.00  0.00    -0.084 NA
ATOM     20  C   UNL     1      10.773 -52.639 -21.739  1.00  0.00     0.016 A 
ATOM     21  C   UNL     1      12.170 -52.319 -23.688  1.00  0.00     0.172 A 
ATOM     22  O   UNL     1      12.562 -52.967 -24.813  1.00  0.00    -0.356 OA
ATOM     23  C   UNL     1      11.130 -51.354 -21.295  1.00  0.00     0.027 A 
ATOM     24  C   UNL     1      12.537 -51.054 -23.275  1.00  0.00     0.031 A 
ATOM     25  C   UNL     1      11.995 -50.606 -22.071  1.00  0.00     0.048 A 
ATOM     26  C   UNL     1      13.431 -50.000 -23.859  1.00  0.00     0.142 C 
ATOM     27  N   UNL     1      12.466 -49.329 -21.810  1.00  0.00    -0.325 N 
ATOM     28  C   UNL     1      13.324 -48.886 -22.812  1.00  0.00     0.229 C 
ATOM     29  H   UNL     1      12.237 -48.761 -21.006  1.00  0.00     0.169 HD
ATOM     30  O   UNL     1      13.885 -47.804 -22.840  1.00  0.00    -0.274 OA
ENDBRANCH  16  17
ENDBRANCH   1  16
TORSDOF 5
ENDMDL
MODEL 4
REMARK VINA RESULT:   -11.637      3.681      9.746
REMARK INTER + INTRA:         -15.550
REMARK INTER:                 -15.216
REMARK INTRA:                  -0.334
REMARK UNBOUND:                -0.511
REMARK SMILES O=C1Cc2c(ccc3c(CC[C@H]4CC[N@@H+](Cc5ccccc5)CC4)noc23)N1
REMARK SMILES IDX 11 1 12 2 14 3 15 4 13 5 23 6 24 7 16 9 17 10 18 11 22 12
REMARK SMILES IDX 19 13 21 14 20 15 10 16 9 17 8 18 25 19 7 20 27 21 26 22
REMARK SMILES IDX 6 23 4 24 5 25 3 26 28 27 2 28 1 30
REMARK H PARENT 15 8 28 29
ROOT
ATOM      1  C   UNL     1      11.329 -57.001 -22.473  1.00  0.00     0.010 C 
ENDROOT
BRANCH   1   2
ATOM      2  C   UNL     1      11.018 -58.476 -22.141  1.00  0.00     0.000 C 
ATOM      3  C   UNL     1       9.537 -59.035 -24.147  1.00  0.00     0.262 C 
ATOM      4  N   UNL     1      10.621 -59.950 -24.669  1.00  0.00    -0.331 N 
ATOM      5  C   UNL     1       9.637 -58.940 -22.628  1.00  0.00     0.065 C 
ATOM      6  C   UNL     1      12.003 -59.511 -24.259  1.00  0.00     0.262 C 
ATOM      7  C   UNL     1      12.087 -59.406 -22.740  1.00  0.00     0.065 C 
ATOM      8  H   UNL     1      10.452 -60.877 -24.258  1.00  0.00     0.348 HD
BRANCH   4   9
ATOM      9  C   UNL     1      10.534 -60.146 -26.172  1.00  0.00     0.299 C 
BRANCH   9  10
ATOM     10  C   UNL     1       9.610 -61.264 -26.568  1.00  0.00     0.006 A 
ATOM     11  C   UNL     1       8.875 -61.961 -25.597  1.00  0.00     0.009 A 
ATOM     12  C   UNL     1       9.486 -61.641 -27.916  1.00  0.00     0.009 A 
ATOM     13  C   UNL     1       8.040 -63.017 -25.966  1.00  0.00     0.001 A 
ATOM     14  C   UNL     1       8.650 -62.697 -28.278  1.00  0.00     0.001 A 
ATOM     15  C   UNL     1       7.929 -63.385 -27.304  1.00  0.00     0.000 A 
ENDBRANCH   9  10
ENDBRANCH   4   9
ENDBRANCH   1   2
BRANCH   1  16
ATOM     16  C   UNL     1      10.083 -56.117 -22.634  1.00  0.00     0.061 C 
BRANCH  16  17
ATOM     17  C   UNL     1      10.401 -54.676 -22.418  1.00  0.00     0.091 A 
ATOM     18  C   UNL     1      11.206 -53.811 -23.203  1.00  0.00     0.045 A 
ATOM     19  N   UNL     1       9.884 -54.045 -21.352  1.00  0.00    -0.084 NA
ATOM     20  C   UNL     1      11.979 -53.891 -24.387  1.00  0.00     0.016 A 
ATOM     21  C   UNL     1      11.135 -52.603 -22.522  1.00  0.00     0.172 A 
ATOM     22  O   UNL     1      10.351 -52.741 -21.424  1.00  0.00    -0.356 OA
ATOM     23  C   UNL     1      12.655 -52.747 -24.847  1.00  0.00     0.027 A 
ATOM     24  C   UNL     1      11.788 -51.465 -22.951  1.00  0.00     0.031 A 
ATOM     25  C   UNL     1      12.540 -51.578 -24.120  1.00  0.00     0.048 A 
ATOM     26  C   UNL     1      11.877 -50.067 -22.415  1.00  0.00     0.142 C 
ATOM     27  N   UNL     1      13.122 -50.352 -24.403  1.00  0.00    -0.325 N 
ATOM     28  C   UNL     1      12.786 -49.395 -23.450  1.00  0.00     0.229 C 
ATOM     29  H   UNL     1      13.720 -50.144 -25.190  1.00  0.00     0.169 HD
ATOM     30  O   UNL     1      13.154 -48.233 -23.451  1.00  0.00    -0.274 OA
ENDBRANCH  16  17
ENDBRANCH   1  16
TORSDOF 5
ENDMDL
MODEL 5
REMARK VINA RESULT:   -11.331      2.491      4.317
REMARK INTER + INTRA:         -15.155
REMARK INTER:                 -14.477
REMARK INTRA:                  -0.678
REMARK UNBOUND:                -0.511
REMARK SMILES O=C1Cc2c(ccc3c(CC[C@H]4CC[N@@H+](Cc5ccccc5)CC4)noc23)N1
REMARK SMILES IDX 11 1 12 2 14 3 15 4 13 5 23 6 24 7 16 9 17 10 18 11 22 12
REMARK SMILES IDX 19 13 21 14 20 15 10 16 9 17 8 18 25 19 7 20 27 21 26 22
REMARK SMILES IDX 6 23 4 24 5 25 3 26 28 27 2 28 1 30
REMARK H PARENT 15 8 28 29
ROOT
ATOM      1  C   UNL     1      10.217 -61.558 -22.858  1.00  0.00     0.010 C 
ENDROOT
BRANCH   1   2
ATOM      2  C   UNL     1       9.600 -60.525 -21.892  1.00  0.00     0.000 C 
ATOM      3  C   UNL     1      11.441 -58.754 -21.967  1.00  0.00     0.262 C 
ATOM      4  N   UNL     1      10.494 -57.827 -22.694  1.00  0.00    -0.331 N 
ATOM      5  C   UNL     1      10.643 -59.722 -21.099  1.00  0.00     0.065 C 
ATOM      6  C   UNL     1       9.478 -58.566 -23.527  1.00  0.00     0.262 C 
ATOM      7  C   UNL     1       8.696 -59.539 -22.652  1.00  0.00     0.065 C 
ATOM      8  H   UNL     1       9.984 -57.299 -21.975  1.00  0.00     0.348 HD
BRANCH   4   9
ATOM      9  C   UNL     1      11.228 -56.789 -23.523  1.00  0.00     0.299 C 
BRANCH   9  10
ATOM     10  C   UNL     1      11.126 -55.401 -22.954  1.00  0.00     0.006 A 
ATOM     11  C   UNL     1      10.754 -55.203 -21.616  1.00  0.00     0.009 A 
ATOM     12  C   UNL     1      11.384 -54.280 -23.761  1.00  0.00     0.009 A 
ATOM     13  C   UNL     1      10.633 -53.912 -21.098  1.00  0.00     0.001 A 
ATOM     14  C   UNL     1      11.261 -52.992 -23.239  1.00  0.00     0.001 A 
ATOM     15  C   UNL     1      10.885 -52.809 -21.910  1.00  0.00     0.000 A 
ENDBRANCH   9  10
ENDBRANCH   4   9
ENDBRANCH   1   2
BRANCH   1  16
ATOM     16  C   UNL     1       9.188 -62.307 -23.718  1.00  0.00     0.061 C 
BRANCH  16  17
ATOM     17  C   UNL     1       9.359 -62.005 -25.168  1.00  0.00     0.091 A 
ATOM     18  C   UNL     1      10.366 -61.237 -25.808  1.00  0.00     0.045 A 
ATOM     19  N   UNL     1       8.474 -62.498 -26.048  1.00  0.00    -0.084 NA
ATOM     20  C   UNL     1      11.515 -60.499 -25.432  1.00  0.00     0.016 A 
ATOM     21  C   UNL     1      10.016 -61.306 -27.149  1.00  0.00     0.172 A 
ATOM     22  O   UNL     1       8.894 -62.054 -27.293  1.00  0.00    -0.356 OA
ATOM     23  C   UNL     1      12.275 -59.855 -26.423  1.00  0.00     0.027 A 
ATOM     24  C   UNL     1      10.744 -60.683 -28.143  1.00  0.00     0.031 A 
ATOM     25  C   UNL     1      11.869 -59.965 -27.740  1.00  0.00     0.048 A 
ATOM     26  C   UNL     1      10.588 -60.599 -29.633  1.00  0.00     0.142 C 
ATOM     27  N   UNL     1      12.476 -59.411 -28.855  1.00  0.00    -0.325 N 
ATOM     28  C   UNL     1      11.790 -59.732 -30.023  1.00  0.00     0.229 C 
ATOM     29  H   UNL     1      13.310 -58.840 -28.858  1.00  0.00     0.169 HD
ATOM     30  O   UNL     1      12.101 -59.382 -31.148  1.00  0.00    -0.274 OA
ENDBRANCH  16  17
ENDBRANCH   1  16
TORSDOF 5
ENDMDL
MODEL 6
REMARK VINA RESULT:   -11.241      2.929      4.507
REMARK INTER + INTRA:         -15.038
REMARK INTER:                 -15.104
REMARK INTRA:                   0.066
REMARK UNBOUND:                -0.511
REMARK SMILES O=C1Cc2c(ccc3c(CC[C@H]4CC[N@@H+](Cc5ccccc5)CC4)noc23)N1
REMARK SMILES IDX 11 1 12 2 14 3 15 4 13 5 23 6 24 7 16 9 17 10 18 11 22 12
REMARK SMILES IDX 19 13 21 14 20 15 10 16 9 17 8 18 25 19 7 20 27 21 26 22
REMARK SMILES IDX 6 23 4 24 5 25 3 26 28 27 2 28 1 30
REMARK H PARENT 15 8 28 29
ROOT
ATOM      1  C   UNL     1      10.800 -54.817 -21.854  1.00  0.00     0.010 C 
ENDROOT
BRANCH   1   2
ATOM      2  C   UNL     1      10.311 -54.026 -23.084  1.00  0.00     0.000 C 
ATOM      3  C   UNL     1      10.006 -51.734 -21.994  1.00  0.00     0.262 C 
ATOM      4  N   UNL     1      11.171 -51.214 -22.804  1.00  0.00    -0.331 N 
ATOM      5  C   UNL     1       9.339 -52.886 -22.739  1.00  0.00     0.065 C 
ATOM      6  C   UNL     1      12.181 -52.285 -23.129  1.00  0.00     0.262 C 
ATOM      7  C   UNL     1      11.501 -53.437 -23.862  1.00  0.00     0.065 C 
ATOM      8  H   UNL     1      10.785 -50.868 -23.691  1.00  0.00     0.348 HD
BRANCH   4   9
ATOM      9  C   UNL     1      11.837 -50.017 -22.151  1.00  0.00     0.299 C 
BRANCH   9  10
ATOM     10  C   UNL     1      11.836 -48.793 -23.024  1.00  0.00     0.006 A 
ATOM     11  C   UNL     1      12.745 -48.673 -24.086  1.00  0.00     0.009 A 
ATOM     12  C   UNL     1      10.938 -47.742 -22.775  1.00  0.00     0.009 A 
ATOM     13  C   UNL     1      12.761 -47.523 -24.877  1.00  0.00     0.001 A 
ATOM     14  C   UNL     1      10.958 -46.594 -23.569  1.00  0.00     0.001 A 
ATOM     15  C   UNL     1      11.870 -46.486 -24.617  1.00  0.00     0.000 A 
ENDBRANCH   9  10
ENDBRANCH   4   9
ENDBRANCH   1   2
BRANCH   1  16
ATOM     16  C   UNL     1      11.343 -56.217 -22.181  1.00  0.00     0.061 C 
BRANCH  16  17
ATOM     17  C   UNL     1      10.275 -57.109 -22.717  1.00  0.00     0.091 A 
ATOM     18  C   UNL     1      10.113 -58.508 -22.551  1.00  0.00     0.045 A 
ATOM     19  N   UNL     1       9.298 -56.579 -23.470  1.00  0.00    -0.084 NA
ATOM     20  C   UNL     1      10.787 -59.568 -21.897  1.00  0.00     0.016 A 
ATOM     21  C   UNL     1       8.955 -58.782 -23.267  1.00  0.00     0.172 A 
ATOM     22  O   UNL     1       8.470 -57.638 -23.811  1.00  0.00    -0.356 OA
ATOM     23  C   UNL     1      10.269 -60.872 -21.985  1.00  0.00     0.027 A 
ATOM     24  C   UNL     1       8.425 -60.052 -23.369  1.00  0.00     0.031 A 
ATOM     25  C   UNL     1       9.112 -61.073 -22.714  1.00  0.00     0.048 A 
ATOM     26  C   UNL     1       7.217 -60.609 -24.064  1.00  0.00     0.142 C 
ATOM     27  N   UNL     1       8.446 -62.271 -22.919  1.00  0.00    -0.325 N 
ATOM     28  C   UNL     1       7.312 -62.097 -23.706  1.00  0.00     0.229 C 
ATOM     29  H   UNL     1       8.721 -63.175 -22.561  1.00  0.00     0.169 HD
ATOM     30  O   UNL     1       6.538 -62.977 -24.042  1.00  0.00    -0.274 OA
ENDBRANCH  16  17
ENDBRANCH   1  16
TORSDOF 5
ENDMDL
MODEL 7
REMARK VINA RESULT:   -11.156      3.866     10.091
REMARK INTER + INTRA:         -14.928
REMARK INTER:                 -14.873
REMARK INTRA:                  -0.055
REMARK UNBOUND:                -0.511
REMARK SMILES O=C1Cc2c(ccc3c(CC[C@H]4CC[N@@H+](Cc5ccccc5)CC4)noc23)N1
REMARK SMILES IDX 11 1 12 2 14 3 15 4 13 5 23 6 24 7 16 9 17 10 18 11 22 12
REMARK SMILES IDX 19 13 21 14 20 15 10 16 9 17 8 18 25 19 7 20 27 21 26 22
REMARK SMILES IDX 6 23 4 24 5 25 3 26 28 27 2 28 1 30
REMARK H PARENT 15 8 28 29
ROOT
ATOM      1  C   UNL     1      10.526 -56.806 -22.023  1.00  0.00     0.010 C 
ENDROOT
BRANCH   1   2
ATOM      2  C   UNL     1      11.404 -58.046 -21.751  1.00  0.00     0.000 C 
ATOM      3  C   UNL     1       9.747 -59.869 -22.435  1.00  0.00     0.262 C 
ATOM      4  N   UNL     1      10.619 -60.189 -23.627  1.00  0.00    -0.331 N 
ATOM      5  C   UNL     1      10.605 -59.285 -21.316  1.00  0.00     0.065 C 
ATOM      6  C   UNL     1      11.390 -58.993 -24.125  1.00  0.00     0.262 C 
ATOM      7  C   UNL     1      12.233 -58.409 -22.996  1.00  0.00     0.065 C 
ATOM      8  H   UNL     1      11.301 -60.893 -23.317  1.00  0.00     0.348 HD
BRANCH   4   9
ATOM      9  C   UNL     1       9.838 -60.842 -24.753  1.00  0.00     0.299 C 
BRANCH   9  10
ATOM     10  C   UNL     1       9.066 -62.053 -24.310  1.00  0.00     0.006 A 
ATOM     11  C   UNL     1       7.901 -62.443 -24.987  1.00  0.00     0.009 A 
ATOM     12  C   UNL     1       9.490 -62.800 -23.198  1.00  0.00     0.009 A 
ATOM     13  C   UNL     1       7.170 -63.552 -24.556  1.00  0.00     0.001 A 
ATOM     14  C   UNL     1       8.755 -63.908 -22.772  1.00  0.00     0.001 A 
ATOM     15  C   UNL     1       7.597 -64.281 -23.449  1.00  0.00     0.000 A 
ENDBRANCH   9  10
ENDBRANCH   4   9
ENDBRANCH   1   2
BRANCH   1  16
ATOM     16  C   UNL     1      11.197 -55.741 -22.903  1.00  0.00     0.061 C 
BRANCH  16  17
ATOM     17  C   UNL     1      10.685 -54.374 -22.598  1.00  0.00     0.091 A 
ATOM     18  C   UNL     1      11.251 -53.115 -22.923  1.00  0.00     0.045 A 
ATOM     19  N   UNL     1       9.530 -54.244 -21.927  1.00  0.00    -0.084 NA
ATOM     20  C   UNL     1      12.401 -52.626 -23.589  1.00  0.00     0.016 A 
ATOM     21  C   UNL     1      10.342 -52.210 -22.391  1.00  0.00     0.172 A 
ATOM     22  O   UNL     1       9.320 -52.879 -21.800  1.00  0.00    -0.356 OA
ATOM     23  C   UNL     1      12.597 -51.239 -23.697  1.00  0.00     0.027 A 
ATOM     24  C   UNL     1      10.510 -50.843 -22.483  1.00  0.00     0.031 A 
ATOM     25  C   UNL     1      11.652 -50.395 -23.145  1.00  0.00     0.048 A 
ATOM     26  C   UNL     1       9.700 -49.673 -22.006  1.00  0.00     0.142 C 
ATOM     27  N   UNL     1      11.661 -49.009 -23.146  1.00  0.00    -0.325 N 
ATOM     28  C   UNL     1      10.545 -48.491 -22.495  1.00  0.00     0.229 C 
ATOM     29  H   UNL     1      12.371 -48.417 -23.554  1.00  0.00     0.169 HD
ATOM     30  O   UNL     1      10.294 -47.307 -22.349  1.00  0.00    -0.274 OA
ENDBRANCH  16  17
ENDBRANCH   1  16
TORSDOF 5
ENDMDL
MODEL 8
REMARK VINA RESULT:   -11.156      2.351      3.471
REMARK INTER + INTRA:         -14.928
REMARK INTER:                 -14.289
REMARK INTRA:                  -0.638
REMARK UNBOUND:                -0.511
REMARK SMILES O=C1Cc2c(ccc3c(CC[C@H]4CC[N@@H+](Cc5ccccc5)CC4)noc23)N1
REMARK SMILES IDX 11 1 12 2 14 3 15 4 13 5 23 6 24 7 16 9 17 10 18 11 22 12
REMARK SMILES IDX 19 13 21 14 20 15 10 16 9 17 8 18 25 19 7 20 27 21 26 22
REMARK SMILES IDX 6 23 4 24 5 25 3 26 28 27 2 28 1 30
REMARK H PARENT 15 8 28 29
ROOT
ATOM      1  C   UNL     1      11.357 -56.246 -22.409  1.00  0.00     0.010 C 
ENDROOT
BRANCH   1   2
ATOM      2  C   UNL     1      10.260 -55.241 -22.818  1.00  0.00     0.000 C 
ATOM      3  C   UNL     1      11.113 -53.182 -21.567  1.00  0.00     0.262 C 
ATOM      4  N   UNL     1      11.437 -52.533 -22.894  1.00  0.00    -0.331 N 
ATOM      5  C   UNL     1       9.970 -54.175 -21.750  1.00  0.00     0.065 C 
ATOM      6  C   UNL     1      11.777 -53.536 -23.967  1.00  0.00     0.262 C 
ATOM      7  C   UNL     1      10.633 -54.531 -24.131  1.00  0.00     0.065 C 
ATOM      8  H   UNL     1      10.592 -52.030 -23.193  1.00  0.00     0.348 HD
BRANCH   4   9
ATOM      9  C   UNL     1      12.521 -51.479 -22.770  1.00  0.00     0.299 C 
BRANCH   9  10
ATOM     10  C   UNL     1      12.023 -50.086 -23.036  1.00  0.00     0.006 A 
ATOM     11  C   UNL     1      10.808 -49.646 -22.489  1.00  0.00     0.009 A 
ATOM     12  C   UNL     1      12.758 -49.211 -23.854  1.00  0.00     0.009 A 
ATOM     13  C   UNL     1      10.334 -48.361 -22.761  1.00  0.00     0.001 A 
ATOM     14  C   UNL     1      12.279 -47.928 -24.122  1.00  0.00     0.001 A 
ATOM     15  C   UNL     1      11.068 -47.506 -23.578  1.00  0.00     0.000 A 
ENDBRANCH   9  10
ENDBRANCH   4   9
ENDBRANCH   1   2
BRANCH   1  16
ATOM     16  C   UNL     1      10.824 -57.627 -21.998  1.00  0.00     0.061 C 
BRANCH  16  17
ATOM     17  C   UNL     1      10.607 -58.506 -23.183  1.00  0.00     0.091 A 
ATOM     18  C   UNL     1       9.663 -59.550 -23.360  1.00  0.00     0.045 A 
ATOM     19  N   UNL     1      11.376 -58.339 -24.270  1.00  0.00    -0.084 NA
ATOM     20  C   UNL     1       8.632 -60.166 -22.608  1.00  0.00     0.016 A 
ATOM     21  C   UNL     1       9.926 -60.003 -24.646  1.00  0.00     0.172 A 
ATOM     22  O   UNL     1      10.941 -59.285 -25.187  1.00  0.00    -0.356 OA
ATOM     23  C   UNL     1       7.898 -61.220 -23.181  1.00  0.00     0.027 A 
ATOM     24  C   UNL     1       9.221 -61.036 -25.231  1.00  0.00     0.031 A 
ATOM     25  C   UNL     1       8.213 -61.620 -24.466  1.00  0.00     0.048 A 
ATOM     26  C   UNL     1       9.300 -61.704 -26.573  1.00  0.00     0.142 C 
ATOM     27  N   UNL     1       7.613 -62.629 -25.201  1.00  0.00    -0.325 N 
ATOM     28  C   UNL     1       8.188 -62.753 -26.462  1.00  0.00     0.229 C 
ATOM     29  H   UNL     1       6.854 -63.221 -24.894  1.00  0.00     0.169 HD
ATOM     30  O   UNL     1       7.857 -63.556 -27.318  1.00  0.00    -0.274 OA
ENDBRANCH  16  17
ENDBRANCH   1  16
TORSDOF 5
ENDMDL
MODEL 9
REMARK VINA RESULT:   -10.589      1.985      3.175
REMARK INTER + INTRA:         -14.196
REMARK INTER:                 -14.044
REMARK INTRA:                  -0.152
REMARK UNBOUND:                -0.511
REMARK SMILES O=C1Cc2c(ccc3c(CC[C@H]4CC[N@@H+](Cc5ccccc5)CC4)noc23)N1
REMARK SMILES IDX 11 1 12 2 14 3 15 4 13 5 23 6 24 7 16 9 17 10 18 11 22 12
REMARK SMILES IDX 19 13 21 14 20 15 10 16 9 17 8 18 25 19 7 20 27 21 26 22
REMARK SMILES IDX 6 23 4 24 5 25 3 26 28 27 2 28 1 30
REMARK H PARENT 15 8 28 29
ROOT
ATOM      1  C   UNL     1      11.384 -56.084 -22.058  1.00  0.00     0.010 C 
ENDROOT
BRANCH   1   2
ATOM      2  C   UNL     1      10.225 -55.229 -22.612  1.00  0.00     0.000 C 
ATOM      3  C   UNL     1      10.779 -53.011 -21.470  1.00  0.00     0.262 C 
ATOM      4  N   UNL     1      11.132 -52.426 -22.819  1.00  0.00    -0.331 N 
ATOM      5  C   UNL     1       9.755 -54.127 -21.650  1.00  0.00     0.065 C 
ATOM      6  C   UNL     1      11.645 -53.460 -23.788  1.00  0.00     0.262 C 
ATOM      7  C   UNL     1      10.620 -54.577 -23.949  1.00  0.00     0.065 C 
ATOM      8  H   UNL     1      10.265 -52.034 -23.209  1.00  0.00     0.348 HD
BRANCH   4   9
ATOM      9  C   UNL     1      12.095 -51.259 -22.706  1.00  0.00     0.299 C 
BRANCH   9  10
ATOM     10  C   UNL     1      13.210 -51.314 -23.713  1.00  0.00     0.006 A 
ATOM     11  C   UNL     1      14.535 -51.520 -23.300  1.00  0.00     0.009 A 
ATOM     12  C   UNL     1      12.942 -51.140 -25.081  1.00  0.00     0.009 A 
ATOM     13  C   UNL     1      15.571 -51.544 -24.235  1.00  0.00     0.001 A 
ATOM     14  C   UNL     1      13.982 -51.164 -26.011  1.00  0.00     0.001 A 
ATOM     15  C   UNL     1      15.294 -51.364 -25.588  1.00  0.00     0.000 A 
ENDBRANCH   9  10
ENDBRANCH   4   9
ENDBRANCH   1   2
BRANCH   1  16
ATOM     16  C   UNL     1      11.009 -57.549 -21.784  1.00  0.00     0.061 C 
BRANCH  16  17
ATOM     17  C   UNL     1      10.866 -58.325 -23.049  1.00  0.00     0.091 A 
ATOM     18  C   UNL     1       9.960 -59.371 -23.358  1.00  0.00     0.045 A 
ATOM     19  N   UNL     1      11.676 -58.045 -24.082  1.00  0.00    -0.084 NA
ATOM     20  C   UNL     1       8.915 -60.075 -22.709  1.00  0.00     0.016 A 
ATOM     21  C   UNL     1      10.288 -59.702 -24.665  1.00  0.00     0.172 A 
ATOM     22  O   UNL     1      11.305 -58.916 -25.096  1.00  0.00    -0.356 OA
ATOM     23  C   UNL     1       8.235 -61.091 -23.402  1.00  0.00     0.027 A 
ATOM     24  C   UNL     1       9.637 -60.695 -25.369  1.00  0.00     0.031 A 
ATOM     25  C   UNL     1       8.614 -61.368 -24.702  1.00  0.00     0.048 A 
ATOM     26  C   UNL     1       9.791 -61.241 -26.758  1.00  0.00     0.142 C 
ATOM     27  N   UNL     1       8.073 -62.323 -25.549  1.00  0.00    -0.325 N 
ATOM     28  C   UNL     1       8.704 -62.322 -26.789  1.00  0.00     0.229 C 
ATOM     29  H   UNL     1       7.318 -62.957 -25.328  1.00  0.00     0.169 HD
ATOM     30  O   UNL     1       8.431 -63.053 -27.726  1.00  0.00    -0.274 OA
ENDBRANCH  16  17
ENDBRANCH   1  16
TORSDOF 5
ENDMDL
