MODEL 1
REMARK VINA RESULT:   -11.616      0.000      0.000
REMARK INTER + INTRA:         -16.513
REMARK INTER:                 -15.690
REMARK INTRA:                  -0.823
REMARK UNBOUND:                -0.823
REMARK SMILES COc1cc2c(cc1OC)C(=O)[C@H](C[C@H]1CC[N@@H+](Cc3ccccc3)CC1)C2
REMARK SMILES IDX 14 1 15 2 17 3 18 4 16 5 26 6 27 7 19 9 20 10 21 11 25 12
REMARK SMILES IDX 22 13 24 14 23 15 13 16 11 17 28 18 6 19 5 20 7 21 4 22 8 23
REMARK SMILES IDX 3 24 12 25 9 26 10 27 2 28 1 29
REMARK H PARENT 18 8
ROOT
ATOM      1  C   UNL     1      11.387 -56.479 -22.346  1.00  0.00     0.016 C 
ENDROOT
BRANCH   1   2
ATOM      2  C   UNL     1      10.490 -57.696 -22.037  1.00  0.00     0.001 C 
ATOM      3  C   UNL     1      10.486 -60.102 -21.247  1.00  0.00     0.262 C 
ATOM      4  N   UNL     1       9.618 -60.478 -22.423  1.00  0.00    -0.331 N 
ATOM      5  C   UNL     1      11.345 -58.886 -21.570  1.00  0.00     0.065 C 
ATOM      6  C   UNL     1       8.750 -59.329 -22.869  1.00  0.00     0.262 C 
ATOM      7  C   UNL     1       9.601 -58.114 -23.216  1.00  0.00     0.065 C 
ATOM      8  H   UNL     1       8.973 -61.192 -22.062  1.00  0.00     0.348 HD
BRANCH   4   9
ATOM      9  C   UNL     1      10.340 -61.163 -23.564  1.00  0.00     0.299 C 
BRANCH   9  10
ATOM     10  C   UNL     1       9.417 -61.934 -24.468  1.00  0.00     0.006 A 
ATOM     11  C   UNL     1       9.504 -61.795 -25.862  1.00  0.00     0.009 A 
ATOM     12  C   UNL     1       8.439 -62.787 -23.931  1.00  0.00     0.009 A 
ATOM     13  C   UNL     1       8.629 -62.489 -26.699  1.00  0.00     0.001 A 
ATOM     14  C   UNL     1       7.566 -63.479 -24.771  1.00  0.00     0.001 A 
ATOM     15  C   UNL     1       7.660 -63.329 -26.152  1.00  0.00     0.000 A 
ENDBRANCH   9  10
ENDBRANCH   4   9
ENDBRANCH   1   2
BRANCH   1  16
ATOM     16  C   UNL     1      10.695 -55.289 -23.030  1.00  0.00     0.066 C 
ATOM     17  C   UNL     1      10.556 -54.082 -22.114  1.00  0.00     0.166 C 
ATOM     18  C   UNL     1      11.513 -54.762 -24.237  1.00  0.00     0.048 C 
ATOM     19  C   UNL     1      11.246 -52.941 -22.695  1.00  0.00     0.025 A 
ATOM     20  C   UNL     1      11.798 -53.334 -23.901  1.00  0.00    -0.033 A 
ATOM     21  C   UNL     1      11.363 -51.658 -22.189  1.00  0.00     0.062 A 
ATOM     22  C   UNL     1      12.516 -52.417 -24.647  1.00  0.00     0.055 A 
ATOM     23  C   UNL     1      12.079 -50.713 -22.936  1.00  0.00     0.161 A 
ATOM     24  C   UNL     1      12.678 -51.107 -24.160  1.00  0.00     0.161 A 
ATOM     25  O   UNL     1       9.957 -54.053 -21.052  1.00  0.00    -0.294 OA
BRANCH  23  26
ATOM     26  O   UNL     1      12.219 -49.406 -22.552  1.00  0.00    -0.493 OA
ATOM     27  C   UNL     1      11.130 -48.519 -22.772  1.00  0.00     0.278 C 
ENDBRANCH  23  26
BRANCH  24  28
ATOM     28  O   UNL     1      13.404 -50.318 -25.017  1.00  0.00    -0.493 OA
ATOM     29  C   UNL     1      13.980 -50.952 -26.153  1.00  0.00     0.278 C 
ENDBRANCH  24  28
ENDBRANCH   1  16
TORSDOF 6
ENDMDL
MODEL 2
REMARK VINA RESULT:   -10.782      1.066      2.213
REMARK INTER + INTRA:         -15.388
REMARK INTER:                 -14.662
REMARK INTRA:                  -0.726
REMARK UNBOUND:                -0.823
REMARK SMILES COc1cc2c(cc1OC)C(=O)[C@H](C[C@H]1CC[N@@H+](Cc3ccccc3)CC1)C2
REMARK SMILES IDX 14 1 15 2 17 3 18 4 16 5 26 6 27 7 19 9 20 10 21 11 25 12
REMARK SMILES IDX 22 13 24 14 23 15 13 16 11 17 28 18 6 19 5 20 7 21 4 22 8 23
REMARK SMILES IDX 3 24 12 25 9 26 10 27 2 28 1 29
REMARK H PARENT 18 8
ROOT
ATOM      1  C   UNL     1       9.699 -56.257 -23.320  1.00  0.00     0.016 C 
ENDROOT
BRANCH   1   2
ATOM      2  C   UNL     1       9.397 -57.611 -22.643  1.00  0.00     0.001 C 
ATOM      3  C   UNL     1      10.442 -59.707 -21.678  1.00  0.00     0.262 C 
ATOM      4  N   UNL     1       9.488 -60.547 -22.493  1.00  0.00    -0.331 N 
ATOM      5  C   UNL     1      10.705 -58.368 -22.357  1.00  0.00     0.065 C 
ATOM      6  C   UNL     1       8.189 -59.828 -22.752  1.00  0.00     0.262 C 
ATOM      7  C   UNL     1       8.439 -58.497 -23.450  1.00  0.00     0.065 C 
ATOM      8  H   UNL     1       9.251 -61.344 -21.890  1.00  0.00     0.348 HD
BRANCH   4   9
ATOM      9  C   UNL     1      10.084 -61.177 -23.735  1.00  0.00     0.299 C 
BRANCH   9  10
ATOM     10  C   UNL     1       9.124 -62.087 -24.452  1.00  0.00     0.006 A 
ATOM     11  C   UNL     1       8.967 -62.000 -25.845  1.00  0.00     0.009 A 
ATOM     12  C   UNL     1       8.357 -63.021 -23.739  1.00  0.00     0.009 A 
ATOM     13  C   UNL     1       8.056 -62.825 -26.506  1.00  0.00     0.001 A 
ATOM     14  C   UNL     1       7.447 -63.844 -24.404  1.00  0.00     0.001 A 
ATOM     15  C   UNL     1       7.297 -63.745 -25.785  1.00  0.00     0.000 A 
ENDBRANCH   9  10
ENDBRANCH   4   9
ENDBRANCH   1   2
BRANCH   1  16
ATOM     16  C   UNL     1      11.019 -55.581 -22.914  1.00  0.00     0.066 C 
ATOM     17  C   UNL     1      11.746 -54.952 -24.093  1.00  0.00     0.166 C 
ATOM     18  C   UNL     1      10.785 -54.402 -21.934  1.00  0.00     0.048 C 
ATOM     19  C   UNL     1      11.912 -53.525 -23.865  1.00  0.00     0.025 A 
ATOM     20  C   UNL     1      11.355 -53.213 -22.637  1.00  0.00    -0.033 A 
ATOM     21  C   UNL     1      12.518 -52.588 -24.685  1.00  0.00     0.062 A 
ATOM     22  C   UNL     1      11.386 -51.903 -22.195  1.00  0.00     0.055 A 
ATOM     23  C   UNL     1      12.565 -51.257 -24.248  1.00  0.00     0.161 A 
ATOM     24  C   UNL     1      11.973 -50.914 -23.006  1.00  0.00     0.161 A 
ATOM     25  O   UNL     1      12.141 -55.539 -25.087  1.00  0.00    -0.294 OA
BRANCH  23  26
ATOM     26  O   UNL     1      13.178 -50.259 -24.957  1.00  0.00    -0.493 OA
ATOM     27  C   UNL     1      13.941 -50.617 -26.102  1.00  0.00     0.278 C 
ENDBRANCH  23  26
BRANCH  24  28
ATOM     28  O   UNL     1      11.931 -49.671 -22.424  1.00  0.00    -0.493 OA
ATOM     29  C   UNL     1      10.805 -48.854 -22.717  1.00  0.00     0.278 C 
ENDBRANCH  24  28
ENDBRANCH   1  16
TORSDOF 6
ENDMDL
MODEL 3
REMARK VINA RESULT:   -10.662      1.482      1.910
REMARK INTER + INTRA:         -15.225
REMARK INTER:                 -14.461
REMARK INTRA:                  -0.764
REMARK UNBOUND:                -0.823
REMARK SMILES COc1cc2c(cc1OC)C(=O)[C@H](C[C@H]1CC[N@@H+](Cc3ccccc3)CC1)C2
REMARK SMILES IDX 14 1 15 2 17 3 18 4 16 5 26 6 27 7 19 9 20 10 21 11 25 12
REMARK SMILES IDX 22 13 24 14 23 15 13 16 11 17 28 18 6 19 5 20 7 21 4 22 8 23
REMARK SMILES IDX 3 24 12 25 9 26 10 27 2 28 1 29
REMARK H PARENT 18 8
ROOT
ATOM      1  C   UNL     1      10.703 -55.390 -21.981  1.00  0.00     0.016 C 
ENDROOT
BRANCH   1   2
ATOM      2  C   UNL     1      11.076 -56.788 -22.517  1.00  0.00     0.001 C 
ATOM      3  C   UNL     1      10.285 -58.722 -23.949  1.00  0.00     0.262 C 
ATOM      4  N   UNL     1      10.638 -59.679 -22.836  1.00  0.00    -0.331 N 
ATOM      5  C   UNL     1       9.942 -57.344 -23.394  1.00  0.00     0.065 C 
ATOM      6  C   UNL     1      11.772 -59.159 -21.989  1.00  0.00     0.262 C 
ATOM      7  C   UNL     1      11.430 -57.792 -21.411  1.00  0.00     0.065 C 
ATOM      8  H   UNL     1      11.002 -60.515 -23.308  1.00  0.00     0.348 HD
BRANCH   4   9
ATOM      9  C   UNL     1       9.464 -60.184 -22.024  1.00  0.00     0.299 C 
BRANCH   9  10
ATOM     10  C   UNL     1       8.865 -61.448 -22.579  1.00  0.00     0.006 A 
ATOM     11  C   UNL     1       7.714 -61.398 -23.382  1.00  0.00     0.009 A 
ATOM     12  C   UNL     1       9.433 -62.697 -22.283  1.00  0.00     0.009 A 
ATOM     13  C   UNL     1       7.143 -62.573 -23.873  1.00  0.00     0.001 A 
ATOM     14  C   UNL     1       8.858 -63.869 -22.776  1.00  0.00     0.001 A 
ATOM     15  C   UNL     1       7.714 -63.807 -23.568  1.00  0.00     0.000 A 
ENDBRANCH   9  10
ENDBRANCH   4   9
ENDBRANCH   1   2
BRANCH   1  16
ATOM     16  C   UNL     1      10.449 -54.308 -23.042  1.00  0.00     0.066 C 
ATOM     17  C   UNL     1      10.403 -52.905 -22.456  1.00  0.00     0.166 C 
ATOM     18  C   UNL     1      11.593 -54.248 -24.089  1.00  0.00     0.048 C 
ATOM     19  C   UNL     1      11.436 -52.081 -23.066  1.00  0.00     0.025 A 
ATOM     20  C   UNL     1      12.118 -52.853 -23.990  1.00  0.00    -0.033 A 
ATOM     21  C   UNL     1      11.733 -50.752 -22.818  1.00  0.00     0.062 A 
ATOM     22  C   UNL     1      13.159 -52.289 -24.704  1.00  0.00     0.055 A 
ATOM     23  C   UNL     1      12.781 -50.162 -23.539  1.00  0.00     0.161 A 
ATOM     24  C   UNL     1      13.510 -50.946 -24.469  1.00  0.00     0.161 A 
ATOM     25  O   UNL     1       9.624 -52.509 -21.605  1.00  0.00    -0.294 OA
BRANCH  23  26
ATOM     26  O   UNL     1      13.130 -48.845 -23.406  1.00  0.00    -0.493 OA
ATOM     27  C   UNL     1      13.105 -48.269 -22.106  1.00  0.00     0.278 C 
ENDBRANCH  23  26
BRANCH  24  28
ATOM     28  O   UNL     1      14.554 -50.534 -25.260  1.00  0.00    -0.493 OA
ATOM     29  C   UNL     1      14.257 -50.218 -26.615  1.00  0.00     0.278 C 
ENDBRANCH  24  28
ENDBRANCH   1  16
TORSDOF 6
ENDMDL
MODEL 4
REMARK VINA RESULT:   -10.106      4.212      9.944
REMARK INTER + INTRA:         -14.474
REMARK INTER:                 -13.738
REMARK INTRA:                  -0.736
REMARK UNBOUND:                -0.823
REMARK SMILES COc1cc2c(cc1OC)C(=O)[C@H](C[C@H]1CC[N@@H+](Cc3ccccc3)CC1)C2
REMARK SMILES IDX 14 1 15 2 17 3 18 4 16 5 26 6 27 7 19 9 20 10 21 11 25 12
REMARK SMILES IDX 22 13 24 14 23 15 13 16 11 17 28 18 6 19 5 20 7 21 4 22 8 23
REMARK SMILES IDX 3 24 12 25 9 26 10 27 2 28 1 29
REMARK H PARENT 18 8
ROOT
ATOM      1  C   UNL     1      10.996 -60.009 -22.283  1.00  0.00     0.016 C 
ENDROOT
BRANCH   1   2
ATOM      2  C   UNL     1      10.655 -58.756 -23.117  1.00  0.00     0.001 C 
ATOM      3  C   UNL     1      11.535 -56.528 -23.939  1.00  0.00     0.262 C 
ATOM      4  N   UNL     1      10.267 -55.861 -23.465  1.00  0.00    -0.331 N 
ATOM      5  C   UNL     1      11.838 -57.773 -23.114  1.00  0.00     0.065 C 
ATOM      6  C   UNL     1       9.092 -56.806 -23.495  1.00  0.00     0.262 C 
ATOM      7  C   UNL     1       9.375 -58.044 -22.655  1.00  0.00     0.065 C 
ATOM      8  H   UNL     1      10.064 -55.141 -24.169  1.00  0.00     0.348 HD
BRANCH   4   9
ATOM      9  C   UNL     1      10.388 -55.095 -22.164  1.00  0.00     0.299 C 
BRANCH   9  10
ATOM     10  C   UNL     1      10.967 -53.718 -22.344  1.00  0.00     0.006 A 
ATOM     11  C   UNL     1      10.821 -52.748 -21.339  1.00  0.00     0.009 A 
ATOM     12  C   UNL     1      11.641 -53.375 -23.526  1.00  0.00     0.009 A 
ATOM     13  C   UNL     1      11.334 -51.462 -21.517  1.00  0.00     0.001 A 
ATOM     14  C   UNL     1      12.152 -52.088 -23.700  1.00  0.00     0.001 A 
ATOM     15  C   UNL     1      11.997 -51.134 -22.698  1.00  0.00     0.000 A 
ENDBRANCH   9  10
ENDBRANCH   4   9
ENDBRANCH   1   2
BRANCH   1  16
ATOM     16  C   UNL     1      11.064 -61.334 -23.058  1.00  0.00     0.066 C 
ATOM     17  C   UNL     1       9.819 -62.189 -22.875  1.00  0.00     0.166 C 
ATOM     18  C   UNL     1      11.148 -61.103 -24.589  1.00  0.00     0.048 C 
ATOM     19  C   UNL     1       9.192 -62.430 -24.166  1.00  0.00     0.025 A 
ATOM     20  C   UNL     1       9.948 -61.802 -25.140  1.00  0.00    -0.033 A 
ATOM     21  C   UNL     1       8.047 -63.156 -24.443  1.00  0.00     0.062 A 
ATOM     22  C   UNL     1       9.548 -61.883 -26.461  1.00  0.00     0.055 A 
ATOM     23  C   UNL     1       7.632 -63.255 -25.778  1.00  0.00     0.161 A 
ATOM     24  C   UNL     1       8.378 -62.593 -26.786  1.00  0.00     0.161 A 
ATOM     25  O   UNL     1       9.395 -62.621 -21.815  1.00  0.00    -0.294 OA
BRANCH  23  26
ATOM     26  O   UNL     1       6.541 -63.984 -26.170  1.00  0.00    -0.493 OA
ATOM     27  C   UNL     1       6.181 -65.124 -25.400  1.00  0.00     0.278 C 
ENDBRANCH  23  26
BRANCH  24  28
ATOM     28  O   UNL     1       8.123 -62.587 -28.135  1.00  0.00    -0.493 OA
ATOM     29  C   UNL     1       9.197 -62.236 -28.999  1.00  0.00     0.278 C 
ENDBRANCH  24  28
ENDBRANCH   1  16
TORSDOF 6
ENDMDL
MODEL 5
REMARK VINA RESULT:    -9.601      3.950      9.196
REMARK INTER + INTRA:         -13.791
REMARK INTER:                 -13.010
REMARK INTRA:                  -0.781
REMARK UNBOUND:                -0.823
REMARK SMILES COc1cc2c(cc1OC)C(=O)[C@H](C[C@H]1CC[N@@H+](Cc3ccccc3)CC1)C2
REMARK SMILES IDX 14 1 15 2 17 3 18 4 16 5 26 6 27 7 19 9 20 10 21 11 25 12
REMARK SMILES IDX 22 13 24 14 23 15 13 16 11 17 28 18 6 19 5 20 7 21 4 22 8 23
REMARK SMILES IDX 3 24 12 25 9 26 10 27 2 28 1 29
REMARK H PARENT 18 8
ROOT
ATOM      1  C   UNL     1      11.296 -58.839 -22.493  1.00  0.00     0.016 C 
ENDROOT
BRANCH   1   2
ATOM      2  C   UNL     1      10.780 -57.575 -23.213  1.00  0.00     0.001 C 
ATOM      3  C   UNL     1      11.452 -55.317 -24.143  1.00  0.00     0.262 C 
ATOM      4  N   UNL     1      10.297 -54.680 -23.409  1.00  0.00    -0.331 N 
ATOM      5  C   UNL     1      11.928 -56.574 -23.425  1.00  0.00     0.065 C 
ATOM      6  C   UNL     1       9.151 -55.642 -23.225  1.00  0.00     0.262 C 
ATOM      7  C   UNL     1       9.611 -56.894 -22.487  1.00  0.00     0.065 C 
ATOM      8  H   UNL     1       9.949 -53.949 -24.041  1.00  0.00     0.348 HD
BRANCH   4   9
ATOM      9  C   UNL     1      10.669 -53.939 -22.142  1.00  0.00     0.299 C 
BRANCH   9  10
ATOM     10  C   UNL     1      10.831 -52.458 -22.351  1.00  0.00     0.006 A 
ATOM     11  C   UNL     1      12.033 -51.937 -22.856  1.00  0.00     0.009 A 
ATOM     12  C   UNL     1       9.791 -51.573 -22.025  1.00  0.00     0.009 A 
ATOM     13  C   UNL     1      12.192 -50.561 -23.024  1.00  0.00     0.001 A 
ATOM     14  C   UNL     1       9.955 -50.198 -22.194  1.00  0.00     0.001 A 
ATOM     15  C   UNL     1      11.154 -49.693 -22.691  1.00  0.00     0.000 A 
ENDBRANCH   9  10
ENDBRANCH   4   9
ENDBRANCH   1   2
BRANCH   1  16
ATOM     16  C   UNL     1      11.750 -59.992 -23.403  1.00  0.00     0.066 C 
ATOM     17  C   UNL     1      10.585 -60.766 -24.001  1.00  0.00     0.166 C 
ATOM     18  C   UNL     1      12.541 -59.478 -24.634  1.00  0.00     0.048 C 
ATOM     19  C   UNL     1      10.645 -60.704 -25.453  1.00  0.00     0.025 A 
ATOM     20  C   UNL     1      11.757 -59.961 -25.810  1.00  0.00    -0.033 A 
ATOM     21  C   UNL     1       9.782 -61.271 -26.374  1.00  0.00     0.062 A 
ATOM     22  C   UNL     1      12.029 -59.755 -27.151  1.00  0.00     0.055 A 
ATOM     23  C   UNL     1      10.047 -61.079 -27.737  1.00  0.00     0.161 A 
ATOM     24  C   UNL     1      11.165 -60.296 -28.121  1.00  0.00     0.161 A 
ATOM     25  O   UNL     1       9.721 -61.359 -23.375  1.00  0.00    -0.294 OA
BRANCH  23  26
ATOM     26  O   UNL     1       9.286 -61.631 -28.732  1.00  0.00    -0.493 OA
ATOM     27  C   UNL     1       8.350 -62.644 -28.381  1.00  0.00     0.278 C 
ENDBRANCH  23  26
BRANCH  24  28
ATOM     28  O   UNL     1      11.576 -60.011 -29.400  1.00  0.00    -0.493 OA
ATOM     29  C   UNL     1      12.052 -58.694 -29.652  1.00  0.00     0.278 C 
ENDBRANCH  24  28
ENDBRANCH   1  16
TORSDOF 6
ENDMDL
MODEL 6
REMARK VINA RESULT:    -9.406      3.645      9.120
REMARK INTER + INTRA:         -13.529
REMARK INTER:                 -13.277
REMARK INTRA:                  -0.252
REMARK UNBOUND:                -0.823
REMARK SMILES COc1cc2c(cc1OC)C(=O)[C@H](C[C@H]1CC[N@@H+](Cc3ccccc3)CC1)C2
REMARK SMILES IDX 14 1 15 2 17 3 18 4 16 5 26 6 27 7 19 9 20 10 21 11 25 12
REMARK SMILES IDX 22 13 24 14 23 15 13 16 11 17 28 18 6 19 5 20 7 21 4 22 8 23
REMARK SMILES IDX 3 24 12 25 9 26 10 27 2 28 1 29
REMARK H PARENT 18 8
ROOT
ATOM      1  C   UNL     1      11.241 -57.567 -21.824  1.00  0.00     0.016 C 
ENDROOT
BRANCH   1   2
ATOM      2  C   UNL     1      10.768 -56.442 -22.769  1.00  0.00     0.001 C 
ATOM      3  C   UNL     1      11.485 -54.878 -24.628  1.00  0.00     0.262 C 
ATOM      4  N   UNL     1      10.887 -53.717 -23.871  1.00  0.00    -0.331 N 
ATOM      5  C   UNL     1      11.924 -55.983 -23.674  1.00  0.00     0.065 C 
ATOM      6  C   UNL     1       9.731 -54.149 -23.004  1.00  0.00     0.262 C 
ATOM      7  C   UNL     1      10.165 -55.238 -22.032  1.00  0.00     0.065 C 
ATOM      8  H   UNL     1      10.483 -53.107 -24.592  1.00  0.00     0.348 HD
BRANCH   4   9
ATOM      9  C   UNL     1      11.884 -52.838 -23.147  1.00  0.00     0.299 C 
BRANCH   9  10
ATOM     10  C   UNL     1      12.555 -51.839 -24.051  1.00  0.00     0.006 A 
ATOM     11  C   UNL     1      12.513 -50.468 -23.754  1.00  0.00     0.009 A 
ATOM     12  C   UNL     1      13.214 -52.261 -25.217  1.00  0.00     0.009 A 
ATOM     13  C   UNL     1      13.110 -49.540 -24.608  1.00  0.00     0.001 A 
ATOM     14  C   UNL     1      13.810 -51.331 -26.068  1.00  0.00     0.001 A 
ATOM     15  C   UNL     1      13.757 -49.973 -25.764  1.00  0.00     0.000 A 
ENDBRANCH   9  10
ENDBRANCH   4   9
ENDBRANCH   1   2
BRANCH   1  16
ATOM     16  C   UNL     1      11.401 -58.957 -22.460  1.00  0.00     0.066 C 
ATOM     17  C   UNL     1      10.080 -59.547 -22.927  1.00  0.00     0.166 C 
ATOM     18  C   UNL     1      12.273 -58.907 -23.742  1.00  0.00     0.048 C 
ATOM     19  C   UNL     1      10.133 -59.804 -24.358  1.00  0.00     0.025 A 
ATOM     20  C   UNL     1      11.382 -59.430 -24.821  1.00  0.00    -0.033 A 
ATOM     21  C   UNL     1       9.148 -60.335 -25.173  1.00  0.00     0.062 A 
ATOM     22  C   UNL     1      11.676 -59.576 -26.164  1.00  0.00     0.055 A 
ATOM     23  C   UNL     1       9.433 -60.498 -26.536  1.00  0.00     0.161 A 
ATOM     24  C   UNL     1      10.697 -60.092 -27.033  1.00  0.00     0.161 A 
ATOM     25  O   UNL     1       9.110 -59.781 -22.224  1.00  0.00    -0.294 OA
BRANCH  23  26
ATOM     26  O   UNL     1       8.550 -61.054 -27.423  1.00  0.00    -0.493 OA
ATOM     27  C   UNL     1       8.634 -62.451 -27.672  1.00  0.00     0.278 C 
ENDBRANCH  23  26
BRANCH  24  28
ATOM     28  O   UNL     1      11.145 -60.182 -28.328  1.00  0.00    -0.493 OA
ATOM     29  C   UNL     1      12.031 -59.166 -28.781  1.00  0.00     0.278 C 
ENDBRANCH  24  28
ENDBRANCH   1  16
TORSDOF 6
ENDMDL
MODEL 7
REMARK VINA RESULT:    -9.291      2.778      5.471
REMARK INTER + INTRA:         -13.373
REMARK INTER:                 -12.963
REMARK INTRA:                  -0.410
REMARK UNBOUND:                -0.823
REMARK SMILES COc1cc2c(cc1OC)C(=O)[C@H](C[C@H]1CC[N@@H+](Cc3ccccc3)CC1)C2
REMARK SMILES IDX 14 1 15 2 17 3 18 4 16 5 26 6 27 7 19 9 20 10 21 11 25 12
REMARK SMILES IDX 22 13 24 14 23 15 13 16 11 17 28 18 6 19 5 20 7 21 4 22 8 23
REMARK SMILES IDX 3 24 12 25 9 26 10 27 2 28 1 29
REMARK H PARENT 18 8
ROOT
ATOM      1  C   UNL     1      12.638 -51.936 -23.798  1.00  0.00     0.016 C 
ENDROOT
BRANCH   1   2
ATOM      2  C   UNL     1      11.424 -52.824 -23.451  1.00  0.00     0.001 C 
ATOM      3  C   UNL     1      10.225 -54.028 -21.572  1.00  0.00     0.262 C 
ATOM      4  N   UNL     1      10.179 -55.279 -22.416  1.00  0.00    -0.331 N 
ATOM      5  C   UNL     1      11.420 -53.160 -21.950  1.00  0.00     0.065 C 
ATOM      6  C   UNL     1      10.148 -54.961 -23.889  1.00  0.00     0.262 C 
ATOM      7  C   UNL     1      11.351 -54.112 -24.282  1.00  0.00     0.065 C 
ATOM      8  H   UNL     1       9.271 -55.711 -22.204  1.00  0.00     0.348 HD
BRANCH   4   9
ATOM      9  C   UNL     1      11.196 -56.340 -22.051  1.00  0.00     0.299 C 
BRANCH   9  10
ATOM     10  C   UNL     1      10.628 -57.734 -22.076  1.00  0.00     0.006 A 
ATOM     11  C   UNL     1      11.137 -58.725 -21.222  1.00  0.00     0.009 A 
ATOM     12  C   UNL     1       9.598 -58.069 -22.968  1.00  0.00     0.009 A 
ATOM     13  C   UNL     1      10.630 -60.025 -21.266  1.00  0.00     0.001 A 
ATOM     14  C   UNL     1       9.094 -59.369 -23.009  1.00  0.00     0.001 A 
ATOM     15  C   UNL     1       9.610 -60.345 -22.160  1.00  0.00     0.000 A 
ENDBRANCH   9  10
ENDBRANCH   4   9
ENDBRANCH   1   2
BRANCH   1  16
ATOM     16  C   UNL     1      12.830 -50.687 -22.924  1.00  0.00     0.066 C 
ATOM     17  C   UNL     1      13.808 -49.690 -23.527  1.00  0.00     0.166 C 
ATOM     18  C   UNL     1      11.512 -49.884 -22.769  1.00  0.00     0.048 C 
ATOM     19  C   UNL     1      13.142 -48.415 -23.744  1.00  0.00     0.025 A 
ATOM     20  C   UNL     1      11.831 -48.532 -23.319  1.00  0.00    -0.033 A 
ATOM     21  C   UNL     1      13.669 -47.248 -24.270  1.00  0.00     0.062 A 
ATOM     22  C   UNL     1      10.986 -47.442 -23.427  1.00  0.00     0.055 A 
ATOM     23  C   UNL     1      12.829 -46.131 -24.379  1.00  0.00     0.161 A 
ATOM     24  C   UNL     1      11.474 -46.242 -23.976  1.00  0.00     0.161 A 
ATOM     25  O   UNL     1      14.979 -49.906 -23.793  1.00  0.00    -0.294 OA
BRANCH  23  26
ATOM     26  O   UNL     1      13.257 -44.917 -24.843  1.00  0.00    -0.493 OA
ATOM     27  C   UNL     1      13.337 -44.722 -26.250  1.00  0.00     0.278 C 
ENDBRANCH  23  26
BRANCH  24  28
ATOM     28  O   UNL     1      10.518 -45.257 -24.007  1.00  0.00    -0.493 OA
ATOM     29  C   UNL     1      10.488 -44.347 -22.915  1.00  0.00     0.278 C 
ENDBRANCH  24  28
ENDBRANCH   1  16
TORSDOF 6
ENDMDL
MODEL 8
REMARK VINA RESULT:    -9.245      2.754      5.452
REMARK INTER + INTRA:         -13.311
REMARK INTER:                 -12.595
REMARK INTRA:                  -0.716
REMARK UNBOUND:                -0.823
REMARK SMILES COc1cc2c(cc1OC)C(=O)[C@H](C[C@H]1CC[N@@H+](Cc3ccccc3)CC1)C2
REMARK SMILES IDX 14 1 15 2 17 3 18 4 16 5 26 6 27 7 19 9 20 10 21 11 25 12
REMARK SMILES IDX 22 13 24 14 23 15 13 16 11 17 28 18 6 19 5 20 7 21 4 22 8 23
REMARK SMILES IDX 3 24 12 25 9 26 10 27 2 28 1 29
REMARK H PARENT 18 8
ROOT
ATOM      1  C   UNL     1      12.099 -51.417 -22.317  1.00  0.00     0.016 C 
ENDROOT
BRANCH   1   2
ATOM      2  C   UNL     1      11.112 -52.519 -22.759  1.00  0.00     0.001 C 
ATOM      3  C   UNL     1       9.599 -54.377 -21.939  1.00  0.00     0.262 C 
ATOM      4  N   UNL     1      10.213 -55.312 -22.953  1.00  0.00    -0.331 N 
ATOM      5  C   UNL     1      10.585 -53.287 -21.536  1.00  0.00     0.065 C 
ATOM      6  C   UNL     1      10.704 -54.574 -24.172  1.00  0.00     0.262 C 
ATOM      7  C   UNL     1      11.707 -53.496 -23.782  1.00  0.00     0.065 C 
ATOM      8  H   UNL     1       9.437 -55.902 -23.277  1.00  0.00     0.348 HD
BRANCH   4   9
ATOM      9  C   UNL     1      11.225 -56.291 -22.395  1.00  0.00     0.299 C 
BRANCH   9  10
ATOM     10  C   UNL     1      10.680 -57.686 -22.255  1.00  0.00     0.006 A 
ATOM     11  C   UNL     1       9.617 -58.121 -23.062  1.00  0.00     0.009 A 
ATOM     12  C   UNL     1      11.211 -58.568 -21.299  1.00  0.00     0.009 A 
ATOM     13  C   UNL     1       9.093 -59.405 -22.912  1.00  0.00     0.001 A 
ATOM     14  C   UNL     1      10.685 -59.851 -21.152  1.00  0.00     0.001 A 
ATOM     15  C   UNL     1       9.627 -60.268 -21.956  1.00  0.00     0.000 A 
ENDBRANCH   9  10
ENDBRANCH   4   9
ENDBRANCH   1   2
BRANCH   1  16
ATOM     16  C   UNL     1      12.216 -50.204 -23.253  1.00  0.00     0.066 C 
ATOM     17  C   UNL     1      11.376 -49.021 -22.795  1.00  0.00     0.166 C 
ATOM     18  C   UNL     1      13.665 -49.650 -23.299  1.00  0.00     0.048 C 
ATOM     19  C   UNL     1      12.233 -47.870 -22.559  1.00  0.00     0.025 A 
ATOM     20  C   UNL     1      13.538 -48.234 -22.838  1.00  0.00    -0.033 A 
ATOM     21  C   UNL     1      11.872 -46.602 -22.136  1.00  0.00     0.062 A 
ATOM     22  C   UNL     1      14.548 -47.302 -22.683  1.00  0.00     0.055 A 
ATOM     23  C   UNL     1      12.882 -45.642 -21.981  1.00  0.00     0.161 A 
ATOM     24  C   UNL     1      14.229 -46.007 -22.235  1.00  0.00     0.161 A 
ATOM     25  O   UNL     1      10.165 -49.017 -22.646  1.00  0.00    -0.294 OA
BRANCH  23  26
ATOM     26  O   UNL     1      12.633 -44.348 -21.612  1.00  0.00    -0.493 OA
ATOM     27  C   UNL     1      11.831 -43.545 -22.470  1.00  0.00     0.278 C 
ENDBRANCH  23  26
BRANCH  24  28
ATOM     28  O   UNL     1      15.336 -45.201 -22.141  1.00  0.00    -0.493 OA
ATOM     29  C   UNL     1      15.604 -44.335 -23.237  1.00  0.00     0.278 C 
ENDBRANCH  24  28
ENDBRANCH   1  16
TORSDOF 6
ENDMDL
MODEL 9
REMARK VINA RESULT:    -9.186      3.442     10.356
REMARK INTER + INTRA:         -13.231
REMARK INTER:                 -12.463
REMARK INTRA:                  -0.768
REMARK UNBOUND:                -0.823
REMARK SMILES COc1cc2c(cc1OC)C(=O)[C@H](C[C@H]1CC[N@@H+](Cc3ccccc3)CC1)C2
REMARK SMILES IDX 14 1 15 2 17 3 18 4 16 5 26 6 27 7 19 9 20 10 21 11 25 12
REMARK SMILES IDX 22 13 24 14 23 15 13 16 11 17 28 18 6 19 5 20 7 21 4 22 8 23
REMARK SMILES IDX 3 24 12 25 9 26 10 27 2 28 1 29
REMARK H PARENT 18 8
ROOT
ATOM      1  C   UNL     1      10.223 -54.755 -23.315  1.00  0.00     0.016 C 
ENDROOT
BRANCH   1   2
ATOM      2  C   UNL     1      11.175 -53.686 -22.736  1.00  0.00     0.001 C 
ATOM      3  C   UNL     1      11.365 -51.780 -21.079  1.00  0.00     0.262 C 
ATOM      4  N   UNL     1      11.965 -50.913 -22.159  1.00  0.00    -0.331 N 
ATOM      5  C   UNL     1      10.447 -52.839 -21.678  1.00  0.00     0.065 C 
ATOM      6  C   UNL     1      12.709 -51.729 -23.184  1.00  0.00     0.262 C 
ATOM      7  C   UNL     1      11.795 -52.777 -23.805  1.00  0.00     0.065 C 
ATOM      8  H   UNL     1      12.677 -50.346 -21.681  1.00  0.00     0.348 HD
BRANCH   4   9
ATOM      9  C   UNL     1      11.021 -49.898 -22.768  1.00  0.00     0.299 C 
BRANCH   9  10
ATOM     10  C   UNL     1      11.666 -48.559 -23.002  1.00  0.00     0.006 A 
ATOM     11  C   UNL     1      12.832 -48.199 -22.308  1.00  0.00     0.009 A 
ATOM     12  C   UNL     1      11.101 -47.641 -23.902  1.00  0.00     0.009 A 
ATOM     13  C   UNL     1      13.414 -46.946 -22.505  1.00  0.00     0.001 A 
ATOM     14  C   UNL     1      11.686 -46.390 -24.095  1.00  0.00     0.001 A 
ATOM     15  C   UNL     1      12.839 -46.042 -23.397  1.00  0.00     0.000 A 
ENDBRANCH   9  10
ENDBRANCH   4   9
ENDBRANCH   1   2
BRANCH   1  16
ATOM     16  C   UNL     1      10.120 -56.066 -22.519  1.00  0.00     0.066 C 
ATOM     17  C   UNL     1       9.194 -57.081 -23.171  1.00  0.00     0.166 C 
ATOM     18  C   UNL     1      11.487 -56.795 -22.430  1.00  0.00     0.048 C 
ATOM     19  C   UNL     1       9.932 -58.297 -23.475  1.00  0.00     0.025 A 
ATOM     20  C   UNL     1      11.241 -58.127 -23.059  1.00  0.00    -0.033 A 
ATOM     21  C   UNL     1       9.468 -59.459 -24.067  1.00  0.00     0.062 A 
ATOM     22  C   UNL     1      12.148 -59.155 -23.246  1.00  0.00     0.055 A 
ATOM     23  C   UNL     1      10.372 -60.514 -24.257  1.00  0.00     0.161 A 
ATOM     24  C   UNL     1      11.724 -60.346 -23.864  1.00  0.00     0.161 A 
ATOM     25  O   UNL     1       8.008 -56.921 -23.409  1.00  0.00    -0.294 OA
BRANCH  23  26
ATOM     26  O   UNL     1      10.010 -61.721 -24.791  1.00  0.00    -0.493 OA
ATOM     27  C   UNL     1       9.543 -62.735 -23.910  1.00  0.00     0.278 C 
ENDBRANCH  23  26
BRANCH  24  28
ATOM     28  O   UNL     1      12.736 -61.267 -23.968  1.00  0.00    -0.493 OA
ATOM     29  C   UNL     1      13.914 -60.864 -24.657  1.00  0.00     0.278 C 
ENDBRANCH  24  28
ENDBRANCH   1  16
TORSDOF 6
ENDMDL
