MODEL 1
REMARK VINA RESULT:   -11.298      0.000      0.000
REMARK INTER + INTRA:         -16.087
REMARK INTER:                 -15.591
REMARK INTRA:                  -0.496
REMARK UNBOUND:                -0.496
REMARK SMILES COc1cc2c(cc1OC)C(O)=C(C[C@H]1CC[N@H+](Cc3ccccc3)CC1)C2
REMARK SMILES IDX 14 1 13 2 11 3 6 4 28 5 7 6 5 7 8 8 4 9 3 10 12 11 9 13
REMARK SMILES IDX 10 14 2 15 1 16 15 17 16 18 27 19 17 20 26 21 18 22 19 24
REMARK SMILES IDX 20 25 21 26 25 27 22 28 24 29 23 30
REMARK H PARENT 12 12 18 23
ROOT
ATOM      1  C   UNL     1       9.989 -55.836 -22.363  1.00  0.00     0.039 C 
ENDROOT
BRANCH   1   2
ATOM      2  C   UNL     1      10.711 -54.634 -22.880  1.00  0.00    -0.023 C 
ATOM      3  C   UNL     1      10.793 -53.408 -22.333  1.00  0.00     0.122 C 
ATOM      4  C   UNL     1      11.651 -52.568 -23.151  1.00  0.00     0.024 A 
ATOM      5  C   UNL     1      11.501 -54.702 -24.179  1.00  0.00     0.071 C 
ATOM      6  C   UNL     1      12.055 -51.255 -22.981  1.00  0.00     0.062 A 
ATOM      7  C   UNL     1      12.076 -53.320 -24.254  1.00  0.00    -0.029 A 
ATOM      8  C   UNL     1      12.913 -50.694 -23.932  1.00  0.00     0.161 A 
ATOM      9  C   UNL     1      12.901 -52.772 -25.221  1.00  0.00     0.055 A 
ATOM     10  C   UNL     1      13.296 -51.439 -25.068  1.00  0.00     0.161 A 
BRANCH   3  11
ATOM     11  O   UNL     1      10.242 -52.925 -21.194  1.00  0.00    -0.507 OA
ATOM     12  H   UNL     1       9.286 -53.084 -21.222  1.00  0.00     0.293 HD
ENDBRANCH   3  11
BRANCH   8  13
ATOM     13  O   UNL     1      13.288 -49.397 -23.695  1.00  0.00    -0.493 OA
ATOM     14  C   UNL     1      12.844 -48.907 -22.431  1.00  0.00     0.278 C 
ENDBRANCH   8  13
BRANCH  10  15
ATOM     15  O   UNL     1      14.089 -50.913 -26.056  1.00  0.00    -0.493 OA
ATOM     16  C   UNL     1      15.468 -51.084 -25.717  1.00  0.00     0.278 C 
ENDBRANCH  10  15
ENDBRANCH   1   2
BRANCH   1  17
ATOM     17  C   UNL     1      10.450 -57.153 -23.025  1.00  0.00     0.004 C 
ATOM     18  C   UNL     1       9.233 -58.015 -23.389  1.00  0.00     0.065 C 
ATOM     19  C   UNL     1      11.403 -57.956 -22.123  1.00  0.00     0.065 C 
ATOM     20  C   UNL     1       9.639 -59.345 -24.013  1.00  0.00     0.262 C 
ATOM     21  C   UNL     1      11.800 -59.282 -22.753  1.00  0.00     0.262 C 
ATOM     22  N   UNL     1      10.565 -60.082 -23.076  1.00  0.00    -0.331 N 
ATOM     23  H   UNL     1      10.051 -60.234 -22.199  1.00  0.00     0.348 HD
BRANCH  22  24
ATOM     24  C   UNL     1      10.927 -61.466 -23.584  1.00  0.00     0.299 C 
BRANCH  24  25
ATOM     25  C   UNL     1       9.722 -62.320 -23.873  1.00  0.00     0.006 A 
ATOM     26  C   UNL     1       9.156 -63.116 -22.865  1.00  0.00     0.009 A 
ATOM     27  C   UNL     1       9.137 -62.319 -25.148  1.00  0.00     0.009 A 
ATOM     28  C   UNL     1       8.023 -63.887 -23.128  1.00  0.00     0.001 A 
ATOM     29  C   UNL     1       8.004 -63.092 -25.407  1.00  0.00     0.001 A 
ATOM     30  C   UNL     1       7.447 -63.873 -24.396  1.00  0.00     0.000 A 
ENDBRANCH  24  25
ENDBRANCH  22  24
ENDBRANCH   1  17
TORSDOF 7
ENDMDL
MODEL 2
REMARK VINA RESULT:   -10.963      1.081      2.173
REMARK INTER + INTRA:         -15.625
REMARK INTER:                 -15.430
REMARK INTRA:                  -0.195
REMARK UNBOUND:                -0.496
REMARK SMILES COc1cc2c(cc1OC)C(O)=C(C[C@H]1CC[N@H+](Cc3ccccc3)CC1)C2
REMARK SMILES IDX 14 1 13 2 11 3 6 4 28 5 7 6 5 7 8 8 4 9 3 10 12 11 9 13
REMARK SMILES IDX 10 14 2 15 1 16 15 17 16 18 27 19 17 20 26 21 18 22 19 24
REMARK SMILES IDX 20 25 21 26 25 27 22 28 24 29 23 30
REMARK H PARENT 12 12 18 23
ROOT
ATOM      1  C   UNL     1       9.917 -55.703 -22.129  1.00  0.00     0.039 C 
ENDROOT
BRANCH   1   2
ATOM      2  C   UNL     1      10.646 -54.458 -22.523  1.00  0.00    -0.023 C 
ATOM      3  C   UNL     1      11.344 -54.218 -23.647  1.00  0.00     0.122 C 
ATOM      4  C   UNL     1      11.833 -52.850 -23.632  1.00  0.00     0.024 A 
ATOM      5  C   UNL     1      10.651 -53.240 -21.611  1.00  0.00     0.071 C 
ATOM      6  C   UNL     1      12.564 -52.143 -24.571  1.00  0.00     0.062 A 
ATOM      7  C   UNL     1      11.434 -52.256 -22.426  1.00  0.00    -0.029 A 
ATOM      8  C   UNL     1      12.889 -50.811 -24.296  1.00  0.00     0.161 A 
ATOM      9  C   UNL     1      11.772 -50.948 -22.126  1.00  0.00     0.055 A 
ATOM     10  C   UNL     1      12.530 -50.235 -23.059  1.00  0.00     0.161 A 
BRANCH   3  11
ATOM     11  O   UNL     1      11.589 -55.024 -24.708  1.00  0.00    -0.507 OA
ATOM     12  H   UNL     1      10.769 -55.490 -24.937  1.00  0.00     0.293 HD
ENDBRANCH   3  11
BRANCH   8  13
ATOM     13  O   UNL     1      13.599 -50.164 -25.274  1.00  0.00    -0.493 OA
ATOM     14  C   UNL     1      13.981 -51.020 -26.349  1.00  0.00     0.278 C 
ENDBRANCH   8  13
BRANCH  10  15
ATOM     15  O   UNL     1      12.874 -48.951 -22.721  1.00  0.00    -0.493 OA
ATOM     16  C   UNL     1      11.780 -48.067 -22.981  1.00  0.00     0.278 C 
ENDBRANCH  10  15
ENDBRANCH   1   2
BRANCH   1  17
ATOM     17  C   UNL     1      10.403 -56.957 -22.889  1.00  0.00     0.004 C 
ATOM     18  C   UNL     1       9.209 -57.849 -23.255  1.00  0.00     0.065 C 
ATOM     19  C   UNL     1      11.428 -57.768 -22.078  1.00  0.00     0.065 C 
ATOM     20  C   UNL     1       9.642 -59.120 -23.975  1.00  0.00     0.262 C 
ATOM     21  C   UNL     1      11.852 -59.036 -22.803  1.00  0.00     0.262 C 
ATOM     22  N   UNL     1      10.638 -59.870 -23.123  1.00  0.00    -0.331 N 
ATOM     23  H   UNL     1      10.171 -60.096 -22.237  1.00  0.00     0.348 HD
BRANCH  22  24
ATOM     24  C   UNL     1      11.036 -61.203 -23.729  1.00  0.00     0.299 C 
BRANCH  24  25
ATOM     25  C   UNL     1       9.881 -62.162 -23.849  1.00  0.00     0.006 A 
ATOM     26  C   UNL     1       9.526 -62.986 -22.769  1.00  0.00     0.009 A 
ATOM     27  C   UNL     1       9.133 -62.232 -25.033  1.00  0.00     0.009 A 
ATOM     28  C   UNL     1       8.439 -63.855 -22.873  1.00  0.00     0.001 A 
ATOM     29  C   UNL     1       8.047 -63.103 -25.133  1.00  0.00     0.001 A 
ATOM     30  C   UNL     1       7.700 -63.911 -24.052  1.00  0.00     0.000 A 
ENDBRANCH  24  25
ENDBRANCH  22  24
ENDBRANCH   1  17
TORSDOF 7
ENDMDL
MODEL 3
REMARK VINA RESULT:   -10.117      4.206      9.198
REMARK INTER + INTRA:         -14.457
REMARK INTER:                 -14.002
REMARK INTRA:                  -0.455
REMARK UNBOUND:                -0.496
REMARK SMILES COc1cc2c(cc1OC)C(O)=C(C[C@H]1CC[N@H+](Cc3ccccc3)CC1)C2
REMARK SMILES IDX 14 1 13 2 11 3 6 4 28 5 7 6 5 7 8 8 4 9 3 10 12 11 9 13
REMARK SMILES IDX 10 14 2 15 1 16 15 17 16 18 27 19 17 20 26 21 18 22 19 24
REMARK SMILES IDX 20 25 21 26 25 27 22 28 24 29 23 30
REMARK H PARENT 12 12 18 23
ROOT
ATOM      1  C   UNL     1      10.646 -60.306 -22.249  1.00  0.00     0.039 C 
ENDROOT
BRANCH   1   2
ATOM      2  C   UNL     1      10.498 -60.581 -23.710  1.00  0.00    -0.023 C 
ATOM      3  C   UNL     1       9.641 -61.419 -24.321  1.00  0.00     0.122 C 
ATOM      4  C   UNL     1       9.811 -61.322 -25.761  1.00  0.00     0.024 A 
ATOM      5  C   UNL     1      11.372 -59.863 -24.729  1.00  0.00     0.071 C 
ATOM      6  C   UNL     1       9.142 -61.959 -26.792  1.00  0.00     0.062 A 
ATOM      7  C   UNL     1      10.838 -60.405 -26.020  1.00  0.00    -0.029 A 
ATOM      8  C   UNL     1       9.507 -61.657 -28.108  1.00  0.00     0.161 A 
ATOM      9  C   UNL     1      11.232 -60.117 -27.315  1.00  0.00     0.055 A 
ATOM     10  C   UNL     1      10.577 -60.773 -28.361  1.00  0.00     0.161 A 
BRANCH   3  11
ATOM     11  O   UNL     1       8.704 -62.242 -23.793  1.00  0.00    -0.507 OA
ATOM     12  H   UNL     1       8.799 -63.118 -24.196  1.00  0.00     0.293 HD
ENDBRANCH   3  11
BRANCH   8  13
ATOM     13  O   UNL     1       8.795 -62.309 -29.082  1.00  0.00    -0.493 OA
ATOM     14  C   UNL     1       8.319 -63.588 -28.666  1.00  0.00     0.278 C 
ENDBRANCH   8  13
BRANCH  10  15
ATOM     15  O   UNL     1      11.009 -60.489 -29.632  1.00  0.00    -0.493 OA
ATOM     16  C   UNL     1      11.846 -59.331 -29.617  1.00  0.00     0.278 C 
ENDBRANCH  10  15
ENDBRANCH   1   2
BRANCH   1  17
ATOM     17  C   UNL     1      10.347 -58.838 -21.874  1.00  0.00     0.004 C 
ATOM     18  C   UNL     1       9.675 -58.118 -23.052  1.00  0.00     0.065 C 
ATOM     19  C   UNL     1      11.614 -58.074 -21.454  1.00  0.00     0.065 C 
ATOM     20  C   UNL     1       9.393 -56.652 -22.743  1.00  0.00     0.262 C 
ATOM     21  C   UNL     1      11.323 -56.612 -21.151  1.00  0.00     0.262 C 
ATOM     22  N   UNL     1      10.677 -55.963 -22.347  1.00  0.00    -0.331 N 
ATOM     23  H   UNL     1      11.325 -56.049 -23.140  1.00  0.00     0.348 HD
BRANCH  22  24
ATOM     24  C   UNL     1      10.493 -54.472 -22.127  1.00  0.00     0.299 C 
BRANCH  24  25
ATOM     25  C   UNL     1      11.315 -53.634 -23.069  1.00  0.00     0.006 A 
ATOM     26  C   UNL     1      11.647 -52.310 -22.738  1.00  0.00     0.009 A 
ATOM     27  C   UNL     1      11.775 -54.167 -24.282  1.00  0.00     0.009 A 
ATOM     28  C   UNL     1      12.431 -51.543 -23.600  1.00  0.00     0.001 A 
ATOM     29  C   UNL     1      12.559 -53.396 -25.141  1.00  0.00     0.001 A 
ATOM     30  C   UNL     1      12.888 -52.086 -24.798  1.00  0.00     0.000 A 
ENDBRANCH  24  25
ENDBRANCH  22  24
ENDBRANCH   1  17
TORSDOF 7
ENDMDL
MODEL 4
REMARK VINA RESULT:   -10.108      4.045      9.123
REMARK INTER + INTRA:         -14.445
REMARK INTER:                 -13.884
REMARK INTRA:                  -0.560
REMARK UNBOUND:                -0.496
REMARK SMILES COc1cc2c(cc1OC)C(O)=C(C[C@H]1CC[N@H+](Cc3ccccc3)CC1)C2
REMARK SMILES IDX 14 1 13 2 11 3 6 4 28 5 7 6 5 7 8 8 4 9 3 10 12 11 9 13
REMARK SMILES IDX 10 14 2 15 1 16 15 17 16 18 27 19 17 20 26 21 18 22 19 24
REMARK SMILES IDX 20 25 21 26 25 27 22 28 24 29 23 30
REMARK H PARENT 12 12 18 23
ROOT
ATOM      1  C   UNL     1      11.134 -59.734 -22.405  1.00  0.00     0.039 C 
ENDROOT
BRANCH   1   2
ATOM      2  C   UNL     1      10.975 -59.926 -23.879  1.00  0.00    -0.023 C 
ATOM      3  C   UNL     1      11.697 -59.383 -24.876  1.00  0.00     0.122 C 
ATOM      4  C   UNL     1      11.227 -59.896 -26.151  1.00  0.00     0.024 A 
ATOM      5  C   UNL     1       9.894 -60.844 -24.431  1.00  0.00     0.071 C 
ATOM      6  C   UNL     1      11.673 -59.657 -27.439  1.00  0.00     0.062 A 
ATOM      7  C   UNL     1      10.153 -60.762 -25.905  1.00  0.00    -0.029 A 
ATOM      8  C   UNL     1      11.034 -60.311 -28.497  1.00  0.00     0.161 A 
ATOM      9  C   UNL     1       9.490 -61.395 -26.942  1.00  0.00     0.055 A 
ATOM     10  C   UNL     1       9.920 -61.141 -28.248  1.00  0.00     0.161 A 
BRANCH   3  11
ATOM     11  O   UNL     1      12.738 -58.518 -24.824  1.00  0.00    -0.507 OA
ATOM     12  H   UNL     1      12.910 -58.188 -25.720  1.00  0.00     0.293 HD
ENDBRANCH   3  11
BRANCH   8  13
ATOM     13  O   UNL     1      11.535 -60.044 -29.745  1.00  0.00    -0.493 OA
ATOM     14  C   UNL     1      12.147 -58.758 -29.839  1.00  0.00     0.278 C 
ENDBRANCH   8  13
BRANCH  10  15
ATOM     15  O   UNL     1       9.226 -61.759 -29.257  1.00  0.00    -0.493 OA
ATOM     16  C   UNL     1       8.732 -63.023 -28.806  1.00  0.00     0.278 C 
ENDBRANCH  10  15
ENDBRANCH   1   2
BRANCH   1  17
ATOM     17  C   UNL     1      10.611 -58.367 -21.911  1.00  0.00     0.004 C 
ATOM     18  C   UNL     1       9.968 -57.596 -23.071  1.00  0.00     0.065 C 
ATOM     19  C   UNL     1      11.721 -57.515 -21.273  1.00  0.00     0.065 C 
ATOM     20  C   UNL     1       9.468 -56.222 -22.640  1.00  0.00     0.262 C 
ATOM     21  C   UNL     1      11.214 -56.145 -20.848  1.00  0.00     0.262 C 
ATOM     22  N   UNL     1      10.606 -55.438 -22.032  1.00  0.00    -0.331 N 
ATOM     23  H   UNL     1      11.334 -55.350 -22.752  1.00  0.00     0.348 HD
BRANCH  22  24
ATOM     24  C   UNL     1      10.209 -54.017 -21.675  1.00  0.00     0.299 C 
BRANCH  24  25
ATOM     25  C   UNL     1      11.054 -52.980 -22.364  1.00  0.00     0.006 A 
ATOM     26  C   UNL     1      11.711 -53.283 -23.568  1.00  0.00     0.009 A 
ATOM     27  C   UNL     1      11.182 -51.692 -21.825  1.00  0.00     0.009 A 
ATOM     28  C   UNL     1      12.472 -52.312 -24.220  1.00  0.00     0.001 A 
ATOM     29  C   UNL     1      11.945 -50.724 -22.480  1.00  0.00     0.001 A 
ATOM     30  C   UNL     1      12.587 -51.034 -23.678  1.00  0.00     0.000 A 
ENDBRANCH  24  25
ENDBRANCH  22  24
ENDBRANCH   1  17
TORSDOF 7
ENDMDL
MODEL 5
REMARK VINA RESULT:   -10.086      3.760     10.446
REMARK INTER + INTRA:         -14.415
REMARK INTER:                 -14.107
REMARK INTRA:                  -0.308
REMARK UNBOUND:                -0.496
REMARK SMILES COc1cc2c(cc1OC)C(O)=C(C[C@H]1CC[N@H+](Cc3ccccc3)CC1)C2
REMARK SMILES IDX 14 1 13 2 11 3 6 4 28 5 7 6 5 7 8 8 4 9 3 10 12 11 9 13
REMARK SMILES IDX 10 14 2 15 1 16 15 17 16 18 27 19 17 20 26 21 18 22 19 24
REMARK SMILES IDX 20 25 21 26 25 27 22 28 24 29 23 30
REMARK H PARENT 12 12 18 23
ROOT
ATOM      1  C   UNL     1      11.299 -56.570 -22.910  1.00  0.00     0.039 C 
ENDROOT
BRANCH   1   2
ATOM      2  C   UNL     1      10.142 -57.499 -23.092  1.00  0.00    -0.023 C 
ATOM      3  C   UNL     1      10.156 -58.839 -23.209  1.00  0.00     0.122 C 
ATOM      4  C   UNL     1       8.793 -59.332 -23.308  1.00  0.00     0.024 A 
ATOM      5  C   UNL     1       8.718 -56.965 -23.152  1.00  0.00     0.071 C 
ATOM      6  C   UNL     1       8.306 -60.623 -23.411  1.00  0.00     0.062 A 
ATOM      7  C   UNL     1       7.927 -58.230 -23.281  1.00  0.00    -0.029 A 
ATOM      8  C   UNL     1       6.922 -60.809 -23.476  1.00  0.00     0.161 A 
ATOM      9  C   UNL     1       6.556 -58.395 -23.373  1.00  0.00     0.055 A 
ATOM     10  C   UNL     1       6.057 -59.695 -23.500  1.00  0.00     0.161 A 
BRANCH   3  11
ATOM     11  O   UNL     1      11.201 -59.701 -23.209  1.00  0.00    -0.507 OA
ATOM     12  H   UNL     1      10.884 -60.570 -22.919  1.00  0.00     0.293 HD
ENDBRANCH   3  11
BRANCH   8  13
ATOM     13  O   UNL     1       6.506 -62.113 -23.560  1.00  0.00    -0.493 OA
ATOM     14  C   UNL     1       7.504 -62.987 -24.085  1.00  0.00     0.278 C 
ENDBRANCH   8  13
BRANCH  10  15
ATOM     15  O   UNL     1       4.697 -59.825 -23.619  1.00  0.00    -0.493 OA
ATOM     16  C   UNL     1       4.040 -58.851 -22.803  1.00  0.00     0.278 C 
ENDBRANCH  10  15
ENDBRANCH   1   2
BRANCH   1  17
ATOM     17  C   UNL     1      10.873 -55.094 -22.752  1.00  0.00     0.004 C 
ATOM     18  C   UNL     1      11.701 -54.201 -23.687  1.00  0.00     0.065 C 
ATOM     19  C   UNL     1      11.014 -54.599 -21.302  1.00  0.00     0.065 C 
ATOM     20  C   UNL     1      11.342 -52.728 -23.540  1.00  0.00     0.262 C 
ATOM     21  C   UNL     1      10.657 -53.126 -21.166  1.00  0.00     0.262 C 
ATOM     22  N   UNL     1      11.510 -52.307 -22.100  1.00  0.00    -0.331 N 
ATOM     23  H   UNL     1      12.494 -52.468 -21.849  1.00  0.00     0.348 HD
BRANCH  22  24
ATOM     24  C   UNL     1      11.273 -50.822 -21.895  1.00  0.00     0.299 C 
BRANCH  24  25
ATOM     25  C   UNL     1      11.986 -49.968 -22.908  1.00  0.00     0.006 A 
ATOM     26  C   UNL     1      11.455 -48.726 -23.293  1.00  0.00     0.009 A 
ATOM     27  C   UNL     1      13.200 -50.391 -23.469  1.00  0.00     0.009 A 
ATOM     28  C   UNL     1      12.131 -47.924 -24.212  1.00  0.00     0.001 A 
ATOM     29  C   UNL     1      13.873 -49.585 -24.388  1.00  0.00     0.001 A 
ATOM     30  C   UNL     1      13.339 -48.351 -24.757  1.00  0.00     0.000 A 
ENDBRANCH  24  25
ENDBRANCH  22  24
ENDBRANCH   1  17
TORSDOF 7
ENDMDL
MODEL 6
REMARK VINA RESULT:    -9.897      3.001      5.495
REMARK INTER + INTRA:         -14.153
REMARK INTER:                 -13.484
REMARK INTRA:                  -0.670
REMARK UNBOUND:                -0.496
REMARK SMILES COc1cc2c(cc1OC)C(O)=C(C[C@H]1CC[N@H+](Cc3ccccc3)CC1)C2
REMARK SMILES IDX 14 1 13 2 11 3 6 4 28 5 7 6 5 7 8 8 4 9 3 10 12 11 9 13
REMARK SMILES IDX 10 14 2 15 1 16 15 17 16 18 27 19 17 20 26 21 18 22 19 24
REMARK SMILES IDX 20 25 21 26 25 27 22 28 24 29 23 30
REMARK H PARENT 12 12 18 23
ROOT
ATOM      1  C   UNL     1      12.764 -51.254 -22.752  1.00  0.00     0.039 C 
ENDROOT
BRANCH   1   2
ATOM      2  C   UNL     1      12.446 -49.846 -23.143  1.00  0.00    -0.023 C 
ATOM      3  C   UNL     1      11.398 -49.091 -22.769  1.00  0.00     0.122 C 
ATOM      4  C   UNL     1      11.526 -47.764 -23.346  1.00  0.00     0.024 A 
ATOM      5  C   UNL     1      13.370 -49.070 -24.071  1.00  0.00     0.071 C 
ATOM      6  C   UNL     1      10.720 -46.645 -23.221  1.00  0.00     0.062 A 
ATOM      7  C   UNL     1      12.690 -47.736 -24.125  1.00  0.00    -0.029 A 
ATOM      8  C   UNL     1      11.100 -45.475 -23.885  1.00  0.00     0.161 A 
ATOM      9  C   UNL     1      13.066 -46.595 -24.812  1.00  0.00     0.055 A 
ATOM     10  C   UNL     1      12.245 -45.467 -24.711  1.00  0.00     0.161 A 
BRANCH   3  11
ATOM     11  O   UNL     1      10.352 -49.393 -21.963  1.00  0.00    -0.507 OA
ATOM     12  H   UNL     1      10.193 -50.348 -22.009  1.00  0.00     0.293 HD
ENDBRANCH   3  11
BRANCH   8  13
ATOM     13  O   UNL     1      10.268 -44.399 -23.707  1.00  0.00    -0.493 OA
ATOM     14  C   UNL     1      10.821 -43.397 -22.856  1.00  0.00     0.278 C 
ENDBRANCH   8  13
BRANCH  10  15
ATOM     15  O   UNL     1      12.626 -44.361 -25.426  1.00  0.00    -0.493 OA
ATOM     16  C   UNL     1      13.396 -44.756 -26.564  1.00  0.00     0.278 C 
ENDBRANCH  10  15
ENDBRANCH   1   2
BRANCH   1  17
ATOM     17  C   UNL     1      11.646 -52.253 -23.119  1.00  0.00     0.004 C 
ATOM     18  C   UNL     1      11.043 -52.864 -21.846  1.00  0.00     0.065 C 
ATOM     19  C   UNL     1      12.148 -53.374 -24.046  1.00  0.00     0.065 C 
ATOM     20  C   UNL     1       9.958 -53.887 -22.159  1.00  0.00     0.262 C 
ATOM     21  C   UNL     1      11.059 -54.392 -24.349  1.00  0.00     0.262 C 
ATOM     22  N   UNL     1      10.519 -54.960 -23.062  1.00  0.00    -0.331 N 
ATOM     23  H   UNL     1      11.300 -55.401 -22.562  1.00  0.00     0.348 HD
BRANCH  22  24
ATOM     24  C   UNL     1       9.524 -56.073 -23.332  1.00  0.00     0.299 C 
BRANCH  24  25
ATOM     25  C   UNL     1       9.943 -57.392 -22.741  1.00  0.00     0.006 A 
ATOM     26  C   UNL     1      11.079 -57.474 -21.918  1.00  0.00     0.009 A 
ATOM     27  C   UNL     1       9.198 -58.554 -22.988  1.00  0.00     0.009 A 
ATOM     28  C   UNL     1      11.452 -58.693 -21.349  1.00  0.00     0.001 A 
ATOM     29  C   UNL     1       9.574 -59.771 -22.417  1.00  0.00     0.001 A 
ATOM     30  C   UNL     1      10.699 -59.839 -21.597  1.00  0.00     0.000 A 
ENDBRANCH  24  25
ENDBRANCH  22  24
ENDBRANCH   1  17
TORSDOF 7
ENDMDL
MODEL 7
REMARK VINA RESULT:    -9.886      4.046     10.080
REMARK INTER + INTRA:         -14.139
REMARK INTER:                 -13.666
REMARK INTRA:                  -0.473
REMARK UNBOUND:                -0.496
REMARK SMILES COc1cc2c(cc1OC)C(O)=C(C[C@H]1CC[N@H+](Cc3ccccc3)CC1)C2
REMARK SMILES IDX 14 1 13 2 11 3 6 4 28 5 7 6 5 7 8 8 4 9 3 10 12 11 9 13
REMARK SMILES IDX 10 14 2 15 1 16 15 17 16 18 27 19 17 20 26 21 18 22 19 24
REMARK SMILES IDX 20 25 21 26 25 27 22 28 24 29 23 30
REMARK H PARENT 12 12 18 23
ROOT
ATOM      1  C   UNL     1      10.928 -60.189 -22.063  1.00  0.00     0.039 C 
ENDROOT
BRANCH   1   2
ATOM      2  C   UNL     1      10.238 -60.862 -23.205  1.00  0.00    -0.023 C 
ATOM      3  C   UNL     1      10.533 -60.798 -24.516  1.00  0.00     0.122 C 
ATOM      4  C   UNL     1       9.631 -61.661 -25.259  1.00  0.00     0.024 A 
ATOM      5  C   UNL     1       9.042 -61.772 -22.963  1.00  0.00     0.071 C 
ATOM      6  C   UNL     1       9.566 -61.945 -26.612  1.00  0.00     0.062 A 
ATOM      7  C   UNL     1       8.736 -62.244 -24.352  1.00  0.00    -0.029 A 
ATOM      8  C   UNL     1       8.590 -62.842 -27.058  1.00  0.00     0.161 A 
ATOM      9  C   UNL     1       7.746 -63.111 -24.779  1.00  0.00     0.055 A 
ATOM     10  C   UNL     1       7.659 -63.385 -26.147  1.00  0.00     0.161 A 
BRANCH   3  11
ATOM     11  O   UNL     1      11.508 -60.108 -25.155  1.00  0.00    -0.507 OA
ATOM     12  H   UNL     1      11.568 -60.433 -26.067  1.00  0.00     0.293 HD
ENDBRANCH   3  11
BRANCH   8  13
ATOM     13  O   UNL     1       8.591 -63.092 -28.406  1.00  0.00    -0.493 OA
ATOM     14  C   UNL     1       9.272 -62.092 -29.161  1.00  0.00     0.278 C 
ENDBRANCH   8  13
BRANCH  10  15
ATOM     15  O   UNL     1       6.649 -64.224 -26.545  1.00  0.00    -0.493 OA
ATOM     16  C   UNL     1       5.961 -64.737 -25.401  1.00  0.00     0.278 C 
ENDBRANCH  10  15
ENDBRANCH   1   2
BRANCH   1  17
ATOM     17  C   UNL     1      10.503 -58.716 -21.879  1.00  0.00     0.004 C 
ATOM     18  C   UNL     1       9.629 -58.267 -23.059  1.00  0.00     0.065 C 
ATOM     19  C   UNL     1      11.711 -57.774 -21.740  1.00  0.00     0.065 C 
ATOM     20  C   UNL     1       9.214 -56.805 -22.941  1.00  0.00     0.262 C 
ATOM     21  C   UNL     1      11.286 -56.317 -21.626  1.00  0.00     0.262 C 
ATOM     22  N   UNL     1      10.444 -55.939 -22.816  1.00  0.00    -0.331 N 
ATOM     23  H   UNL     1      11.009 -56.088 -23.661  1.00  0.00     0.348 HD
BRANCH  22  24
ATOM     24  C   UNL     1      10.113 -54.457 -22.802  1.00  0.00     0.299 C 
BRANCH  24  25
ATOM     25  C   UNL     1      11.149 -53.617 -23.500  1.00  0.00     0.006 A 
ATOM     26  C   UNL     1      11.459 -52.332 -23.027  1.00  0.00     0.009 A 
ATOM     27  C   UNL     1      11.831 -54.112 -24.621  1.00  0.00     0.009 A 
ATOM     28  C   UNL     1      12.438 -51.564 -23.659  1.00  0.00     0.001 A 
ATOM     29  C   UNL     1      12.810 -53.341 -25.250  1.00  0.00     0.001 A 
ATOM     30  C   UNL     1      13.113 -52.069 -24.767  1.00  0.00     0.000 A 
ENDBRANCH  24  25
ENDBRANCH  22  24
ENDBRANCH   1  17
TORSDOF 7
ENDMDL
MODEL 8
REMARK VINA RESULT:    -9.885      3.780     10.219
REMARK INTER + INTRA:         -14.138
REMARK INTER:                 -13.634
REMARK INTRA:                  -0.504
REMARK UNBOUND:                -0.496
REMARK SMILES COc1cc2c(cc1OC)C(O)=C(C[C@H]1CC[N@H+](Cc3ccccc3)CC1)C2
REMARK SMILES IDX 14 1 13 2 11 3 6 4 28 5 7 6 5 7 8 8 4 9 3 10 12 11 9 13
REMARK SMILES IDX 10 14 2 15 1 16 15 17 16 18 27 19 17 20 26 21 18 22 19 24
REMARK SMILES IDX 20 25 21 26 25 27 22 28 24 29 23 30
REMARK H PARENT 12 12 18 23
ROOT
ATOM      1  C   UNL     1      11.438 -57.676 -22.215  1.00  0.00     0.039 C 
ENDROOT
BRANCH   1   2
ATOM      2  C   UNL     1      10.751 -58.679 -23.085  1.00  0.00    -0.023 C 
ATOM      3  C   UNL     1      11.089 -59.084 -24.322  1.00  0.00     0.122 C 
ATOM      4  C   UNL     1      10.170 -60.119 -24.762  1.00  0.00     0.024 A 
ATOM      5  C   UNL     1       9.505 -59.405 -22.598  1.00  0.00     0.071 C 
ATOM      6  C   UNL     1      10.133 -60.854 -25.934  1.00  0.00     0.062 A 
ATOM      7  C   UNL     1       9.220 -60.319 -23.751  1.00  0.00    -0.029 A 
ATOM      8  C   UNL     1       9.128 -61.814 -26.086  1.00  0.00     0.161 A 
ATOM      9  C   UNL     1       8.202 -61.245 -23.897  1.00  0.00     0.055 A 
ATOM     10  C   UNL     1       8.144 -61.974 -25.088  1.00  0.00     0.161 A 
BRANCH   3  11
ATOM     11  O   UNL     1      12.116 -58.694 -25.115  1.00  0.00    -0.507 OA
ATOM     12  H   UNL     1      12.876 -59.271 -24.942  1.00  0.00     0.293 HD
ENDBRANCH   3  11
BRANCH   8  13
ATOM     13  O   UNL     1       9.158 -62.517 -27.263  1.00  0.00    -0.493 OA
ATOM     14  C   UNL     1       9.238 -61.679 -28.415  1.00  0.00     0.278 C 
ENDBRANCH   8  13
BRANCH  10  15
ATOM     15  O   UNL     1       7.107 -62.863 -25.217  1.00  0.00    -0.493 OA
ATOM     16  C   UNL     1       7.188 -63.859 -24.194  1.00  0.00     0.278 C 
ENDBRANCH  10  15
ENDBRANCH   1   2
BRANCH   1  17
ATOM     17  C   UNL     1      10.798 -56.272 -22.286  1.00  0.00     0.004 C 
ATOM     18  C   UNL     1      11.285 -55.530 -23.539  1.00  0.00     0.065 C 
ATOM     19  C   UNL     1      11.101 -55.430 -21.034  1.00  0.00     0.065 C 
ATOM     20  C   UNL     1      10.708 -54.123 -23.633  1.00  0.00     0.262 C 
ATOM     21  C   UNL     1      10.525 -54.026 -21.139  1.00  0.00     0.262 C 
ATOM     22  N   UNL     1      11.049 -53.352 -22.380  1.00  0.00    -0.331 N 
ATOM     23  H   UNL     1      12.073 -53.320 -22.312  1.00  0.00     0.348 HD
BRANCH  22  24
ATOM     24  C   UNL     1      10.598 -51.904 -22.447  1.00  0.00     0.299 C 
BRANCH  24  25
ATOM     25  C   UNL     1      11.587 -51.013 -23.149  1.00  0.00     0.006 A 
ATOM     26  C   UNL     1      11.579 -49.626 -22.925  1.00  0.00     0.009 A 
ATOM     27  C   UNL     1      12.540 -51.555 -24.023  1.00  0.00     0.009 A 
ATOM     28  C   UNL     1      12.513 -48.804 -23.557  1.00  0.00     0.001 A 
ATOM     29  C   UNL     1      13.473 -50.729 -24.652  1.00  0.00     0.001 A 
ATOM     30  C   UNL     1      13.460 -49.355 -24.417  1.00  0.00     0.000 A 
ENDBRANCH  24  25
ENDBRANCH  22  24
ENDBRANCH   1  17
TORSDOF 7
ENDMDL
MODEL 9
REMARK VINA RESULT:    -9.725      2.277      4.193
REMARK INTER + INTRA:         -13.917
REMARK INTER:                 -13.182
REMARK INTRA:                  -0.735
REMARK UNBOUND:                -0.496
REMARK SMILES COc1cc2c(cc1OC)C(O)=C(C[C@H]1CC[N@H+](Cc3ccccc3)CC1)C2
REMARK SMILES IDX 14 1 13 2 11 3 6 4 28 5 7 6 5 7 8 8 4 9 3 10 12 11 9 13
REMARK SMILES IDX 10 14 2 15 1 16 15 17 16 18 27 19 17 20 26 21 18 22 19 24
REMARK SMILES IDX 20 25 21 26 25 27 22 28 24 29 23 30
REMARK H PARENT 12 12 18 23
ROOT
ATOM      1  C   UNL     1      11.055 -59.429 -21.122  1.00  0.00     0.039 C 
ENDROOT
BRANCH   1   2
ATOM      2  C   UNL     1      11.240 -58.138 -21.852  1.00  0.00    -0.023 C 
ATOM      3  C   UNL     1      11.768 -57.935 -23.072  1.00  0.00     0.122 C 
ATOM      4  C   UNL     1      11.694 -56.522 -23.405  1.00  0.00     0.024 A 
ATOM      5  C   UNL     1      10.796 -56.822 -21.229  1.00  0.00     0.071 C 
ATOM      6  C   UNL     1      12.077 -55.844 -24.549  1.00  0.00     0.062 A 
ATOM      7  C   UNL     1      11.123 -55.847 -22.318  1.00  0.00    -0.029 A 
ATOM      8  C   UNL     1      11.870 -54.463 -24.604  1.00  0.00     0.161 A 
ATOM      9  C   UNL     1      10.937 -54.475 -22.344  1.00  0.00     0.055 A 
ATOM     10  C   UNL     1      11.343 -53.780 -23.487  1.00  0.00     0.161 A 
BRANCH   3  11
ATOM     11  O   UNL     1      12.282 -58.823 -23.956  1.00  0.00    -0.507 OA
ATOM     12  H   UNL     1      12.642 -58.334 -24.712  1.00  0.00     0.293 HD
ENDBRANCH   3  11
BRANCH   8  13
ATOM     13  O   UNL     1      12.256 -53.855 -25.771  1.00  0.00    -0.493 OA
ATOM     14  C   UNL     1      13.569 -53.302 -25.707  1.00  0.00     0.278 C 
ENDBRANCH   8  13
BRANCH  10  15
ATOM     15  O   UNL     1      11.173 -52.419 -23.473  1.00  0.00    -0.493 OA
ATOM     16  C   UNL     1      10.572 -52.014 -22.241  1.00  0.00     0.278 C 
ENDBRANCH  10  15
ENDBRANCH   1   2
BRANCH   1  17
ATOM     17  C   UNL     1       9.988 -60.342 -21.766  1.00  0.00     0.004 C 
ATOM     18  C   UNL     1      10.664 -61.448 -22.587  1.00  0.00     0.065 C 
ATOM     19  C   UNL     1       9.011 -59.557 -22.657  1.00  0.00     0.065 C 
ATOM     20  C   UNL     1       9.649 -62.355 -23.273  1.00  0.00     0.262 C 
ATOM     21  C   UNL     1       8.004 -60.471 -23.340  1.00  0.00     0.262 C 
ATOM     22  N   UNL     1       8.731 -61.524 -24.136  1.00  0.00    -0.331 N 
ATOM     23  H   UNL     1       9.316 -61.044 -24.830  1.00  0.00     0.348 HD
BRANCH  22  24
ATOM     24  C   UNL     1       7.758 -62.372 -24.935  1.00  0.00     0.299 C 
BRANCH  24  25
ATOM     25  C   UNL     1       8.195 -62.581 -26.360  1.00  0.00     0.006 A 
ATOM     26  C   UNL     1       7.665 -63.636 -27.120  1.00  0.00     0.009 A 
ATOM     27  C   UNL     1       9.123 -61.714 -26.956  1.00  0.00     0.009 A 
ATOM     28  C   UNL     1       8.051 -63.813 -28.449  1.00  0.00     0.001 A 
ATOM     29  C   UNL     1       9.507 -61.895 -28.286  1.00  0.00     0.001 A 
ATOM     30  C   UNL     1       8.969 -62.942 -29.031  1.00  0.00     0.000 A 
ENDBRANCH  24  25
ENDBRANCH  22  24
ENDBRANCH   1  17
TORSDOF 7
ENDMDL
