MODEL 1
REMARK VINA RESULT:   -12.336      0.000      0.000
REMARK INTER + INTRA:         -17.162
REMARK INTER:                 -16.662
REMARK INTRA:                  -0.499
REMARK UNBOUND:                -0.499
REMARK SMILES CC(=O)Nc1ccc2c(CC[C@H]3CC[N@H+](Cc4ccccc4)CC3)noc2c1
REMARK SMILES IDX 11 1 12 2 14 3 15 4 13 5 23 6 24 7 16 9 17 10 18 11 22 12
REMARK SMILES IDX 19 13 21 14 20 15 10 16 9 17 8 18 25 19 7 20 27 21 26 22
REMARK SMILES IDX 6 23 28 24 5 25 4 26 2 27 1 29 3 30
REMARK H PARENT 15 8 4 28
ROOT
ATOM      1  C   UNL     1      11.036 -55.780 -21.923  1.00  0.00     0.010 C 
ENDROOT
BRANCH   1   2
ATOM      2  C   UNL     1      10.890 -57.198 -22.507  1.00  0.00     0.000 C 
ATOM      3  C   UNL     1      10.931 -59.690 -22.086  1.00  0.00     0.262 C 
ATOM      4  N   UNL     1      11.849 -59.843 -23.273  1.00  0.00    -0.331 N 
ATOM      5  C   UNL     1      11.130 -58.307 -21.474  1.00  0.00     0.065 C 
ATOM      6  C   UNL     1      11.571 -58.808 -24.337  1.00  0.00     0.262 C 
ATOM      7  C   UNL     1      11.776 -57.418 -23.742  1.00  0.00     0.065 C 
ATOM      8  H   UNL     1      12.801 -59.665 -22.935  1.00  0.00     0.348 HD
BRANCH   4   9
ATOM      9  C   UNL     1      11.905 -61.260 -23.815  1.00  0.00     0.299 C 
BRANCH   9  10
ATOM     10  C   UNL     1      10.603 -62.013 -23.825  1.00  0.00     0.006 A 
ATOM     11  C   UNL     1       9.735 -61.929 -24.926  1.00  0.00     0.009 A 
ATOM     12  C   UNL     1      10.231 -62.814 -22.733  1.00  0.00     0.009 A 
ATOM     13  C   UNL     1       8.536 -62.642 -24.940  1.00  0.00     0.001 A 
ATOM     14  C   UNL     1       9.031 -63.526 -22.751  1.00  0.00     0.001 A 
ATOM     15  C   UNL     1       8.186 -63.443 -23.856  1.00  0.00     0.000 A 
ENDBRANCH   9  10
ENDBRANCH   4   9
ENDBRANCH   1   2
BRANCH   1  16
ATOM     16  C   UNL     1      11.274 -54.659 -22.945  1.00  0.00     0.061 C 
BRANCH  16  17
ATOM     17  C   UNL     1      10.527 -53.419 -22.594  1.00  0.00     0.091 A 
ATOM     18  C   UNL     1      10.970 -52.075 -22.636  1.00  0.00     0.045 A 
ATOM     19  N   UNL     1       9.260 -53.510 -22.166  1.00  0.00    -0.084 NA
ATOM     20  C   UNL     1      12.139 -51.381 -22.977  1.00  0.00     0.016 A 
ATOM     21  C   UNL     1       9.874 -51.352 -22.204  1.00  0.00     0.169 A 
ATOM     22  O   UNL     1       8.854 -52.206 -21.925  1.00  0.00    -0.356 OA
ATOM     23  C   UNL     1      12.141 -49.978 -22.863  1.00  0.00     0.027 A 
ATOM     24  C   UNL     1       9.843 -49.964 -22.082  1.00  0.00     0.076 A 
ATOM     25  C   UNL     1      11.014 -49.271 -22.424  1.00  0.00     0.045 A 
BRANCH  25  26
ATOM     26  N   UNL     1      10.976 -47.865 -22.297  1.00  0.00    -0.326 N 
ATOM     27  C   UNL     1      11.006 -46.925 -23.312  1.00  0.00     0.221 C 
ATOM     28  H   UNL     1      10.912 -47.505 -21.352  1.00  0.00     0.169 HD
ATOM     29  C   UNL     1      10.940 -45.512 -22.787  1.00  0.00     0.114 C 
ATOM     30  O   UNL     1      11.055 -47.145 -24.516  1.00  0.00    -0.275 OA
ENDBRANCH  25  26
ENDBRANCH  16  17
ENDBRANCH   1  16
TORSDOF 6
ENDMDL
MODEL 2
REMARK VINA RESULT:   -12.113      2.384      2.958
REMARK INTER + INTRA:         -16.861
REMARK INTER:                 -16.140
REMARK INTRA:                  -0.721
REMARK UNBOUND:                -0.499
REMARK SMILES CC(=O)Nc1ccc2c(CC[C@H]3CC[N@H+](Cc4ccccc4)CC3)noc2c1
REMARK SMILES IDX 11 1 12 2 14 3 15 4 13 5 23 6 24 7 16 9 17 10 18 11 22 12
REMARK SMILES IDX 19 13 21 14 20 15 10 16 9 17 8 18 25 19 7 20 27 21 26 22
REMARK SMILES IDX 6 23 28 24 5 25 4 26 2 27 1 29 3 30
REMARK H PARENT 15 8 4 28
ROOT
ATOM      1  C   UNL     1      11.154 -55.897 -21.611  1.00  0.00     0.010 C 
ENDROOT
BRANCH   1   2
ATOM      2  C   UNL     1      10.969 -57.285 -22.253  1.00  0.00     0.000 C 
ATOM      3  C   UNL     1      11.075 -59.795 -21.971  1.00  0.00     0.262 C 
ATOM      4  N   UNL     1      11.881 -59.872 -23.244  1.00  0.00    -0.331 N 
ATOM      5  C   UNL     1      11.316 -58.443 -21.307  1.00  0.00     0.065 C 
ATOM      6  C   UNL     1      11.494 -58.787 -24.221  1.00  0.00     0.262 C 
ATOM      7  C   UNL     1      11.740 -57.427 -23.575  1.00  0.00     0.065 C 
ATOM      8  H   UNL     1      12.858 -59.697 -22.986  1.00  0.00     0.348 HD
BRANCH   4   9
ATOM      9  C   UNL     1      11.901 -61.258 -23.864  1.00  0.00     0.299 C 
BRANCH   9  10
ATOM     10  C   UNL     1      10.601 -62.014 -23.828  1.00  0.00     0.006 A 
ATOM     11  C   UNL     1       9.706 -61.950 -24.908  1.00  0.00     0.009 A 
ATOM     12  C   UNL     1      10.258 -62.797 -22.714  1.00  0.00     0.009 A 
ATOM     13  C   UNL     1       8.509 -62.666 -24.881  1.00  0.00     0.001 A 
ATOM     14  C   UNL     1       9.061 -63.512 -22.691  1.00  0.00     0.001 A 
ATOM     15  C   UNL     1       8.188 -63.449 -23.775  1.00  0.00     0.000 A 
ENDBRANCH   9  10
ENDBRANCH   4   9
ENDBRANCH   1   2
BRANCH   1  16
ATOM     16  C   UNL     1      10.124 -54.833 -22.014  1.00  0.00     0.061 C 
BRANCH  16  17
ATOM     17  C   UNL     1      10.759 -53.507 -22.253  1.00  0.00     0.091 A 
ATOM     18  C   UNL     1      11.554 -53.090 -23.348  1.00  0.00     0.045 A 
ATOM     19  N   UNL     1      10.608 -52.529 -21.350  1.00  0.00    -0.084 NA
ATOM     20  C   UNL     1      12.043 -53.639 -24.541  1.00  0.00     0.016 A 
ATOM     21  C   UNL     1      11.874 -51.780 -23.045  1.00  0.00     0.169 A 
ATOM     22  O   UNL     1      11.309 -51.444 -21.854  1.00  0.00    -0.356 OA
ATOM     23  C   UNL     1      12.836 -52.830 -25.376  1.00  0.00     0.027 A 
ATOM     24  C   UNL     1      12.654 -50.951 -23.849  1.00  0.00     0.076 A 
ATOM     25  C   UNL     1      13.142 -51.503 -25.044  1.00  0.00     0.045 A 
BRANCH  25  26
ATOM     26  N   UNL     1      13.933 -50.659 -25.853  1.00  0.00    -0.326 N 
ATOM     27  C   UNL     1      15.296 -50.742 -26.078  1.00  0.00     0.221 C 
ATOM     28  H   UNL     1      13.443 -49.912 -26.331  1.00  0.00     0.169 HD
ATOM     29  C   UNL     1      15.789 -49.665 -27.013  1.00  0.00     0.114 C 
ATOM     30  O   UNL     1      16.066 -51.579 -25.623  1.00  0.00    -0.275 OA
ENDBRANCH  25  26
ENDBRANCH  16  17
ENDBRANCH   1  16
TORSDOF 6
ENDMDL
MODEL 3
REMARK VINA RESULT:   -11.970      1.638      2.148
REMARK INTER + INTRA:         -16.668
REMARK INTER:                 -15.849
REMARK INTRA:                  -0.819
REMARK UNBOUND:                -0.499
REMARK SMILES CC(=O)Nc1ccc2c(CC[C@H]3CC[N@H+](Cc4ccccc4)CC3)noc2c1
REMARK SMILES IDX 11 1 12 2 14 3 15 4 13 5 23 6 24 7 16 9 17 10 18 11 22 12
REMARK SMILES IDX 19 13 21 14 20 15 10 16 9 17 8 18 25 19 7 20 27 21 26 22
REMARK SMILES IDX 6 23 28 24 5 25 4 26 2 27 1 29 3 30
REMARK H PARENT 15 8 4 28
ROOT
ATOM      1  C   UNL     1      11.168 -56.299 -21.933  1.00  0.00     0.010 C 
ENDROOT
BRANCH   1   2
ATOM      2  C   UNL     1      11.443 -57.796 -22.174  1.00  0.00     0.000 C 
ATOM      3  C   UNL     1      11.932 -59.631 -23.843  1.00  0.00     0.262 C 
ATOM      4  N   UNL     1      10.834 -60.452 -23.212  1.00  0.00    -0.331 N 
ATOM      5  C   UNL     1      11.617 -58.149 -23.657  1.00  0.00     0.065 C 
ATOM      6  C   UNL     1      10.704 -60.175 -21.734  1.00  0.00     0.262 C 
ATOM      7  C   UNL     1      10.379 -58.698 -21.532  1.00  0.00     0.065 C 
ATOM      8  H   UNL     1       9.954 -60.150 -23.645  1.00  0.00     0.348 HD
BRANCH   4   9
ATOM      9  C   UNL     1      10.923 -61.932 -23.541  1.00  0.00     0.299 C 
BRANCH   9  10
ATOM     10  C   UNL     1       9.628 -62.601 -23.914  1.00  0.00     0.006 A 
ATOM     11  C   UNL     1       9.024 -62.349 -25.157  1.00  0.00     0.009 A 
ATOM     12  C   UNL     1       9.000 -63.491 -23.028  1.00  0.00     0.009 A 
ATOM     13  C   UNL     1       7.833 -62.985 -25.508  1.00  0.00     0.001 A 
ATOM     14  C   UNL     1       7.809 -64.125 -23.383  1.00  0.00     0.001 A 
ATOM     15  C   UNL     1       7.228 -63.874 -24.623  1.00  0.00     0.000 A 
ENDBRANCH   9  10
ENDBRANCH   4   9
ENDBRANCH   1   2
BRANCH   1  16
ATOM     16  C   UNL     1      10.423 -55.568 -23.057  1.00  0.00     0.061 C 
BRANCH  16  17
ATOM     17  C   UNL     1      11.194 -54.400 -23.568  1.00  0.00     0.091 A 
ATOM     18  C   UNL     1      11.364 -53.124 -22.979  1.00  0.00     0.045 A 
ATOM     19  N   UNL     1      11.835 -54.493 -24.741  1.00  0.00    -0.084 NA
ATOM     20  C   UNL     1      10.953 -52.457 -21.816  1.00  0.00     0.016 A 
ATOM     21  C   UNL     1      12.162 -52.446 -23.882  1.00  0.00     0.169 A 
ATOM     22  O   UNL     1      12.445 -53.262 -24.932  1.00  0.00    -0.356 OA
ATOM     23  C   UNL     1      11.373 -51.128 -21.623  1.00  0.00     0.027 A 
ATOM     24  C   UNL     1      12.596 -51.132 -23.720  1.00  0.00     0.076 A 
ATOM     25  C   UNL     1      12.185 -50.467 -22.554  1.00  0.00     0.045 A 
BRANCH  25  26
ATOM     26  N   UNL     1      12.627 -49.135 -22.397  1.00  0.00    -0.326 N 
ATOM     27  C   UNL     1      11.873 -47.979 -22.499  1.00  0.00     0.221 C 
ATOM     28  H   UNL     1      13.608 -49.014 -22.175  1.00  0.00     0.169 HD
ATOM     29  C   UNL     1      12.695 -46.736 -22.257  1.00  0.00     0.114 C 
ATOM     30  O   UNL     1      10.673 -47.902 -22.731  1.00  0.00    -0.275 OA
ENDBRANCH  25  26
ENDBRANCH  16  17
ENDBRANCH   1  16
TORSDOF 6
ENDMDL
MODEL 4
REMARK VINA RESULT:   -10.808      3.135     11.510
REMARK INTER + INTRA:         -15.098
REMARK INTER:                 -14.457
REMARK INTRA:                  -0.641
REMARK UNBOUND:                -0.499
REMARK SMILES CC(=O)Nc1ccc2c(CC[C@H]3CC[N@H+](Cc4ccccc4)CC3)noc2c1
REMARK SMILES IDX 11 1 12 2 14 3 15 4 13 5 23 6 24 7 16 9 17 10 18 11 22 12
REMARK SMILES IDX 19 13 21 14 20 15 10 16 9 17 8 18 25 19 7 20 27 21 26 22
REMARK SMILES IDX 6 23 28 24 5 25 4 26 2 27 1 29 3 30
REMARK H PARENT 15 8 4 28
ROOT
ATOM      1  C   UNL     1      10.447 -54.465 -23.466  1.00  0.00     0.010 C 
ENDROOT
BRANCH   1   2
ATOM      2  C   UNL     1      11.171 -53.237 -22.883  1.00  0.00     0.000 C 
ATOM      3  C   UNL     1      10.974 -50.996 -21.730  1.00  0.00     0.262 C 
ATOM      4  N   UNL     1      11.899 -50.416 -22.771  1.00  0.00    -0.331 N 
ATOM      5  C   UNL     1      10.213 -52.170 -22.337  1.00  0.00     0.065 C 
ATOM      6  C   UNL     1      12.903 -51.431 -23.261  1.00  0.00     0.262 C 
ATOM      7  C   UNL     1      12.156 -52.609 -23.880  1.00  0.00     0.065 C 
ATOM      8  H   UNL     1      11.317 -50.168 -23.579  1.00  0.00     0.348 HD
BRANCH   4   9
ATOM      9  C   UNL     1      12.532 -49.100 -22.351  1.00  0.00     0.299 C 
BRANCH   9  10
ATOM     10  C   UNL     1      11.862 -47.855 -22.864  1.00  0.00     0.006 A 
ATOM     11  C   UNL     1      11.079 -47.059 -22.011  1.00  0.00     0.009 A 
ATOM     12  C   UNL     1      12.007 -47.464 -24.205  1.00  0.00     0.009 A 
ATOM     13  C   UNL     1      10.474 -45.895 -22.485  1.00  0.00     0.001 A 
ATOM     14  C   UNL     1      11.400 -46.299 -24.675  1.00  0.00     0.001 A 
ATOM     15  C   UNL     1      10.637 -45.513 -23.814  1.00  0.00     0.000 A 
ENDBRANCH   9  10
ENDBRANCH   4   9
ENDBRANCH   1   2
BRANCH   1  16
ATOM     16  C   UNL     1       9.851 -55.438 -22.440  1.00  0.00     0.061 C 
BRANCH  16  17
ATOM     17  C   UNL     1      10.212 -56.852 -22.739  1.00  0.00     0.091 A 
ATOM     18  C   UNL     1       9.405 -57.875 -23.293  1.00  0.00     0.045 A 
ATOM     19  N   UNL     1      11.449 -57.290 -22.467  1.00  0.00    -0.084 NA
ATOM     20  C   UNL     1       8.089 -58.020 -23.753  1.00  0.00     0.016 A 
ATOM     21  C   UNL     1      10.246 -58.971 -23.341  1.00  0.00     0.169 A 
ATOM     22  O   UNL     1      11.466 -58.623 -22.851  1.00  0.00    -0.356 OA
ATOM     23  C   UNL     1       7.686 -59.276 -24.245  1.00  0.00     0.027 A 
ATOM     24  C   UNL     1       9.880 -60.226 -23.823  1.00  0.00     0.076 A 
ATOM     25  C   UNL     1       8.562 -60.369 -24.284  1.00  0.00     0.045 A 
BRANCH  25  26
ATOM     26  N   UNL     1       8.197 -61.644 -24.769  1.00  0.00    -0.326 N 
ATOM     27  C   UNL     1       7.220 -62.487 -24.271  1.00  0.00     0.221 C 
ATOM     28  H   UNL     1       8.705 -61.974 -25.582  1.00  0.00     0.169 HD
ATOM     29  C   UNL     1       7.111 -63.769 -25.061  1.00  0.00     0.114 C 
ATOM     30  O   UNL     1       6.478 -62.272 -23.320  1.00  0.00    -0.275 OA
ENDBRANCH  25  26
ENDBRANCH  16  17
ENDBRANCH   1  16
TORSDOF 6
ENDMDL
MODEL 5
REMARK VINA RESULT:   -10.557      2.660     11.505
REMARK INTER + INTRA:         -14.759
REMARK INTER:                 -14.279
REMARK INTRA:                  -0.480
REMARK UNBOUND:                -0.499
REMARK SMILES CC(=O)Nc1ccc2c(CC[C@H]3CC[N@H+](Cc4ccccc4)CC3)noc2c1
REMARK SMILES IDX 11 1 12 2 14 3 15 4 13 5 23 6 24 7 16 9 17 10 18 11 22 12
REMARK SMILES IDX 19 13 21 14 20 15 10 16 9 17 8 18 25 19 7 20 27 21 26 22
REMARK SMILES IDX 6 23 28 24 5 25 4 26 2 27 1 29 3 30
REMARK H PARENT 15 8 4 28
ROOT
ATOM      1  C   UNL     1      10.604 -53.727 -22.075  1.00  0.00     0.010 C 
ENDROOT
BRANCH   1   2
ATOM      2  C   UNL     1      11.384 -52.411 -22.260  1.00  0.00     0.000 C 
ATOM      3  C   UNL     1      11.308 -49.887 -22.377  1.00  0.00     0.262 C 
ATOM      4  N   UNL     1      12.112 -49.955 -23.652  1.00  0.00    -0.331 N 
ATOM      5  C   UNL     1      10.488 -51.166 -22.235  1.00  0.00     0.065 C 
ATOM      6  C   UNL     1      13.059 -51.130 -23.658  1.00  0.00     0.262 C 
ATOM      7  C   UNL     1      12.253 -52.419 -23.527  1.00  0.00     0.065 C 
ATOM      8  H   UNL     1      11.445 -50.114 -24.415  1.00  0.00     0.348 HD
BRANCH   4   9
ATOM      9  C   UNL     1      12.783 -48.641 -24.013  1.00  0.00     0.299 C 
BRANCH   9  10
ATOM     10  C   UNL     1      12.135 -47.399 -23.465  1.00  0.00     0.006 A 
ATOM     11  C   UNL     1      12.578 -46.832 -22.259  1.00  0.00     0.009 A 
ATOM     12  C   UNL     1      11.075 -46.783 -24.150  1.00  0.00     0.009 A 
ATOM     13  C   UNL     1      11.987 -45.670 -21.762  1.00  0.00     0.001 A 
ATOM     14  C   UNL     1      10.487 -45.621 -23.650  1.00  0.00     0.001 A 
ATOM     15  C   UNL     1      10.945 -45.063 -22.459  1.00  0.00     0.000 A 
ENDBRANCH   9  10
ENDBRANCH   4   9
ENDBRANCH   1   2
BRANCH   1  16
ATOM     16  C   UNL     1      11.354 -55.008 -22.467  1.00  0.00     0.061 C 
BRANCH  16  17
ATOM     17  C   UNL     1      10.419 -56.108 -22.835  1.00  0.00     0.091 A 
ATOM     18  C   UNL     1      10.446 -57.466 -22.434  1.00  0.00     0.045 A 
ATOM     19  N   UNL     1       9.393 -55.856 -23.659  1.00  0.00    -0.084 NA
ATOM     20  C   UNL     1      11.240 -58.290 -21.625  1.00  0.00     0.016 A 
ATOM     21  C   UNL     1       9.355 -58.022 -23.075  1.00  0.00     0.169 A 
ATOM     22  O   UNL     1       8.726 -57.063 -23.804  1.00  0.00    -0.356 OA
ATOM     23  C   UNL     1      10.888 -59.647 -21.503  1.00  0.00     0.027 A 
ATOM     24  C   UNL     1       8.978 -59.360 -22.974  1.00  0.00     0.076 A 
ATOM     25  C   UNL     1       9.774 -60.184 -22.163  1.00  0.00     0.045 A 
BRANCH  25  26
ATOM     26  N   UNL     1       9.388 -61.538 -22.066  1.00  0.00    -0.326 N 
ATOM     27  C   UNL     1       9.544 -62.530 -23.018  1.00  0.00     0.221 C 
ATOM     28  H   UNL     1       8.953 -61.817 -21.194  1.00  0.00     0.169 HD
ATOM     29  C   UNL     1       9.014 -63.863 -22.550  1.00  0.00     0.114 C 
ATOM     30  O   UNL     1      10.064 -62.414 -24.121  1.00  0.00    -0.275 OA
ENDBRANCH  25  26
ENDBRANCH  16  17
ENDBRANCH   1  16
TORSDOF 6
ENDMDL
MODEL 6
REMARK VINA RESULT:   -10.437      2.788      3.505
REMARK INTER + INTRA:         -14.597
REMARK INTER:                 -14.401
REMARK INTRA:                  -0.196
REMARK UNBOUND:                -0.499
REMARK SMILES CC(=O)Nc1ccc2c(CC[C@H]3CC[N@H+](Cc4ccccc4)CC3)noc2c1
REMARK SMILES IDX 11 1 12 2 14 3 15 4 13 5 23 6 24 7 16 9 17 10 18 11 22 12
REMARK SMILES IDX 19 13 21 14 20 15 10 16 9 17 8 18 25 19 7 20 27 21 26 22
REMARK SMILES IDX 6 23 28 24 5 25 4 26 2 27 1 29 3 30
REMARK H PARENT 15 8 4 28
ROOT
ATOM      1  C   UNL     1      11.026 -56.041 -22.210  1.00  0.00     0.010 C 
ENDROOT
BRANCH   1   2
ATOM      2  C   UNL     1      10.756 -57.467 -22.727  1.00  0.00     0.000 C 
ATOM      3  C   UNL     1       9.066 -59.136 -23.592  1.00  0.00     0.262 C 
ATOM      4  N   UNL     1       9.598 -60.140 -22.599  1.00  0.00    -0.331 N 
ATOM      5  C   UNL     1       9.277 -57.729 -23.041  1.00  0.00     0.065 C 
ATOM      6  C   UNL     1      11.073 -59.948 -22.340  1.00  0.00     0.262 C 
ATOM      7  C   UNL     1      11.300 -58.547 -21.779  1.00  0.00     0.065 C 
ATOM      8  H   UNL     1       9.119 -59.959 -21.710  1.00  0.00     0.348 HD
BRANCH   4   9
ATOM      9  C   UNL     1       9.230 -61.575 -22.935  1.00  0.00     0.299 C 
BRANCH   9  10
ATOM     10  C   UNL     1       9.085 -61.892 -24.398  1.00  0.00     0.006 A 
ATOM     11  C   UNL     1       8.076 -62.759 -24.847  1.00  0.00     0.009 A 
ATOM     12  C   UNL     1       9.957 -61.326 -25.343  1.00  0.00     0.009 A 
ATOM     13  C   UNL     1       7.933 -63.037 -26.207  1.00  0.00     0.001 A 
ATOM     14  C   UNL     1       9.810 -61.606 -26.701  1.00  0.00     0.001 A 
ATOM     15  C   UNL     1       8.797 -62.458 -27.133  1.00  0.00     0.000 A 
ENDBRANCH   9  10
ENDBRANCH   4   9
ENDBRANCH   1   2
BRANCH   1  16
ATOM     16  C   UNL     1      10.417 -54.904 -23.041  1.00  0.00     0.061 C 
BRANCH  16  17
ATOM     17  C   UNL     1      11.392 -54.347 -24.020  1.00  0.00     0.091 A 
ATOM     18  C   UNL     1      11.974 -53.057 -24.057  1.00  0.00     0.045 A 
ATOM     19  N   UNL     1      11.818 -55.111 -25.036  1.00  0.00    -0.084 NA
ATOM     20  C   UNL     1      11.918 -51.875 -23.306  1.00  0.00     0.016 A 
ATOM     21  C   UNL     1      12.789 -53.093 -25.172  1.00  0.00     0.169 A 
ATOM     22  O   UNL     1      12.699 -54.318 -25.756  1.00  0.00    -0.356 OA
ATOM     23  C   UNL     1      12.698 -50.780 -23.722  1.00  0.00     0.027 A 
ATOM     24  C   UNL     1      13.574 -52.028 -25.611  1.00  0.00     0.076 A 
ATOM     25  C   UNL     1      13.519 -50.846 -24.856  1.00  0.00     0.045 A 
BRANCH  25  26
ATOM     26  N   UNL     1      14.314 -49.770 -25.307  1.00  0.00    -0.326 N 
ATOM     27  C   UNL     1      15.572 -49.407 -24.858  1.00  0.00     0.221 C 
ATOM     28  H   UNL     1      13.921 -49.205 -26.050  1.00  0.00     0.169 HD
ATOM     29  C   UNL     1      16.115 -48.202 -25.588  1.00  0.00     0.114 C 
ATOM     30  O   UNL     1      16.235 -49.967 -23.993  1.00  0.00    -0.275 OA
ENDBRANCH  25  26
ENDBRANCH  16  17
ENDBRANCH   1  16
TORSDOF 6
ENDMDL
MODEL 7
REMARK VINA RESULT:   -10.206      3.146      4.627
REMARK INTER + INTRA:         -14.285
REMARK INTER:                 -13.497
REMARK INTRA:                  -0.789
REMARK UNBOUND:                -0.499
REMARK SMILES CC(=O)Nc1ccc2c(CC[C@H]3CC[N@H+](Cc4ccccc4)CC3)noc2c1
REMARK SMILES IDX 11 1 12 2 14 3 15 4 13 5 23 6 24 7 16 9 17 10 18 11 22 12
REMARK SMILES IDX 19 13 21 14 20 15 10 16 9 17 8 18 25 19 7 20 27 21 26 22
REMARK SMILES IDX 6 23 28 24 5 25 4 26 2 27 1 29 3 30
REMARK H PARENT 15 8 4 28
ROOT
ATOM      1  C   UNL     1      10.455 -52.216 -22.367  1.00  0.00     0.010 C 
ENDROOT
BRANCH   1   2
ATOM      2  C   UNL     1      11.090 -53.605 -22.569  1.00  0.00     0.000 C 
ATOM      3  C   UNL     1      11.696 -55.458 -24.178  1.00  0.00     0.262 C 
ATOM      4  N   UNL     1      11.060 -56.444 -23.230  1.00  0.00    -0.331 N 
ATOM      5  C   UNL     1      11.016 -54.102 -24.019  1.00  0.00     0.065 C 
ATOM      6  C   UNL     1      11.196 -56.010 -21.791  1.00  0.00     0.262 C 
ATOM      7  C   UNL     1      10.511 -54.659 -21.613  1.00  0.00     0.065 C 
ATOM      8  H   UNL     1      10.055 -56.450 -23.440  1.00  0.00     0.348 HD
BRANCH   4   9
ATOM      9  C   UNL     1      11.497 -57.879 -23.469  1.00  0.00     0.299 C 
BRANCH   9  10
ATOM     10  C   UNL     1      10.532 -58.944 -23.022  1.00  0.00     0.006 A 
ATOM     11  C   UNL     1      10.994 -60.103 -22.377  1.00  0.00     0.009 A 
ATOM     12  C   UNL     1       9.153 -58.798 -23.242  1.00  0.00     0.009 A 
ATOM     13  C   UNL     1      10.095 -61.081 -21.948  1.00  0.00     0.001 A 
ATOM     14  C   UNL     1       8.258 -59.778 -22.811  1.00  0.00     0.001 A 
ATOM     15  C   UNL     1       8.729 -60.916 -22.161  1.00  0.00     0.000 A 
ENDBRANCH   9  10
ENDBRANCH   4   9
ENDBRANCH   1   2
BRANCH   1  16
ATOM     16  C   UNL     1      11.365 -51.151 -21.740  1.00  0.00     0.061 C 
BRANCH  16  17
ATOM     17  C   UNL     1      11.894 -50.202 -22.760  1.00  0.00     0.091 A 
ATOM     18  C   UNL     1      12.659 -50.481 -23.918  1.00  0.00     0.045 A 
ATOM     19  N   UNL     1      11.661 -48.889 -22.625  1.00  0.00    -0.084 NA
ATOM     20  C   UNL     1      13.196 -51.607 -24.557  1.00  0.00     0.016 A 
ATOM     21  C   UNL     1      12.872 -49.238 -24.482  1.00  0.00     0.169 A 
ATOM     22  O   UNL     1      12.276 -48.288 -23.713  1.00  0.00    -0.356 OA
ATOM     23  C   UNL     1      13.927 -51.418 -25.744  1.00  0.00     0.027 A 
ATOM     24  C   UNL     1      13.588 -49.016 -25.657  1.00  0.00     0.076 A 
ATOM     25  C   UNL     1      14.124 -50.145 -26.295  1.00  0.00     0.045 A 
BRANCH  25  26
ATOM     26  N   UNL     1      14.850 -49.913 -27.484  1.00  0.00    -0.326 N 
ATOM     27  C   UNL     1      16.026 -49.198 -27.628  1.00  0.00     0.221 C 
ATOM     28  H   UNL     1      14.469 -50.327 -28.327  1.00  0.00     0.169 HD
ATOM     29  C   UNL     1      16.511 -49.175 -29.057  1.00  0.00     0.114 C 
ATOM     30  O   UNL     1      16.663 -48.644 -26.740  1.00  0.00    -0.275 OA
ENDBRANCH  25  26
ENDBRANCH  16  17
ENDBRANCH   1  16
TORSDOF 6
ENDMDL
MODEL 8
REMARK VINA RESULT:   -10.050      2.373      3.929
REMARK INTER + INTRA:         -14.074
REMARK INTER:                 -13.819
REMARK INTRA:                  -0.255
REMARK UNBOUND:                -0.499
REMARK SMILES CC(=O)Nc1ccc2c(CC[C@H]3CC[N@H+](Cc4ccccc4)CC3)noc2c1
REMARK SMILES IDX 11 1 12 2 14 3 15 4 13 5 23 6 24 7 16 9 17 10 18 11 22 12
REMARK SMILES IDX 19 13 21 14 20 15 10 16 9 17 8 18 25 19 7 20 27 21 26 22
REMARK SMILES IDX 6 23 28 24 5 25 4 26 2 27 1 29 3 30
REMARK H PARENT 15 8 4 28
ROOT
ATOM      1  C   UNL     1      10.033 -52.006 -22.365  1.00  0.00     0.010 C 
ENDROOT
BRANCH   1   2
ATOM      2  C   UNL     1      10.174 -53.405 -22.996  1.00  0.00     0.000 C 
ATOM      3  C   UNL     1       9.985 -55.908 -22.694  1.00  0.00     0.262 C 
ATOM      4  N   UNL     1      11.361 -56.051 -23.297  1.00  0.00    -0.331 N 
ATOM      5  C   UNL     1       9.877 -54.546 -22.014  1.00  0.00     0.065 C 
ATOM      6  C   UNL     1      11.638 -54.982 -24.327  1.00  0.00     0.262 C 
ATOM      7  C   UNL     1      11.544 -53.613 -23.659  1.00  0.00     0.065 C 
ATOM      8  H   UNL     1      12.034 -55.905 -22.537  1.00  0.00     0.348 HD
BRANCH   4   9
ATOM      9  C   UNL     1      11.659 -57.455 -23.794  1.00  0.00     0.299 C 
BRANCH   9  10
ATOM     10  C   UNL     1      11.036 -58.577 -23.009  1.00  0.00     0.006 A 
ATOM     11  C   UNL     1      11.259 -58.693 -21.627  1.00  0.00     0.009 A 
ATOM     12  C   UNL     1      10.219 -59.527 -23.642  1.00  0.00     0.009 A 
ATOM     13  C   UNL     1      10.665 -59.724 -20.897  1.00  0.00     0.001 A 
ATOM     14  C   UNL     1       9.628 -60.556 -22.909  1.00  0.00     0.001 A 
ATOM     15  C   UNL     1       9.848 -60.652 -21.537  1.00  0.00     0.000 A 
ENDBRANCH   9  10
ENDBRANCH   4   9
ENDBRANCH   1   2
BRANCH   1  16
ATOM     16  C   UNL     1      11.298 -51.441 -21.706  1.00  0.00     0.061 C 
BRANCH  16  17
ATOM     17  C   UNL     1      12.032 -50.516 -22.615  1.00  0.00     0.091 A 
ATOM     18  C   UNL     1      11.685 -49.203 -23.012  1.00  0.00     0.045 A 
ATOM     19  N   UNL     1      13.182 -50.916 -23.176  1.00  0.00    -0.084 NA
ATOM     20  C   UNL     1      10.648 -48.289 -22.775  1.00  0.00     0.016 A 
ATOM     21  C   UNL     1      12.714 -48.830 -23.857  1.00  0.00     0.169 A 
ATOM     22  O   UNL     1      13.608 -49.850 -23.954  1.00  0.00    -0.356 OA
ATOM     23  C   UNL     1      10.705 -47.034 -23.408  1.00  0.00     0.027 A 
ATOM     24  C   UNL     1      12.800 -47.595 -24.498  1.00  0.00     0.076 A 
ATOM     25  C   UNL     1      11.762 -46.681 -24.258  1.00  0.00     0.045 A 
BRANCH  25  26
ATOM     26  N   UNL     1      11.855 -45.433 -24.911  1.00  0.00    -0.326 N 
ATOM     27  C   UNL     1      12.247 -44.223 -24.366  1.00  0.00     0.221 C 
ATOM     28  H   UNL     1      11.614 -45.426 -25.895  1.00  0.00     0.169 HD
ATOM     29  C   UNL     1      12.229 -43.105 -25.379  1.00  0.00     0.114 C 
ATOM     30  O   UNL     1      12.602 -44.018 -23.211  1.00  0.00    -0.275 OA
ENDBRANCH  25  26
ENDBRANCH  16  17
ENDBRANCH   1  16
TORSDOF 6
ENDMDL
MODEL 9
REMARK VINA RESULT:    -9.906      2.136      3.582
REMARK INTER + INTRA:         -13.879
REMARK INTER:                 -13.188
REMARK INTRA:                  -0.692
REMARK UNBOUND:                -0.499
REMARK SMILES CC(=O)Nc1ccc2c(CC[C@H]3CC[N@H+](Cc4ccccc4)CC3)noc2c1
REMARK SMILES IDX 11 1 12 2 14 3 15 4 13 5 23 6 24 7 16 9 17 10 18 11 22 12
REMARK SMILES IDX 19 13 21 14 20 15 10 16 9 17 8 18 25 19 7 20 27 21 26 22
REMARK SMILES IDX 6 23 28 24 5 25 4 26 2 27 1 29 3 30
REMARK H PARENT 15 8 4 28
ROOT
ATOM      1  C   UNL     1      10.598 -52.379 -22.690  1.00  0.00     0.010 C 
ENDROOT
BRANCH   1   2
ATOM      2  C   UNL     1      11.201 -53.794 -22.785  1.00  0.00     0.000 C 
ATOM      3  C   UNL     1      11.928 -55.705 -24.272  1.00  0.00     0.262 C 
ATOM      4  N   UNL     1      11.146 -56.646 -23.389  1.00  0.00    -0.331 N 
ATOM      5  C   UNL     1      11.284 -54.323 -24.223  1.00  0.00     0.065 C 
ATOM      6  C   UNL     1      11.123 -56.182 -21.953  1.00  0.00     0.262 C 
ATOM      7  C   UNL     1      10.472 -54.804 -21.886  1.00  0.00     0.065 C 
ATOM      8  H   UNL     1      10.174 -56.622 -23.719  1.00  0.00     0.348 HD
BRANCH   4   9
ATOM      9  C   UNL     1      11.556 -58.100 -23.545  1.00  0.00     0.299 C 
BRANCH   9  10
ATOM     10  C   UNL     1      10.544 -59.120 -23.097  1.00  0.00     0.006 A 
ATOM     11  C   UNL     1       9.203 -59.023 -23.501  1.00  0.00     0.009 A 
ATOM     12  C   UNL     1      10.923 -60.187 -22.267  1.00  0.00     0.009 A 
ATOM     13  C   UNL     1       8.270 -59.980 -23.100  1.00  0.00     0.001 A 
ATOM     14  C   UNL     1       9.988 -61.142 -21.868  1.00  0.00     0.001 A 
ATOM     15  C   UNL     1       8.663 -61.041 -22.287  1.00  0.00     0.000 A 
ENDBRANCH   9  10
ENDBRANCH   4   9
ENDBRANCH   1   2
BRANCH   1  16
ATOM     16  C   UNL     1      11.543 -51.284 -22.178  1.00  0.00     0.061 C 
BRANCH  16  17
ATOM     17  C   UNL     1      11.009 -49.920 -22.447  1.00  0.00     0.091 A 
ATOM     18  C   UNL     1      11.577 -48.883 -23.227  1.00  0.00     0.045 A 
ATOM     19  N   UNL     1       9.841 -49.548 -21.905  1.00  0.00    -0.084 NA
ATOM     20  C   UNL     1      12.730 -48.681 -23.998  1.00  0.00     0.016 A 
ATOM     21  C   UNL     1      10.664 -47.851 -23.122  1.00  0.00     0.169 A 
ATOM     22  O   UNL     1       9.628 -48.247 -22.335  1.00  0.00    -0.356 OA
ATOM     23  C   UNL     1      12.903 -47.436 -24.630  1.00  0.00     0.027 A 
ATOM     24  C   UNL     1      10.804 -46.608 -23.736  1.00  0.00     0.076 A 
ATOM     25  C   UNL     1      11.958 -46.408 -24.508  1.00  0.00     0.045 A 
BRANCH  25  26
ATOM     26  N   UNL     1      12.095 -45.146 -25.126  1.00  0.00    -0.326 N 
ATOM     27  C   UNL     1      12.461 -43.951 -24.532  1.00  0.00     0.221 C 
ATOM     28  H   UNL     1      11.912 -45.116 -26.122  1.00  0.00     0.169 HD
ATOM     29  C   UNL     1      12.508 -42.810 -25.519  1.00  0.00     0.114 C 
ATOM     30  O   UNL     1      12.750 -43.774 -23.354  1.00  0.00    -0.275 OA
ENDBRANCH  25  26
ENDBRANCH  16  17
ENDBRANCH   1  16
TORSDOF 6
ENDMDL
