MODEL 1
REMARK VINA RESULT:   -11.650      0.000      0.000
REMARK INTER + INTRA:         -16.374
REMARK INTER:                 -15.736
REMARK INTRA:                  -0.638
REMARK UNBOUND:                -0.638
REMARK SMILES COc1cc2c(cc1OC)C(=O)[C@@H](C[C@H]1CC[N@@H+](Cc3ccccc3)CC1)C2
REMARK SMILES IDX 14 1 15 2 17 3 18 4 16 5 26 6 27 7 19 9 20 10 21 11 25 12
REMARK SMILES IDX 22 13 24 14 23 15 13 16 11 17 28 18 6 19 5 20 7 21 4 22 8 23
REMARK SMILES IDX 3 24 12 25 9 26 10 27 2 28 1 29
REMARK H PARENT 18 8
ROOT
ATOM      1  C   UNL     1      11.465 -56.537 -23.394  1.00  0.00     0.016 C 
ENDROOT
BRANCH   1   2
ATOM      2  C   UNL     1      10.643 -57.338 -22.349  1.00  0.00     0.001 C 
ATOM      3  C   UNL     1       9.767 -59.189 -23.899  1.00  0.00     0.262 C 
ATOM      4  N   UNL     1      10.544 -60.195 -23.089  1.00  0.00    -0.331 N 
ATOM      5  C   UNL     1       9.414 -57.989 -23.022  1.00  0.00     0.065 C 
ATOM      6  C   UNL     1      11.806 -59.602 -22.504  1.00  0.00     0.262 C 
ATOM      7  C   UNL     1      11.416 -58.435 -21.601  1.00  0.00     0.065 C 
ATOM      8  H   UNL     1       9.954 -60.455 -22.290  1.00  0.00     0.348 HD
BRANCH   4   9
ATOM      9  C   UNL     1      10.788 -61.503 -23.820  1.00  0.00     0.299 C 
BRANCH   9  10
ATOM     10  C   UNL     1       9.569 -62.334 -24.117  1.00  0.00     0.006 A 
ATOM     11  C   UNL     1       9.016 -63.165 -23.130  1.00  0.00     0.009 A 
ATOM     12  C   UNL     1       8.957 -62.290 -25.380  1.00  0.00     0.009 A 
ATOM     13  C   UNL     1       7.873 -63.922 -23.395  1.00  0.00     0.001 A 
ATOM     14  C   UNL     1       7.814 -63.047 -25.641  1.00  0.00     0.001 A 
ATOM     15  C   UNL     1       7.272 -63.860 -24.649  1.00  0.00     0.000 A 
ENDBRANCH   9  10
ENDBRANCH   4   9
ENDBRANCH   1   2
BRANCH   1  16
ATOM     16  C   UNL     1      11.094 -55.074 -23.678  1.00  0.00     0.066 C 
ATOM     17  C   UNL     1      11.968 -54.397 -24.715  1.00  0.00     0.166 C 
ATOM     18  C   UNL     1      11.099 -54.107 -22.475  1.00  0.00     0.048 C 
ATOM     19  C   UNL     1      12.186 -53.014 -24.317  1.00  0.00     0.025 A 
ATOM     20  C   UNL     1      11.667 -52.840 -23.042  1.00  0.00    -0.033 A 
ATOM     21  C   UNL     1      12.814 -52.005 -25.014  1.00  0.00     0.062 A 
ATOM     22  C   UNL     1      11.771 -51.605 -22.417  1.00  0.00     0.055 A 
ATOM     23  C   UNL     1      12.903 -50.750 -24.404  1.00  0.00     0.161 A 
ATOM     24  C   UNL     1      12.399 -50.543 -23.093  1.00  0.00     0.161 A 
ATOM     25  O   UNL     1      12.443 -54.916 -25.710  1.00  0.00    -0.294 OA
BRANCH  23  26
ATOM     26  O   UNL     1      13.563 -49.819 -25.167  1.00  0.00    -0.493 OA
ATOM     27  C   UNL     1      14.088 -50.298 -26.403  1.00  0.00     0.278 C 
ENDBRANCH  23  26
BRANCH  24  28
ATOM     28  O   UNL     1      12.598 -49.308 -22.537  1.00  0.00    -0.493 OA
ATOM     29  C   UNL     1      11.565 -48.339 -22.661  1.00  0.00     0.278 C 
ENDBRANCH  24  28
ENDBRANCH   1  16
TORSDOF 6
ENDMDL
MODEL 2
REMARK VINA RESULT:   -10.463      1.671      2.461
REMARK INTER + INTRA:         -14.770
REMARK INTER:                 -14.129
REMARK INTRA:                  -0.642
REMARK UNBOUND:                -0.638
REMARK SMILES COc1cc2c(cc1OC)C(=O)[C@@H](C[C@H]1CC[N@@H+](Cc3ccccc3)CC1)C2
REMARK SMILES IDX 14 1 15 2 17 3 18 4 16 5 26 6 27 7 19 9 20 10 21 11 25 12
REMARK SMILES IDX 22 13 24 14 23 15 13 16 11 17 28 18 6 19 5 20 7 21 4 22 8 23
REMARK SMILES IDX 3 24 12 25 9 26 10 27 2 28 1 29
REMARK H PARENT 18 8
ROOT
ATOM      1  C   UNL     1      11.346 -56.808 -22.759  1.00  0.00     0.016 C 
ENDROOT
BRANCH   1   2
ATOM      2  C   UNL     1      10.321 -57.743 -22.064  1.00  0.00     0.001 C 
ATOM      3  C   UNL     1       9.501 -59.012 -24.141  1.00  0.00     0.262 C 
ATOM      4  N   UNL     1      10.067 -60.280 -23.554  1.00  0.00    -0.331 N 
ATOM      5  C   UNL     1       9.141 -58.043 -23.016  1.00  0.00     0.065 C 
ATOM      6  C   UNL     1      11.285 -60.017 -22.700  1.00  0.00     0.262 C 
ATOM      7  C   UNL     1      10.883 -59.082 -21.562  1.00  0.00     0.065 C 
ATOM      8  H   UNL     1       9.352 -60.662 -22.924  1.00  0.00     0.348 HD
BRANCH   4   9
ATOM      9  C   UNL     1      10.288 -61.376 -24.581  1.00  0.00     0.299 C 
BRANCH   9  10
ATOM     10  C   UNL     1      10.715 -60.924 -25.952  1.00  0.00     0.006 A 
ATOM     11  C   UNL     1       9.928 -61.222 -27.076  1.00  0.00     0.009 A 
ATOM     12  C   UNL     1      11.899 -60.193 -26.133  1.00  0.00     0.009 A 
ATOM     13  C   UNL     1      10.310 -60.787 -28.346  1.00  0.00     0.001 A 
ATOM     14  C   UNL     1      12.276 -59.758 -27.405  1.00  0.00     0.001 A 
ATOM     15  C   UNL     1      11.482 -60.053 -28.509  1.00  0.00     0.000 A 
ENDBRANCH   9  10
ENDBRANCH   4   9
ENDBRANCH   1   2
BRANCH   1  16
ATOM     16  C   UNL     1      10.916 -55.389 -23.157  1.00  0.00     0.066 C 
ATOM     17  C   UNL     1      11.768 -54.757 -24.240  1.00  0.00     0.166 C 
ATOM     18  C   UNL     1      10.874 -54.332 -22.032  1.00  0.00     0.048 C 
ATOM     19  C   UNL     1      11.926 -53.340 -23.950  1.00  0.00     0.025 A 
ATOM     20  C   UNL     1      11.392 -53.090 -22.694  1.00  0.00    -0.033 A 
ATOM     21  C   UNL     1      12.517 -52.362 -24.721  1.00  0.00     0.062 A 
ATOM     22  C   UNL     1      11.442 -51.807 -22.166  1.00  0.00     0.055 A 
ATOM     23  C   UNL     1      12.549 -51.061 -24.210  1.00  0.00     0.161 A 
ATOM     24  C   UNL     1      12.030 -50.775 -22.920  1.00  0.00     0.161 A 
ATOM     25  O   UNL     1      12.270 -55.332 -25.191  1.00  0.00    -0.294 OA
BRANCH  23  26
ATOM     26  O   UNL     1      13.175 -50.165 -25.041  1.00  0.00    -0.493 OA
ATOM     27  C   UNL     1      14.208 -50.706 -25.861  1.00  0.00     0.278 C 
ENDBRANCH  23  26
BRANCH  24  28
ATOM     28  O   UNL     1      12.174 -49.493 -22.461  1.00  0.00    -0.493 OA
ATOM     29  C   UNL     1      11.123 -48.567 -22.706  1.00  0.00     0.278 C 
ENDBRANCH  24  28
ENDBRANCH   1  16
TORSDOF 6
ENDMDL
MODEL 3
REMARK VINA RESULT:   -10.093      2.046      3.308
REMARK INTER + INTRA:         -14.271
REMARK INTER:                 -13.625
REMARK INTRA:                  -0.646
REMARK UNBOUND:                -0.638
REMARK SMILES COc1cc2c(cc1OC)C(=O)[C@@H](C[C@H]1CC[N@@H+](Cc3ccccc3)CC1)C2
REMARK SMILES IDX 14 1 15 2 17 3 18 4 16 5 26 6 27 7 19 9 20 10 21 11 25 12
REMARK SMILES IDX 22 13 24 14 23 15 13 16 11 17 28 18 6 19 5 20 7 21 4 22 8 23
REMARK SMILES IDX 3 24 12 25 9 26 10 27 2 28 1 29
REMARK H PARENT 18 8
ROOT
ATOM      1  C   UNL     1       9.914 -56.159 -23.393  1.00  0.00     0.016 C 
ENDROOT
BRANCH   1   2
ATOM      2  C   UNL     1       9.685 -57.335 -22.407  1.00  0.00     0.001 C 
ATOM      3  C   UNL     1       9.533 -59.240 -24.122  1.00  0.00     0.262 C 
ATOM      4  N   UNL     1      10.779 -59.841 -23.522  1.00  0.00    -0.331 N 
ATOM      5  C   UNL     1       8.800 -58.418 -23.064  1.00  0.00     0.065 C 
ATOM      6  C   UNL     1      11.706 -58.787 -22.963  1.00  0.00     0.262 C 
ATOM      7  C   UNL     1      10.959 -58.013 -21.880  1.00  0.00     0.065 C 
ATOM      8  H   UNL     1      10.479 -60.412 -22.723  1.00  0.00     0.348 HD
BRANCH   4   9
ATOM      9  C   UNL     1      11.482 -60.822 -24.443  1.00  0.00     0.299 C 
BRANCH   9  10
ATOM     10  C   UNL     1      11.387 -60.533 -25.917  1.00  0.00     0.006 A 
ATOM     11  C   UNL     1      12.325 -59.695 -26.541  1.00  0.00     0.009 A 
ATOM     12  C   UNL     1      10.366 -61.099 -26.697  1.00  0.00     0.009 A 
ATOM     13  C   UNL     1      12.251 -59.442 -27.911  1.00  0.00     0.001 A 
ATOM     14  C   UNL     1      10.297 -60.845 -28.068  1.00  0.00     0.001 A 
ATOM     15  C   UNL     1      11.239 -60.019 -28.674  1.00  0.00     0.000 A 
ENDBRANCH   9  10
ENDBRANCH   4   9
ENDBRANCH   1   2
BRANCH   1  16
ATOM     16  C   UNL     1      11.043 -55.157 -23.115  1.00  0.00     0.066 C 
ATOM     17  C   UNL     1      10.625 -53.956 -22.290  1.00  0.00     0.166 C 
ATOM     18  C   UNL     1      11.758 -54.553 -24.343  1.00  0.00     0.048 C 
ATOM     19  C   UNL     1      11.320 -52.777 -22.786  1.00  0.00     0.025 A 
ATOM     20  C   UNL     1      11.989 -53.124 -23.951  1.00  0.00    -0.033 A 
ATOM     21  C   UNL     1      11.335 -51.501 -22.266  1.00  0.00     0.062 A 
ATOM     22  C   UNL     1      12.715 -52.164 -24.642  1.00  0.00     0.055 A 
ATOM     23  C   UNL     1      12.083 -50.532 -22.941  1.00  0.00     0.161 A 
ATOM     24  C   UNL     1      12.764 -50.849 -24.145  1.00  0.00     0.161 A 
ATOM     25  O   UNL     1       9.818 -53.952 -21.376  1.00  0.00    -0.294 OA
BRANCH  23  26
ATOM     26  O   UNL     1      12.019 -49.291 -22.356  1.00  0.00    -0.493 OA
ATOM     27  C   UNL     1      10.955 -48.454 -22.805  1.00  0.00     0.278 C 
ENDBRANCH  23  26
BRANCH  24  28
ATOM     28  O   UNL     1      13.405 -49.823 -24.786  1.00  0.00    -0.493 OA
ATOM     29  C   UNL     1      13.973 -50.077 -26.064  1.00  0.00     0.278 C 
ENDBRANCH  24  28
ENDBRANCH   1  16
TORSDOF 6
ENDMDL
MODEL 4
REMARK VINA RESULT:    -9.546      2.410      4.211
REMARK INTER + INTRA:         -13.532
REMARK INTER:                 -12.805
REMARK INTRA:                  -0.726
REMARK UNBOUND:                -0.638
REMARK SMILES COc1cc2c(cc1OC)C(=O)[C@@H](C[C@H]1CC[N@@H+](Cc3ccccc3)CC1)C2
REMARK SMILES IDX 14 1 15 2 17 3 18 4 16 5 26 6 27 7 19 9 20 10 21 11 25 12
REMARK SMILES IDX 22 13 24 14 23 15 13 16 11 17 28 18 6 19 5 20 7 21 4 22 8 23
REMARK SMILES IDX 3 24 12 25 9 26 10 27 2 28 1 29
REMARK H PARENT 18 8
ROOT
ATOM      1  C   UNL     1      11.716 -52.177 -22.080  1.00  0.00     0.016 C 
ENDROOT
BRANCH   1   2
ATOM      2  C   UNL     1      10.423 -52.930 -21.666  1.00  0.00     0.001 C 
ATOM      3  C   UNL     1      10.306 -54.583 -23.628  1.00  0.00     0.262 C 
ATOM      4  N   UNL     1      10.493 -55.714 -22.649  1.00  0.00    -0.331 N 
ATOM      5  C   UNL     1       9.652 -53.397 -22.922  1.00  0.00     0.065 C 
ATOM      6  C   UNL     1      11.332 -55.304 -21.461  1.00  0.00     0.262 C 
ATOM      7  C   UNL     1      10.631 -54.148 -20.753  1.00  0.00     0.065 C 
ATOM      8  H   UNL     1       9.564 -55.944 -22.278  1.00  0.00     0.348 HD
BRANCH   4   9
ATOM      9  C   UNL     1      10.971 -57.002 -23.296  1.00  0.00     0.299 C 
BRANCH   9  10
ATOM     10  C   UNL     1      10.381 -58.275 -22.755  1.00  0.00     0.006 A 
ATOM     11  C   UNL     1       9.188 -58.790 -23.288  1.00  0.00     0.009 A 
ATOM     12  C   UNL     1      11.011 -58.976 -21.714  1.00  0.00     0.009 A 
ATOM     13  C   UNL     1       8.649 -59.982 -22.802  1.00  0.00     0.001 A 
ATOM     14  C   UNL     1      10.470 -60.169 -21.233  1.00  0.00     0.001 A 
ATOM     15  C   UNL     1       9.291 -60.672 -21.777  1.00  0.00     0.000 A 
ENDBRANCH   9  10
ENDBRANCH   4   9
ENDBRANCH   1   2
BRANCH   1  16
ATOM     16  C   UNL     1      11.702 -51.299 -23.339  1.00  0.00     0.066 C 
ATOM     17  C   UNL     1      12.623 -51.775 -24.444  1.00  0.00     0.166 C 
ATOM     18  C   UNL     1      12.057 -49.808 -23.153  1.00  0.00     0.048 C 
ATOM     19  C   UNL     1      13.217 -50.616 -25.094  1.00  0.00     0.025 A 
ATOM     20  C   UNL     1      12.874 -49.485 -24.369  1.00  0.00    -0.033 A 
ATOM     21  C   UNL     1      14.016 -50.572 -26.216  1.00  0.00     0.062 A 
ATOM     22  C   UNL     1      13.341 -48.240 -24.768  1.00  0.00     0.055 A 
ATOM     23  C   UNL     1      14.472 -49.321 -26.642  1.00  0.00     0.161 A 
ATOM     24  C   UNL     1      14.155 -48.146 -25.911  1.00  0.00     0.161 A 
ATOM     25  O   UNL     1      12.863 -52.934 -24.736  1.00  0.00    -0.294 OA
BRANCH  23  26
ATOM     26  O   UNL     1      15.275 -49.384 -27.754  1.00  0.00    -0.493 OA
ATOM     27  C   UNL     1      16.664 -49.580 -27.498  1.00  0.00     0.278 C 
ENDBRANCH  23  26
BRANCH  24  28
ATOM     28  O   UNL     1      14.707 -46.972 -26.350  1.00  0.00    -0.493 OA
ATOM     29  C   UNL     1      15.777 -46.410 -25.600  1.00  0.00     0.278 C 
ENDBRANCH  24  28
ENDBRANCH   1  16
TORSDOF 6
ENDMDL
MODEL 5
REMARK VINA RESULT:    -9.114      2.539      4.391
REMARK INTER + INTRA:         -12.949
REMARK INTER:                 -13.052
REMARK INTRA:                   0.103
REMARK UNBOUND:                -0.638
REMARK SMILES COc1cc2c(cc1OC)C(=O)[C@@H](C[C@H]1CC[N@@H+](Cc3ccccc3)CC1)C2
REMARK SMILES IDX 14 1 15 2 17 3 18 4 16 5 26 6 27 7 19 9 20 10 21 11 25 12
REMARK SMILES IDX 22 13 24 14 23 15 13 16 11 17 28 18 6 19 5 20 7 21 4 22 8 23
REMARK SMILES IDX 3 24 12 25 9 26 10 27 2 28 1 29
REMARK H PARENT 18 8
ROOT
ATOM      1  C   UNL     1      11.804 -53.185 -23.175  1.00  0.00     0.016 C 
ENDROOT
BRANCH   1   2
ATOM      2  C   UNL     1      10.461 -53.826 -22.738  1.00  0.00     0.001 C 
ATOM      3  C   UNL     1      11.089 -56.293 -23.082  1.00  0.00     0.262 C 
ATOM      4  N   UNL     1      10.922 -56.513 -21.601  1.00  0.00    -0.331 N 
ATOM      5  C   UNL     1      10.207 -55.129 -23.530  1.00  0.00     0.065 C 
ATOM      6  C   UNL     1      11.264 -55.277 -20.800  1.00  0.00     0.262 C 
ATOM      7  C   UNL     1      10.337 -54.147 -21.240  1.00  0.00     0.065 C 
ATOM      8  H   UNL     1       9.925 -56.693 -21.437  1.00  0.00     0.348 HD
BRANCH   4   9
ATOM      9  C   UNL     1      11.621 -57.761 -21.091  1.00  0.00     0.299 C 
BRANCH   9  10
ATOM     10  C   UNL     1      11.278 -59.046 -21.794  1.00  0.00     0.006 A 
ATOM     11  C   UNL     1      11.977 -59.435 -22.948  1.00  0.00     0.009 A 
ATOM     12  C   UNL     1      10.262 -59.884 -21.308  1.00  0.00     0.009 A 
ATOM     13  C   UNL     1      11.676 -60.637 -23.591  1.00  0.00     0.001 A 
ATOM     14  C   UNL     1       9.965 -61.086 -21.952  1.00  0.00     0.001 A 
ATOM     15  C   UNL     1      10.672 -61.463 -23.091  1.00  0.00     0.000 A 
ENDBRANCH   9  10
ENDBRANCH   4   9
ENDBRANCH   1   2
BRANCH   1  16
ATOM     16  C   UNL     1      12.146 -51.766 -22.702  1.00  0.00     0.066 C 
ATOM     17  C   UNL     1      10.962 -50.821 -22.650  1.00  0.00     0.166 C 
ATOM     18  C   UNL     1      13.216 -51.000 -23.510  1.00  0.00     0.048 C 
ATOM     19  C   UNL     1      11.395 -49.497 -23.072  1.00  0.00     0.025 A 
ATOM     20  C   UNL     1      12.696 -49.594 -23.544  1.00  0.00    -0.033 A 
ATOM     21  C   UNL     1      10.687 -48.315 -23.065  1.00  0.00     0.062 A 
ATOM     22  C   UNL     1      13.338 -48.466 -24.035  1.00  0.00     0.055 A 
ATOM     23  C   UNL     1      11.333 -47.167 -23.535  1.00  0.00     0.161 A 
ATOM     24  C   UNL     1      12.657 -47.235 -24.042  1.00  0.00     0.161 A 
ATOM     25  O   UNL     1       9.820 -51.111 -22.336  1.00  0.00    -0.294 OA
BRANCH  23  26
ATOM     26  O   UNL     1      10.540 -46.046 -23.506  1.00  0.00    -0.493 OA
ATOM     27  C   UNL     1      10.255 -45.528 -22.209  1.00  0.00     0.278 C 
ENDBRANCH  23  26
BRANCH  24  28
ATOM     28  O   UNL     1      13.186 -46.082 -24.557  1.00  0.00    -0.493 OA
ATOM     29  C   UNL     1      14.356 -45.548 -23.951  1.00  0.00     0.278 C 
ENDBRANCH  24  28
ENDBRANCH   1  16
TORSDOF 6
ENDMDL
MODEL 6
REMARK VINA RESULT:    -9.107      2.454      4.497
REMARK INTER + INTRA:         -12.938
REMARK INTER:                 -12.241
REMARK INTRA:                  -0.697
REMARK UNBOUND:                -0.638
REMARK SMILES COc1cc2c(cc1OC)C(=O)[C@@H](C[C@H]1CC[N@@H+](Cc3ccccc3)CC1)C2
REMARK SMILES IDX 14 1 15 2 17 3 18 4 16 5 26 6 27 7 19 9 20 10 21 11 25 12
REMARK SMILES IDX 22 13 24 14 23 15 13 16 11 17 28 18 6 19 5 20 7 21 4 22 8 23
REMARK SMILES IDX 3 24 12 25 9 26 10 27 2 28 1 29
REMARK H PARENT 18 8
ROOT
ATOM      1  C   UNL     1      11.725 -52.309 -22.600  1.00  0.00     0.016 C 
ENDROOT
BRANCH   1   2
ATOM      2  C   UNL     1      10.367 -53.056 -22.680  1.00  0.00     0.001 C 
ATOM      3  C   UNL     1      11.222 -55.292 -23.612  1.00  0.00     0.262 C 
ATOM      4  N   UNL     1      10.770 -55.962 -22.340  1.00  0.00    -0.331 N 
ATOM      5  C   UNL     1      10.373 -54.048 -23.866  1.00  0.00     0.065 C 
ATOM      6  C   UNL     1      10.854 -55.036 -21.148  1.00  0.00     0.262 C 
ATOM      7  C   UNL     1       9.961 -53.827 -21.414  1.00  0.00     0.065 C 
ATOM      8  H   UNL     1       9.775 -56.186 -22.458  1.00  0.00     0.348 HD
BRANCH   4   9
ATOM      9  C   UNL     1      11.433 -57.306 -22.094  1.00  0.00     0.299 C 
BRANCH   9  10
ATOM     10  C   UNL     1      10.544 -58.514 -22.202  1.00  0.00     0.006 A 
ATOM     11  C   UNL     1      10.796 -59.655 -21.424  1.00  0.00     0.009 A 
ATOM     12  C   UNL     1       9.444 -58.524 -23.075  1.00  0.00     0.009 A 
ATOM     13  C   UNL     1       9.961 -60.771 -21.506  1.00  0.00     0.001 A 
ATOM     14  C   UNL     1       8.610 -59.641 -23.152  1.00  0.00     0.001 A 
ATOM     15  C   UNL     1       8.868 -60.762 -22.368  1.00  0.00     0.000 A 
ENDBRANCH   9  10
ENDBRANCH   4   9
ENDBRANCH   1   2
BRANCH   1  16
ATOM     16  C   UNL     1      11.851 -50.915 -23.231  1.00  0.00     0.066 C 
ATOM     17  C   UNL     1      13.226 -50.291 -23.099  1.00  0.00     0.166 C 
ATOM     18  C   UNL     1      10.882 -49.828 -22.720  1.00  0.00     0.048 C 
ATOM     19  C   UNL     1      13.075 -48.862 -22.868  1.00  0.00     0.025 A 
ATOM     20  C   UNL     1      11.729 -48.591 -22.674  1.00  0.00    -0.033 A 
ATOM     21  C   UNL     1      14.051 -47.890 -22.809  1.00  0.00     0.062 A 
ATOM     22  C   UNL     1      11.317 -47.292 -22.407  1.00  0.00     0.055 A 
ATOM     23  C   UNL     1      13.645 -46.574 -22.564  1.00  0.00     0.161 A 
ATOM     24  C   UNL     1      12.277 -46.266 -22.342  1.00  0.00     0.161 A 
ATOM     25  O   UNL     1      14.294 -50.878 -23.146  1.00  0.00    -0.294 OA
BRANCH  23  26
ATOM     26  O   UNL     1      14.690 -45.685 -22.504  1.00  0.00    -0.493 OA
ATOM     27  C   UNL     1      15.879 -46.086 -23.181  1.00  0.00     0.278 C 
ENDBRANCH  23  26
BRANCH  24  28
ATOM     28  O   UNL     1      11.975 -44.968 -22.030  1.00  0.00    -0.493 OA
ATOM     29  C   UNL     1      10.856 -44.365 -22.667  1.00  0.00     0.278 C 
ENDBRANCH  24  28
ENDBRANCH   1  16
TORSDOF 6
ENDMDL
MODEL 7
REMARK VINA RESULT:    -8.779      2.067      3.479
REMARK INTER + INTRA:         -12.496
REMARK INTER:                 -12.007
REMARK INTRA:                  -0.489
REMARK UNBOUND:                -0.638
REMARK SMILES COc1cc2c(cc1OC)C(=O)[C@@H](C[C@H]1CC[N@@H+](Cc3ccccc3)CC1)C2
REMARK SMILES IDX 14 1 15 2 17 3 18 4 16 5 26 6 27 7 19 9 20 10 21 11 25 12
REMARK SMILES IDX 22 13 24 14 23 15 13 16 11 17 28 18 6 19 5 20 7 21 4 22 8 23
REMARK SMILES IDX 3 24 12 25 9 26 10 27 2 28 1 29
REMARK H PARENT 18 8
ROOT
ATOM      1  C   UNL     1      11.710 -53.620 -23.385  1.00  0.00     0.016 C 
ENDROOT
BRANCH   1   2
ATOM      2  C   UNL     1      10.378 -54.289 -22.955  1.00  0.00     0.001 C 
ATOM      3  C   UNL     1      11.056 -56.741 -23.307  1.00  0.00     0.262 C 
ATOM      4  N   UNL     1      10.887 -56.970 -21.827  1.00  0.00    -0.331 N 
ATOM      5  C   UNL     1      10.152 -55.593 -23.754  1.00  0.00     0.065 C 
ATOM      6  C   UNL     1      11.202 -55.731 -21.021  1.00  0.00     0.262 C 
ATOM      7  C   UNL     1      10.255 -54.617 -21.459  1.00  0.00     0.065 C 
ATOM      8  H   UNL     1       9.893 -57.171 -21.668  1.00  0.00     0.348 HD
BRANCH   4   9
ATOM      9  C   UNL     1      11.608 -58.207 -21.320  1.00  0.00     0.299 C 
BRANCH   9  10
ATOM     10  C   UNL     1      11.255 -59.504 -21.996  1.00  0.00     0.006 A 
ATOM     11  C   UNL     1      11.942 -59.915 -23.150  1.00  0.00     0.009 A 
ATOM     12  C   UNL     1      10.242 -60.331 -21.484  1.00  0.00     0.009 A 
ATOM     13  C   UNL     1      11.631 -61.127 -23.768  1.00  0.00     0.001 A 
ATOM     14  C   UNL     1       9.937 -61.544 -22.104  1.00  0.00     0.001 A 
ATOM     15  C   UNL     1      10.631 -61.942 -23.242  1.00  0.00     0.000 A 
ENDBRANCH   9  10
ENDBRANCH   4   9
ENDBRANCH   1   2
BRANCH   1  16
ATOM     16  C   UNL     1      11.734 -52.112 -23.671  1.00  0.00     0.066 C 
ATOM     17  C   UNL     1      12.782 -51.683 -24.679  1.00  0.00     0.166 C 
ATOM     18  C   UNL     1      11.952 -51.176 -22.463  1.00  0.00     0.048 C 
ATOM     19  C   UNL     1      13.335 -50.402 -24.267  1.00  0.00     0.025 A 
ATOM     20  C   UNL     1      12.842 -50.098 -23.007  1.00  0.00    -0.033 A 
ATOM     21  C   UNL     1      14.221 -49.589 -24.941  1.00  0.00     0.062 A 
ATOM     22  C   UNL     1      13.241 -48.930 -22.372  1.00  0.00     0.055 A 
ATOM     23  C   UNL     1      14.611 -48.397 -24.321  1.00  0.00     0.161 A 
ATOM     24  C   UNL     1      14.140 -48.066 -23.024  1.00  0.00     0.161 A 
ATOM     25  O   UNL     1      13.137 -52.309 -25.663  1.00  0.00    -0.294 OA
BRANCH  23  26
ATOM     26  O   UNL     1      15.509 -47.667 -25.061  1.00  0.00    -0.493 OA
ATOM     27  C   UNL     1      16.819 -48.222 -25.159  1.00  0.00     0.278 C 
ENDBRANCH  23  26
BRANCH  24  28
ATOM     28  O   UNL     1      14.633 -46.922 -22.456  1.00  0.00    -0.493 OA
ATOM     29  C   UNL     1      13.810 -45.762 -22.454  1.00  0.00     0.278 C 
ENDBRANCH  24  28
ENDBRANCH   1  16
TORSDOF 6
ENDMDL
MODEL 8
REMARK VINA RESULT:    -8.684      4.654     12.687
REMARK INTER + INTRA:         -12.367
REMARK INTER:                 -11.755
REMARK INTRA:                  -0.612
REMARK UNBOUND:                -0.638
REMARK SMILES COc1cc2c(cc1OC)C(=O)[C@@H](C[C@H]1CC[N@@H+](Cc3ccccc3)CC1)C2
REMARK SMILES IDX 14 1 15 2 17 3 18 4 16 5 26 6 27 7 19 9 20 10 21 11 25 12
REMARK SMILES IDX 22 13 24 14 23 15 13 16 11 17 28 18 6 19 5 20 7 21 4 22 8 23
REMARK SMILES IDX 3 24 12 25 9 26 10 27 2 28 1 29
REMARK H PARENT 18 8
ROOT
ATOM      1  C   UNL     1      11.492 -48.931 -22.854  1.00  0.00     0.016 C 
ENDROOT
BRANCH   1   2
ATOM      2  C   UNL     1      12.572 -47.820 -22.931  1.00  0.00     0.001 C 
ATOM      3  C   UNL     1      11.277 -46.135 -24.373  1.00  0.00     0.262 C 
ATOM      4  N   UNL     1      11.303 -45.168 -23.217  1.00  0.00    -0.331 N 
ATOM      5  C   UNL     1      12.477 -47.076 -24.282  1.00  0.00     0.065 C 
ATOM      6  C   UNL     1      11.295 -45.878 -21.882  1.00  0.00     0.262 C 
ATOM      7  C   UNL     1      12.527 -46.775 -21.806  1.00  0.00     0.065 C 
ATOM      8  H   UNL     1      12.198 -44.667 -23.268  1.00  0.00     0.348 HD
BRANCH   4   9
ATOM      9  C   UNL     1      10.252 -44.078 -23.316  1.00  0.00     0.299 C 
BRANCH   9  10
ATOM     10  C   UNL     1      10.744 -42.716 -23.727  1.00  0.00     0.006 A 
ATOM     11  C   UNL     1      10.876 -41.691 -22.777  1.00  0.00     0.009 A 
ATOM     12  C   UNL     1      11.087 -42.447 -25.062  1.00  0.00     0.009 A 
ATOM     13  C   UNL     1      11.352 -40.433 -23.151  1.00  0.00     0.001 A 
ATOM     14  C   UNL     1      11.565 -41.189 -25.431  1.00  0.00     0.001 A 
ATOM     15  C   UNL     1      11.699 -40.184 -24.477  1.00  0.00     0.000 A 
ENDBRANCH   9  10
ENDBRANCH   4   9
ENDBRANCH   1   2
BRANCH   1  16
ATOM     16  C   UNL     1      11.925 -50.381 -22.594  1.00  0.00     0.066 C 
ATOM     17  C   UNL     1      12.447 -51.107 -23.818  1.00  0.00     0.166 C 
ATOM     18  C   UNL     1      10.862 -51.331 -22.003  1.00  0.00     0.048 C 
ATOM     19  C   UNL     1      12.003 -52.492 -23.769  1.00  0.00     0.025 A 
ATOM     20  C   UNL     1      11.112 -52.628 -22.715  1.00  0.00    -0.033 A 
ATOM     21  C   UNL     1      12.338 -53.535 -24.605  1.00  0.00     0.062 A 
ATOM     22  C   UNL     1      10.517 -53.857 -22.467  1.00  0.00     0.055 A 
ATOM     23  C   UNL     1      11.764 -54.785 -24.350  1.00  0.00     0.161 A 
ATOM     24  C   UNL     1      10.835 -54.953 -23.291  1.00  0.00     0.161 A 
ATOM     25  O   UNL     1      13.107 -50.621 -24.720  1.00  0.00    -0.294 OA
BRANCH  23  26
ATOM     26  O   UNL     1      12.144 -55.752 -25.247  1.00  0.00    -0.493 OA
ATOM     27  C   UNL     1      12.923 -55.294 -26.351  1.00  0.00     0.278 C 
ENDBRANCH  23  26
BRANCH  24  28
ATOM     28  O   UNL     1      10.258 -56.188 -23.159  1.00  0.00    -0.493 OA
ATOM     29  C   UNL     1      10.932 -57.166 -22.379  1.00  0.00     0.278 C 
ENDBRANCH  24  28
ENDBRANCH   1  16
TORSDOF 6
ENDMDL
