MODEL 1
REMARK VINA RESULT:   -12.847      0.000      0.000
REMARK INTER + INTRA:         -18.394
REMARK INTER:                 -17.729
REMARK INTRA:                  -0.666
REMARK UNBOUND:                -0.666
REMARK SMILES O=C1C(=NCCCN=c2c3c([nH]c4cc(Cl)ccc24)CCCC3)CC(=O)c2c(O)cccc21
REMARK SMILES IDX 6 1 7 2 8 3 9 4 12 5 11 6 13 7 10 8 20 9 14 10 19 11 23 12
REMARK SMILES IDX 21 13 15 14 18 15 22 16 17 17 16 19 5 20 4 21 3 22 24 23
REMARK SMILES IDX 2 24 25 25 33 26 27 27 32 28 28 29 31 30 30 31 1 32 26 33
REMARK SMILES IDX 29 34
REMARK H PARENT 12 18 29 35
ROOT
ATOM      1  C   UNL     1      11.759 -58.904 -22.445  1.00  0.00     0.047 C 
ENDROOT
BRANCH   1   2
ATOM      2  C   UNL     1      11.027 -60.243 -22.365  1.00  0.00     0.145 C 
BRANCH   2   3
ATOM      3  N   UNL     1      11.317 -61.033 -23.546  1.00  0.00    -0.284 NA
BRANCH   3   4
ATOM      4  C   UNL     1      10.689 -61.044 -24.671  1.00  0.00     0.072 A 
ATOM      5  N   UNL     1       9.633 -61.953 -27.119  1.00  0.00    -0.358 N 
ATOM      6  C   UNL     1       9.008 -62.309 -25.941  1.00  0.00     0.021 A 
ATOM      7  C   UNL     1      10.521 -60.867 -27.151  1.00  0.00     0.049 A 
ATOM      8  C   UNL     1       9.443 -61.897 -24.732  1.00  0.00    -0.003 A 
ATOM      9  C   UNL     1       7.784 -63.190 -26.072  1.00  0.00     0.054 C 
ATOM     10  C   UNL     1      10.888 -60.304 -28.380  1.00  0.00     0.047 A 
ATOM     11  C   UNL     1      11.048 -60.346 -25.952  1.00  0.00     0.024 A 
ATOM     12  C   UNL     1       8.805 -62.304 -23.429  1.00  0.00     0.039 C 
ATOM     13  C   UNL     1       6.922 -63.242 -24.810  1.00  0.00     0.007 C 
ATOM     14  C   UNL     1      11.703 -59.175 -28.414  1.00  0.00     0.043 A 
ATOM     15  C   UNL     1      11.813 -59.174 -26.002  1.00  0.00     0.014 A 
ATOM     16  C   UNL     1       7.790 -63.438 -23.575  1.00  0.00     0.005 C 
ATOM     17  C   UNL     1      12.149 -58.596 -27.230  1.00  0.00     0.021 A 
ATOM     18  H   UNL     1       9.142 -62.174 -27.979  1.00  0.00     0.166 HD
ATOM     19  Cl  UNL     1      12.129 -58.471 -29.924  1.00  0.00    -0.084 Cl
ENDBRANCH   3   4
ENDBRANCH   2   3
ENDBRANCH   1   2
BRANCH   1  20
ATOM     20  C   UNL     1      10.823 -57.734 -22.750  1.00  0.00     0.144 C 
BRANCH  20  21
ATOM     21  N   UNL     1      11.538 -56.660 -23.435  1.00  0.00    -0.285 NA
BRANCH  21  22
ATOM     22  C   UNL     1      11.143 -55.437 -23.388  1.00  0.00     0.090 C 
ATOM     23  C   UNL     1      10.220 -54.798 -22.400  1.00  0.00     0.141 C 
ATOM     24  C   UNL     1      11.652 -54.490 -24.453  1.00  0.00     0.208 C 
ATOM     25  C   UNL     1      10.694 -53.455 -21.917  1.00  0.00     0.173 C 
ATOM     26  C   UNL     1      12.045 -53.146 -24.003  1.00  0.00     0.038 A 
ATOM     27  C   UNL     1      11.611 -52.657 -22.769  1.00  0.00     0.071 A 
ATOM     28  C   UNL     1      12.863 -52.366 -24.834  1.00  0.00     0.013 A 
ATOM     29  C   UNL     1      12.023 -51.379 -22.366  1.00  0.00     0.127 A 
ATOM     30  C   UNL     1      13.264 -51.096 -24.419  1.00  0.00     0.005 A 
ATOM     31  C   UNL     1      12.847 -50.605 -23.183  1.00  0.00     0.047 A 
ATOM     32  O   UNL     1      11.717 -54.833 -25.621  1.00  0.00    -0.287 OA
ATOM     33  O   UNL     1      10.297 -52.974 -20.855  1.00  0.00    -0.294 OA
BRANCH  29  34
ATOM     34  O   UNL     1      11.648 -50.807 -21.180  1.00  0.00    -0.507 OA
ATOM     35  H   UNL     1      10.933 -50.155 -21.354  1.00  0.00     0.293 HD
ENDBRANCH  29  34
ENDBRANCH  21  22
ENDBRANCH  20  21
ENDBRANCH   1  20
TORSDOF 7
ENDMDL
MODEL 2
REMARK VINA RESULT:   -12.145      1.891      3.702
REMARK INTER + INTRA:         -17.425
REMARK INTER:                 -16.438
REMARK INTRA:                  -0.988
REMARK UNBOUND:                -0.666
REMARK SMILES O=C1C(=NCCCN=c2c3c([nH]c4cc(Cl)ccc24)CCCC3)CC(=O)c2c(O)cccc21
REMARK SMILES IDX 6 1 7 2 8 3 9 4 12 5 11 6 13 7 10 8 20 9 14 10 19 11 23 12
REMARK SMILES IDX 21 13 15 14 18 15 22 16 17 17 16 19 5 20 4 21 3 22 24 23
REMARK SMILES IDX 2 24 25 25 33 26 27 27 32 28 28 29 31 30 30 31 1 32 26 33
REMARK SMILES IDX 29 34
REMARK H PARENT 12 18 29 35
ROOT
ATOM      1  C   UNL     1      10.893 -58.593 -21.972  1.00  0.00     0.047 C 
ENDROOT
BRANCH   1   2
ATOM      2  C   UNL     1      10.152 -59.930 -21.950  1.00  0.00     0.145 C 
BRANCH   2   3
ATOM      3  N   UNL     1      10.800 -60.866 -22.848  1.00  0.00    -0.284 NA
BRANCH   3   4
ATOM      4  C   UNL     1      10.386 -61.287 -23.993  1.00  0.00     0.072 A 
ATOM      5  N   UNL     1       9.178 -61.318 -26.538  1.00  0.00    -0.358 N 
ATOM      6  C   UNL     1      10.422 -60.739 -26.388  1.00  0.00     0.021 A 
ATOM      7  C   UNL     1       8.688 -62.207 -25.569  1.00  0.00     0.049 A 
ATOM      8  C   UNL     1      11.072 -60.703 -25.207  1.00  0.00    -0.003 A 
ATOM      9  C   UNL     1      11.038 -60.145 -27.638  1.00  0.00     0.054 C 
ATOM     10  C   UNL     1       7.602 -63.038 -25.872  1.00  0.00     0.047 A 
ATOM     11  C   UNL     1       9.282 -62.262 -24.292  1.00  0.00     0.024 A 
ATOM     12  C   UNL     1      12.411 -60.042 -25.007  1.00  0.00     0.039 C 
ATOM     13  C   UNL     1      12.536 -59.867 -27.514  1.00  0.00     0.007 C 
ATOM     14  C   UNL     1       7.165 -63.979 -24.943  1.00  0.00     0.043 A 
ATOM     15  C   UNL     1       8.871 -63.257 -23.396  1.00  0.00     0.014 A 
ATOM     16  C   UNL     1      12.848 -59.180 -26.192  1.00  0.00     0.005 C 
ATOM     17  C   UNL     1       7.808 -64.107 -23.716  1.00  0.00     0.021 A 
ATOM     18  H   UNL     1       8.845 -61.441 -27.488  1.00  0.00     0.166 HD
ATOM     19  Cl  UNL     1       5.848 -65.015 -25.330  1.00  0.00    -0.084 Cl
ENDBRANCH   3   4
ENDBRANCH   2   3
ENDBRANCH   1   2
BRANCH   1  20
ATOM     20  C   UNL     1      10.425 -57.676 -23.103  1.00  0.00     0.144 C 
BRANCH  20  21
ATOM     21  N   UNL     1      11.399 -56.615 -23.348  1.00  0.00    -0.285 NA
BRANCH  21  22
ATOM     22  C   UNL     1      11.069 -55.371 -23.353  1.00  0.00     0.090 C 
ATOM     23  C   UNL     1      10.157 -54.650 -22.411  1.00  0.00     0.141 C 
ATOM     24  C   UNL     1      11.654 -54.490 -24.434  1.00  0.00     0.208 C 
ATOM     25  C   UNL     1      10.691 -53.319 -21.961  1.00  0.00     0.173 C 
ATOM     26  C   UNL     1      12.108 -53.154 -24.020  1.00  0.00     0.038 A 
ATOM     27  C   UNL     1      11.670 -52.600 -22.814  1.00  0.00     0.071 A 
ATOM     28  C   UNL     1      12.986 -52.448 -24.854  1.00  0.00     0.013 A 
ATOM     29  C   UNL     1      12.140 -51.332 -22.443  1.00  0.00     0.127 A 
ATOM     30  C   UNL     1      13.444 -51.187 -24.471  1.00  0.00     0.005 A 
ATOM     31  C   UNL     1      13.024 -50.632 -23.264  1.00  0.00     0.047 A 
ATOM     32  O   UNL     1      11.729 -54.876 -25.589  1.00  0.00    -0.287 OA
ATOM     33  O   UNL     1      10.295 -52.781 -20.926  1.00  0.00    -0.294 OA
BRANCH  29  34
ATOM     34  O   UNL     1      11.768 -50.702 -21.287  1.00  0.00    -0.507 OA
ATOM     35  H   UNL     1      11.468 -51.379 -20.639  1.00  0.00     0.293 HD
ENDBRANCH  29  34
ENDBRANCH  21  22
ENDBRANCH  20  21
ENDBRANCH   1  20
TORSDOF 7
ENDMDL
MODEL 3
REMARK VINA RESULT:   -11.336      2.248      4.382
REMARK INTER + INTRA:         -16.309
REMARK INTER:                 -15.638
REMARK INTRA:                  -0.671
REMARK UNBOUND:                -0.666
REMARK SMILES O=C1C(=NCCCN=c2c3c([nH]c4cc(Cl)ccc24)CCCC3)CC(=O)c2c(O)cccc21
REMARK SMILES IDX 6 1 7 2 8 3 9 4 12 5 11 6 13 7 10 8 20 9 14 10 19 11 23 12
REMARK SMILES IDX 21 13 15 14 18 15 22 16 17 17 16 19 5 20 4 21 3 22 24 23
REMARK SMILES IDX 2 24 25 25 33 26 27 27 32 28 28 29 31 30 30 31 1 32 26 33
REMARK SMILES IDX 29 34
REMARK H PARENT 12 18 29 35
ROOT
ATOM      1  C   UNL     1       9.618 -57.269 -23.192  1.00  0.00     0.047 C 
ENDROOT
BRANCH   1   2
ATOM      2  C   UNL     1      10.895 -58.063 -22.917  1.00  0.00     0.145 C 
BRANCH   2   3
ATOM      3  N   UNL     1      11.397 -58.630 -24.153  1.00  0.00    -0.284 NA
BRANCH   3   4
ATOM      4  C   UNL     1      10.987 -59.685 -24.770  1.00  0.00     0.072 A 
ATOM      5  N   UNL     1       9.482 -61.361 -26.461  1.00  0.00    -0.358 N 
ATOM      6  C   UNL     1      10.434 -60.527 -27.011  1.00  0.00     0.021 A 
ATOM      7  C   UNL     1       9.515 -61.670 -25.092  1.00  0.00     0.049 A 
ATOM      8  C   UNL     1      11.206 -59.711 -26.265  1.00  0.00    -0.003 A 
ATOM      9  C   UNL     1      10.580 -60.580 -28.518  1.00  0.00     0.054 C 
ATOM     10  C   UNL     1       8.776 -62.755 -24.605  1.00  0.00     0.047 A 
ATOM     11  C   UNL     1      10.285 -60.888 -24.207  1.00  0.00     0.024 A 
ATOM     12  C   UNL     1      12.223 -58.760 -26.843  1.00  0.00     0.039 C 
ATOM     13  C   UNL     1      11.870 -59.945 -29.035  1.00  0.00     0.007 C 
ATOM     14  C   UNL     1       8.870 -63.116 -23.263  1.00  0.00     0.043 A 
ATOM     15  C   UNL     1      10.417 -61.304 -22.877  1.00  0.00     0.014 A 
ATOM     16  C   UNL     1      12.117 -58.603 -28.360  1.00  0.00     0.005 C 
ATOM     17  C   UNL     1       9.703 -62.408 -22.402  1.00  0.00     0.021 A 
ATOM     18  H   UNL     1       9.069 -62.051 -27.080  1.00  0.00     0.166 HD
ATOM     19  Cl  UNL     1       7.981 -64.465 -22.675  1.00  0.00    -0.084 Cl
ENDBRANCH   3   4
ENDBRANCH   2   3
ENDBRANCH   1   2
BRANCH   1  20
ATOM     20  C   UNL     1       9.673 -55.847 -22.631  1.00  0.00     0.144 C 
BRANCH  20  21
ATOM     21  N   UNL     1       9.961 -54.882 -23.688  1.00  0.00    -0.285 NA
BRANCH  21  22
ATOM     22  C   UNL     1      11.106 -54.305 -23.796  1.00  0.00     0.090 C 
ATOM     23  C   UNL     1      12.261 -54.693 -24.665  1.00  0.00     0.141 C 
ATOM     24  C   UNL     1      11.361 -53.077 -22.951  1.00  0.00     0.208 C 
ATOM     25  C   UNL     1      12.899 -53.528 -25.369  1.00  0.00     0.173 C 
ATOM     26  C   UNL     1      12.055 -51.960 -23.608  1.00  0.00     0.038 A 
ATOM     27  C   UNL     1      12.771 -52.168 -24.790  1.00  0.00     0.071 A 
ATOM     28  C   UNL     1      11.986 -50.684 -23.029  1.00  0.00     0.013 A 
ATOM     29  C   UNL     1      13.404 -51.074 -25.397  1.00  0.00     0.127 A 
ATOM     30  C   UNL     1      12.621 -49.607 -23.646  1.00  0.00     0.005 A 
ATOM     31  C   UNL     1      13.326 -49.802 -24.832  1.00  0.00     0.047 A 
ATOM     32  O   UNL     1      11.011 -53.033 -21.783  1.00  0.00    -0.287 OA
ATOM     33  O   UNL     1      13.574 -53.681 -26.388  1.00  0.00    -0.294 OA
BRANCH  29  34
ATOM     34  O   UNL     1      14.133 -51.174 -26.552  1.00  0.00    -0.507 OA
ATOM     35  H   UNL     1      15.059 -50.898 -26.366  1.00  0.00     0.293 HD
ENDBRANCH  29  34
ENDBRANCH  21  22
ENDBRANCH  20  21
ENDBRANCH   1  20
TORSDOF 7
ENDMDL
MODEL 4
REMARK VINA RESULT:   -11.013      4.341      9.966
REMARK INTER + INTRA:         -15.864
REMARK INTER:                 -15.832
REMARK INTRA:                  -0.032
REMARK UNBOUND:                -0.666
REMARK SMILES O=C1C(=NCCCN=c2c3c([nH]c4cc(Cl)ccc24)CCCC3)CC(=O)c2c(O)cccc21
REMARK SMILES IDX 6 1 7 2 8 3 9 4 12 5 11 6 13 7 10 8 20 9 14 10 19 11 23 12
REMARK SMILES IDX 21 13 15 14 18 15 22 16 17 17 16 19 5 20 4 21 3 22 24 23
REMARK SMILES IDX 2 24 25 25 33 26 27 27 32 28 28 29 31 30 30 31 1 32 26 33
REMARK SMILES IDX 29 34
REMARK H PARENT 12 18 29 35
ROOT
ATOM      1  C   UNL     1      10.327 -55.710 -22.263  1.00  0.00     0.047 C 
ENDROOT
BRANCH   1   2
ATOM      2  C   UNL     1       9.852 -54.263 -22.124  1.00  0.00     0.145 C 
BRANCH   2   3
ATOM      3  N   UNL     1      10.995 -53.374 -22.057  1.00  0.00    -0.284 NA
BRANCH   3   4
ATOM      4  C   UNL     1      11.323 -52.436 -22.877  1.00  0.00     0.072 A 
ATOM      5  N   UNL     1      12.894 -50.620 -24.351  1.00  0.00    -0.358 N 
ATOM      6  C   UNL     1      12.833 -51.939 -24.751  1.00  0.00     0.021 A 
ATOM      7  C   UNL     1      11.917 -50.095 -23.490  1.00  0.00     0.049 A 
ATOM      8  C   UNL     1      12.089 -52.862 -24.108  1.00  0.00    -0.003 A 
ATOM      9  C   UNL     1      13.649 -52.306 -25.973  1.00  0.00     0.054 C 
ATOM     10  C   UNL     1      11.783 -48.707 -23.354  1.00  0.00     0.047 A 
ATOM     11  C   UNL     1      11.077 -50.958 -22.759  1.00  0.00     0.024 A 
ATOM     12  C   UNL     1      12.038 -54.317 -24.498  1.00  0.00     0.039 C 
ATOM     13  C   UNL     1      13.262 -53.649 -26.593  1.00  0.00     0.007 C 
ATOM     14  C   UNL     1      10.763 -48.180 -22.565  1.00  0.00     0.043 A 
ATOM     15  C   UNL     1      10.019 -50.411 -22.023  1.00  0.00     0.014 A 
ATOM     16  C   UNL     1      13.108 -54.713 -25.516  1.00  0.00     0.005 C 
ATOM     17  C   UNL     1       9.868 -49.025 -21.917  1.00  0.00     0.021 A 
ATOM     18  H   UNL     1      13.345 -49.972 -24.987  1.00  0.00     0.166 HD
ATOM     19  Cl  UNL     1      10.586 -46.475 -22.423  1.00  0.00    -0.084 Cl
ENDBRANCH   3   4
ENDBRANCH   2   3
ENDBRANCH   1   2
BRANCH   1  20
ATOM     20  C   UNL     1       9.476 -56.521 -23.241  1.00  0.00     0.144 C 
BRANCH  20  21
ATOM     21  N   UNL     1       9.857 -57.931 -23.216  1.00  0.00    -0.285 NA
BRANCH  21  22
ATOM     22  C   UNL     1       9.033 -58.857 -22.874  1.00  0.00     0.090 C 
ATOM     23  C   UNL     1       7.550 -58.899 -23.075  1.00  0.00     0.141 C 
ATOM     24  C   UNL     1       9.591 -60.076 -22.174  1.00  0.00     0.208 C 
ATOM     25  C   UNL     1       7.049 -60.229 -23.566  1.00  0.00     0.173 C 
ATOM     26  C   UNL     1       9.050 -61.378 -22.592  1.00  0.00     0.038 A 
ATOM     27  C   UNL     1       7.842 -61.453 -23.289  1.00  0.00     0.071 A 
ATOM     28  C   UNL     1       9.767 -62.542 -22.279  1.00  0.00     0.013 A 
ATOM     29  C   UNL     1       7.368 -62.711 -23.687  1.00  0.00     0.127 A 
ATOM     30  C   UNL     1       9.283 -63.786 -22.682  1.00  0.00     0.005 A 
ATOM     31  C   UNL     1       8.085 -63.869 -23.389  1.00  0.00     0.047 A 
ATOM     32  O   UNL     1      10.438 -59.969 -21.303  1.00  0.00    -0.287 OA
ATOM     33  O   UNL     1       5.968 -60.337 -24.144  1.00  0.00    -0.294 OA
BRANCH  29  34
ATOM     34  O   UNL     1       6.194 -62.891 -24.368  1.00  0.00    -0.507 OA
ATOM     35  H   UNL     1       6.393 -62.954 -25.330  1.00  0.00     0.293 HD
ENDBRANCH  29  34
ENDBRANCH  21  22
ENDBRANCH  20  21
ENDBRANCH   1  20
TORSDOF 7
ENDMDL
MODEL 5
REMARK VINA RESULT:   -10.996      4.303     10.453
REMARK INTER + INTRA:         -15.841
REMARK INTER:                 -15.263
REMARK INTRA:                  -0.578
REMARK UNBOUND:                -0.666
REMARK SMILES O=C1C(=NCCCN=c2c3c([nH]c4cc(Cl)ccc24)CCCC3)CC(=O)c2c(O)cccc21
REMARK SMILES IDX 6 1 7 2 8 3 9 4 12 5 11 6 13 7 10 8 20 9 14 10 19 11 23 12
REMARK SMILES IDX 21 13 15 14 18 15 22 16 17 17 16 19 5 20 4 21 3 22 24 23
REMARK SMILES IDX 2 24 25 25 33 26 27 27 32 28 28 29 31 30 30 31 1 32 26 33
REMARK SMILES IDX 29 34
REMARK H PARENT 12 18 29 35
ROOT
ATOM      1  C   UNL     1      11.382 -54.523 -23.999  1.00  0.00     0.047 C 
ENDROOT
BRANCH   1   2
ATOM      2  C   UNL     1      11.596 -53.111 -23.453  1.00  0.00     0.145 C 
BRANCH   2   3
ATOM      3  N   UNL     1      12.439 -52.356 -24.359  1.00  0.00    -0.284 NA
BRANCH   3   4
ATOM      4  C   UNL     1      13.294 -51.435 -24.072  1.00  0.00     0.072 A 
ATOM      5  N   UNL     1      15.412 -50.072 -22.812  1.00  0.00    -0.358 N 
ATOM      6  C   UNL     1      15.698 -51.059 -23.733  1.00  0.00     0.021 A 
ATOM      7  C   UNL     1      14.139 -49.481 -22.778  1.00  0.00     0.049 A 
ATOM      8  C   UNL     1      14.739 -51.742 -24.391  1.00  0.00    -0.003 A 
ATOM      9  C   UNL     1      17.166 -51.338 -23.981  1.00  0.00     0.054 C 
ATOM     10  C   UNL     1      13.950 -48.274 -22.092  1.00  0.00     0.047 A 
ATOM     11  C   UNL     1      13.052 -50.100 -23.427  1.00  0.00     0.024 A 
ATOM     12  C   UNL     1      15.022 -52.853 -25.369  1.00  0.00     0.039 C 
ATOM     13  C   UNL     1      17.434 -52.144 -25.252  1.00  0.00     0.007 C 
ATOM     14  C   UNL     1      12.710 -47.642 -22.123  1.00  0.00     0.043 A 
ATOM     15  C   UNL     1      11.831 -49.418 -23.501  1.00  0.00     0.014 A 
ATOM     16  C   UNL     1      16.477 -53.323 -25.352  1.00  0.00     0.005 C 
ATOM     17  C   UNL     1      11.656 -48.198 -22.843  1.00  0.00     0.021 A 
ATOM     18  H   UNL     1      16.192 -49.507 -22.494  1.00  0.00     0.166 HD
ATOM     19  Cl  UNL     1      12.489 -46.148 -21.301  1.00  0.00    -0.084 Cl
ENDBRANCH   3   4
ENDBRANCH   2   3
ENDBRANCH   1   2
BRANCH   1  20
ATOM     20  C   UNL     1      11.005 -55.528 -22.909  1.00  0.00     0.144 C 
BRANCH  20  21
ATOM     21  N   UNL     1      10.800 -56.858 -23.477  1.00  0.00    -0.285 NA
BRANCH  21  22
ATOM     22  C   UNL     1       9.915 -57.669 -23.017  1.00  0.00     0.090 C 
ATOM     23  C   UNL     1       8.425 -57.558 -23.098  1.00  0.00     0.141 C 
ATOM     24  C   UNL     1      10.398 -58.905 -22.291  1.00  0.00     0.208 C 
ATOM     25  C   UNL     1       7.747 -58.849 -23.467  1.00  0.00     0.173 C 
ATOM     26  C   UNL     1       9.690 -60.160 -22.585  1.00  0.00     0.038 A 
ATOM     27  C   UNL     1       8.426 -60.137 -23.180  1.00  0.00     0.071 A 
ATOM     28  C   UNL     1      10.305 -61.377 -22.260  1.00  0.00     0.013 A 
ATOM     29  C   UNL     1       7.791 -61.354 -23.464  1.00  0.00     0.127 A 
ATOM     30  C   UNL     1       9.660 -62.580 -22.549  1.00  0.00     0.005 A 
ATOM     31  C   UNL     1       8.405 -62.567 -23.154  1.00  0.00     0.047 A 
ATOM     32  O   UNL     1      11.323 -58.847 -21.497  1.00  0.00    -0.287 OA
ATOM     33  O   UNL     1       6.615 -58.867 -23.951  1.00  0.00    -0.294 OA
BRANCH  29  34
ATOM     34  O   UNL     1       6.552 -61.439 -24.039  1.00  0.00    -0.507 OA
ATOM     35  H   UNL     1       6.438 -62.341 -24.416  1.00  0.00     0.293 HD
ENDBRANCH  29  34
ENDBRANCH  21  22
ENDBRANCH  20  21
ENDBRANCH   1  20
TORSDOF 7
ENDMDL
MODEL 6
REMARK VINA RESULT:   -10.891      1.075      2.020
REMARK INTER + INTRA:         -15.695
REMARK INTER:                 -15.416
REMARK INTRA:                  -0.279
REMARK UNBOUND:                -0.666
REMARK SMILES O=C1C(=NCCCN=c2c3c([nH]c4cc(Cl)ccc24)CCCC3)CC(=O)c2c(O)cccc21
REMARK SMILES IDX 6 1 7 2 8 3 9 4 12 5 11 6 13 7 10 8 20 9 14 10 19 11 23 12
REMARK SMILES IDX 21 13 15 14 18 15 22 16 17 17 16 19 5 20 4 21 3 22 24 23
REMARK SMILES IDX 2 24 25 25 33 26 27 27 32 28 28 29 31 30 30 31 1 32 26 33
REMARK SMILES IDX 29 34
REMARK H PARENT 12 18 29 35
ROOT
ATOM      1  C   UNL     1      11.034 -58.365 -23.481  1.00  0.00     0.047 C 
ENDROOT
BRANCH   1   2
ATOM      2  C   UNL     1      11.356 -59.688 -22.786  1.00  0.00     0.145 C 
BRANCH   2   3
ATOM      3  N   UNL     1      11.441 -60.752 -23.768  1.00  0.00    -0.284 NA
BRANCH   3   4
ATOM      4  C   UNL     1      10.750 -60.897 -24.846  1.00  0.00     0.072 A 
ATOM      5  N   UNL     1       9.533 -62.102 -27.082  1.00  0.00    -0.358 N 
ATOM      6  C   UNL     1       8.967 -62.268 -25.834  1.00  0.00     0.021 A 
ATOM      7  C   UNL     1      10.446 -61.062 -27.313  1.00  0.00     0.049 A 
ATOM      8  C   UNL     1       9.480 -61.707 -24.721  1.00  0.00    -0.003 A 
ATOM      9  C   UNL     1       7.714 -63.117 -25.776  1.00  0.00     0.054 C 
ATOM     10  C   UNL     1      10.758 -60.688 -28.627  1.00  0.00     0.047 A 
ATOM     11  C   UNL     1      11.055 -60.397 -26.230  1.00  0.00     0.024 A 
ATOM     12  C   UNL     1       8.907 -61.906 -23.341  1.00  0.00     0.039 C 
ATOM     13  C   UNL     1       6.925 -62.962 -24.476  1.00  0.00     0.007 C 
ATOM     14  C   UNL     1      11.600 -59.604 -28.862  1.00  0.00     0.043 A 
ATOM     15  C   UNL     1      11.847 -59.271 -26.484  1.00  0.00     0.014 A 
ATOM     16  C   UNL     1       7.855 -63.014 -23.272  1.00  0.00     0.005 C 
ATOM     17  C   UNL     1      12.128 -58.881 -27.797  1.00  0.00     0.021 A 
ATOM     18  H   UNL     1       8.988 -62.423 -27.875  1.00  0.00     0.166 HD
ATOM     19  Cl  UNL     1      11.958 -59.133 -30.477  1.00  0.00    -0.084 Cl
ENDBRANCH   3   4
ENDBRANCH   2   3
ENDBRANCH   1   2
BRANCH   1  20
ATOM     20  C   UNL     1       9.973 -57.551 -22.740  1.00  0.00     0.144 C 
BRANCH  20  21
ATOM     21  N   UNL     1       9.873 -56.203 -23.294  1.00  0.00    -0.285 NA
BRANCH  21  22
ATOM     22  C   UNL     1      10.875 -55.396 -23.319  1.00  0.00     0.090 C 
ATOM     23  C   UNL     1      11.960 -55.298 -24.344  1.00  0.00     0.141 C 
ATOM     24  C   UNL     1      11.014 -54.408 -22.183  1.00  0.00     0.208 C 
ATOM     25  C   UNL     1      12.288 -53.884 -24.736  1.00  0.00     0.173 C 
ATOM     26  C   UNL     1      11.411 -53.040 -22.547  1.00  0.00     0.038 A 
ATOM     27  C   UNL     1      11.997 -52.779 -23.789  1.00  0.00     0.071 A 
ATOM     28  C   UNL     1      11.192 -52.002 -21.629  1.00  0.00     0.013 A 
ATOM     29  C   UNL     1      12.344 -51.459 -24.108  1.00  0.00     0.127 A 
ATOM     30  C   UNL     1      11.543 -50.694 -21.962  1.00  0.00     0.005 A 
ATOM     31  C   UNL     1      12.115 -50.423 -23.203  1.00  0.00     0.047 A 
ATOM     32  O   UNL     1      10.814 -54.744 -21.027  1.00  0.00    -0.287 OA
ATOM     33  O   UNL     1      12.845 -53.623 -25.803  1.00  0.00    -0.294 OA
BRANCH  29  34
ATOM     34  O   UNL     1      12.927 -51.101 -25.294  1.00  0.00    -0.507 OA
ATOM     35  H   UNL     1      13.859 -51.416 -25.297  1.00  0.00     0.293 HD
ENDBRANCH  29  34
ENDBRANCH  21  22
ENDBRANCH  20  21
ENDBRANCH   1  20
TORSDOF 7
ENDMDL
MODEL 7
REMARK VINA RESULT:   -10.589      4.109     10.224
REMARK INTER + INTRA:         -15.279
REMARK INTER:                 -14.601
REMARK INTRA:                  -0.678
REMARK UNBOUND:                -0.666
REMARK SMILES O=C1C(=NCCCN=c2c3c([nH]c4cc(Cl)ccc24)CCCC3)CC(=O)c2c(O)cccc21
REMARK SMILES IDX 6 1 7 2 8 3 9 4 12 5 11 6 13 7 10 8 20 9 14 10 19 11 23 12
REMARK SMILES IDX 21 13 15 14 18 15 22 16 17 17 16 19 5 20 4 21 3 22 24 23
REMARK SMILES IDX 2 24 25 25 33 26 27 27 32 28 28 29 31 30 30 31 1 32 26 33
REMARK SMILES IDX 29 34
REMARK H PARENT 12 18 29 35
ROOT
ATOM      1  C   UNL     1      10.132 -53.950 -22.185  1.00  0.00     0.047 C 
ENDROOT
BRANCH   1   2
ATOM      2  C   UNL     1      10.806 -52.624 -21.833  1.00  0.00     0.145 C 
BRANCH   2   3
ATOM      3  N   UNL     1      10.854 -51.771 -23.004  1.00  0.00    -0.284 NA
BRANCH   3   4
ATOM      4  C   UNL     1      11.729 -50.871 -23.299  1.00  0.00     0.072 A 
ATOM      5  N   UNL     1      14.142 -49.420 -23.336  1.00  0.00    -0.358 N 
ATOM      6  C   UNL     1      14.054 -50.601 -24.045  1.00  0.00     0.021 A 
ATOM      7  C   UNL     1      12.979 -48.748 -22.931  1.00  0.00     0.049 A 
ATOM      8  C   UNL     1      12.928 -51.341 -24.091  1.00  0.00    -0.003 A 
ATOM      9  C   UNL     1      15.302 -51.029 -24.790  1.00  0.00     0.054 C 
ATOM     10  C   UNL     1      13.054 -47.411 -22.519  1.00  0.00     0.047 A 
ATOM     11  C   UNL     1      11.737 -49.414 -22.932  1.00  0.00     0.024 A 
ATOM     12  C   UNL     1      12.817 -52.654 -24.821  1.00  0.00     0.039 C 
ATOM     13  C   UNL     1      15.051 -52.109 -25.843  1.00  0.00     0.007 C 
ATOM     14  C   UNL     1      11.893 -46.715 -22.194  1.00  0.00     0.043 A 
ATOM     15  C   UNL     1      10.575 -48.681 -22.665  1.00  0.00     0.014 A 
ATOM     16  C   UNL     1      14.165 -53.211 -25.282  1.00  0.00     0.005 C 
ATOM     17  C   UNL     1      10.652 -47.338 -22.286  1.00  0.00     0.021 A 
ATOM     18  H   UNL     1      14.970 -48.855 -23.494  1.00  0.00     0.166 HD
ATOM     19  Cl  UNL     1      11.988 -45.066 -21.715  1.00  0.00    -0.084 Cl
ENDBRANCH   3   4
ENDBRANCH   2   3
ENDBRANCH   1   2
BRANCH   1  20
ATOM     20  C   UNL     1      11.011 -55.162 -21.872  1.00  0.00     0.144 C 
BRANCH  20  21
ATOM     21  N   UNL     1      10.883 -56.179 -22.913  1.00  0.00    -0.285 NA
BRANCH  21  22
ATOM     22  C   UNL     1      11.206 -57.408 -22.712  1.00  0.00     0.090 C 
ATOM     23  C   UNL     1      11.292 -58.143 -21.412  1.00  0.00     0.141 C 
ATOM     24  C   UNL     1      11.554 -58.252 -23.918  1.00  0.00     0.208 C 
ATOM     25  C   UNL     1      10.678 -59.515 -21.457  1.00  0.00     0.173 C 
ATOM     26  C   UNL     1      11.023 -59.623 -23.936  1.00  0.00     0.038 A 
ATOM     27  C   UNL     1      10.571 -60.223 -22.757  1.00  0.00     0.071 A 
ATOM     28  C   UNL     1      10.977 -60.317 -25.154  1.00  0.00     0.013 A 
ATOM     29  C   UNL     1      10.054 -61.525 -22.817  1.00  0.00     0.127 A 
ATOM     30  C   UNL     1      10.459 -61.611 -25.197  1.00  0.00     0.005 A 
ATOM     31  C   UNL     1       9.995 -62.213 -24.029  1.00  0.00     0.047 A 
ATOM     32  O   UNL     1      12.249 -57.809 -24.818  1.00  0.00    -0.287 OA
ATOM     33  O   UNL     1      10.310 -60.091 -20.433  1.00  0.00    -0.294 OA
BRANCH  29  34
ATOM     34  O   UNL     1       9.592 -62.201 -21.720  1.00  0.00    -0.507 OA
ATOM     35  H   UNL     1      10.361 -62.561 -21.223  1.00  0.00     0.293 HD
ENDBRANCH  29  34
ENDBRANCH  21  22
ENDBRANCH  20  21
ENDBRANCH   1  20
TORSDOF 7
ENDMDL
MODEL 8
REMARK VINA RESULT:   -10.492      3.846      9.997
REMARK INTER + INTRA:         -15.144
REMARK INTER:                 -14.638
REMARK INTRA:                  -0.506
REMARK UNBOUND:                -0.666
REMARK SMILES O=C1C(=NCCCN=c2c3c([nH]c4cc(Cl)ccc24)CCCC3)CC(=O)c2c(O)cccc21
REMARK SMILES IDX 6 1 7 2 8 3 9 4 12 5 11 6 13 7 10 8 20 9 14 10 19 11 23 12
REMARK SMILES IDX 21 13 15 14 18 15 22 16 17 17 16 19 5 20 4 21 3 22 24 23
REMARK SMILES IDX 2 24 25 25 33 26 27 27 32 28 28 29 31 30 30 31 1 32 26 33
REMARK SMILES IDX 29 34
REMARK H PARENT 12 18 29 35
ROOT
ATOM      1  C   UNL     1      10.736 -54.413 -22.997  1.00  0.00     0.047 C 
ENDROOT
BRANCH   1   2
ATOM      2  C   UNL     1      11.614 -53.582 -23.934  1.00  0.00     0.145 C 
BRANCH   2   3
ATOM      3  N   UNL     1      12.350 -52.594 -23.170  1.00  0.00    -0.284 NA
BRANCH   3   4
ATOM      4  C   UNL     1      12.894 -51.504 -23.592  1.00  0.00     0.072 A 
ATOM      5  N   UNL     1      13.358 -49.179 -25.113  1.00  0.00    -0.358 N 
ATOM      6  C   UNL     1      12.374 -49.167 -24.146  1.00  0.00     0.021 A 
ATOM      7  C   UNL     1      14.361 -50.160 -25.092  1.00  0.00     0.049 A 
ATOM      8  C   UNL     1      12.106 -50.234 -23.365  1.00  0.00    -0.003 A 
ATOM      9  C   UNL     1      11.602 -47.873 -23.993  1.00  0.00     0.054 C 
ATOM     10  C   UNL     1      15.526 -49.982 -25.850  1.00  0.00     0.047 A 
ATOM     11  C   UNL     1      14.199 -51.325 -24.315  1.00  0.00     0.024 A 
ATOM     12  C   UNL     1      11.010 -50.262 -22.332  1.00  0.00     0.039 C 
ATOM     13  C   UNL     1      10.808 -47.780 -22.690  1.00  0.00     0.007 C 
ATOM     14  C   UNL     1      16.559 -50.912 -25.769  1.00  0.00     0.043 A 
ATOM     15  C   UNL     1      15.273 -52.216 -24.197  1.00  0.00     0.014 A 
ATOM     16  C   UNL     1      10.052 -49.074 -22.427  1.00  0.00     0.005 C 
ATOM     17  C   UNL     1      16.446 -52.016 -24.930  1.00  0.00     0.021 A 
ATOM     18  H   UNL     1      13.594 -48.287 -25.533  1.00  0.00     0.166 HD
ATOM     19  Cl  UNL     1      17.998 -50.676 -26.681  1.00  0.00    -0.084 Cl
ENDBRANCH   3   4
ENDBRANCH   2   3
ENDBRANCH   1   2
BRANCH   1  20
ATOM     20  C   UNL     1      11.326 -55.793 -22.702  1.00  0.00     0.144 C 
BRANCH  20  21
ATOM     21  N   UNL     1      10.699 -56.815 -23.536  1.00  0.00    -0.285 NA
BRANCH  21  22
ATOM     22  C   UNL     1       9.824 -57.636 -23.070  1.00  0.00     0.090 C 
ATOM     23  C   UNL     1       8.333 -57.530 -23.122  1.00  0.00     0.141 C 
ATOM     24  C   UNL     1      10.326 -58.879 -22.370  1.00  0.00     0.208 C 
ATOM     25  C   UNL     1       7.653 -58.818 -23.496  1.00  0.00     0.173 C 
ATOM     26  C   UNL     1       9.617 -60.133 -22.668  1.00  0.00     0.038 A 
ATOM     27  C   UNL     1       8.342 -60.107 -23.239  1.00  0.00     0.071 A 
ATOM     28  C   UNL     1      10.243 -61.352 -22.370  1.00  0.00     0.013 A 
ATOM     29  C   UNL     1       7.706 -61.323 -23.526  1.00  0.00     0.127 A 
ATOM     30  C   UNL     1       9.597 -62.553 -22.663  1.00  0.00     0.005 A 
ATOM     31  C   UNL     1       8.331 -62.537 -23.244  1.00  0.00     0.047 A 
ATOM     32  O   UNL     1      11.265 -58.828 -21.592  1.00  0.00    -0.287 OA
ATOM     33  O   UNL     1       6.512 -58.835 -23.959  1.00  0.00    -0.294 OA
BRANCH  29  34
ATOM     34  O   UNL     1       6.457 -61.405 -24.080  1.00  0.00    -0.507 OA
ATOM     35  H   UNL     1       6.170 -60.503 -24.349  1.00  0.00     0.293 HD
ENDBRANCH  29  34
ENDBRANCH  21  22
ENDBRANCH  20  21
ENDBRANCH   1  20
TORSDOF 7
ENDMDL
MODEL 9
REMARK VINA RESULT:   -10.233      3.555      9.900
REMARK INTER + INTRA:         -14.787
REMARK INTER:                 -14.076
REMARK INTRA:                  -0.711
REMARK UNBOUND:                -0.666
REMARK SMILES O=C1C(=NCCCN=c2c3c([nH]c4cc(Cl)ccc24)CCCC3)CC(=O)c2c(O)cccc21
REMARK SMILES IDX 6 1 7 2 8 3 9 4 12 5 11 6 13 7 10 8 20 9 14 10 19 11 23 12
REMARK SMILES IDX 21 13 15 14 18 15 22 16 17 17 16 19 5 20 4 21 3 22 24 23
REMARK SMILES IDX 2 24 25 25 33 26 27 27 32 28 28 29 31 30 30 31 1 32 26 33
REMARK SMILES IDX 29 34
REMARK H PARENT 12 18 29 35
ROOT
ATOM      1  C   UNL     1      10.936 -53.715 -22.125  1.00  0.00     0.047 C 
ENDROOT
BRANCH   1   2
ATOM      2  C   UNL     1      11.718 -53.030 -23.245  1.00  0.00     0.145 C 
BRANCH   2   3
ATOM      3  N   UNL     1      12.387 -51.852 -22.728  1.00  0.00    -0.284 NA
BRANCH   3   4
ATOM      4  C   UNL     1      13.048 -50.959 -23.382  1.00  0.00     0.072 A 
ATOM      5  N   UNL     1      13.766 -49.126 -25.395  1.00  0.00    -0.358 N 
ATOM      6  C   UNL     1      12.792 -48.777 -24.481  1.00  0.00     0.021 A 
ATOM      7  C   UNL     1      14.653 -50.178 -25.120  1.00  0.00     0.049 A 
ATOM      8  C   UNL     1      12.409 -49.593 -23.478  1.00  0.00    -0.003 A 
ATOM      9  C   UNL     1      12.171 -47.407 -24.655  1.00  0.00     0.054 C 
ATOM     10  C   UNL     1      15.827 -50.313 -25.872  1.00  0.00     0.047 A 
ATOM     11  C   UNL     1      14.363 -51.101 -24.096  1.00  0.00     0.024 A 
ATOM     12  C   UNL     1      11.320 -49.255 -22.493  1.00  0.00     0.039 C 
ATOM     13  C   UNL     1      11.396 -46.921 -23.430  1.00  0.00     0.007 C 
ATOM     14  C   UNL     1      16.750 -51.305 -25.550  1.00  0.00     0.043 A 
ATOM     15  C   UNL     1      15.330 -52.050 -23.746  1.00  0.00     0.014 A 
ATOM     16  C   UNL     1      10.501 -48.026 -22.887  1.00  0.00     0.005 C 
ATOM     17  C   UNL     1      16.517 -52.160 -24.477  1.00  0.00     0.021 A 
ATOM     18  H   UNL     1      14.099 -48.389 -26.008  1.00  0.00     0.166 HD
ATOM     19  Cl  UNL     1      18.203 -51.451 -26.458  1.00  0.00    -0.084 Cl
ENDBRANCH   3   4
ENDBRANCH   2   3
ENDBRANCH   1   2
BRANCH   1  20
ATOM     20  C   UNL     1      10.179 -54.954 -22.605  1.00  0.00     0.144 C 
BRANCH  20  21
ATOM     21  N   UNL     1      11.030 -55.788 -23.450  1.00  0.00    -0.285 NA
BRANCH  21  22
ATOM     22  C   UNL     1      11.384 -56.976 -23.105  1.00  0.00     0.090 C 
ATOM     23  C   UNL     1      11.491 -57.547 -21.726  1.00  0.00     0.141 C 
ATOM     24  C   UNL     1      11.752 -57.950 -24.202  1.00  0.00     0.208 C 
ATOM     25  C   UNL     1      10.912 -58.929 -21.603  1.00  0.00     0.173 C 
ATOM     26  C   UNL     1      11.256 -59.326 -24.052  1.00  0.00     0.038 A 
ATOM     27  C   UNL     1      10.821 -59.791 -22.808  1.00  0.00     0.071 A 
ATOM     28  C   UNL     1      11.226 -60.162 -25.178  1.00  0.00     0.013 A 
ATOM     29  C   UNL     1      10.337 -61.103 -22.709  1.00  0.00     0.127 A 
ATOM     30  C   UNL     1      10.741 -61.465 -25.062  1.00  0.00     0.005 A 
ATOM     31  C   UNL     1      10.293 -61.933 -23.829  1.00  0.00     0.047 A 
ATOM     32  O   UNL     1      12.435 -57.601 -25.151  1.00  0.00    -0.287 OA
ATOM     33  O   UNL     1      10.560 -59.387 -20.516  1.00  0.00    -0.294 OA
BRANCH  29  34
ATOM     34  O   UNL     1       9.894 -61.653 -21.537  1.00  0.00    -0.507 OA
ATOM     35  H   UNL     1      10.659 -61.758 -20.927  1.00  0.00     0.293 HD
ENDBRANCH  29  34
ENDBRANCH  21  22
ENDBRANCH  20  21
ENDBRANCH   1  20
TORSDOF 7
ENDMDL
