MODEL 1
REMARK VINA RESULT:   -11.435      0.000      0.000
REMARK INTER + INTRA:         -17.528
REMARK INTER:                 -16.783
REMARK INTRA:                  -0.745
REMARK UNBOUND:                -0.745
REMARK SMILES COc1cc2c(cc1OC)S[C@H](C(=O)CCc1cc[n+](Cc3ccc(F)cc3)cc1)C2
REMARK SMILES IDX 15 1 13 2 14 3 12 4 3 5 4 6 8 7 5 8 7 9 6 10 31 11 11 12
REMARK SMILES IDX 2 13 1 14 9 15 10 16 16 17 17 18 18 19 30 20 19 21 29 22
REMARK SMILES IDX 20 23 21 24 22 25 23 26 28 27 24 28 27 29 25 30 26 31
REMARK H PARENT
ROOT
ATOM      1  C   UNL     1      10.482 -55.293 -22.405  1.00  0.00     0.081 C 
ENDROOT
BRANCH   1   2
ATOM      2  C   UNL     1      10.552 -53.890 -21.816  1.00  0.00     0.146 C 
ATOM      3  O   UNL     1      10.542 -53.722 -20.595  1.00  0.00    -0.298 OA
BRANCH   2   4
ATOM      4  C   UNL     1      10.647 -52.731 -22.796  1.00  0.00     0.123 C 
ATOM      5  C   UNL     1      13.404 -49.500 -25.066  1.00  0.00     0.161 A 
ATOM      6  C   UNL     1      13.146 -50.869 -24.921  1.00  0.00     0.055 A 
ATOM      7  C   UNL     1      12.775 -48.565 -24.208  1.00  0.00     0.161 A 
ATOM      8  C   UNL     1      12.266 -51.293 -23.930  1.00  0.00    -0.029 A 
ATOM      9  C   UNL     1      11.904 -49.007 -23.205  1.00  0.00     0.065 A 
ATOM     10  C   UNL     1      11.667 -50.367 -23.077  1.00  0.00     0.015 A 
ATOM     11  C   UNL     1      11.945 -52.729 -23.621  1.00  0.00     0.059 C 
ATOM     12  S   UNL     1      10.632 -51.145 -21.874  1.00  0.00    -0.114 SA
BRANCH   5  13
ATOM     13  O   UNL     1      14.256 -48.971 -26.005  1.00  0.00    -0.493 OA
ATOM     14  C   UNL     1      14.705 -49.822 -27.049  1.00  0.00     0.278 C 
ENDBRANCH   5  13
BRANCH   7  15
ATOM     15  O   UNL     1      13.098 -47.247 -24.418  1.00  0.00    -0.493 OA
ATOM     16  C   UNL     1      12.045 -46.295 -24.374  1.00  0.00     0.278 C 
ENDBRANCH   7  15
ENDBRANCH   2   4
ENDBRANCH   1   2
BRANCH   1  17
ATOM     17  C   UNL     1      11.252 -56.310 -21.560  1.00  0.00     0.044 C 
BRANCH  17  18
ATOM     18  C   UNL     1      11.235 -57.699 -22.160  1.00  0.00    -0.036 A 
ATOM     19  C   UNL     1      11.703 -57.911 -23.459  1.00  0.00     0.074 A 
ATOM     20  C   UNL     1      10.824 -58.802 -21.415  1.00  0.00     0.074 A 
ATOM     21  C   UNL     1      11.776 -59.201 -23.968  1.00  0.00     0.308 A 
ATOM     22  C   UNL     1      10.911 -60.076 -21.965  1.00  0.00     0.308 A 
ATOM     23  N   UNL     1      11.394 -60.259 -23.217  1.00  0.00    -0.201 N 
BRANCH  23  24
ATOM     24  C   UNL     1      11.506 -61.632 -23.767  1.00  0.00     0.393 C 
BRANCH  24  25
ATOM     25  C   UNL     1      10.151 -62.176 -24.146  1.00  0.00     0.017 A 
ATOM     26  C   UNL     1       9.430 -62.996 -23.260  1.00  0.00     0.013 A 
ATOM     27  C   UNL     1       9.592 -61.874 -25.401  1.00  0.00     0.013 A 
ATOM     28  C   UNL     1       8.174 -63.491 -23.619  1.00  0.00     0.040 A 
ATOM     29  C   UNL     1       8.334 -62.368 -25.752  1.00  0.00     0.040 A 
ATOM     30  C   UNL     1       7.636 -63.170 -24.858  1.00  0.00     0.123 A 
ATOM     31  F   UNL     1       6.429 -63.637 -25.196  1.00  0.00    -0.207 F 
ENDBRANCH  24  25
ENDBRANCH  23  24
ENDBRANCH  17  18
ENDBRANCH   1  17
TORSDOF 8
ENDMDL
MODEL 2
REMARK VINA RESULT:   -11.078      1.306      2.438
REMARK INTER + INTRA:         -17.004
REMARK INTER:                 -16.310
REMARK INTRA:                  -0.694
REMARK UNBOUND:                -0.745
REMARK SMILES COc1cc2c(cc1OC)S[C@H](C(=O)CCc1cc[n+](Cc3ccc(F)cc3)cc1)C2
REMARK SMILES IDX 15 1 13 2 14 3 12 4 3 5 4 6 8 7 5 8 7 9 6 10 31 11 11 12
REMARK SMILES IDX 2 13 1 14 9 15 10 16 16 17 17 18 18 19 30 20 19 21 29 22
REMARK SMILES IDX 20 23 21 24 22 25 23 26 28 27 24 28 27 29 25 30 26 31
REMARK H PARENT
ROOT
ATOM      1  C   UNL     1      10.905 -54.521 -22.823  1.00  0.00     0.081 C 
ENDROOT
BRANCH   1   2
ATOM      2  C   UNL     1      10.185 -53.297 -22.272  1.00  0.00     0.146 C 
ATOM      3  O   UNL     1       8.992 -53.357 -21.967  1.00  0.00    -0.298 OA
BRANCH   2   4
ATOM      4  C   UNL     1      11.003 -52.026 -22.109  1.00  0.00     0.123 C 
ATOM      5  C   UNL     1      11.637 -47.389 -23.245  1.00  0.00     0.161 A 
ATOM      6  C   UNL     1      10.775 -48.295 -22.614  1.00  0.00     0.055 A 
ATOM      7  C   UNL     1      12.749 -47.864 -23.982  1.00  0.00     0.161 A 
ATOM      8  C   UNL     1      11.028 -49.659 -22.720  1.00  0.00    -0.029 A 
ATOM      9  C   UNL     1      12.983 -49.240 -24.093  1.00  0.00     0.065 A 
ATOM     10  C   UNL     1      12.114 -50.118 -23.464  1.00  0.00     0.015 A 
ATOM     11  C   UNL     1      10.156 -50.743 -22.149  1.00  0.00     0.059 C 
ATOM     12  S   UNL     1      12.201 -51.884 -23.491  1.00  0.00    -0.114 SA
BRANCH   5  13
ATOM     13  O   UNL     1      11.481 -46.025 -23.212  1.00  0.00    -0.493 OA
ATOM     14  C   UNL     1      10.333 -45.503 -22.560  1.00  0.00     0.278 C 
ENDBRANCH   5  13
BRANCH   7  15
ATOM     15  O   UNL     1      13.531 -46.903 -24.575  1.00  0.00    -0.493 OA
ATOM     16  C   UNL     1      14.288 -47.279 -25.716  1.00  0.00     0.278 C 
ENDBRANCH   7  15
ENDBRANCH   2   4
ENDBRANCH   1   2
BRANCH   1  17
ATOM     17  C   UNL     1      11.133 -55.586 -21.749  1.00  0.00     0.044 C 
BRANCH  17  18
ATOM     18  C   UNL     1      11.287 -56.975 -22.329  1.00  0.00    -0.036 A 
ATOM     19  C   UNL     1      11.700 -57.143 -23.653  1.00  0.00     0.074 A 
ATOM     20  C   UNL     1      11.094 -58.111 -21.545  1.00  0.00     0.074 A 
ATOM     21  C   UNL     1      11.934 -58.419 -24.149  1.00  0.00     0.308 A 
ATOM     22  C   UNL     1      11.338 -59.370 -22.084  1.00  0.00     0.308 A 
ATOM     23  N   UNL     1      11.764 -59.505 -23.362  1.00  0.00    -0.201 N 
BRANCH  23  24
ATOM     24  C   UNL     1      12.047 -60.858 -23.901  1.00  0.00     0.393 C 
BRANCH  24  25
ATOM     25  C   UNL     1      10.784 -61.676 -24.004  1.00  0.00     0.017 A 
ATOM     26  C   UNL     1       9.910 -61.518 -25.094  1.00  0.00     0.013 A 
ATOM     27  C   UNL     1      10.460 -62.609 -23.002  1.00  0.00     0.013 A 
ATOM     28  C   UNL     1       8.745 -62.284 -25.183  1.00  0.00     0.040 A 
ATOM     29  C   UNL     1       9.297 -63.375 -23.099  1.00  0.00     0.040 A 
ATOM     30  C   UNL     1       8.451 -63.207 -24.189  1.00  0.00     0.123 A 
ATOM     31  F   UNL     1       7.340 -63.947 -24.280  1.00  0.00    -0.207 F 
ENDBRANCH  24  25
ENDBRANCH  23  24
ENDBRANCH  17  18
ENDBRANCH   1  17
TORSDOF 8
ENDMDL
MODEL 3
REMARK VINA RESULT:   -11.066      1.175      2.122
REMARK INTER + INTRA:         -16.987
REMARK INTER:                 -16.257
REMARK INTRA:                  -0.730
REMARK UNBOUND:                -0.745
REMARK SMILES COc1cc2c(cc1OC)S[C@H](C(=O)CCc1cc[n+](Cc3ccc(F)cc3)cc1)C2
REMARK SMILES IDX 15 1 13 2 14 3 12 4 3 5 4 6 8 7 5 8 7 9 6 10 31 11 11 12
REMARK SMILES IDX 2 13 1 14 9 15 10 16 16 17 17 18 18 19 30 20 19 21 29 22
REMARK SMILES IDX 20 23 21 24 22 25 23 26 28 27 24 28 27 29 25 30 26 31
REMARK H PARENT
ROOT
ATOM      1  C   UNL     1      10.376 -54.741 -22.782  1.00  0.00     0.081 C 
ENDROOT
BRANCH   1   2
ATOM      2  C   UNL     1      10.499 -53.276 -22.386  1.00  0.00     0.146 C 
ATOM      3  O   UNL     1       9.605 -52.724 -21.739  1.00  0.00    -0.298 OA
BRANCH   2   4
ATOM      4  C   UNL     1      11.763 -52.546 -22.811  1.00  0.00     0.123 C 
ATOM      5  C   UNL     1      13.767 -48.874 -25.197  1.00  0.00     0.161 A 
ATOM      6  C   UNL     1      12.935 -49.209 -24.121  1.00  0.00     0.055 A 
ATOM      7  C   UNL     1      14.184 -49.874 -26.110  1.00  0.00     0.161 A 
ATOM      8  C   UNL     1      12.530 -50.530 -23.962  1.00  0.00    -0.029 A 
ATOM      9  C   UNL     1      13.756 -51.196 -25.946  1.00  0.00     0.065 A 
ATOM     10  C   UNL     1      12.929 -51.504 -24.876  1.00  0.00     0.015 A 
ATOM     11  C   UNL     1      11.591 -51.019 -22.894  1.00  0.00     0.059 C 
ATOM     12  S   UNL     1      12.252 -53.091 -24.493  1.00  0.00    -0.114 SA
BRANCH   5  13
ATOM     13  O   UNL     1      14.224 -47.604 -25.454  1.00  0.00    -0.493 OA
ATOM     14  C   UNL     1      13.305 -46.529 -25.324  1.00  0.00     0.278 C 
ENDBRANCH   5  13
BRANCH   7  15
ATOM     15  O   UNL     1      14.989 -49.450 -27.139  1.00  0.00    -0.493 OA
ATOM     16  C   UNL     1      16.386 -49.673 -27.018  1.00  0.00     0.278 C 
ENDBRANCH   7  15
ENDBRANCH   2   4
ENDBRANCH   1   2
BRANCH   1  17
ATOM     17  C   UNL     1      11.085 -55.666 -21.791  1.00  0.00     0.044 C 
BRANCH  17  18
ATOM     18  C   UNL     1      11.244 -57.074 -22.320  1.00  0.00    -0.036 A 
ATOM     19  C   UNL     1      11.583 -57.291 -23.657  1.00  0.00     0.074 A 
ATOM     20  C   UNL     1      11.131 -58.179 -21.477  1.00  0.00     0.074 A 
ATOM     21  C   UNL     1      11.823 -58.581 -24.112  1.00  0.00     0.308 A 
ATOM     22  C   UNL     1      11.378 -59.454 -21.975  1.00  0.00     0.308 A 
ATOM     23  N   UNL     1      11.731 -59.635 -23.270  1.00  0.00    -0.201 N 
BRANCH  23  24
ATOM     24  C   UNL     1      12.020 -61.002 -23.766  1.00  0.00     0.393 C 
BRANCH  24  25
ATOM     25  C   UNL     1      10.761 -61.831 -23.838  1.00  0.00     0.017 A 
ATOM     26  C   UNL     1      10.419 -62.714 -22.799  1.00  0.00     0.013 A 
ATOM     27  C   UNL     1       9.912 -61.733 -24.956  1.00  0.00     0.013 A 
ATOM     28  C   UNL     1       9.249 -63.473 -22.873  1.00  0.00     0.040 A 
ATOM     29  C   UNL     1       8.742 -62.491 -25.022  1.00  0.00     0.040 A 
ATOM     30  C   UNL     1       8.419 -63.352 -23.980  1.00  0.00     0.123 A 
ATOM     31  F   UNL     1       7.294 -64.072 -24.046  1.00  0.00    -0.207 F 
ENDBRANCH  24  25
ENDBRANCH  23  24
ENDBRANCH  17  18
ENDBRANCH   1  17
TORSDOF 8
ENDMDL
MODEL 4
REMARK VINA RESULT:   -11.029      1.156      1.481
REMARK INTER + INTRA:         -16.932
REMARK INTER:                 -16.382
REMARK INTRA:                  -0.550
REMARK UNBOUND:                -0.745
REMARK SMILES COc1cc2c(cc1OC)S[C@H](C(=O)CCc1cc[n+](Cc3ccc(F)cc3)cc1)C2
REMARK SMILES IDX 15 1 13 2 14 3 12 4 3 5 4 6 8 7 5 8 7 9 6 10 31 11 11 12
REMARK SMILES IDX 2 13 1 14 9 15 10 16 16 17 17 18 18 19 30 20 19 21 29 22
REMARK SMILES IDX 20 23 21 24 22 25 23 26 28 27 24 28 27 29 25 30 26 31
REMARK H PARENT
ROOT
ATOM      1  C   UNL     1      10.993 -54.799 -22.556  1.00  0.00     0.081 C 
ENDROOT
BRANCH   1   2
ATOM      2  C   UNL     1      10.744 -53.456 -21.882  1.00  0.00     0.146 C 
ATOM      3  O   UNL     1      10.553 -53.392 -20.665  1.00  0.00    -0.298 OA
BRANCH   2   4
ATOM      4  C   UNL     1      10.757 -52.221 -22.769  1.00  0.00     0.123 C 
ATOM      5  C   UNL     1      12.771 -47.987 -23.868  1.00  0.00     0.161 A 
ATOM      6  C   UNL     1      12.994 -49.369 -23.811  1.00  0.00     0.055 A 
ATOM      7  C   UNL     1      11.583 -47.438 -23.327  1.00  0.00     0.161 A 
ATOM      8  C   UNL     1      12.035 -50.187 -23.223  1.00  0.00    -0.029 A 
ATOM      9  C   UNL     1      10.634 -48.271 -22.725  1.00  0.00     0.065 A 
ATOM     10  C   UNL     1      10.877 -49.636 -22.676  1.00  0.00     0.015 A 
ATOM     11  C   UNL     1      12.169 -51.674 -23.037  1.00  0.00     0.059 C 
ATOM     12  S   UNL     1       9.837 -50.864 -21.946  1.00  0.00    -0.114 SA
BRANCH   5  13
ATOM     13  O   UNL     1      13.649 -47.086 -24.419  1.00  0.00    -0.493 OA
ATOM     14  C   UNL     1      14.717 -46.618 -23.608  1.00  0.00     0.278 C 
ENDBRANCH   5  13
BRANCH   7  15
ATOM     15  O   UNL     1      11.457 -46.073 -23.419  1.00  0.00    -0.493 OA
ATOM     16  C   UNL     1      11.350 -45.337 -22.209  1.00  0.00     0.278 C 
ENDBRANCH   7  15
ENDBRANCH   2   4
ENDBRANCH   1   2
BRANCH   1  17
ATOM     17  C   UNL     1      11.177 -55.927 -21.539  1.00  0.00     0.044 C 
BRANCH  17  18
ATOM     18  C   UNL     1      11.278 -57.289 -22.192  1.00  0.00    -0.036 A 
ATOM     19  C   UNL     1      11.606 -57.399 -23.545  1.00  0.00     0.074 A 
ATOM     20  C   UNL     1      11.121 -58.459 -21.450  1.00  0.00     0.074 A 
ATOM     21  C   UNL     1      11.793 -58.652 -24.113  1.00  0.00     0.308 A 
ATOM     22  C   UNL     1      11.315 -59.693 -22.060  1.00  0.00     0.308 A 
ATOM     23  N   UNL     1      11.659 -59.772 -23.368  1.00  0.00    -0.201 N 
BRANCH  23  24
ATOM     24  C   UNL     1      11.892 -61.101 -23.985  1.00  0.00     0.393 C 
BRANCH  24  25
ATOM     25  C   UNL     1      10.622 -61.916 -24.013  1.00  0.00     0.017 A 
ATOM     26  C   UNL     1      10.276 -62.746 -22.933  1.00  0.00     0.013 A 
ATOM     27  C   UNL     1       9.768 -61.859 -25.129  1.00  0.00     0.013 A 
ATOM     28  C   UNL     1       9.096 -63.493 -22.966  1.00  0.00     0.040 A 
ATOM     29  C   UNL     1       8.588 -62.604 -25.154  1.00  0.00     0.040 A 
ATOM     30  C   UNL     1       8.261 -63.413 -24.072  1.00  0.00     0.123 A 
ATOM     31  F   UNL     1       7.127 -64.121 -24.099  1.00  0.00    -0.207 F 
ENDBRANCH  24  25
ENDBRANCH  23  24
ENDBRANCH  17  18
ENDBRANCH   1  17
TORSDOF 8
ENDMDL
MODEL 5
REMARK VINA RESULT:    -9.633      1.929      2.346
REMARK INTER + INTRA:         -14.883
REMARK INTER:                 -14.089
REMARK INTRA:                  -0.794
REMARK UNBOUND:                -0.745
REMARK SMILES COc1cc2c(cc1OC)S[C@H](C(=O)CCc1cc[n+](Cc3ccc(F)cc3)cc1)C2
REMARK SMILES IDX 15 1 13 2 14 3 12 4 3 5 4 6 8 7 5 8 7 9 6 10 31 11 11 12
REMARK SMILES IDX 2 13 1 14 9 15 10 16 16 17 17 18 18 19 30 20 19 21 29 22
REMARK SMILES IDX 20 23 21 24 22 25 23 26 28 27 24 28 27 29 25 30 26 31
REMARK H PARENT
ROOT
ATOM      1  C   UNL     1      10.731 -54.282 -22.083  1.00  0.00     0.081 C 
ENDROOT
BRANCH   1   2
ATOM      2  C   UNL     1      10.400 -52.807 -22.271  1.00  0.00     0.146 C 
ATOM      3  O   UNL     1       9.475 -52.288 -21.643  1.00  0.00    -0.298 OA
BRANCH   2   4
ATOM      4  C   UNL     1      11.264 -52.021 -23.245  1.00  0.00     0.123 C 
ATOM      5  C   UNL     1      15.597 -51.300 -25.217  1.00  0.00     0.161 A 
ATOM      6  C   UNL     1      14.548 -52.219 -25.088  1.00  0.00     0.055 A 
ATOM      7  C   UNL     1      15.598 -50.112 -24.447  1.00  0.00     0.161 A 
ATOM      8  C   UNL     1      13.512 -51.946 -24.200  1.00  0.00    -0.029 A 
ATOM      9  C   UNL     1      14.557 -49.858 -23.546  1.00  0.00     0.065 A 
ATOM     10  C   UNL     1      13.531 -50.783 -23.432  1.00  0.00     0.015 A 
ATOM     11  C   UNL     1      12.359 -52.868 -23.915  1.00  0.00     0.059 C 
ATOM     12  S   UNL     1      12.139 -50.681 -22.348  1.00  0.00    -0.114 SA
BRANCH   5  13
ATOM     13  O   UNL     1      16.671 -51.468 -26.057  1.00  0.00    -0.493 OA
ATOM     14  C   UNL     1      17.593 -52.506 -25.757  1.00  0.00     0.278 C 
ENDBRANCH   5  13
BRANCH   7  15
ATOM     15  O   UNL     1      16.673 -49.277 -24.633  1.00  0.00    -0.493 OA
ATOM     16  C   UNL     1      17.673 -49.255 -23.625  1.00  0.00     0.278 C 
ENDBRANCH   7  15
ENDBRANCH   2   4
ENDBRANCH   1   2
BRANCH   1  17
ATOM     17  C   UNL     1       9.564 -55.187 -22.481  1.00  0.00     0.044 C 
BRANCH  17  18
ATOM     18  C   UNL     1      10.014 -56.573 -22.891  1.00  0.00    -0.036 A 
ATOM     19  C   UNL     1      11.362 -56.827 -23.149  1.00  0.00     0.074 A 
ATOM     20  C   UNL     1       9.115 -57.636 -22.950  1.00  0.00     0.074 A 
ATOM     21  C   UNL     1      11.783 -58.121 -23.429  1.00  0.00     0.308 A 
ATOM     22  C   UNL     1       9.579 -58.915 -23.237  1.00  0.00     0.308 A 
ATOM     23  N   UNL     1      10.895 -59.141 -23.457  1.00  0.00    -0.201 N 
BRANCH  23  24
ATOM     24  C   UNL     1      11.367 -60.521 -23.728  1.00  0.00     0.393 C 
BRANCH  24  25
ATOM     25  C   UNL     1      10.333 -61.306 -24.496  1.00  0.00     0.017 A 
ATOM     26  C   UNL     1       9.545 -62.279 -23.856  1.00  0.00     0.013 A 
ATOM     27  C   UNL     1      10.147 -61.078 -25.872  1.00  0.00     0.013 A 
ATOM     28  C   UNL     1       8.586 -62.997 -24.575  1.00  0.00     0.040 A 
ATOM     29  C   UNL     1       9.185 -61.795 -26.584  1.00  0.00     0.040 A 
ATOM     30  C   UNL     1       8.412 -62.747 -25.930  1.00  0.00     0.123 A 
ATOM     31  F   UNL     1       7.487 -63.428 -26.615  1.00  0.00    -0.207 F 
ENDBRANCH  24  25
ENDBRANCH  23  24
ENDBRANCH  17  18
ENDBRANCH   1  17
TORSDOF 8
ENDMDL
MODEL 6
REMARK VINA RESULT:    -9.488      2.220      3.309
REMARK INTER + INTRA:         -14.671
REMARK INTER:                 -13.977
REMARK INTRA:                  -0.694
REMARK UNBOUND:                -0.745
REMARK SMILES COc1cc2c(cc1OC)S[C@H](C(=O)CCc1cc[n+](Cc3ccc(F)cc3)cc1)C2
REMARK SMILES IDX 15 1 13 2 14 3 12 4 3 5 4 6 8 7 5 8 7 9 6 10 31 11 11 12
REMARK SMILES IDX 2 13 1 14 9 15 10 16 16 17 17 18 18 19 30 20 19 21 29 22
REMARK SMILES IDX 20 23 21 24 22 25 23 26 28 27 24 28 27 29 25 30 26 31
REMARK H PARENT
ROOT
ATOM      1  C   UNL     1      10.762 -53.794 -22.663  1.00  0.00     0.081 C 
ENDROOT
BRANCH   1   2
ATOM      2  C   UNL     1      10.072 -52.490 -22.285  1.00  0.00     0.146 C 
ATOM      3  O   UNL     1       8.849 -52.450 -22.133  1.00  0.00    -0.298 OA
BRANCH   2   4
ATOM      4  C   UNL     1      10.956 -51.267 -22.094  1.00  0.00     0.123 C 
ATOM      5  C   UNL     1      11.867 -46.663 -23.173  1.00  0.00     0.161 A 
ATOM      6  C   UNL     1      10.944 -47.525 -22.567  1.00  0.00     0.055 A 
ATOM      7  C   UNL     1      12.965 -47.193 -23.894  1.00  0.00     0.161 A 
ATOM      8  C   UNL     1      11.124 -48.900 -22.681  1.00  0.00    -0.029 A 
ATOM      9  C   UNL     1      13.124 -48.578 -24.014  1.00  0.00     0.065 A 
ATOM     10  C   UNL     1      12.196 -49.413 -23.410  1.00  0.00     0.015 A 
ATOM     11  C   UNL     1      10.182 -49.939 -22.137  1.00  0.00     0.059 C 
ATOM     12  S   UNL     1      12.186 -51.180 -23.452  1.00  0.00    -0.114 SA
BRANCH   5  13
ATOM     13  O   UNL     1      11.787 -45.293 -23.129  1.00  0.00    -0.493 OA
ATOM     14  C   UNL     1      10.878 -44.652 -24.013  1.00  0.00     0.278 C 
ENDBRANCH   5  13
BRANCH   7  15
ATOM     15  O   UNL     1      13.810 -46.272 -24.463  1.00  0.00    -0.493 OA
ATOM     16  C   UNL     1      13.955 -46.293 -25.875  1.00  0.00     0.278 C 
ENDBRANCH   7  15
ENDBRANCH   2   4
ENDBRANCH   1   2
BRANCH   1  17
ATOM     17  C   UNL     1      10.576 -54.874 -21.596  1.00  0.00     0.044 C 
BRANCH  17  18
ATOM     18  C   UNL     1      10.570 -56.271 -22.175  1.00  0.00    -0.036 A 
ATOM     19  C   UNL     1      11.517 -57.210 -21.761  1.00  0.00     0.074 A 
ATOM     20  C   UNL     1       9.584 -56.676 -23.074  1.00  0.00     0.074 A 
ATOM     21  C   UNL     1      11.445 -58.518 -22.223  1.00  0.00     0.308 A 
ATOM     22  C   UNL     1       9.551 -57.995 -23.512  1.00  0.00     0.308 A 
ATOM     23  N   UNL     1      10.465 -58.893 -23.076  1.00  0.00    -0.201 N 
BRANCH  23  24
ATOM     24  C   UNL     1      10.387 -60.301 -23.535  1.00  0.00     0.393 C 
BRANCH  24  25
ATOM     25  C   UNL     1      10.483 -60.387 -25.038  1.00  0.00     0.017 A 
ATOM     26  C   UNL     1      11.529 -59.753 -25.731  1.00  0.00     0.013 A 
ATOM     27  C   UNL     1       9.518 -61.103 -25.770  1.00  0.00     0.013 A 
ATOM     28  C   UNL     1      11.612 -59.843 -27.123  1.00  0.00     0.040 A 
ATOM     29  C   UNL     1       9.609 -61.193 -27.160  1.00  0.00     0.040 A 
ATOM     30  C   UNL     1      10.655 -60.564 -27.824  1.00  0.00     0.123 A 
ATOM     31  F   UNL     1      10.741 -60.658 -29.156  1.00  0.00    -0.207 F 
ENDBRANCH  24  25
ENDBRANCH  23  24
ENDBRANCH  17  18
ENDBRANCH   1  17
TORSDOF 8
ENDMDL
MODEL 7
REMARK VINA RESULT:    -9.476      1.833      3.297
REMARK INTER + INTRA:         -14.653
REMARK INTER:                 -13.862
REMARK INTRA:                  -0.790
REMARK UNBOUND:                -0.745
REMARK SMILES COc1cc2c(cc1OC)S[C@H](C(=O)CCc1cc[n+](Cc3ccc(F)cc3)cc1)C2
REMARK SMILES IDX 15 1 13 2 14 3 12 4 3 5 4 6 8 7 5 8 7 9 6 10 31 11 11 12
REMARK SMILES IDX 2 13 1 14 9 15 10 16 16 17 17 18 18 19 30 20 19 21 29 22
REMARK SMILES IDX 20 23 21 24 22 25 23 26 28 27 24 28 27 29 25 30 26 31
REMARK H PARENT
ROOT
ATOM      1  C   UNL     1      11.572 -52.991 -22.791  1.00  0.00     0.081 C 
ENDROOT
BRANCH   1   2
ATOM      2  C   UNL     1      10.671 -51.868 -22.296  1.00  0.00     0.146 C 
ATOM      3  O   UNL     1       9.503 -52.097 -21.974  1.00  0.00    -0.298 OA
BRANCH   2   4
ATOM      4  C   UNL     1      11.280 -50.477 -22.209  1.00  0.00     0.123 C 
ATOM      5  C   UNL     1      11.358 -45.932 -23.799  1.00  0.00     0.161 A 
ATOM      6  C   UNL     1      10.576 -46.892 -23.145  1.00  0.00     0.055 A 
ATOM      7  C   UNL     1      12.593 -46.304 -24.384  1.00  0.00     0.161 A 
ATOM      8  C   UNL     1      11.029 -48.205 -23.076  1.00  0.00    -0.029 A 
ATOM      9  C   UNL     1      13.030 -47.632 -24.321  1.00  0.00     0.065 A 
ATOM     10  C   UNL     1      12.236 -48.566 -23.672  1.00  0.00     0.015 A 
ATOM     11  C   UNL     1      10.267 -49.347 -22.462  1.00  0.00     0.059 C 
ATOM     12  S   UNL     1      12.575 -50.292 -23.494  1.00  0.00    -0.114 SA
BRANCH   5  13
ATOM     13  O   UNL     1      11.008 -44.611 -23.932  1.00  0.00    -0.493 OA
ATOM     14  C   UNL     1      10.821 -43.851 -22.746  1.00  0.00     0.278 C 
ENDBRANCH   5  13
BRANCH   7  15
ATOM     15  O   UNL     1      13.286 -45.298 -25.014  1.00  0.00    -0.493 OA
ATOM     16  C   UNL     1      13.672 -45.507 -26.364  1.00  0.00     0.278 C 
ENDBRANCH   7  15
ENDBRANCH   2   4
ENDBRANCH   1   2
BRANCH   1  17
ATOM     17  C   UNL     1      10.834 -53.948 -23.729  1.00  0.00     0.044 C 
BRANCH  17  18
ATOM     18  C   UNL     1      11.094 -55.402 -23.401  1.00  0.00    -0.036 A 
ATOM     19  C   UNL     1      11.712 -56.236 -24.335  1.00  0.00     0.074 A 
ATOM     20  C   UNL     1      10.792 -55.924 -22.144  1.00  0.00     0.074 A 
ATOM     21  C   UNL     1      12.036 -57.542 -23.991  1.00  0.00     0.308 A 
ATOM     22  C   UNL     1      11.131 -57.238 -21.843  1.00  0.00     0.308 A 
ATOM     23  N   UNL     1      11.755 -58.018 -22.757  1.00  0.00    -0.201 N 
BRANCH  23  24
ATOM     24  C   UNL     1      12.135 -59.407 -22.399  1.00  0.00     0.393 C 
BRANCH  24  25
ATOM     25  C   UNL     1      11.084 -60.390 -22.852  1.00  0.00     0.017 A 
ATOM     26  C   UNL     1      11.206 -61.057 -24.084  1.00  0.00     0.013 A 
ATOM     27  C   UNL     1       9.961 -60.649 -22.046  1.00  0.00     0.013 A 
ATOM     28  C   UNL     1      10.230 -61.970 -24.492  1.00  0.00     0.040 A 
ATOM     29  C   UNL     1       8.992 -61.566 -22.457  1.00  0.00     0.040 A 
ATOM     30  C   UNL     1       9.136 -62.219 -23.675  1.00  0.00     0.123 A 
ATOM     31  F   UNL     1       8.207 -63.101 -24.063  1.00  0.00    -0.207 F 
ENDBRANCH  24  25
ENDBRANCH  23  24
ENDBRANCH  17  18
ENDBRANCH   1  17
TORSDOF 8
ENDMDL
MODEL 8
REMARK VINA RESULT:    -9.264      3.374      5.845
REMARK INTER + INTRA:         -14.341
REMARK INTER:                 -13.415
REMARK INTRA:                  -0.926
REMARK UNBOUND:                -0.745
REMARK SMILES COc1cc2c(cc1OC)S[C@H](C(=O)CCc1cc[n+](Cc3ccc(F)cc3)cc1)C2
REMARK SMILES IDX 15 1 13 2 14 3 12 4 3 5 4 6 8 7 5 8 7 9 6 10 31 11 11 12
REMARK SMILES IDX 2 13 1 14 9 15 10 16 16 17 17 18 18 19 30 20 19 21 29 22
REMARK SMILES IDX 20 23 21 24 22 25 23 26 28 27 24 28 27 29 25 30 26 31
REMARK H PARENT
ROOT
ATOM      1  C   UNL     1      15.141 -51.735 -25.263  1.00  0.00     0.081 C 
ENDROOT
BRANCH   1   2
ATOM      2  C   UNL     1      15.710 -50.427 -25.795  1.00  0.00     0.146 C 
ATOM      3  O   UNL     1      16.425 -50.417 -26.800  1.00  0.00    -0.298 OA
BRANCH   2   4
ATOM      4  C   UNL     1      15.346 -49.155 -25.044  1.00  0.00     0.123 C 
ATOM      5  C   UNL     1      13.136 -47.106 -21.288  1.00  0.00     0.161 A 
ATOM      6  C   UNL     1      14.175 -47.968 -21.661  1.00  0.00     0.055 A 
ATOM      7  C   UNL     1      12.206 -46.655 -22.257  1.00  0.00     0.161 A 
ATOM      8  C   UNL     1      14.281 -48.368 -22.990  1.00  0.00    -0.029 A 
ATOM      9  C   UNL     1      12.316 -47.078 -23.586  1.00  0.00     0.065 A 
ATOM     10  C   UNL     1      13.350 -47.935 -23.932  1.00  0.00     0.015 A 
ATOM     11  C   UNL     1      15.305 -49.335 -23.517  1.00  0.00     0.059 C 
ATOM     12  S   UNL     1      13.664 -48.612 -25.535  1.00  0.00    -0.114 SA
BRANCH   5  13
ATOM     13  O   UNL     1      12.933 -46.651 -20.008  1.00  0.00    -0.493 OA
ATOM     14  C   UNL     1      13.981 -46.825 -19.067  1.00  0.00     0.278 C 
ENDBRANCH   5  13
BRANCH   7  15
ATOM     15  O   UNL     1      11.216 -45.822 -21.796  1.00  0.00    -0.493 OA
ATOM     16  C   UNL     1      11.123 -44.527 -22.371  1.00  0.00     0.278 C 
ENDBRANCH   7  15
ENDBRANCH   2   4
ENDBRANCH   1   2
BRANCH   1  17
ATOM     17  C   UNL     1      13.805 -52.089 -25.918  1.00  0.00     0.044 C 
BRANCH  17  18
ATOM     18  C   UNL     1      12.864 -52.807 -24.974  1.00  0.00    -0.036 A 
ATOM     19  C   UNL     1      12.380 -52.159 -23.836  1.00  0.00     0.074 A 
ATOM     20  C   UNL     1      12.405 -54.093 -25.252  1.00  0.00     0.074 A 
ATOM     21  C   UNL     1      11.442 -52.788 -23.027  1.00  0.00     0.308 A 
ATOM     22  C   UNL     1      11.467 -54.685 -24.414  1.00  0.00     0.308 A 
ATOM     23  N   UNL     1      10.993 -54.026 -23.330  1.00  0.00    -0.201 N 
BRANCH  23  24
ATOM     24  C   UNL     1       9.969 -54.669 -22.471  1.00  0.00     0.393 C 
BRANCH  24  25
ATOM     25  C   UNL     1      10.129 -56.170 -22.467  1.00  0.00     0.017 A 
ATOM     26  C   UNL     1       9.203 -56.995 -23.129  1.00  0.00     0.013 A 
ATOM     27  C   UNL     1      11.210 -56.765 -21.793  1.00  0.00     0.013 A 
ATOM     28  C   UNL     1       9.363 -58.383 -23.124  1.00  0.00     0.040 A 
ATOM     29  C   UNL     1      11.367 -58.152 -21.795  1.00  0.00     0.040 A 
ATOM     30  C   UNL     1      10.444 -58.948 -22.461  1.00  0.00     0.123 A 
ATOM     31  F   UNL     1      10.602 -60.277 -22.465  1.00  0.00    -0.207 F 
ENDBRANCH  24  25
ENDBRANCH  23  24
ENDBRANCH  17  18
ENDBRANCH   1  17
TORSDOF 8
ENDMDL
MODEL 9
REMARK VINA RESULT:    -8.868      3.546      6.117
REMARK INTER + INTRA:         -13.760
REMARK INTER:                 -12.964
REMARK INTRA:                  -0.797
REMARK UNBOUND:                -0.745
REMARK SMILES COc1cc2c(cc1OC)S[C@H](C(=O)CCc1cc[n+](Cc3ccc(F)cc3)cc1)C2
REMARK SMILES IDX 15 1 13 2 14 3 12 4 3 5 4 6 8 7 5 8 7 9 6 10 31 11 11 12
REMARK SMILES IDX 2 13 1 14 9 15 10 16 16 17 17 18 18 19 30 20 19 21 29 22
REMARK SMILES IDX 20 23 21 24 22 25 23 26 28 27 24 28 27 29 25 30 26 31
REMARK H PARENT
ROOT
ATOM      1  C   UNL     1      13.730 -50.594 -25.801  1.00  0.00     0.081 C 
ENDROOT
BRANCH   1   2
ATOM      2  C   UNL     1      14.953 -49.991 -25.124  1.00  0.00     0.146 C 
ATOM      3  O   UNL     1      15.979 -50.659 -24.974  1.00  0.00    -0.298 OA
BRANCH   2   4
ATOM      4  C   UNL     1      14.849 -48.546 -24.663  1.00  0.00     0.123 C 
ATOM      5  C   UNL     1      12.329 -44.443 -24.583  1.00  0.00     0.161 A 
ATOM      6  C   UNL     1      12.326 -45.784 -24.181  1.00  0.00     0.055 A 
ATOM      7  C   UNL     1      13.341 -43.965 -25.452  1.00  0.00     0.161 A 
ATOM      8  C   UNL     1      13.326 -46.634 -24.643  1.00  0.00    -0.029 A 
ATOM      9  C   UNL     1      14.332 -44.835 -25.921  1.00  0.00     0.065 A 
ATOM     10  C   UNL     1      14.306 -46.160 -25.513  1.00  0.00     0.015 A 
ATOM     11  C   UNL     1      13.410 -48.105 -24.345  1.00  0.00     0.059 C 
ATOM     12  S   UNL     1      15.435 -47.431 -25.998  1.00  0.00    -0.114 SA
BRANCH   5  13
ATOM     13  O   UNL     1      11.391 -43.518 -24.194  1.00  0.00    -0.493 OA
ATOM     14  C   UNL     1      10.283 -43.976 -23.432  1.00  0.00     0.278 C 
ENDBRANCH   5  13
BRANCH   7  15
ATOM     15  O   UNL     1      13.256 -42.639 -25.800  1.00  0.00    -0.493 OA
ATOM     16  C   UNL     1      14.468 -41.951 -26.075  1.00  0.00     0.278 C 
ENDBRANCH   7  15
ENDBRANCH   2   4
ENDBRANCH   1   2
BRANCH   1  17
ATOM     17  C   UNL     1      13.832 -52.116 -25.923  1.00  0.00     0.044 C 
BRANCH  17  18
ATOM     18  C   UNL     1      12.876 -52.840 -25.000  1.00  0.00    -0.036 A 
ATOM     19  C   UNL     1      12.364 -52.196 -23.871  1.00  0.00     0.074 A 
ATOM     20  C   UNL     1      12.430 -54.128 -25.288  1.00  0.00     0.074 A 
ATOM     21  C   UNL     1      11.412 -52.831 -23.083  1.00  0.00     0.308 A 
ATOM     22  C   UNL     1      11.478 -54.727 -24.470  1.00  0.00     0.308 A 
ATOM     23  N   UNL     1      10.977 -54.072 -23.397  1.00  0.00    -0.201 N 
BRANCH  23  24
ATOM     24  C   UNL     1       9.939 -54.722 -22.560  1.00  0.00     0.393 C 
BRANCH  24  25
ATOM     25  C   UNL     1      10.203 -56.201 -22.420  1.00  0.00     0.017 A 
ATOM     26  C   UNL     1      11.257 -56.672 -21.617  1.00  0.00     0.013 A 
ATOM     27  C   UNL     1       9.398 -57.132 -23.100  1.00  0.00     0.013 A 
ATOM     28  C   UNL     1      11.490 -58.043 -21.490  1.00  0.00     0.040 A 
ATOM     29  C   UNL     1       9.633 -58.501 -22.966  1.00  0.00     0.040 A 
ATOM     30  C   UNL     1      10.675 -58.945 -22.161  1.00  0.00     0.123 A 
ATOM     31  F   UNL     1      10.894 -60.259 -22.031  1.00  0.00    -0.207 F 
ENDBRANCH  24  25
ENDBRANCH  23  24
ENDBRANCH  17  18
ENDBRANCH   1  17
TORSDOF 8
ENDMDL
