MODEL 1
REMARK VINA RESULT:   -10.689      0.000      0.000
REMARK INTER + INTRA:         -16.627
REMARK INTER:                 -14.439
REMARK INTRA:                  -2.188
REMARK UNBOUND:                -2.188
REMARK SMILES O=C(NCCCNc1c2c(nc3ccccc13)CCCC2)c1ccc(F)cc1
REMARK SMILES IDX 5 1 6 2 7 3 8 5 9 6 17 7 10 8 21 9 16 10 12 11 11 12 18 13
REMARK SMILES IDX 20 14 15 15 13 16 19 17 14 18 4 19 3 20 2 21 1 23 22 24
REMARK SMILES IDX 23 25 28 26 24 27 27 28 25 29 26 30
REMARK H PARENT 7 4 3 22
ROOT
ATOM      1  C   UNL     1      12.094 -59.704 -27.380  1.00  0.00     0.042 C 
ENDROOT
BRANCH   1   2
ATOM      2  C   UNL     1      12.145 -58.371 -26.632  1.00  0.00     0.115 C 
BRANCH   2   3
ATOM      3  N   UNL     1      12.883 -58.518 -25.372  1.00  0.00    -0.384 N 
ATOM      4  H   UNL     1      13.711 -57.912 -25.404  1.00  0.00     0.160 HD
BRANCH   3   5
ATOM      5  C   UNL     1      12.074 -58.194 -24.245  1.00  0.00     0.049 A 
ATOM      6  C   UNL     1      11.662 -59.169 -23.325  1.00  0.00    -0.003 A 
ATOM      7  C   UNL     1      11.771 -56.829 -23.983  1.00  0.00     0.024 A 
ATOM      8  C   UNL     1      10.975 -58.740 -22.186  1.00  0.00     0.046 A 
ATOM      9  C   UNL     1      11.960 -60.641 -23.424  1.00  0.00     0.039 C 
ATOM     10  C   UNL     1      12.132 -55.773 -24.854  1.00  0.00     0.012 A 
ATOM     11  C   UNL     1      11.065 -56.518 -22.802  1.00  0.00     0.073 A 
ATOM     12  N   UNL     1      10.680 -57.450 -21.919  1.00  0.00    -0.252 NA
ATOM     13  C   UNL     1      10.573 -59.767 -21.159  1.00  0.00     0.056 C 
ATOM     14  C   UNL     1      10.750 -61.499 -23.040  1.00  0.00     0.005 C 
ATOM     15  C   UNL     1      11.814 -54.448 -24.562  1.00  0.00     0.001 A 
ATOM     16  C   UNL     1      10.758 -55.191 -22.531  1.00  0.00     0.029 A 
ATOM     17  C   UNL     1       9.952 -60.985 -21.836  1.00  0.00     0.007 C 
ATOM     18  C   UNL     1      11.125 -54.155 -23.394  1.00  0.00     0.002 A 
ENDBRANCH   3   5
ENDBRANCH   2   3
ENDBRANCH   1   2
BRANCH   1  19
ATOM     19  C   UNL     1      10.694 -60.263 -27.616  1.00  0.00     0.118 C 
BRANCH  19  20
ATOM     20  N   UNL     1       9.729 -59.801 -26.636  1.00  0.00    -0.352 N 
ATOM     21  C   UNL     1       9.007 -60.687 -25.865  1.00  0.00     0.251 C 
ATOM     22  H   UNL     1       9.743 -58.820 -26.391  1.00  0.00     0.163 HD
ATOM     23  O   UNL     1       9.089 -61.905 -25.982  1.00  0.00    -0.269 OA
BRANCH  21  24
ATOM     24  C   UNL     1       8.104 -60.098 -24.839  1.00  0.00     0.040 A 
ATOM     25  C   UNL     1       8.217 -58.725 -24.565  1.00  0.00     0.017 A 
ATOM     26  C   UNL     1       7.180 -60.874 -24.123  1.00  0.00     0.017 A 
ATOM     27  C   UNL     1       7.396 -58.130 -23.605  1.00  0.00     0.040 A 
ATOM     28  C   UNL     1       6.362 -60.274 -23.162  1.00  0.00     0.040 A 
ATOM     29  C   UNL     1       6.475 -58.909 -22.915  1.00  0.00     0.123 A 
ATOM     30  F   UNL     1       5.689 -58.341 -21.992  1.00  0.00    -0.207 F 
ENDBRANCH  21  24
ENDBRANCH  19  20
ENDBRANCH   1  19
TORSDOF 6
ENDMDL
MODEL 2
REMARK VINA RESULT:   -10.297      2.763      6.775
REMARK INTER + INTRA:         -16.097
REMARK INTER:                 -15.094
REMARK INTRA:                  -1.002
REMARK UNBOUND:                -2.188
REMARK SMILES O=C(NCCCNc1c2c(nc3ccccc13)CCCC2)c1ccc(F)cc1
REMARK SMILES IDX 5 1 6 2 7 3 8 5 9 6 17 7 10 8 21 9 16 10 12 11 11 12 18 13
REMARK SMILES IDX 20 14 15 15 13 16 19 17 14 18 4 19 3 20 2 21 1 23 22 24
REMARK SMILES IDX 23 25 28 26 24 27 27 28 25 29 26 30
REMARK H PARENT 7 4 3 22
ROOT
ATOM      1  C   UNL     1      12.155 -59.718 -22.660  1.00  0.00     0.042 C 
ENDROOT
BRANCH   1   2
ATOM      2  C   UNL     1      11.696 -60.474 -23.907  1.00  0.00     0.115 C 
BRANCH   2   3
ATOM      3  N   UNL     1      10.602 -59.753 -24.570  1.00  0.00    -0.384 N 
ATOM      4  H   UNL     1      10.825 -58.750 -24.573  1.00  0.00     0.160 HD
BRANCH   3   5
ATOM      5  C   UNL     1      10.391 -60.218 -25.900  1.00  0.00     0.049 A 
ATOM      6  C   UNL     1      11.153 -59.746 -26.978  1.00  0.00    -0.003 A 
ATOM      7  C   UNL     1       9.461 -61.272 -26.122  1.00  0.00     0.024 A 
ATOM      8  C   UNL     1      10.960 -60.348 -28.225  1.00  0.00     0.046 A 
ATOM      9  C   UNL     1      12.219 -58.687 -26.893  1.00  0.00     0.039 C 
ATOM     10  C   UNL     1       8.639 -61.809 -25.103  1.00  0.00     0.012 A 
ATOM     11  C   UNL     1       9.349 -61.795 -27.427  1.00  0.00     0.073 A 
ATOM     12  N   UNL     1      10.084 -61.350 -28.456  1.00  0.00    -0.252 NA
ATOM     13  C   UNL     1      11.808 -59.892 -29.384  1.00  0.00     0.056 C 
ATOM     14  C   UNL     1      12.158 -57.715 -28.077  1.00  0.00     0.005 C 
ATOM     15  C   UNL     1       7.738 -62.840 -25.364  1.00  0.00     0.001 A 
ATOM     16  C   UNL     1       8.445 -62.823 -27.664  1.00  0.00     0.029 A 
ATOM     17  C   UNL     1      11.870 -58.369 -29.434  1.00  0.00     0.007 C 
ATOM     18  C   UNL     1       7.642 -63.351 -26.650  1.00  0.00     0.002 A 
ENDBRANCH   3   5
ENDBRANCH   2   3
ENDBRANCH   1   2
BRANCH   1  19
ATOM     19  C   UNL     1      11.070 -58.915 -21.950  1.00  0.00     0.118 C 
BRANCH  19  20
ATOM     20  N   UNL     1      11.295 -57.483 -22.012  1.00  0.00    -0.352 N 
ATOM     21  C   UNL     1      10.481 -56.658 -22.760  1.00  0.00     0.251 C 
ATOM     22  H   UNL     1      11.933 -57.079 -21.339  1.00  0.00     0.163 HD
ATOM     23  O   UNL     1       9.557 -57.071 -23.452  1.00  0.00    -0.269 OA
BRANCH  21  24
ATOM     24  C   UNL     1      10.760 -55.198 -22.685  1.00  0.00     0.040 A 
ATOM     25  C   UNL     1      11.348 -54.577 -23.799  1.00  0.00     0.017 A 
ATOM     26  C   UNL     1      10.486 -54.444 -21.534  1.00  0.00     0.017 A 
ATOM     27  C   UNL     1      11.634 -53.211 -23.771  1.00  0.00     0.040 A 
ATOM     28  C   UNL     1      10.776 -53.077 -21.511  1.00  0.00     0.040 A 
ATOM     29  C   UNL     1      11.343 -52.474 -22.630  1.00  0.00     0.123 A 
ATOM     30  F   UNL     1      11.621 -51.164 -22.600  1.00  0.00    -0.207 F 
ENDBRANCH  21  24
ENDBRANCH  19  20
ENDBRANCH   1  19
TORSDOF 6
ENDMDL
MODEL 3
REMARK VINA RESULT:   -10.148      3.209      6.365
REMARK INTER + INTRA:         -15.896
REMARK INTER:                 -15.398
REMARK INTRA:                  -0.498
REMARK UNBOUND:                -2.188
REMARK SMILES O=C(NCCCNc1c2c(nc3ccccc13)CCCC2)c1ccc(F)cc1
REMARK SMILES IDX 5 1 6 2 7 3 8 5 9 6 17 7 10 8 21 9 16 10 12 11 11 12 18 13
REMARK SMILES IDX 20 14 15 15 13 16 19 17 14 18 4 19 3 20 2 21 1 23 22 24
REMARK SMILES IDX 23 25 28 26 24 27 27 28 25 29 26 30
REMARK H PARENT 7 4 3 22
ROOT
ATOM      1  C   UNL     1      11.192 -58.663 -22.284  1.00  0.00     0.042 C 
ENDROOT
BRANCH   1   2
ATOM      2  C   UNL     1      12.149 -59.109 -23.392  1.00  0.00     0.115 C 
BRANCH   2   3
ATOM      3  N   UNL     1      12.158 -60.573 -23.502  1.00  0.00    -0.384 N 
ATOM      4  H   UNL     1      12.013 -60.973 -22.568  1.00  0.00     0.160 HD
BRANCH   3   5
ATOM      5  C   UNL     1      11.159 -61.041 -24.404  1.00  0.00     0.049 A 
ATOM      6  C   UNL     1      10.023 -61.729 -23.956  1.00  0.00    -0.003 A 
ATOM      7  C   UNL     1      11.260 -60.702 -25.782  1.00  0.00     0.024 A 
ATOM      8  C   UNL     1       9.038 -62.042 -24.897  1.00  0.00     0.046 A 
ATOM      9  C   UNL     1       9.738 -62.101 -22.526  1.00  0.00     0.039 C 
ATOM     10  C   UNL     1      12.371 -60.019 -26.334  1.00  0.00     0.012 A 
ATOM     11  C   UNL     1      10.205 -61.078 -26.639  1.00  0.00     0.073 A 
ATOM     12  N   UNL     1       9.114 -61.728 -26.208  1.00  0.00    -0.252 NA
ATOM     13  C   UNL     1       7.784 -62.733 -24.425  1.00  0.00     0.056 C 
ATOM     14  C   UNL     1       9.155 -63.513 -22.405  1.00  0.00     0.005 C 
ATOM     15  C   UNL     1      12.432 -59.708 -27.691  1.00  0.00     0.001 A 
ATOM     16  C   UNL     1      10.287 -60.757 -27.988  1.00  0.00     0.029 A 
ATOM     17  C   UNL     1       8.130 -63.882 -23.484  1.00  0.00     0.007 C 
ATOM     18  C   UNL     1      11.384 -60.077 -28.522  1.00  0.00     0.002 A 
ENDBRANCH   3   5
ENDBRANCH   2   3
ENDBRANCH   1   2
BRANCH   1  19
ATOM     19  C   UNL     1      10.265 -57.509 -22.652  1.00  0.00     0.118 C 
BRANCH  19  20
ATOM     20  N   UNL     1      10.944 -56.445 -23.368  1.00  0.00    -0.352 N 
ATOM     21  C   UNL     1      10.687 -55.118 -23.097  1.00  0.00     0.251 C 
ATOM     22  H   UNL     1      11.750 -56.695 -23.925  1.00  0.00     0.163 HD
ATOM     23  O   UNL     1       9.849 -54.746 -22.283  1.00  0.00    -0.269 OA
BRANCH  21  24
ATOM     24  C   UNL     1      11.500 -54.115 -23.838  1.00  0.00     0.040 A 
ATOM     25  C   UNL     1      12.110 -54.512 -25.039  1.00  0.00     0.017 A 
ATOM     26  C   UNL     1      11.698 -52.812 -23.357  1.00  0.00     0.017 A 
ATOM     27  C   UNL     1      12.888 -53.608 -25.764  1.00  0.00     0.040 A 
ATOM     28  C   UNL     1      12.479 -51.911 -24.086  1.00  0.00     0.040 A 
ATOM     29  C   UNL     1      13.062 -52.316 -25.283  1.00  0.00     0.123 A 
ATOM     30  F   UNL     1      13.811 -51.448 -25.975  1.00  0.00    -0.207 F 
ENDBRANCH  21  24
ENDBRANCH  19  20
ENDBRANCH   1  19
TORSDOF 6
ENDMDL
MODEL 4
REMARK VINA RESULT:   -10.140      3.150      6.975
REMARK INTER + INTRA:         -15.885
REMARK INTER:                 -15.129
REMARK INTRA:                  -0.756
REMARK UNBOUND:                -2.188
REMARK SMILES O=C(NCCCNc1c2c(nc3ccccc13)CCCC2)c1ccc(F)cc1
REMARK SMILES IDX 5 1 6 2 7 3 8 5 9 6 17 7 10 8 21 9 16 10 12 11 11 12 18 13
REMARK SMILES IDX 20 14 15 15 13 16 19 17 14 18 4 19 3 20 2 21 1 23 22 24
REMARK SMILES IDX 23 25 28 26 24 27 27 28 25 29 26 30
REMARK H PARENT 7 4 3 22
ROOT
ATOM      1  C   UNL     1      11.188 -59.070 -22.235  1.00  0.00     0.042 C 
ENDROOT
BRANCH   1   2
ATOM      2  C   UNL     1      10.645 -60.497 -22.144  1.00  0.00     0.115 C 
BRANCH   2   3
ATOM      3  N   UNL     1      11.331 -61.369 -23.106  1.00  0.00    -0.384 N 
ATOM      4  H   UNL     1      11.435 -62.301 -22.688  1.00  0.00     0.160 HD
BRANCH   3   5
ATOM      5  C   UNL     1      10.625 -61.453 -24.341  1.00  0.00     0.049 A 
ATOM      6  C   UNL     1      11.110 -60.856 -25.513  1.00  0.00    -0.003 A 
ATOM      7  C   UNL     1       9.456 -62.261 -24.412  1.00  0.00     0.024 A 
ATOM      8  C   UNL     1      10.414 -61.095 -26.701  1.00  0.00     0.046 A 
ATOM      9  C   UNL     1      12.364 -60.031 -25.615  1.00  0.00     0.039 C 
ATOM     10  C   UNL     1       8.881 -62.897 -23.285  1.00  0.00     0.012 A 
ATOM     11  C   UNL     1       8.834 -62.423 -25.668  1.00  0.00     0.073 A 
ATOM     12  N   UNL     1       9.303 -61.859 -26.790  1.00  0.00    -0.252 NA
ATOM     13  C   UNL     1      10.950 -60.506 -27.981  1.00  0.00     0.056 C 
ATOM     14  C   UNL     1      12.171 -58.801 -26.508  1.00  0.00     0.005 C 
ATOM     15  C   UNL     1       7.733 -63.678 -23.397  1.00  0.00     0.001 A 
ATOM     16  C   UNL     1       7.690 -63.206 -25.757  1.00  0.00     0.029 A 
ATOM     17  C   UNL     1      11.342 -59.047 -27.774  1.00  0.00     0.007 C 
ATOM     18  C   UNL     1       7.135 -63.834 -24.639  1.00  0.00     0.002 A 
ENDBRANCH   3   5
ENDBRANCH   2   3
ENDBRANCH   1   2
BRANCH   1  19
ATOM     19  C   UNL     1      10.219 -58.042 -22.811  1.00  0.00     0.118 C 
BRANCH  19  20
ATOM     20  N   UNL     1      10.893 -56.901 -23.402  1.00  0.00    -0.352 N 
ATOM     21  C   UNL     1      10.496 -55.609 -23.126  1.00  0.00     0.251 C 
ATOM     22  H   UNL     1      11.780 -57.065 -23.858  1.00  0.00     0.163 HD
ATOM     23  O   UNL     1       9.535 -55.336 -22.416  1.00  0.00    -0.269 OA
BRANCH  21  24
ATOM     24  C   UNL     1      11.310 -54.518 -23.728  1.00  0.00     0.040 A 
ATOM     25  C   UNL     1      11.334 -53.273 -23.078  1.00  0.00     0.017 A 
ATOM     26  C   UNL     1      12.016 -54.688 -24.928  1.00  0.00     0.017 A 
ATOM     27  C   UNL     1      12.078 -52.218 -23.610  1.00  0.00     0.040 A 
ATOM     28  C   UNL     1      12.757 -53.628 -25.457  1.00  0.00     0.040 A 
ATOM     29  C   UNL     1      12.784 -52.406 -24.792  1.00  0.00     0.123 A 
ATOM     30  F   UNL     1      13.495 -51.394 -25.305  1.00  0.00    -0.207 F 
ENDBRANCH  21  24
ENDBRANCH  19  20
ENDBRANCH   1  19
TORSDOF 6
ENDMDL
MODEL 5
REMARK VINA RESULT:    -9.697      5.080      8.591
REMARK INTER + INTRA:         -15.286
REMARK INTER:                 -14.647
REMARK INTRA:                  -0.639
REMARK UNBOUND:                -2.188
REMARK SMILES O=C(NCCCNc1c2c(nc3ccccc13)CCCC2)c1ccc(F)cc1
REMARK SMILES IDX 5 1 6 2 7 3 8 5 9 6 17 7 10 8 21 9 16 10 12 11 11 12 18 13
REMARK SMILES IDX 20 14 15 15 13 16 19 17 14 18 4 19 3 20 2 21 1 23 22 24
REMARK SMILES IDX 23 25 28 26 24 27 27 28 25 29 26 30
REMARK H PARENT 7 4 3 22
ROOT
ATOM      1  C   UNL     1      10.416 -52.348 -21.627  1.00  0.00     0.042 C 
ENDROOT
BRANCH   1   2
ATOM      2  C   UNL     1      10.435 -50.849 -21.928  1.00  0.00     0.115 C 
BRANCH   2   3
ATOM      3  N   UNL     1      11.803 -50.326 -21.838  1.00  0.00    -0.384 N 
ATOM      4  H   UNL     1      12.440 -51.105 -21.634  1.00  0.00     0.160 HD
BRANCH   3   5
ATOM      5  C   UNL     1      12.196 -49.665 -23.038  1.00  0.00     0.049 A 
ATOM      6  C   UNL     1      12.094 -48.274 -23.183  1.00  0.00    -0.003 A 
ATOM      7  C   UNL     1      12.814 -50.422 -24.072  1.00  0.00     0.024 A 
ATOM      8  C   UNL     1      12.617 -47.701 -24.346  1.00  0.00     0.046 A 
ATOM      9  C   UNL     1      11.529 -47.330 -22.156  1.00  0.00     0.039 C 
ATOM     10  C   UNL     1      12.955 -51.829 -24.025  1.00  0.00     0.012 A 
ATOM     11  C   UNL     1      13.298 -49.732 -25.203  1.00  0.00     0.073 A 
ATOM     12  N   UNL     1      13.208 -48.402 -25.338  1.00  0.00    -0.252 NA
ATOM     13  C   UNL     1      12.565 -46.202 -24.496  1.00  0.00     0.056 C 
ATOM     14  C   UNL     1      10.651 -46.247 -22.793  1.00  0.00     0.005 C 
ATOM     15  C   UNL     1      13.565 -52.534 -25.061  1.00  0.00     0.001 A 
ATOM     16  C   UNL     1      13.902 -50.455 -26.224  1.00  0.00     0.029 A 
ATOM     17  C   UNL     1      11.188 -45.673 -24.109  1.00  0.00     0.007 C 
ATOM     18  C   UNL     1      14.042 -51.844 -26.165  1.00  0.00     0.002 A 
ENDBRANCH   3   5
ENDBRANCH   2   3
ENDBRANCH   1   2
BRANCH   1  19
ATOM     19  C   UNL     1       9.821 -53.224 -22.726  1.00  0.00     0.118 C 
BRANCH  19  20
ATOM     20  N   UNL     1       9.800 -54.632 -22.377  1.00  0.00    -0.352 N 
ATOM     21  C   UNL     1      10.533 -55.560 -23.087  1.00  0.00     0.251 C 
ATOM     22  H   UNL     1       9.400 -54.888 -21.484  1.00  0.00     0.163 HD
ATOM     23  O   UNL     1      11.202 -55.278 -24.075  1.00  0.00    -0.269 OA
BRANCH  21  24
ATOM     24  C   UNL     1      10.496 -56.963 -22.590  1.00  0.00     0.040 A 
ATOM     25  C   UNL     1       9.532 -57.831 -23.126  1.00  0.00     0.017 A 
ATOM     26  C   UNL     1      11.364 -57.422 -21.588  1.00  0.00     0.017 A 
ATOM     27  C   UNL     1       9.455 -59.154 -22.684  1.00  0.00     0.040 A 
ATOM     28  C   UNL     1      11.282 -58.746 -21.148  1.00  0.00     0.040 A 
ATOM     29  C   UNL     1      10.332 -59.599 -21.702  1.00  0.00     0.123 A 
ATOM     30  F   UNL     1      10.257 -60.865 -21.275  1.00  0.00    -0.207 F 
ENDBRANCH  21  24
ENDBRANCH  19  20
ENDBRANCH   1  19
TORSDOF 6
ENDMDL
MODEL 6
REMARK VINA RESULT:    -9.264      5.308      8.375
REMARK INTER + INTRA:         -14.701
REMARK INTER:                 -14.103
REMARK INTRA:                  -0.598
REMARK UNBOUND:                -2.188
REMARK SMILES O=C(NCCCNc1c2c(nc3ccccc13)CCCC2)c1ccc(F)cc1
REMARK SMILES IDX 5 1 6 2 7 3 8 5 9 6 17 7 10 8 21 9 16 10 12 11 11 12 18 13
REMARK SMILES IDX 20 14 15 15 13 16 19 17 14 18 4 19 3 20 2 21 1 23 22 24
REMARK SMILES IDX 23 25 28 26 24 27 27 28 25 29 26 30
REMARK H PARENT 7 4 3 22
ROOT
ATOM      1  C   UNL     1      10.516 -52.176 -21.650  1.00  0.00     0.042 C 
ENDROOT
BRANCH   1   2
ATOM      2  C   UNL     1      10.489 -50.684 -21.988  1.00  0.00     0.115 C 
BRANCH   2   3
ATOM      3  N   UNL     1      11.815 -50.088 -21.780  1.00  0.00    -0.384 N 
ATOM      4  H   UNL     1      12.471 -50.833 -21.516  1.00  0.00     0.160 HD
BRANCH   3   5
ATOM      5  C   UNL     1      12.278 -49.409 -22.944  1.00  0.00     0.049 A 
ATOM      6  C   UNL     1      13.051 -50.056 -23.919  1.00  0.00    -0.003 A 
ATOM      7  C   UNL     1      11.848 -48.073 -23.180  1.00  0.00     0.024 A 
ATOM      8  C   UNL     1      13.355 -49.346 -25.084  1.00  0.00     0.046 A 
ATOM      9  C   UNL     1      13.527 -51.482 -23.849  1.00  0.00     0.039 C 
ATOM     10  C   UNL     1      11.075 -47.332 -22.254  1.00  0.00     0.012 A 
ATOM     11  C   UNL     1      12.225 -47.457 -24.392  1.00  0.00     0.073 A 
ATOM     12  N   UNL     1      12.956 -48.079 -25.327  1.00  0.00    -0.252 NA
ATOM     13  C   UNL     1      14.139 -50.042 -26.167  1.00  0.00     0.056 C 
ATOM     14  C   UNL     1      14.972 -51.630 -24.336  1.00  0.00     0.005 C 
ATOM     15  C   UNL     1      10.677 -46.024 -22.522  1.00  0.00     0.001 A 
ATOM     16  C   UNL     1      11.816 -46.153 -24.638  1.00  0.00     0.029 A 
ATOM     17  C   UNL     1      15.326 -50.792 -25.570  1.00  0.00     0.007 C 
ATOM     18  C   UNL     1      11.048 -45.432 -23.721  1.00  0.00     0.002 A 
ENDBRANCH   3   5
ENDBRANCH   2   3
ENDBRANCH   1   2
BRANCH   1  19
ATOM     19  C   UNL     1       9.629 -53.056 -22.526  1.00  0.00     0.118 C 
BRANCH  19  20
ATOM     20  N   UNL     1       9.726 -54.465 -22.192  1.00  0.00    -0.352 N 
ATOM     21  C   UNL     1      10.276 -55.375 -23.070  1.00  0.00     0.251 C 
ATOM     22  H   UNL     1       9.568 -54.730 -21.229  1.00  0.00     0.163 HD
ATOM     23  O   UNL     1      10.669 -55.077 -24.192  1.00  0.00    -0.269 OA
BRANCH  21  24
ATOM     24  C   UNL     1      10.394 -56.779 -22.589  1.00  0.00     0.040 A 
ATOM     25  C   UNL     1       9.520 -57.739 -23.123  1.00  0.00     0.017 A 
ATOM     26  C   UNL     1      11.320 -57.154 -21.604  1.00  0.00     0.017 A 
ATOM     27  C   UNL     1       9.590 -59.067 -22.695  1.00  0.00     0.040 A 
ATOM     28  C   UNL     1      11.385 -58.484 -21.179  1.00  0.00     0.040 A 
ATOM     29  C   UNL     1      10.523 -59.427 -21.730  1.00  0.00     0.123 A 
ATOM     30  F   UNL     1      10.589 -60.699 -21.317  1.00  0.00    -0.207 F 
ENDBRANCH  21  24
ENDBRANCH  19  20
ENDBRANCH   1  19
TORSDOF 6
ENDMDL
MODEL 7
REMARK VINA RESULT:    -9.062      3.422      6.699
REMARK INTER + INTRA:         -14.429
REMARK INTER:                 -13.955
REMARK INTRA:                  -0.473
REMARK UNBOUND:                -2.188
REMARK SMILES O=C(NCCCNc1c2c(nc3ccccc13)CCCC2)c1ccc(F)cc1
REMARK SMILES IDX 5 1 6 2 7 3 8 5 9 6 17 7 10 8 21 9 16 10 12 11 11 12 18 13
REMARK SMILES IDX 20 14 15 15 13 16 19 17 14 18 4 19 3 20 2 21 1 23 22 24
REMARK SMILES IDX 23 25 28 26 24 27 27 28 25 29 26 30
REMARK H PARENT 7 4 3 22
ROOT
ATOM      1  C   UNL     1      10.744 -55.473 -21.767  1.00  0.00     0.042 C 
ENDROOT
BRANCH   1   2
ATOM      2  C   UNL     1      10.604 -53.958 -21.610  1.00  0.00     0.115 C 
BRANCH   2   3
ATOM      3  N   UNL     1      10.205 -53.346 -22.884  1.00  0.00    -0.384 N 
ATOM      4  H   UNL     1       9.331 -52.827 -22.738  1.00  0.00     0.160 HD
BRANCH   3   5
ATOM      5  C   UNL     1      11.216 -52.482 -23.394  1.00  0.00     0.049 A 
ATOM      6  C   UNL     1      11.358 -51.162 -22.943  1.00  0.00    -0.003 A 
ATOM      7  C   UNL     1      12.178 -53.007 -24.302  1.00  0.00     0.024 A 
ATOM      8  C   UNL     1      12.453 -50.429 -23.410  1.00  0.00     0.046 A 
ATOM      9  C   UNL     1      10.466 -50.485 -21.937  1.00  0.00     0.039 C 
ATOM     10  C   UNL     1      12.116 -54.321 -24.824  1.00  0.00     0.012 A 
ATOM     11  C   UNL     1      13.236 -52.168 -24.709  1.00  0.00     0.073 A 
ATOM     12  N   UNL     1      13.377 -50.909 -24.270  1.00  0.00    -0.252 NA
ATOM     13  C   UNL     1      12.653 -49.027 -22.894  1.00  0.00     0.056 C 
ATOM     14  C   UNL     1      10.153 -49.037 -22.331  1.00  0.00     0.005 C 
ATOM     15  C   UNL     1      13.078 -54.796 -25.714  1.00  0.00     0.001 A 
ATOM     16  C   UNL     1      14.184 -52.662 -25.596  1.00  0.00     0.029 A 
ATOM     17  C   UNL     1      11.336 -48.257 -22.914  1.00  0.00     0.007 C 
ATOM     18  C   UNL     1      14.117 -53.963 -26.101  1.00  0.00     0.002 A 
ENDBRANCH   3   5
ENDBRANCH   2   3
ENDBRANCH   1   2
BRANCH   1  19
ATOM     19  C   UNL     1      10.112 -56.057 -23.027  1.00  0.00     0.118 C 
BRANCH  19  20
ATOM     20  N   UNL     1       9.908 -57.491 -22.945  1.00  0.00    -0.352 N 
ATOM     21  C   UNL     1      10.835 -58.379 -23.447  1.00  0.00     0.251 C 
ATOM     22  H   UNL     1       9.173 -57.825 -22.335  1.00  0.00     0.163 HD
ATOM     23  O   UNL     1      11.854 -58.031 -24.032  1.00  0.00    -0.269 OA
BRANCH  21  24
ATOM     24  C   UNL     1      10.557 -59.827 -23.235  1.00  0.00     0.040 A 
ATOM     25  C   UNL     1      10.164 -60.246 -21.954  1.00  0.00     0.017 A 
ATOM     26  C   UNL     1      10.708 -60.773 -24.259  1.00  0.00     0.017 A 
ATOM     27  C   UNL     1       9.900 -61.595 -21.707  1.00  0.00     0.040 A 
ATOM     28  C   UNL     1      10.445 -62.122 -24.006  1.00  0.00     0.040 A 
ATOM     29  C   UNL     1      10.040 -62.519 -22.735  1.00  0.00     0.123 A 
ATOM     30  F   UNL     1       9.790 -63.813 -22.499  1.00  0.00    -0.207 F 
ENDBRANCH  21  24
ENDBRANCH  19  20
ENDBRANCH   1  19
TORSDOF 6
ENDMDL
MODEL 8
REMARK VINA RESULT:    -8.960      4.708      7.340
REMARK INTER + INTRA:         -14.290
REMARK INTER:                 -13.931
REMARK INTRA:                  -0.360
REMARK UNBOUND:                -2.188
REMARK SMILES O=C(NCCCNc1c2c(nc3ccccc13)CCCC2)c1ccc(F)cc1
REMARK SMILES IDX 5 1 6 2 7 3 8 5 9 6 17 7 10 8 21 9 16 10 12 11 11 12 18 13
REMARK SMILES IDX 20 14 15 15 13 16 19 17 14 18 4 19 3 20 2 21 1 23 22 24
REMARK SMILES IDX 23 25 28 26 24 27 27 28 25 29 26 30
REMARK H PARENT 7 4 3 22
ROOT
ATOM      1  C   UNL     1      12.679 -54.378 -25.715  1.00  0.00     0.042 C 
ENDROOT
BRANCH   1   2
ATOM      2  C   UNL     1      13.266 -53.012 -26.076  1.00  0.00     0.115 C 
BRANCH   2   3
ATOM      3  N   UNL     1      13.850 -52.376 -24.889  1.00  0.00    -0.384 N 
ATOM      4  H   UNL     1      14.872 -52.385 -24.982  1.00  0.00     0.160 HD
BRANCH   3   5
ATOM      5  C   UNL     1      13.379 -51.041 -24.719  1.00  0.00     0.049 A 
ATOM      6  C   UNL     1      12.511 -50.691 -23.675  1.00  0.00    -0.003 A 
ATOM      7  C   UNL     1      13.891 -50.017 -25.562  1.00  0.00     0.024 A 
ATOM      8  C   UNL     1      12.200 -49.338 -23.513  1.00  0.00     0.046 A 
ATOM      9  C   UNL     1      11.938 -51.645 -22.662  1.00  0.00     0.039 C 
ATOM     10  C   UNL     1      14.763 -50.269 -26.649  1.00  0.00     0.012 A 
ATOM     11  C   UNL     1      13.499 -48.686 -25.306  1.00  0.00     0.073 A 
ATOM     12  N   UNL     1      12.677 -48.350 -24.301  1.00  0.00    -0.252 NA
ATOM     13  C   UNL     1      11.313 -48.935 -22.363  1.00  0.00     0.056 C 
ATOM     14  C   UNL     1      10.462 -51.353 -22.368  1.00  0.00     0.005 C 
ATOM     15  C   UNL     1      15.241 -49.235 -27.453  1.00  0.00     0.001 A 
ATOM     16  C   UNL     1      13.988 -47.672 -26.120  1.00  0.00     0.029 A 
ATOM     17  C   UNL     1      10.108 -49.865 -22.267  1.00  0.00     0.007 C 
ATOM     18  C   UNL     1      14.852 -47.931 -27.186  1.00  0.00     0.002 A 
ENDBRANCH   3   5
ENDBRANCH   2   3
ENDBRANCH   1   2
BRANCH   1  19
ATOM     19  C   UNL     1      11.718 -54.379 -24.530  1.00  0.00     0.118 C 
BRANCH  19  20
ATOM     20  N   UNL     1      11.431 -55.713 -24.037  1.00  0.00    -0.352 N 
ATOM     21  C   UNL     1      11.040 -55.929 -22.732  1.00  0.00     0.251 C 
ATOM     22  H   UNL     1      11.328 -56.452 -24.719  1.00  0.00     0.163 HD
ATOM     23  O   UNL     1      10.957 -55.036 -21.897  1.00  0.00    -0.269 OA
BRANCH  21  24
ATOM     24  C   UNL     1      10.696 -57.329 -22.361  1.00  0.00     0.040 A 
ATOM     25  C   UNL     1      11.351 -57.903 -21.260  1.00  0.00     0.017 A 
ATOM     26  C   UNL     1       9.773 -58.090 -23.095  1.00  0.00     0.017 A 
ATOM     27  C   UNL     1      11.065 -59.216 -20.880  1.00  0.00     0.040 A 
ATOM     28  C   UNL     1       9.493 -59.404 -22.711  1.00  0.00     0.040 A 
ATOM     29  C   UNL     1      10.138 -59.953 -21.606  1.00  0.00     0.123 A 
ATOM     30  F   UNL     1       9.865 -61.213 -21.246  1.00  0.00    -0.207 F 
ENDBRANCH  21  24
ENDBRANCH  19  20
ENDBRANCH   1  19
TORSDOF 6
ENDMDL
MODEL 9
REMARK VINA RESULT:    -8.841      2.922      6.239
REMARK INTER + INTRA:         -14.130
REMARK INTER:                 -13.393
REMARK INTRA:                  -0.737
REMARK UNBOUND:                -2.188
REMARK SMILES O=C(NCCCNc1c2c(nc3ccccc13)CCCC2)c1ccc(F)cc1
REMARK SMILES IDX 5 1 6 2 7 3 8 5 9 6 17 7 10 8 21 9 16 10 12 11 11 12 18 13
REMARK SMILES IDX 20 14 15 15 13 16 19 17 14 18 4 19 3 20 2 21 1 23 22 24
REMARK SMILES IDX 23 25 28 26 24 27 27 28 25 29 26 30
REMARK H PARENT 7 4 3 22
ROOT
ATOM      1  C   UNL     1      12.005 -58.491 -23.705  1.00  0.00     0.042 C 
ENDROOT
BRANCH   1   2
ATOM      2  C   UNL     1      11.232 -59.724 -24.175  1.00  0.00     0.115 C 
BRANCH   2   3
ATOM      3  N   UNL     1      10.200 -59.341 -25.148  1.00  0.00    -0.384 N 
ATOM      4  H   UNL     1      10.571 -59.489 -26.094  1.00  0.00     0.160 HD
BRANCH   3   5
ATOM      5  C   UNL     1       8.998 -60.083 -24.963  1.00  0.00     0.049 A 
ATOM      6  C   UNL     1       8.815 -61.348 -25.539  1.00  0.00    -0.003 A 
ATOM      7  C   UNL     1       8.005 -59.578 -24.079  1.00  0.00     0.024 A 
ATOM      8  C   UNL     1       7.656 -62.054 -25.204  1.00  0.00     0.046 A 
ATOM      9  C   UNL     1       9.799 -62.047 -26.439  1.00  0.00     0.039 C 
ATOM     10  C   UNL     1       8.091 -58.309 -23.457  1.00  0.00     0.012 A 
ATOM     11  C   UNL     1       6.873 -60.380 -23.823  1.00  0.00     0.073 A 
ATOM     12  N   UNL     1       6.702 -61.593 -24.366  1.00  0.00    -0.252 NA
ATOM     13  C   UNL     1       7.467 -63.438 -25.769  1.00  0.00     0.056 C 
ATOM     14  C   UNL     1       9.107 -62.746 -27.613  1.00  0.00     0.005 C 
ATOM     15  C   UNL     1       7.094 -57.850 -22.599  1.00  0.00     0.001 A 
ATOM     16  C   UNL     1       5.891 -59.902 -22.964  1.00  0.00     0.029 A 
ATOM     17  C   UNL     1       7.795 -63.456 -27.259  1.00  0.00     0.007 C 
ATOM     18  C   UNL     1       5.989 -58.651 -22.350  1.00  0.00     0.002 A 
ENDBRANCH   3   5
ENDBRANCH   2   3
ENDBRANCH   1   2
BRANCH   1  19
ATOM     19  C   UNL     1      11.904 -57.273 -24.617  1.00  0.00     0.118 C 
BRANCH  19  20
ATOM     20  N   UNL     1      11.554 -56.060 -23.903  1.00  0.00    -0.352 N 
ATOM     21  C   UNL     1      11.730 -54.815 -24.470  1.00  0.00     0.251 C 
ATOM     22  H   UNL     1      10.993 -56.153 -23.066  1.00  0.00     0.163 HD
ATOM     23  O   UNL     1      12.231 -54.642 -25.575  1.00  0.00    -0.269 OA
BRANCH  21  24
ATOM     24  C   UNL     1      11.262 -53.646 -23.675  1.00  0.00     0.040 A 
ATOM     25  C   UNL     1       9.984 -53.706 -23.097  1.00  0.00     0.017 A 
ATOM     26  C   UNL     1      12.041 -52.490 -23.520  1.00  0.00     0.017 A 
ATOM     27  C   UNL     1       9.501 -52.631 -22.349  1.00  0.00     0.040 A 
ATOM     28  C   UNL     1      11.551 -51.415 -22.773  1.00  0.00     0.040 A 
ATOM     29  C   UNL     1      10.290 -51.497 -22.192  1.00  0.00     0.123 A 
ATOM     30  F   UNL     1       9.826 -50.464 -21.478  1.00  0.00    -0.207 F 
ENDBRANCH  21  24
ENDBRANCH  19  20
ENDBRANCH   1  19
TORSDOF 6
ENDMDL
