MODEL 1
REMARK VINA RESULT:   -11.332      0.000      0.000
REMARK INTER + INTRA:         -18.161
REMARK INTER:                 -17.294
REMARK INTRA:                  -0.867
REMARK UNBOUND:                -0.867
REMARK SMILES COc1cc2c(cc1OC)S[C@@H](C(=O)CCc1cc[n+](Cc3coc([N+](=O)[O-])c3)cc1)C2
REMARK SMILES IDX 16 1 15 2 13 3 14 4 12 5 3 6 4 7 8 8 5 9 7 10 6 11 32 12
REMARK SMILES IDX 11 13 2 14 1 15 9 16 10 17 17 18 18 19 31 20 19 21 30 22
REMARK SMILES IDX 20 23 21 24 22 25 23 26 29 27 24 28 25 29 26 30 27 31 28 32
REMARK H PARENT
ROOT
ATOM      1  C   UNL     1      11.180 -56.352 -21.622  1.00  0.00     0.044 C 
ENDROOT
BRANCH   1   2
ATOM      2  C   UNL     1      10.067 -55.598 -22.371  1.00  0.00     0.081 C 
BRANCH   2   3
ATOM      3  C   UNL     1      10.328 -54.165 -22.560  1.00  0.00     0.146 C 
ATOM      4  O   UNL     1       9.943 -53.434 -21.588  1.00  0.00    -0.298 OA
BRANCH   3   5
ATOM      5  C   UNL     1      10.893 -53.321 -23.456  1.00  0.00     0.123 C 
ATOM      6  C   UNL     1      13.434 -49.803 -25.303  1.00  0.00     0.161 A 
ATOM      7  C   UNL     1      12.635 -50.164 -24.218  1.00  0.00     0.055 A 
ATOM      8  C   UNL     1      14.031 -50.781 -26.130  1.00  0.00     0.161 A 
ATOM      9  C   UNL     1      12.471 -51.486 -24.025  1.00  0.00    -0.029 A 
ATOM     10  C   UNL     1      13.851 -52.171 -25.941  1.00  0.00     0.065 A 
ATOM     11  C   UNL     1      13.044 -52.385 -24.869  1.00  0.00     0.015 A 
ATOM     12  C   UNL     1      11.767 -52.221 -22.963  1.00  0.00     0.059 C 
ATOM     13  S   UNL     1      12.078 -53.983 -24.731  1.00  0.00    -0.114 SA
BRANCH   6  14
ATOM     14  O   UNL     1      13.510 -48.420 -25.438  1.00  0.00    -0.493 OA
ATOM     15  C   UNL     1      13.234 -47.542 -24.421  1.00  0.00     0.278 C 
ENDBRANCH   6  14
BRANCH   8  16
ATOM     16  O   UNL     1      14.787 -50.131 -27.122  1.00  0.00    -0.493 OA
ATOM     17  C   UNL     1      16.125 -49.903 -27.035  1.00  0.00     0.278 C 
ENDBRANCH   8  16
ENDBRANCH   3   5
ENDBRANCH   2   3
ENDBRANCH   1   2
BRANCH   1  18
ATOM     18  C   UNL     1      11.373 -57.614 -22.429  1.00  0.00    -0.036 A 
ATOM     19  C   UNL     1      11.017 -58.699 -21.626  1.00  0.00     0.074 A 
ATOM     20  C   UNL     1      11.765 -57.884 -23.745  1.00  0.00     0.074 A 
ATOM     21  C   UNL     1      11.020 -60.036 -22.018  1.00  0.00     0.308 A 
ATOM     22  C   UNL     1      11.786 -59.172 -24.172  1.00  0.00     0.308 A 
ATOM     23  N   UNL     1      11.425 -60.194 -23.334  1.00  0.00    -0.201 N 
BRANCH  23  24
ATOM     24  C   UNL     1      11.535 -61.524 -23.792  1.00  0.00     0.397 C 
BRANCH  24  25
ATOM     25  C   UNL     1      10.357 -62.373 -23.602  1.00  0.00     0.063 A 
ATOM     26  C   UNL     1       9.843 -63.205 -22.680  1.00  0.00     0.213 A 
ATOM     27  C   UNL     1       9.332 -62.336 -24.594  1.00  0.00     0.143 A 
ATOM     28  O   UNL     1       8.634 -63.714 -22.963  1.00  0.00    -0.409 OA
ATOM     29  C   UNL     1       8.306 -63.180 -24.134  1.00  0.00     0.433 A 
BRANCH  29  30
ATOM     30  N   UNL     1       7.110 -63.339 -24.920  1.00  0.00     0.102 N 
ATOM     31  O   UNL     1       6.178 -62.536 -24.568  1.00  0.00    -0.256 OA
ATOM     32  O   UNL     1       6.862 -64.262 -25.875  1.00  0.00    -0.256 OA
ENDBRANCH  29  30
ENDBRANCH  24  25
ENDBRANCH  23  24
ENDBRANCH   1  18
TORSDOF 9
ENDMDL
MODEL 2
REMARK VINA RESULT:   -11.261      1.535      2.052
REMARK INTER + INTRA:         -18.053
REMARK INTER:                 -17.307
REMARK INTRA:                  -0.746
REMARK UNBOUND:                -0.867
REMARK SMILES COc1cc2c(cc1OC)S[C@@H](C(=O)CCc1cc[n+](Cc3coc([N+](=O)[O-])c3)cc1)C2
REMARK SMILES IDX 16 1 15 2 13 3 14 4 12 5 3 6 4 7 8 8 5 9 7 10 6 11 32 12
REMARK SMILES IDX 11 13 2 14 1 15 9 16 10 17 17 18 18 19 31 20 19 21 30 22
REMARK SMILES IDX 20 23 21 24 22 25 23 26 29 27 24 28 25 29 26 30 27 31 28 32
REMARK H PARENT
ROOT
ATOM      1  C   UNL     1      11.168 -56.283 -21.595  1.00  0.00     0.044 C 
ENDROOT
BRANCH   1   2
ATOM      2  C   UNL     1      10.299 -55.384 -22.491  1.00  0.00     0.081 C 
BRANCH   2   3
ATOM      3  C   UNL     1      10.342 -53.958 -22.142  1.00  0.00     0.146 C 
ATOM      4  O   UNL     1      10.133 -53.719 -20.906  1.00  0.00    -0.298 OA
BRANCH   3   5
ATOM      5  C   UNL     1      10.567 -52.753 -22.719  1.00  0.00     0.123 C 
ATOM      6  C   UNL     1      11.250 -48.121 -23.282  1.00  0.00     0.161 A 
ATOM      7  C   UNL     1      10.542 -49.072 -22.548  1.00  0.00     0.055 A 
ATOM      8  C   UNL     1      12.430 -48.465 -23.982  1.00  0.00     0.161 A 
ATOM      9  C   UNL     1      11.047 -50.319 -22.561  1.00  0.00    -0.029 A 
ATOM     10  C   UNL     1      12.958 -49.777 -24.011  1.00  0.00     0.065 A 
ATOM     11  C   UNL     1      12.169 -50.603 -23.276  1.00  0.00     0.015 A 
ATOM     12  C   UNL     1      10.616 -51.538 -21.860  1.00  0.00     0.059 C 
ATOM     13  S   UNL     1      12.165 -52.443 -23.622  1.00  0.00    -0.114 SA
BRANCH   6  14
ATOM     14  O   UNL     1      10.628 -46.877 -23.235  1.00  0.00    -0.493 OA
ATOM     15  C   UNL     1      10.695 -46.035 -22.155  1.00  0.00     0.278 C 
ENDBRANCH   6  14
BRANCH   8  16
ATOM     16  O   UNL     1      12.933 -47.312 -24.610  1.00  0.00    -0.493 OA
ATOM     17  C   UNL     1      13.987 -46.589 -24.146  1.00  0.00     0.278 C 
ENDBRANCH   8  16
ENDBRANCH   3   5
ENDBRANCH   2   3
ENDBRANCH   1   2
BRANCH   1  18
ATOM     18  C   UNL     1      11.369 -57.533 -22.418  1.00  0.00    -0.036 A 
ATOM     19  C   UNL     1      11.018 -58.631 -21.630  1.00  0.00     0.074 A 
ATOM     20  C   UNL     1      11.764 -57.784 -23.737  1.00  0.00     0.074 A 
ATOM     21  C   UNL     1      11.029 -59.962 -22.040  1.00  0.00     0.308 A 
ATOM     22  C   UNL     1      11.792 -59.066 -24.181  1.00  0.00     0.308 A 
ATOM     23  N   UNL     1      11.437 -60.101 -23.357  1.00  0.00    -0.201 N 
BRANCH  23  24
ATOM     24  C   UNL     1      11.554 -61.425 -23.831  1.00  0.00     0.397 C 
BRANCH  24  25
ATOM     25  C   UNL     1      10.378 -62.279 -23.662  1.00  0.00     0.063 A 
ATOM     26  C   UNL     1       9.838 -63.091 -22.736  1.00  0.00     0.213 A 
ATOM     27  C   UNL     1       9.390 -62.280 -24.691  1.00  0.00     0.143 A 
ATOM     28  O   UNL     1       8.644 -63.620 -23.049  1.00  0.00    -0.409 OA
ATOM     29  C   UNL     1       8.356 -63.122 -24.246  1.00  0.00     0.433 A 
BRANCH  29  30
ATOM     30  N   UNL     1       7.191 -63.315 -25.071  1.00  0.00     0.102 N 
ATOM     31  O   UNL     1       6.152 -62.733 -24.602  1.00  0.00    -0.256 OA
ATOM     32  O   UNL     1       7.077 -64.082 -26.177  1.00  0.00    -0.256 OA
ENDBRANCH  29  30
ENDBRANCH  24  25
ENDBRANCH  23  24
ENDBRANCH   1  18
TORSDOF 9
ENDMDL
MODEL 3
REMARK VINA RESULT:   -10.930      1.837      2.635
REMARK INTER + INTRA:         -17.548
REMARK INTER:                 -16.773
REMARK INTRA:                  -0.774
REMARK UNBOUND:                -0.867
REMARK SMILES COc1cc2c(cc1OC)S[C@@H](C(=O)CCc1cc[n+](Cc3coc([N+](=O)[O-])c3)cc1)C2
REMARK SMILES IDX 16 1 15 2 13 3 14 4 12 5 3 6 4 7 8 8 5 9 7 10 6 11 32 12
REMARK SMILES IDX 11 13 2 14 1 15 9 16 10 17 17 18 18 19 31 20 19 21 30 22
REMARK SMILES IDX 20 23 21 24 22 25 23 26 29 27 24 28 25 29 26 30 27 31 28 32
REMARK H PARENT
ROOT
ATOM      1  C   UNL     1      11.031 -56.180 -21.750  1.00  0.00     0.044 C 
ENDROOT
BRANCH   1   2
ATOM      2  C   UNL     1      11.002 -55.099 -22.844  1.00  0.00     0.081 C 
BRANCH   2   3
ATOM      3  C   UNL     1      10.619 -53.764 -22.365  1.00  0.00     0.146 C 
ATOM      4  O   UNL     1       9.424 -53.692 -21.925  1.00  0.00    -0.298 OA
BRANCH   3   5
ATOM      5  C   UNL     1      11.148 -52.527 -22.203  1.00  0.00     0.123 C 
ATOM      6  C   UNL     1      13.558 -48.552 -23.002  1.00  0.00     0.161 A 
ATOM      7  C   UNL     1      13.578 -49.935 -23.181  1.00  0.00     0.055 A 
ATOM      8  C   UNL     1      12.351 -47.866 -22.736  1.00  0.00     0.161 A 
ATOM      9  C   UNL     1      12.391 -50.559 -23.076  1.00  0.00    -0.029 A 
ATOM     10  C   UNL     1      11.101 -48.517 -22.610  1.00  0.00     0.065 A 
ATOM     11  C   UNL     1      11.263 -49.854 -22.789  1.00  0.00     0.015 A 
ATOM     12  C   UNL     1      12.026 -51.971 -23.269  1.00  0.00     0.059 C 
ATOM     13  S   UNL     1      10.021 -51.051 -22.059  1.00  0.00    -0.114 SA
BRANCH   6  14
ATOM     14  O   UNL     1      14.836 -48.010 -23.092  1.00  0.00    -0.493 OA
ATOM     15  C   UNL     1      15.790 -48.149 -22.117  1.00  0.00     0.278 C 
ENDBRANCH   6  14
BRANCH   8  16
ATOM     16  O   UNL     1      12.629 -46.494 -22.621  1.00  0.00    -0.493 OA
ATOM     17  C   UNL     1      12.685 -45.823 -21.439  1.00  0.00     0.278 C 
ENDBRANCH   8  16
ENDBRANCH   3   5
ENDBRANCH   2   3
ENDBRANCH   1   2
BRANCH   1  18
ATOM     18  C   UNL     1      11.284 -57.461 -22.509  1.00  0.00    -0.036 A 
ATOM     19  C   UNL     1      10.935 -58.530 -21.681  1.00  0.00     0.074 A 
ATOM     20  C   UNL     1      11.722 -57.761 -23.804  1.00  0.00     0.074 A 
ATOM     21  C   UNL     1      10.988 -59.878 -22.030  1.00  0.00     0.308 A 
ATOM     22  C   UNL     1      11.792 -59.061 -24.188  1.00  0.00     0.308 A 
ATOM     23  N   UNL     1      11.437 -60.066 -23.328  1.00  0.00    -0.201 N 
BRANCH  23  24
ATOM     24  C   UNL     1      11.597 -61.406 -23.738  1.00  0.00     0.397 C 
BRANCH  24  25
ATOM     25  C   UNL     1      10.423 -62.269 -23.607  1.00  0.00     0.063 A 
ATOM     26  C   UNL     1       9.875 -63.110 -22.712  1.00  0.00     0.213 A 
ATOM     27  C   UNL     1       9.445 -62.241 -24.646  1.00  0.00     0.143 A 
ATOM     28  O   UNL     1       8.686 -63.631 -23.053  1.00  0.00    -0.409 OA
ATOM     29  C   UNL     1       8.409 -63.099 -24.238  1.00  0.00     0.433 A 
BRANCH  29  30
ATOM     30  N   UNL     1       7.254 -63.269 -25.081  1.00  0.00     0.102 N 
ATOM     31  O   UNL     1       6.210 -62.696 -24.609  1.00  0.00    -0.256 OA
ATOM     32  O   UNL     1       7.151 -64.009 -26.206  1.00  0.00    -0.256 OA
ENDBRANCH  29  30
ENDBRANCH  24  25
ENDBRANCH  23  24
ENDBRANCH   1  18
TORSDOF 9
ENDMDL
MODEL 4
REMARK VINA RESULT:   -10.117      1.834      2.446
REMARK INTER + INTRA:         -16.308
REMARK INTER:                 -15.587
REMARK INTRA:                  -0.721
REMARK UNBOUND:                -0.867
REMARK SMILES COc1cc2c(cc1OC)S[C@@H](C(=O)CCc1cc[n+](Cc3coc([N+](=O)[O-])c3)cc1)C2
REMARK SMILES IDX 16 1 15 2 13 3 14 4 12 5 3 6 4 7 8 8 5 9 7 10 6 11 32 12
REMARK SMILES IDX 11 13 2 14 1 15 9 16 10 17 17 18 18 19 31 20 19 21 30 22
REMARK SMILES IDX 20 23 21 24 22 25 23 26 29 27 24 28 25 29 26 30 27 31 28 32
REMARK H PARENT
ROOT
ATOM      1  C   UNL     1      11.089 -57.681 -22.581  1.00  0.00     0.044 C 
ENDROOT
BRANCH   1   2
ATOM      2  C   UNL     1      10.070 -56.565 -22.873  1.00  0.00     0.081 C 
BRANCH   2   3
ATOM      3  C   UNL     1      10.594 -55.205 -22.696  1.00  0.00     0.146 C 
ATOM      4  O   UNL     1      10.797 -54.881 -21.479  1.00  0.00    -0.298 OA
BRANCH   3   5
ATOM      5  C   UNL     1      10.978 -54.134 -23.432  1.00  0.00     0.123 C 
ATOM      6  C   UNL     1      12.957 -50.039 -24.678  1.00  0.00     0.161 A 
ATOM      7  C   UNL     1      12.315 -50.706 -23.635  1.00  0.00     0.055 A 
ATOM      8  C   UNL     1      13.558 -50.749 -25.742  1.00  0.00     0.161 A 
ATOM      9  C   UNL     1      12.301 -52.049 -23.718  1.00  0.00    -0.029 A 
ATOM     10  C   UNL     1      13.534 -52.160 -25.843  1.00  0.00     0.065 A 
ATOM     11  C   UNL     1      12.868 -52.682 -24.780  1.00  0.00     0.015 A 
ATOM     12  C   UNL     1      11.787 -53.065 -22.786  1.00  0.00     0.059 C 
ATOM     13  S   UNL     1      12.082 -54.377 -24.912  1.00  0.00    -0.114 SA
BRANCH   6  14
ATOM     14  O   UNL     1      12.884 -48.658 -24.517  1.00  0.00    -0.493 OA
ATOM     15  C   UNL     1      13.171 -48.015 -23.341  1.00  0.00     0.278 C 
ENDBRANCH   6  14
BRANCH   8  16
ATOM     16  O   UNL     1      14.139 -49.825 -26.628  1.00  0.00    -0.493 OA
ATOM     17  C   UNL     1      15.477 -49.616 -26.742  1.00  0.00     0.278 C 
ENDBRANCH   8  16
ENDBRANCH   3   5
ENDBRANCH   2   3
ENDBRANCH   1   2
BRANCH   1  18
ATOM     18  C   UNL     1      10.282 -58.952 -22.697  1.00  0.00    -0.036 A 
ATOM     19  C   UNL     1       9.024 -58.621 -23.204  1.00  0.00     0.074 A 
ATOM     20  C   UNL     1      10.547 -60.305 -22.457  1.00  0.00     0.074 A 
ATOM     21  C   UNL     1       8.001 -59.522 -23.492  1.00  0.00     0.308 A 
ATOM     22  C   UNL     1       9.580 -61.220 -22.721  1.00  0.00     0.308 A 
ATOM     23  N   UNL     1       8.364 -60.831 -23.217  1.00  0.00    -0.201 N 
BRANCH  23  24
ATOM     24  C   UNL     1       7.359 -61.803 -23.405  1.00  0.00     0.397 C 
BRANCH  24  25
ATOM     25  C   UNL     1       7.437 -62.586 -24.639  1.00  0.00     0.063 A 
ATOM     26  C   UNL     1       6.953 -63.733 -25.147  1.00  0.00     0.213 A 
ATOM     27  C   UNL     1       8.154 -62.035 -25.743  1.00  0.00     0.143 A 
ATOM     28  O   UNL     1       7.281 -63.990 -26.423  1.00  0.00    -0.409 OA
ATOM     29  C   UNL     1       8.013 -62.949 -26.802  1.00  0.00     0.433 A 
BRANCH  29  30
ATOM     30  N   UNL     1       8.620 -62.661 -28.076  1.00  0.00     0.102 N 
ATOM     31  O   UNL     1       8.755 -63.704 -28.805  1.00  0.00    -0.256 OA
ATOM     32  O   UNL     1       9.115 -61.481 -28.510  1.00  0.00    -0.256 OA
ENDBRANCH  29  30
ENDBRANCH  24  25
ENDBRANCH  23  24
ENDBRANCH   1  18
TORSDOF 9
ENDMDL
MODEL 5
REMARK VINA RESULT:    -9.919      2.191      3.060
REMARK INTER + INTRA:         -16.005
REMARK INTER:                 -15.174
REMARK INTRA:                  -0.831
REMARK UNBOUND:                -0.867
REMARK SMILES COc1cc2c(cc1OC)S[C@@H](C(=O)CCc1cc[n+](Cc3coc([N+](=O)[O-])c3)cc1)C2
REMARK SMILES IDX 16 1 15 2 13 3 14 4 12 5 3 6 4 7 8 8 5 9 7 10 6 11 32 12
REMARK SMILES IDX 11 13 2 14 1 15 9 16 10 17 17 18 18 19 31 20 19 21 30 22
REMARK SMILES IDX 20 23 21 24 22 25 23 26 29 27 24 28 25 29 26 30 27 31 28 32
REMARK H PARENT
ROOT
ATOM      1  C   UNL     1       9.867 -55.452 -22.238  1.00  0.00     0.044 C 
ENDROOT
BRANCH   1   2
ATOM      2  C   UNL     1      11.048 -54.692 -22.868  1.00  0.00     0.081 C 
BRANCH   2   3
ATOM      3  C   UNL     1      11.110 -53.269 -22.513  1.00  0.00     0.146 C 
ATOM      4  O   UNL     1      11.092 -53.045 -21.257  1.00  0.00    -0.298 OA
BRANCH   3   5
ATOM      5  C   UNL     1      11.210 -52.053 -23.103  1.00  0.00     0.123 C 
ATOM      6  C   UNL     1      11.492 -47.386 -23.713  1.00  0.00     0.161 A 
ATOM      7  C   UNL     1      10.897 -48.385 -22.944  1.00  0.00     0.055 A 
ATOM      8  C   UNL     1      12.661 -47.639 -24.466  1.00  0.00     0.161 A 
ATOM      9  C   UNL     1      11.499 -49.588 -22.976  1.00  0.00    -0.029 A 
ATOM     10  C   UNL     1      13.291 -48.905 -24.516  1.00  0.00     0.065 A 
ATOM     11  C   UNL     1      12.606 -49.786 -23.742  1.00  0.00     0.015 A 
ATOM     12  C   UNL     1      11.200 -50.833 -22.252  1.00  0.00     0.059 C 
ATOM     13  S   UNL     1      12.734 -51.623 -24.082  1.00  0.00    -0.114 SA
BRANCH   6  14
ATOM     14  O   UNL     1      10.774 -46.195 -23.641  1.00  0.00    -0.493 OA
ATOM     15  C   UNL     1      10.299 -45.666 -22.469  1.00  0.00     0.278 C 
ENDBRANCH   6  14
BRANCH   8  16
ATOM     16  O   UNL     1      13.040 -46.454 -25.121  1.00  0.00    -0.493 OA
ATOM     17  C   UNL     1      14.069 -45.659 -24.723  1.00  0.00     0.278 C 
ENDBRANCH   8  16
ENDBRANCH   3   5
ENDBRANCH   2   3
ENDBRANCH   1   2
BRANCH   1  18
ATOM     18  C   UNL     1       9.940 -56.824 -22.865  1.00  0.00    -0.036 A 
ATOM     19  C   UNL     1      11.283 -57.116 -23.113  1.00  0.00     0.074 A 
ATOM     20  C   UNL     1       8.995 -57.808 -23.180  1.00  0.00     0.074 A 
ATOM     21  C   UNL     1      11.770 -58.305 -23.651  1.00  0.00     0.308 A 
ATOM     22  C   UNL     1       9.423 -58.982 -23.708  1.00  0.00     0.308 A 
ATOM     23  N   UNL     1      10.755 -59.208 -23.929  1.00  0.00    -0.201 N 
BRANCH  23  24
ATOM     24  C   UNL     1      11.152 -60.410 -24.552  1.00  0.00     0.397 C 
BRANCH  24  25
ATOM     25  C   UNL     1      10.446 -60.765 -25.783  1.00  0.00     0.063 A 
ATOM     26  C   UNL     1      10.396 -60.383 -27.071  1.00  0.00     0.213 A 
ATOM     27  C   UNL     1       9.571 -61.892 -25.759  1.00  0.00     0.143 A 
ATOM     28  O   UNL     1       9.593 -61.109 -27.865  1.00  0.00    -0.409 OA
ATOM     29  C   UNL     1       9.086 -62.044 -27.070  1.00  0.00     0.433 A 
BRANCH  29  30
ATOM     30  N   UNL     1       8.180 -63.123 -27.372  1.00  0.00     0.102 N 
ATOM     31  O   UNL     1       8.181 -63.434 -28.614  1.00  0.00    -0.256 OA
ATOM     32  O   UNL     1       7.315 -63.737 -26.536  1.00  0.00    -0.256 OA
ENDBRANCH  29  30
ENDBRANCH  24  25
ENDBRANCH  23  24
ENDBRANCH   1  18
TORSDOF 9
ENDMDL
MODEL 6
REMARK VINA RESULT:    -9.763      2.968      3.733
REMARK INTER + INTRA:         -15.766
REMARK INTER:                 -15.702
REMARK INTRA:                  -0.065
REMARK UNBOUND:                -0.867
REMARK SMILES COc1cc2c(cc1OC)S[C@@H](C(=O)CCc1cc[n+](Cc3coc([N+](=O)[O-])c3)cc1)C2
REMARK SMILES IDX 16 1 15 2 13 3 14 4 12 5 3 6 4 7 8 8 5 9 7 10 6 11 32 12
REMARK SMILES IDX 11 13 2 14 1 15 9 16 10 17 17 18 18 19 31 20 19 21 30 22
REMARK SMILES IDX 20 23 21 24 22 25 23 26 29 27 24 28 25 29 26 30 27 31 28 32
REMARK H PARENT
ROOT
ATOM      1  C   UNL     1      11.216 -56.044 -21.371  1.00  0.00     0.044 C 
ENDROOT
BRANCH   1   2
ATOM      2  C   UNL     1      10.878 -55.219 -22.625  1.00  0.00     0.081 C 
BRANCH   2   3
ATOM      3  C   UNL     1      10.560 -53.811 -22.356  1.00  0.00     0.146 C 
ATOM      4  O   UNL     1       9.862 -53.627 -21.304  1.00  0.00    -0.298 OA
BRANCH   3   5
ATOM      5  C   UNL     1      10.795 -52.577 -22.864  1.00  0.00     0.123 C 
ATOM      6  C   UNL     1      11.244 -47.896 -23.218  1.00  0.00     0.161 A 
ATOM      7  C   UNL     1      10.490 -48.912 -22.631  1.00  0.00     0.055 A 
ATOM      8  C   UNL     1      12.544 -48.143 -23.716  1.00  0.00     0.161 A 
ATOM      9  C   UNL     1      11.075 -50.123 -22.582  1.00  0.00    -0.029 A 
ATOM     10  C   UNL     1      13.159 -49.416 -23.681  1.00  0.00     0.065 A 
ATOM     11  C   UNL     1      12.316 -50.313 -23.104  1.00  0.00     0.015 A 
ATOM     12  C   UNL     1      10.617 -51.388 -21.987  1.00  0.00     0.059 C 
ATOM     13  S   UNL     1      12.496 -52.139 -23.481  1.00  0.00    -0.114 SA
BRANCH   6  14
ATOM     14  O   UNL     1      10.539 -46.697 -23.253  1.00  0.00    -0.493 OA
ATOM     15  C   UNL     1      10.475 -45.823 -22.198  1.00  0.00     0.278 C 
ENDBRANCH   6  14
BRANCH   8  16
ATOM     16  O   UNL     1      13.065 -46.942 -24.229  1.00  0.00    -0.493 OA
ATOM     17  C   UNL     1      13.577 -46.805 -25.481  1.00  0.00     0.278 C 
ENDBRANCH   8  16
ENDBRANCH   3   5
ENDBRANCH   2   3
ENDBRANCH   1   2
BRANCH   1  18
ATOM     18  C   UNL     1      11.187 -57.474 -21.854  1.00  0.00    -0.036 A 
ATOM     19  C   UNL     1      11.399 -57.468 -23.235  1.00  0.00     0.074 A 
ATOM     20  C   UNL     1      11.046 -58.717 -21.227  1.00  0.00     0.074 A 
ATOM     21  C   UNL     1      11.481 -58.595 -24.049  1.00  0.00     0.308 A 
ATOM     22  C   UNL     1      11.117 -59.843 -21.980  1.00  0.00     0.308 A 
ATOM     23  N   UNL     1      11.326 -59.771 -23.332  1.00  0.00    -0.201 N 
BRANCH  23  24
ATOM     24  C   UNL     1      11.315 -60.961 -24.090  1.00  0.00     0.397 C 
BRANCH  24  25
ATOM     25  C   UNL     1      10.880 -60.837 -25.482  1.00  0.00     0.063 A 
ATOM     26  C   UNL     1       9.833 -61.182 -26.253  1.00  0.00     0.213 A 
ATOM     27  C   UNL     1      11.688 -60.075 -26.377  1.00  0.00     0.143 A 
ATOM     28  O   UNL     1       9.879 -60.752 -27.524  1.00  0.00    -0.409 OA
ATOM     29  C   UNL     1      11.011 -60.065 -27.610  1.00  0.00     0.433 A 
BRANCH  29  30
ATOM     30  N   UNL     1      11.577 -59.350 -28.725  1.00  0.00     0.102 N 
ATOM     31  O   UNL     1      11.932 -58.159 -28.419  1.00  0.00    -0.256 OA
ATOM     32  O   UNL     1      11.677 -59.761 -30.008  1.00  0.00    -0.256 OA
ENDBRANCH  29  30
ENDBRANCH  24  25
ENDBRANCH  23  24
ENDBRANCH   1  18
TORSDOF 9
ENDMDL
MODEL 7
REMARK VINA RESULT:    -9.706      1.757      2.219
REMARK INTER + INTRA:         -15.679
REMARK INTER:                 -14.866
REMARK INTRA:                  -0.813
REMARK UNBOUND:                -0.867
REMARK SMILES COc1cc2c(cc1OC)S[C@@H](C(=O)CCc1cc[n+](Cc3coc([N+](=O)[O-])c3)cc1)C2
REMARK SMILES IDX 16 1 15 2 13 3 14 4 12 5 3 6 4 7 8 8 5 9 7 10 6 11 32 12
REMARK SMILES IDX 11 13 2 14 1 15 9 16 10 17 17 18 18 19 31 20 19 21 30 22
REMARK SMILES IDX 20 23 21 24 22 25 23 26 29 27 24 28 25 29 26 30 27 31 28 32
REMARK H PARENT
ROOT
ATOM      1  C   UNL     1      10.109 -55.475 -22.204  1.00  0.00     0.044 C 
ENDROOT
BRANCH   1   2
ATOM      2  C   UNL     1      11.357 -54.832 -22.833  1.00  0.00     0.081 C 
BRANCH   2   3
ATOM      3  C   UNL     1      11.309 -53.366 -22.909  1.00  0.00     0.146 C 
ATOM      4  O   UNL     1      10.770 -52.810 -21.896  1.00  0.00    -0.298 OA
BRANCH   3   5
ATOM      5  C   UNL     1      11.689 -52.355 -23.727  1.00  0.00     0.123 C 
ATOM      6  C   UNL     1      13.581 -48.320 -25.269  1.00  0.00     0.161 A 
ATOM      7  C   UNL     1      12.913 -48.911 -24.197  1.00  0.00     0.055 A 
ATOM      8  C   UNL     1      14.256 -49.102 -26.234  1.00  0.00     0.161 A 
ATOM      9  C   UNL     1      12.951 -50.255 -24.152  1.00  0.00    -0.029 A 
ATOM     10  C   UNL     1      14.287 -50.516 -26.200  1.00  0.00     0.065 A 
ATOM     11  C   UNL     1      13.589 -50.962 -25.123  1.00  0.00     0.015 A 
ATOM     12  C   UNL     1      12.429 -51.199 -23.151  1.00  0.00     0.059 C 
ATOM     13  S   UNL     1      12.871 -52.692 -25.127  1.00  0.00    -0.114 SA
BRANCH   6  14
ATOM     14  O   UNL     1      13.451 -46.934 -25.245  1.00  0.00    -0.493 OA
ATOM     15  C   UNL     1      12.305 -46.286 -24.862  1.00  0.00     0.278 C 
ENDBRANCH   6  14
BRANCH   8  16
ATOM     16  O   UNL     1      14.845 -48.244 -27.177  1.00  0.00    -0.493 OA
ATOM     17  C   UNL     1      15.069 -48.576 -28.477  1.00  0.00     0.278 C 
ENDBRANCH   8  16
ENDBRANCH   3   5
ENDBRANCH   2   3
ENDBRANCH   1   2
BRANCH   1  18
ATOM     18  C   UNL     1      10.074 -56.863 -22.797  1.00  0.00    -0.036 A 
ATOM     19  C   UNL     1      11.392 -57.299 -22.956  1.00  0.00     0.074 A 
ATOM     20  C   UNL     1       9.052 -57.752 -23.149  1.00  0.00     0.074 A 
ATOM     21  C   UNL     1      11.782 -58.545 -23.439  1.00  0.00     0.308 A 
ATOM     22  C   UNL     1       9.385 -58.978 -23.626  1.00  0.00     0.308 A 
ATOM     23  N   UNL     1      10.697 -59.346 -23.760  1.00  0.00    -0.201 N 
BRANCH  23  24
ATOM     24  C   UNL     1      11.002 -60.599 -24.333  1.00  0.00     0.397 C 
BRANCH  24  25
ATOM     25  C   UNL     1      10.312 -60.925 -25.581  1.00  0.00     0.063 A 
ATOM     26  C   UNL     1      10.292 -60.526 -26.865  1.00  0.00     0.213 A 
ATOM     27  C   UNL     1       9.417 -62.037 -25.587  1.00  0.00     0.143 A 
ATOM     28  O   UNL     1       9.491 -61.228 -27.682  1.00  0.00    -0.409 OA
ATOM     29  C   UNL     1       8.953 -62.164 -26.908  1.00  0.00     0.433 A 
BRANCH  29  30
ATOM     30  N   UNL     1       8.035 -63.222 -27.241  1.00  0.00     0.102 N 
ATOM     31  O   UNL     1       7.270 -63.536 -26.263  1.00  0.00    -0.256 OA
ATOM     32  O   UNL     1       7.970 -63.934 -28.386  1.00  0.00    -0.256 OA
ENDBRANCH  29  30
ENDBRANCH  24  25
ENDBRANCH  23  24
ENDBRANCH   1  18
TORSDOF 9
ENDMDL
MODEL 8
REMARK VINA RESULT:    -9.693      2.661      3.337
REMARK INTER + INTRA:         -15.660
REMARK INTER:                 -14.854
REMARK INTRA:                  -0.807
REMARK UNBOUND:                -0.867
REMARK SMILES COc1cc2c(cc1OC)S[C@@H](C(=O)CCc1cc[n+](Cc3coc([N+](=O)[O-])c3)cc1)C2
REMARK SMILES IDX 16 1 15 2 13 3 14 4 12 5 3 6 4 7 8 8 5 9 7 10 6 11 32 12
REMARK SMILES IDX 11 13 2 14 1 15 9 16 10 17 17 18 18 19 31 20 19 21 30 22
REMARK SMILES IDX 20 23 21 24 22 25 23 26 29 27 24 28 25 29 26 30 27 31 28 32
REMARK H PARENT
ROOT
ATOM      1  C   UNL     1      11.011 -55.602 -21.883  1.00  0.00     0.044 C 
ENDROOT
BRANCH   1   2
ATOM      2  C   UNL     1       9.915 -54.529 -22.003  1.00  0.00     0.081 C 
BRANCH   2   3
ATOM      3  C   UNL     1      10.421 -53.175 -22.267  1.00  0.00     0.146 C 
ATOM      4  O   UNL     1       9.588 -52.248 -21.996  1.00  0.00    -0.298 OA
BRANCH   3   5
ATOM      5  C   UNL     1      11.542 -52.551 -22.700  1.00  0.00     0.123 C 
ATOM      6  C   UNL     1      15.092 -51.139 -25.465  1.00  0.00     0.161 A 
ATOM      7  C   UNL     1      14.280 -52.227 -25.145  1.00  0.00     0.055 A 
ATOM      8  C   UNL     1      14.708 -49.818 -25.142  1.00  0.00     0.161 A 
ATOM      9  C   UNL     1      13.131 -51.935 -24.510  1.00  0.00    -0.029 A 
ATOM     10  C   UNL     1      13.507 -49.505 -24.462  1.00  0.00     0.065 A 
ATOM     11  C   UNL     1      12.822 -50.648 -24.196  1.00  0.00     0.015 A 
ATOM     12  C   UNL     1      12.019 -52.800 -24.088  1.00  0.00     0.059 C 
ATOM     13  S   UNL     1      11.591 -50.691 -22.785  1.00  0.00    -0.114 SA
BRANCH   6  14
ATOM     14  O   UNL     1      16.270 -51.550 -26.082  1.00  0.00    -0.493 OA
ATOM     15  C   UNL     1      17.339 -52.075 -25.403  1.00  0.00     0.278 C 
ENDBRANCH   6  14
BRANCH   8  16
ATOM     16  O   UNL     1      15.703 -48.936 -25.597  1.00  0.00    -0.493 OA
ATOM     17  C   UNL     1      16.485 -48.180 -24.780  1.00  0.00     0.278 C 
ENDBRANCH   8  16
ENDBRANCH   3   5
ENDBRANCH   2   3
ENDBRANCH   1   2
BRANCH   1  18
ATOM     18  C   UNL     1      10.357 -56.854 -22.419  1.00  0.00    -0.036 A 
ATOM     19  C   UNL     1      11.185 -57.937 -22.119  1.00  0.00     0.074 A 
ATOM     20  C   UNL     1       9.147 -57.124 -23.068  1.00  0.00     0.074 A 
ATOM     21  C   UNL     1      10.915 -59.271 -22.412  1.00  0.00     0.308 A 
ATOM     22  C   UNL     1       8.842 -58.410 -23.377  1.00  0.00     0.308 A 
ATOM     23  N   UNL     1       9.698 -59.430 -23.056  1.00  0.00    -0.201 N 
BRANCH  23  24
ATOM     24  C   UNL     1       9.381 -60.744 -23.463  1.00  0.00     0.397 C 
BRANCH  24  25
ATOM     25  C   UNL     1       9.570 -61.045 -24.882  1.00  0.00     0.063 A 
ATOM     26  C   UNL     1       9.014 -61.804 -25.843  1.00  0.00     0.213 A 
ATOM     27  C   UNL     1      10.570 -60.322 -25.598  1.00  0.00     0.143 A 
ATOM     28  O   UNL     1       9.539 -61.670 -27.070  1.00  0.00    -0.409 OA
ATOM     29  C   UNL     1      10.492 -60.756 -26.934  1.00  0.00     0.433 A 
BRANCH  29  30
ATOM     30  N   UNL     1      11.376 -60.187 -27.918  1.00  0.00     0.102 N 
ATOM     31  O   UNL     1      10.863 -60.172 -29.091  1.00  0.00    -0.256 OA
ATOM     32  O   UNL     1      12.652 -59.779 -27.749  1.00  0.00    -0.256 OA
ENDBRANCH  29  30
ENDBRANCH  24  25
ENDBRANCH  23  24
ENDBRANCH   1  18
TORSDOF 9
ENDMDL
MODEL 9
REMARK VINA RESULT:    -9.681      3.331     10.998
REMARK INTER + INTRA:         -15.641
REMARK INTER:                 -14.997
REMARK INTRA:                  -0.645
REMARK UNBOUND:                -0.867
REMARK SMILES COc1cc2c(cc1OC)S[C@@H](C(=O)CCc1cc[n+](Cc3coc([N+](=O)[O-])c3)cc1)C2
REMARK SMILES IDX 16 1 15 2 13 3 14 4 12 5 3 6 4 7 8 8 5 9 7 10 6 11 32 12
REMARK SMILES IDX 11 13 2 14 1 15 9 16 10 17 17 18 18 19 31 20 19 21 30 22
REMARK SMILES IDX 20 23 21 24 22 25 23 26 29 27 24 28 25 29 26 30 27 31 28 32
REMARK H PARENT
ROOT
ATOM      1  C   UNL     1      10.158 -55.708 -22.775  1.00  0.00     0.044 C 
ENDROOT
BRANCH   1   2
ATOM      2  C   UNL     1      11.118 -56.339 -21.751  1.00  0.00     0.081 C 
BRANCH   2   3
ATOM      3  C   UNL     1      11.108 -57.808 -21.737  1.00  0.00     0.146 C 
ATOM      4  O   UNL     1      11.509 -58.320 -20.640  1.00  0.00    -0.298 OA
BRANCH   3   5
ATOM      5  C   UNL     1      10.774 -58.852 -22.533  1.00  0.00     0.123 C 
ATOM      6  C   UNL     1       8.287 -61.755 -25.296  1.00  0.00     0.161 A 
ATOM      7  C   UNL     1       8.210 -60.929 -24.174  1.00  0.00     0.055 A 
ATOM      8  C   UNL     1       9.328 -61.610 -26.241  1.00  0.00     0.161 A 
ATOM      9  C   UNL     1       9.184 -60.009 -24.055  1.00  0.00    -0.029 A 
ATOM     10  C   UNL     1      10.363 -60.654 -26.114  1.00  0.00     0.065 A 
ATOM     11  C   UNL     1      10.180 -59.932 -24.978  1.00  0.00     0.015 A 
ATOM     12  C   UNL     1       9.384 -58.945 -23.059  1.00  0.00     0.059 C 
ATOM     13  S   UNL     1      11.639 -59.086 -24.165  1.00  0.00    -0.114 SA
BRANCH   6  14
ATOM     14  O   UNL     1       7.259 -62.693 -25.307  1.00  0.00    -0.493 OA
ATOM     15  C   UNL     1       7.293 -63.863 -24.593  1.00  0.00     0.278 C 
ENDBRANCH   6  14
BRANCH   8  16
ATOM     16  O   UNL     1       9.141 -62.556 -27.264  1.00  0.00    -0.493 OA
ATOM     17  C   UNL     1       8.975 -62.239 -28.576  1.00  0.00     0.278 C 
ENDBRANCH   8  16
ENDBRANCH   3   5
ENDBRANCH   2   3
ENDBRANCH   1   2
BRANCH   1  18
ATOM     18  C   UNL     1      10.934 -54.537 -23.328  1.00  0.00    -0.036 A 
ATOM     19  C   UNL     1      10.791 -53.466 -22.444  1.00  0.00     0.074 A 
ATOM     20  C   UNL     1      11.749 -54.345 -24.450  1.00  0.00     0.074 A 
ATOM     21  C   UNL     1      11.387 -52.215 -22.580  1.00  0.00     0.308 A 
ATOM     22  C   UNL     1      12.350 -53.141 -24.626  1.00  0.00     0.308 A 
ATOM     23  N   UNL     1      12.169 -52.128 -23.722  1.00  0.00    -0.201 N 
BRANCH  23  24
ATOM     24  C   UNL     1      12.747 -50.868 -23.981  1.00  0.00     0.397 C 
BRANCH  24  25
ATOM     25  C   UNL     1      13.813 -50.838 -24.983  1.00  0.00     0.063 A 
ATOM     26  C   UNL     1      13.967 -50.592 -26.296  1.00  0.00     0.213 A 
ATOM     27  C   UNL     1      15.156 -51.042 -24.546  1.00  0.00     0.143 A 
ATOM     28  O   UNL     1      15.228 -50.628 -26.753  1.00  0.00    -0.409 OA
ATOM     29  C   UNL     1      15.969 -50.898 -25.684  1.00  0.00     0.433 A 
BRANCH  29  30
ATOM     30  N   UNL     1      17.398 -51.032 -25.559  1.00  0.00     0.102 N 
ATOM     31  O   UNL     1      18.035 -50.353 -26.438  1.00  0.00    -0.256 OA
ATOM     32  O   UNL     1      18.084 -51.830 -24.713  1.00  0.00    -0.256 OA
ENDBRANCH  29  30
ENDBRANCH  24  25
ENDBRANCH  23  24
ENDBRANCH   1  18
TORSDOF 9
ENDMDL
