MODEL 1
REMARK VINA RESULT:   -12.949      0.000      0.000
REMARK INTER + INTRA:         -17.090
REMARK INTER:                 -16.734
REMARK INTRA:                  -0.356
REMARK UNBOUND:                -0.356
REMARK SMILES CN1C(=O)Cc2cc3c(CC[C@H]4CC[N@H+](Cc5ccccc5)CC4)noc3cc21
REMARK SMILES IDX 11 1 12 2 14 3 15 4 13 5 23 6 24 7 16 9 17 10 18 11 22 12
REMARK SMILES IDX 19 13 21 14 20 15 10 16 9 17 8 18 25 19 7 20 27 21 26 22
REMARK SMILES IDX 6 23 28 24 5 25 29 26 3 27 2 28 4 29 1 30
REMARK H PARENT 15 8
ROOT
ATOM      1  C   UNL     1      11.051 -56.156 -21.850  1.00  0.00     0.010 C 
ENDROOT
BRANCH   1   2
ATOM      2  C   UNL     1      10.852 -57.565 -22.446  1.00  0.00     0.000 C 
ATOM      3  C   UNL     1      11.567 -59.138 -24.294  1.00  0.00     0.262 C 
ATOM      4  N   UNL     1      11.832 -60.202 -23.262  1.00  0.00    -0.331 N 
ATOM      5  C   UNL     1      11.754 -57.760 -23.674  1.00  0.00     0.065 C 
ATOM      6  C   UNL     1      10.933 -60.064 -22.056  1.00  0.00     0.262 C 
ATOM      7  C   UNL     1      11.122 -58.686 -21.434  1.00  0.00     0.065 C 
ATOM      8  H   UNL     1      12.798 -60.088 -22.931  1.00  0.00     0.348 HD
BRANCH   4   9
ATOM      9  C   UNL     1      11.766 -61.588 -23.875  1.00  0.00     0.299 C 
BRANCH   9  10
ATOM     10  C   UNL     1      10.400 -62.211 -23.776  1.00  0.00     0.006 A 
ATOM     11  C   UNL     1      10.072 -63.043 -22.693  1.00  0.00     0.009 A 
ATOM     12  C   UNL     1       9.440 -61.986 -24.776  1.00  0.00     0.009 A 
ATOM     13  C   UNL     1       8.814 -63.641 -22.619  1.00  0.00     0.001 A 
ATOM     14  C   UNL     1       8.183 -62.587 -24.696  1.00  0.00     0.001 A 
ATOM     15  C   UNL     1       7.872 -63.415 -23.620  1.00  0.00     0.000 A 
ENDBRANCH   9  10
ENDBRANCH   4   9
ENDBRANCH   1   2
BRANCH   1  16
ATOM     16  C   UNL     1      10.065 -55.082 -22.333  1.00  0.00     0.061 C 
BRANCH  16  17
ATOM     17  C   UNL     1      10.588 -53.692 -22.212  1.00  0.00     0.091 A 
ATOM     18  C   UNL     1      11.431 -52.984 -23.110  1.00  0.00     0.045 A 
ATOM     19  N   UNL     1      10.261 -52.946 -21.147  1.00  0.00    -0.084 NA
ATOM     20  C   UNL     1      12.063 -53.238 -24.342  1.00  0.00     0.020 A 
ATOM     21  C   UNL     1      11.594 -51.746 -22.498  1.00  0.00     0.169 A 
ATOM     22  O   UNL     1      10.895 -51.728 -21.331  1.00  0.00    -0.356 OA
ATOM     23  C   UNL     1      12.826 -52.200 -24.868  1.00  0.00    -0.014 A 
ATOM     24  C   UNL     1      12.354 -50.691 -23.004  1.00  0.00     0.077 A 
ATOM     25  C   UNL     1      13.609 -52.178 -26.150  1.00  0.00     0.138 C 
ATOM     26  C   UNL     1      12.963 -50.970 -24.217  1.00  0.00     0.051 A 
ATOM     27  C   UNL     1      14.210 -50.771 -26.152  1.00  0.00     0.231 C 
ATOM     28  N   UNL     1      13.782 -50.135 -24.984  1.00  0.00    -0.315 N 
ATOM     29  O   UNL     1      14.928 -50.310 -27.026  1.00  0.00    -0.274 OA
ATOM     30  C   UNL     1      14.145 -48.792 -24.614  1.00  0.00     0.153 C 
ENDBRANCH  16  17
ENDBRANCH   1  16
TORSDOF 5
ENDMDL
MODEL 2
REMARK VINA RESULT:   -12.506      1.464      1.780
REMARK INTER + INTRA:         -16.517
REMARK INTER:                 -16.302
REMARK INTRA:                  -0.215
REMARK UNBOUND:                -0.356
REMARK SMILES CN1C(=O)Cc2cc3c(CC[C@H]4CC[N@H+](Cc5ccccc5)CC4)noc3cc21
REMARK SMILES IDX 11 1 12 2 14 3 15 4 13 5 23 6 24 7 16 9 17 10 18 11 22 12
REMARK SMILES IDX 19 13 21 14 20 15 10 16 9 17 8 18 25 19 7 20 27 21 26 22
REMARK SMILES IDX 6 23 28 24 5 25 29 26 3 27 2 28 4 29 1 30
REMARK H PARENT 15 8
ROOT
ATOM      1  C   UNL     1      11.004 -56.084 -21.963  1.00  0.00     0.010 C 
ENDROOT
BRANCH   1   2
ATOM      2  C   UNL     1      10.848 -57.514 -22.523  1.00  0.00     0.000 C 
ATOM      3  C   UNL     1      11.637 -59.121 -24.310  1.00  0.00     0.262 C 
ATOM      4  N   UNL     1      11.900 -60.151 -23.243  1.00  0.00    -0.331 N 
ATOM      5  C   UNL     1      11.781 -57.722 -23.725  1.00  0.00     0.065 C 
ATOM      6  C   UNL     1      10.971 -59.999 -22.061  1.00  0.00     0.262 C 
ATOM      7  C   UNL     1      11.118 -58.600 -21.474  1.00  0.00     0.065 C 
ATOM      8  H   UNL     1      12.855 -60.007 -22.893  1.00  0.00     0.348 HD
BRANCH   4   9
ATOM      9  C   UNL     1      11.876 -61.554 -23.817  1.00  0.00     0.299 C 
BRANCH   9  10
ATOM     10  C   UNL     1      10.500 -62.160 -23.835  1.00  0.00     0.006 A 
ATOM     11  C   UNL     1      10.062 -62.965 -22.771  1.00  0.00     0.009 A 
ATOM     12  C   UNL     1       9.641 -61.947 -24.925  1.00  0.00     0.009 A 
ATOM     13  C   UNL     1       8.794 -63.548 -22.803  1.00  0.00     0.001 A 
ATOM     14  C   UNL     1       8.374 -62.532 -24.951  1.00  0.00     0.001 A 
ATOM     15  C   UNL     1       7.953 -63.333 -23.893  1.00  0.00     0.000 A 
ENDBRANCH   9  10
ENDBRANCH   4   9
ENDBRANCH   1   2
BRANCH   1  16
ATOM     16  C   UNL     1      11.254 -54.983 -23.005  1.00  0.00     0.061 C 
BRANCH  16  17
ATOM     17  C   UNL     1      10.725 -53.649 -22.603  1.00  0.00     0.091 A 
ATOM     18  C   UNL     1      11.247 -52.364 -22.906  1.00  0.00     0.045 A 
ATOM     19  N   UNL     1       9.609 -53.569 -21.862  1.00  0.00    -0.084 NA
ATOM     20  C   UNL     1      12.344 -51.843 -23.619  1.00  0.00     0.020 A 
ATOM     21  C   UNL     1      10.360 -51.494 -22.281  1.00  0.00     0.169 A 
ATOM     22  O   UNL     1       9.387 -52.216 -21.662  1.00  0.00    -0.356 OA
ATOM     23  C   UNL     1      12.459 -50.456 -23.644  1.00  0.00    -0.014 A 
ATOM     24  C   UNL     1      10.455 -50.102 -22.291  1.00  0.00     0.077 A 
ATOM     25  C   UNL     1      13.514 -49.623 -24.314  1.00  0.00     0.138 C 
ATOM     26  C   UNL     1      11.543 -49.619 -23.000  1.00  0.00     0.051 A 
ATOM     27  C   UNL     1      13.079 -48.195 -23.975  1.00  0.00     0.231 C 
ATOM     28  N   UNL     1      11.919 -48.287 -23.203  1.00  0.00    -0.315 N 
ATOM     29  O   UNL     1      13.655 -47.178 -24.328  1.00  0.00    -0.274 OA
ATOM     30  C   UNL     1      11.205 -47.153 -22.676  1.00  0.00     0.153 C 
ENDBRANCH  16  17
ENDBRANCH   1  16
TORSDOF 5
ENDMDL
MODEL 3
REMARK VINA RESULT:   -11.819      1.774      2.361
REMARK INTER + INTRA:         -15.631
REMARK INTER:                 -15.337
REMARK INTRA:                  -0.293
REMARK UNBOUND:                -0.356
REMARK SMILES CN1C(=O)Cc2cc3c(CC[C@H]4CC[N@H+](Cc5ccccc5)CC4)noc3cc21
REMARK SMILES IDX 11 1 12 2 14 3 15 4 13 5 23 6 24 7 16 9 17 10 18 11 22 12
REMARK SMILES IDX 19 13 21 14 20 15 10 16 9 17 8 18 25 19 7 20 27 21 26 22
REMARK SMILES IDX 6 23 28 24 5 25 29 26 3 27 2 28 4 29 1 30
REMARK H PARENT 15 8
ROOT
ATOM      1  C   UNL     1      10.701 -55.984 -22.007  1.00  0.00     0.010 C 
ENDROOT
BRANCH   1   2
ATOM      2  C   UNL     1      10.949 -57.296 -22.782  1.00  0.00     0.000 C 
ATOM      3  C   UNL     1      12.036 -59.578 -22.670  1.00  0.00     0.262 C 
ATOM      4  N   UNL     1      10.736 -60.199 -23.108  1.00  0.00    -0.331 N 
ATOM      5  C   UNL     1      11.761 -58.278 -21.925  1.00  0.00     0.065 C 
ATOM      6  C   UNL     1       9.928 -59.273 -23.987  1.00  0.00     0.262 C 
ATOM      7  C   UNL     1       9.651 -57.974 -23.240  1.00  0.00     0.065 C 
ATOM      8  H   UNL     1      10.173 -60.381 -22.269  1.00  0.00     0.348 HD
BRANCH   4   9
ATOM      9  C   UNL     1      10.965 -61.552 -23.755  1.00  0.00     0.299 C 
BRANCH   9  10
ATOM     10  C   UNL     1       9.694 -62.331 -23.957  1.00  0.00     0.006 A 
ATOM     11  C   UNL     1       9.156 -63.101 -22.914  1.00  0.00     0.009 A 
ATOM     12  C   UNL     1       9.039 -62.315 -25.199  1.00  0.00     0.009 A 
ATOM     13  C   UNL     1       7.992 -63.844 -23.114  1.00  0.00     0.001 A 
ATOM     14  C   UNL     1       7.875 -63.060 -25.393  1.00  0.00     0.001 A 
ATOM     15  C   UNL     1       7.354 -63.825 -24.352  1.00  0.00     0.000 A 
ENDBRANCH   9  10
ENDBRANCH   4   9
ENDBRANCH   1   2
BRANCH   1  16
ATOM     16  C   UNL     1      10.143 -54.816 -22.835  1.00  0.00     0.061 C 
BRANCH  16  17
ATOM     17  C   UNL     1      11.156 -54.171 -23.716  1.00  0.00     0.091 A 
ATOM     18  C   UNL     1      11.715 -52.869 -23.615  1.00  0.00     0.045 A 
ATOM     19  N   UNL     1      11.658 -54.845 -24.762  1.00  0.00    -0.084 NA
ATOM     20  C   UNL     1      11.583 -51.759 -22.758  1.00  0.00     0.020 A 
ATOM     21  C   UNL     1      12.595 -52.805 -24.689  1.00  0.00     0.169 A 
ATOM     22  O   UNL     1      12.558 -53.984 -25.368  1.00  0.00    -0.356 OA
ATOM     23  C   UNL     1      12.367 -50.650 -23.063  1.00  0.00    -0.014 A 
ATOM     24  C   UNL     1      13.389 -51.706 -25.016  1.00  0.00     0.077 A 
ATOM     25  C   UNL     1      12.438 -49.335 -22.341  1.00  0.00     0.138 C 
ATOM     26  C   UNL     1      13.238 -50.630 -24.156  1.00  0.00     0.051 A 
ATOM     27  C   UNL     1      13.470 -48.558 -23.161  1.00  0.00     0.231 C 
ATOM     28  N   UNL     1      13.885 -49.390 -24.203  1.00  0.00    -0.315 N 
ATOM     29  O   UNL     1      13.849 -47.421 -22.926  1.00  0.00    -0.274 OA
ATOM     30  C   UNL     1      14.849 -49.015 -25.204  1.00  0.00     0.153 C 
ENDBRANCH  16  17
ENDBRANCH   1  16
TORSDOF 5
ENDMDL
MODEL 4
REMARK VINA RESULT:   -11.550      3.550     11.010
REMARK INTER + INTRA:         -15.283
REMARK INTER:                 -14.745
REMARK INTRA:                  -0.538
REMARK UNBOUND:                -0.356
REMARK SMILES CN1C(=O)Cc2cc3c(CC[C@H]4CC[N@H+](Cc5ccccc5)CC4)noc3cc21
REMARK SMILES IDX 11 1 12 2 14 3 15 4 13 5 23 6 24 7 16 9 17 10 18 11 22 12
REMARK SMILES IDX 19 13 21 14 20 15 10 16 9 17 8 18 25 19 7 20 27 21 26 22
REMARK SMILES IDX 6 23 28 24 5 25 29 26 3 27 2 28 4 29 1 30
REMARK H PARENT 15 8
ROOT
ATOM      1  C   UNL     1      10.800 -54.525 -23.751  1.00  0.00     0.010 C 
ENDROOT
BRANCH   1   2
ATOM      2  C   UNL     1      11.396 -53.296 -23.031  1.00  0.00     0.000 C 
ATOM      3  C   UNL     1      12.873 -51.261 -23.314  1.00  0.00     0.262 C 
ATOM      4  N   UNL     1      11.786 -50.410 -22.710  1.00  0.00    -0.331 N 
ATOM      5  C   UNL     1      12.257 -52.473 -24.001  1.00  0.00     0.065 C 
ATOM      6  C   UNL     1      10.943 -51.180 -21.720  1.00  0.00     0.262 C 
ATOM      7  C   UNL     1      10.325 -52.391 -22.408  1.00  0.00     0.065 C 
ATOM      8  H   UNL     1      11.160 -50.111 -23.467  1.00  0.00     0.348 HD
BRANCH   4   9
ATOM      9  C   UNL     1      12.354 -49.136 -22.115  1.00  0.00     0.299 C 
BRANCH   9  10
ATOM     10  C   UNL     1      11.819 -47.892 -22.769  1.00  0.00     0.006 A 
ATOM     11  C   UNL     1      11.007 -47.000 -22.048  1.00  0.00     0.009 A 
ATOM     12  C   UNL     1      12.106 -47.614 -24.115  1.00  0.00     0.009 A 
ATOM     13  C   UNL     1      10.490 -45.861 -22.666  1.00  0.00     0.001 A 
ATOM     14  C   UNL     1      11.585 -46.473 -24.727  1.00  0.00     0.001 A 
ATOM     15  C   UNL     1      10.777 -45.600 -24.004  1.00  0.00     0.000 A 
ENDBRANCH   9  10
ENDBRANCH   4   9
ENDBRANCH   1   2
BRANCH   1  16
ATOM     16  C   UNL     1       9.777 -55.339 -22.944  1.00  0.00     0.061 C 
BRANCH  16  17
ATOM     17  C   UNL     1      10.246 -56.710 -22.598  1.00  0.00     0.091 A 
ATOM     18  C   UNL     1       9.584 -57.950 -22.808  1.00  0.00     0.045 A 
ATOM     19  N   UNL     1      11.441 -56.880 -22.013  1.00  0.00    -0.084 NA
ATOM     20  C   UNL     1       8.362 -58.380 -23.359  1.00  0.00     0.020 A 
ATOM     21  C   UNL     1      10.474 -58.887 -22.295  1.00  0.00     0.169 A 
ATOM     22  O   UNL     1      11.578 -58.246 -21.824  1.00  0.00    -0.356 OA
ATOM     23  C   UNL     1       8.132 -59.753 -23.348  1.00  0.00    -0.014 A 
ATOM     24  C   UNL     1      10.266 -60.266 -22.271  1.00  0.00     0.077 A 
ATOM     25  C   UNL     1       6.932 -60.499 -23.857  1.00  0.00     0.138 C 
ATOM     26  C   UNL     1       9.055 -60.661 -22.820  1.00  0.00     0.051 A 
ATOM     27  C   UNL     1       7.291 -61.956 -23.558  1.00  0.00     0.231 C 
ATOM     28  N   UNL     1       8.549 -61.958 -22.951  1.00  0.00    -0.315 N 
ATOM     29  O   UNL     1       6.591 -62.924 -23.815  1.00  0.00    -0.274 OA
ATOM     30  C   UNL     1       9.232 -63.144 -22.507  1.00  0.00     0.153 C 
ENDBRANCH  16  17
ENDBRANCH   1  16
TORSDOF 5
ENDMDL
MODEL 5
REMARK VINA RESULT:   -11.399      3.565     10.057
REMARK INTER + INTRA:         -15.087
REMARK INTER:                 -14.806
REMARK INTRA:                  -0.281
REMARK UNBOUND:                -0.356
REMARK SMILES CN1C(=O)Cc2cc3c(CC[C@H]4CC[N@H+](Cc5ccccc5)CC4)noc3cc21
REMARK SMILES IDX 11 1 12 2 14 3 15 4 13 5 23 6 24 7 16 9 17 10 18 11 22 12
REMARK SMILES IDX 19 13 21 14 20 15 10 16 9 17 8 18 25 19 7 20 27 21 26 22
REMARK SMILES IDX 6 23 28 24 5 25 29 26 3 27 2 28 4 29 1 30
REMARK H PARENT 15 8
ROOT
ATOM      1  C   UNL     1      11.078 -58.227 -21.899  1.00  0.00     0.010 C 
ENDROOT
BRANCH   1   2
ATOM      2  C   UNL     1      11.071 -56.714 -22.203  1.00  0.00     0.000 C 
ATOM      3  C   UNL     1       9.856 -54.868 -23.435  1.00  0.00     0.262 C 
ATOM      4  N   UNL     1       9.828 -54.062 -22.163  1.00  0.00    -0.331 N 
ATOM      5  C   UNL     1       9.880 -56.355 -23.104  1.00  0.00     0.065 C 
ATOM      6  C   UNL     1      11.010 -54.362 -21.271  1.00  0.00     0.262 C 
ATOM      7  C   UNL     1      11.032 -55.849 -20.937  1.00  0.00     0.065 C 
ATOM      8  H   UNL     1       8.984 -54.324 -21.641  1.00  0.00     0.348 HD
BRANCH   4   9
ATOM      9  C   UNL     1       9.690 -52.580 -22.456  1.00  0.00     0.299 C 
BRANCH   9  10
ATOM     10  C   UNL     1      11.005 -51.914 -22.758  1.00  0.00     0.006 A 
ATOM     11  C   UNL     1      11.354 -50.708 -22.130  1.00  0.00     0.009 A 
ATOM     12  C   UNL     1      11.893 -52.479 -23.687  1.00  0.00     0.009 A 
ATOM     13  C   UNL     1      12.562 -50.079 -22.433  1.00  0.00     0.001 A 
ATOM     14  C   UNL     1      13.099 -51.845 -23.986  1.00  0.00     0.001 A 
ATOM     15  C   UNL     1      13.432 -50.646 -23.361  1.00  0.00     0.000 A 
ENDBRANCH   9  10
ENDBRANCH   4   9
ENDBRANCH   1   2
BRANCH   1  16
ATOM     16  C   UNL     1      12.096 -59.062 -22.690  1.00  0.00     0.061 C 
BRANCH  16  17
ATOM     17  C   UNL     1      11.667 -59.363 -24.085  1.00  0.00     0.091 A 
ATOM     18  C   UNL     1      10.721 -60.324 -24.531  1.00  0.00     0.045 A 
ATOM     19  N   UNL     1      12.192 -58.674 -25.109  1.00  0.00    -0.084 NA
ATOM     20  C   UNL     1       9.884 -61.291 -23.941  1.00  0.00     0.020 A 
ATOM     21  C   UNL     1      10.721 -60.168 -25.912  1.00  0.00     0.169 A 
ATOM     22  O   UNL     1      11.597 -59.183 -26.251  1.00  0.00    -0.356 OA
ATOM     23  C   UNL     1       9.096 -62.037 -24.813  1.00  0.00    -0.014 A 
ATOM     24  C   UNL     1       9.942 -60.903 -26.806  1.00  0.00     0.077 A 
ATOM     25  C   UNL     1       8.118 -63.128 -24.481  1.00  0.00     0.138 C 
ATOM     26  C   UNL     1       9.128 -61.845 -26.197  1.00  0.00     0.051 A 
ATOM     27  C   UNL     1       7.588 -63.534 -25.857  1.00  0.00     0.231 C 
ATOM     28  N   UNL     1       8.234 -62.734 -26.804  1.00  0.00    -0.315 N 
ATOM     29  O   UNL     1       6.753 -64.400 -26.066  1.00  0.00    -0.274 OA
ATOM     30  C   UNL     1       8.013 -62.820 -28.223  1.00  0.00     0.153 C 
ENDBRANCH  16  17
ENDBRANCH   1  16
TORSDOF 5
ENDMDL
MODEL 6
REMARK VINA RESULT:   -11.085      3.114     10.486
REMARK INTER + INTRA:         -14.681
REMARK INTER:                 -14.584
REMARK INTRA:                  -0.097
REMARK UNBOUND:                -0.356
REMARK SMILES CN1C(=O)Cc2cc3c(CC[C@H]4CC[N@H+](Cc5ccccc5)CC4)noc3cc21
REMARK SMILES IDX 11 1 12 2 14 3 15 4 13 5 23 6 24 7 16 9 17 10 18 11 22 12
REMARK SMILES IDX 19 13 21 14 20 15 10 16 9 17 8 18 25 19 7 20 27 21 26 22
REMARK SMILES IDX 6 23 28 24 5 25 29 26 3 27 2 28 4 29 1 30
REMARK H PARENT 15 8
ROOT
ATOM      1  C   UNL     1       9.652 -54.037 -22.005  1.00  0.00     0.010 C 
ENDROOT
BRANCH   1   2
ATOM      2  C   UNL     1      10.592 -52.813 -21.990  1.00  0.00     0.000 C 
ATOM      3  C   UNL     1      12.621 -51.762 -23.078  1.00  0.00     0.262 C 
ATOM      4  N   UNL     1      11.843 -50.484 -23.252  1.00  0.00    -0.331 N 
ATOM      5  C   UNL     1      11.667 -52.950 -23.078  1.00  0.00     0.065 C 
ATOM      6  C   UNL     1      10.802 -50.298 -22.173  1.00  0.00     0.262 C 
ATOM      7  C   UNL     1       9.846 -51.485 -22.177  1.00  0.00     0.065 C 
ATOM      8  H   UNL     1      11.342 -50.538 -24.147  1.00  0.00     0.348 HD
BRANCH   4   9
ATOM      9  C   UNL     1      12.771 -49.290 -23.369  1.00  0.00     0.299 C 
BRANCH   9  10
ATOM     10  C   UNL     1      13.441 -49.194 -24.713  1.00  0.00     0.006 A 
ATOM     11  C   UNL     1      13.642 -50.344 -25.493  1.00  0.00     0.009 A 
ATOM     12  C   UNL     1      13.893 -47.956 -25.198  1.00  0.00     0.009 A 
ATOM     13  C   UNL     1      14.288 -50.256 -26.727  1.00  0.00     0.001 A 
ATOM     14  C   UNL     1      14.539 -47.874 -26.432  1.00  0.00     0.001 A 
ATOM     15  C   UNL     1      14.737 -49.023 -27.194  1.00  0.00     0.000 A 
ENDBRANCH   9  10
ENDBRANCH   4   9
ENDBRANCH   1   2
BRANCH   1  16
ATOM     16  C   UNL     1       9.803 -54.979 -23.209  1.00  0.00     0.061 C 
BRANCH  16  17
ATOM     17  C   UNL     1      10.264 -56.347 -22.844  1.00  0.00     0.091 A 
ATOM     18  C   UNL     1       9.569 -57.579 -22.974  1.00  0.00     0.045 A 
ATOM     19  N   UNL     1      11.488 -56.523 -22.322  1.00  0.00    -0.084 NA
ATOM     20  C   UNL     1       8.309 -58.002 -23.440  1.00  0.00     0.020 A 
ATOM     21  C   UNL     1      10.469 -58.517 -22.482  1.00  0.00     0.169 A 
ATOM     22  O   UNL     1      11.610 -57.884 -22.096  1.00  0.00    -0.356 OA
ATOM     23  C   UNL     1       8.054 -59.369 -23.369  1.00  0.00    -0.014 A 
ATOM     24  C   UNL     1      10.236 -59.891 -22.400  1.00  0.00     0.077 A 
ATOM     25  C   UNL     1       6.813 -60.106 -23.784  1.00  0.00     0.138 C 
ATOM     26  C   UNL     1       8.990 -60.277 -22.865  1.00  0.00     0.051 A 
ATOM     27  C   UNL     1       7.161 -61.559 -23.457  1.00  0.00     0.231 C 
ATOM     28  N   UNL     1       8.452 -61.568 -22.923  1.00  0.00    -0.315 N 
ATOM     29  O   UNL     1       6.430 -62.520 -23.641  1.00  0.00    -0.274 OA
ATOM     30  C   UNL     1       9.137 -62.753 -22.479  1.00  0.00     0.153 C 
ENDBRANCH  16  17
ENDBRANCH   1  16
TORSDOF 5
ENDMDL
MODEL 7
REMARK VINA RESULT:   -10.626      3.235      4.923
REMARK INTER + INTRA:         -14.088
REMARK INTER:                 -13.634
REMARK INTRA:                  -0.454
REMARK UNBOUND:                -0.356
REMARK SMILES CN1C(=O)Cc2cc3c(CC[C@H]4CC[N@H+](Cc5ccccc5)CC4)noc3cc21
REMARK SMILES IDX 11 1 12 2 14 3 15 4 13 5 23 6 24 7 16 9 17 10 18 11 22 12
REMARK SMILES IDX 19 13 21 14 20 15 10 16 9 17 8 18 25 19 7 20 27 21 26 22
REMARK SMILES IDX 6 23 28 24 5 25 29 26 3 27 2 28 4 29 1 30
REMARK H PARENT 15 8
ROOT
ATOM      1  C   UNL     1      10.276 -52.250 -22.472  1.00  0.00     0.010 C 
ENDROOT
BRANCH   1   2
ATOM      2  C   UNL     1      10.998 -53.604 -22.640  1.00  0.00     0.000 C 
ATOM      3  C   UNL     1      11.000 -56.036 -21.941  1.00  0.00     0.262 C 
ATOM      4  N   UNL     1      11.069 -56.434 -23.392  1.00  0.00    -0.331 N 
ATOM      5  C   UNL     1      10.299 -54.690 -21.808  1.00  0.00     0.065 C 
ATOM      6  C   UNL     1      11.787 -55.404 -24.233  1.00  0.00     0.262 C 
ATOM      7  C   UNL     1      11.083 -54.059 -24.102  1.00  0.00     0.065 C 
ATOM      8  H   UNL     1      10.108 -56.495 -23.749  1.00  0.00     0.348 HD
BRANCH   4   9
ATOM      9  C   UNL     1      11.660 -57.822 -23.552  1.00  0.00     0.299 C 
BRANCH   9  10
ATOM     10  C   UNL     1      10.763 -58.908 -23.024  1.00  0.00     0.006 A 
ATOM     11  C   UNL     1       9.661 -59.351 -23.774  1.00  0.00     0.009 A 
ATOM     12  C   UNL     1      11.002 -59.480 -21.764  1.00  0.00     0.009 A 
ATOM     13  C   UNL     1       8.816 -60.339 -23.268  1.00  0.00     0.001 A 
ATOM     14  C   UNL     1      10.153 -60.468 -21.264  1.00  0.00     0.001 A 
ATOM     15  C   UNL     1       9.060 -60.895 -22.015  1.00  0.00     0.000 A 
ENDBRANCH   9  10
ENDBRANCH   4   9
ENDBRANCH   1   2
BRANCH   1  16
ATOM     16  C   UNL     1      11.096 -51.135 -21.804  1.00  0.00     0.061 C 
BRANCH  16  17
ATOM     17  C   UNL     1      11.806 -50.254 -22.773  1.00  0.00     0.091 A 
ATOM     18  C   UNL     1      11.625 -48.864 -23.001  1.00  0.00     0.045 A 
ATOM     19  N   UNL     1      12.760 -50.765 -23.567  1.00  0.00    -0.084 NA
ATOM     20  C   UNL     1      10.807 -47.838 -22.489  1.00  0.00     0.020 A 
ATOM     21  C   UNL     1      12.542 -48.573 -24.004  1.00  0.00     0.169 A 
ATOM     22  O   UNL     1      13.216 -49.708 -24.336  1.00  0.00    -0.356 OA
ATOM     23  C   UNL     1      10.988 -46.573 -23.042  1.00  0.00    -0.014 A 
ATOM     24  C   UNL     1      12.740 -47.316 -24.576  1.00  0.00     0.077 A 
ATOM     25  C   UNL     1      10.268 -45.299 -22.704  1.00  0.00     0.138 C 
ATOM     26  C   UNL     1      11.923 -46.327 -24.051  1.00  0.00     0.051 A 
ATOM     27  C   UNL     1      10.918 -44.286 -23.649  1.00  0.00     0.231 C 
ATOM     28  N   UNL     1      11.874 -44.973 -24.401  1.00  0.00    -0.315 N 
ATOM     29  O   UNL     1      10.639 -43.099 -23.713  1.00  0.00    -0.274 OA
ATOM     30  C   UNL     1      12.697 -44.366 -25.414  1.00  0.00     0.153 C 
ENDBRANCH  16  17
ENDBRANCH   1  16
TORSDOF 5
ENDMDL
MODEL 8
REMARK VINA RESULT:   -10.582      2.323      3.733
REMARK INTER + INTRA:         -14.032
REMARK INTER:                 -13.024
REMARK INTRA:                  -1.008
REMARK UNBOUND:                -0.356
REMARK SMILES CN1C(=O)Cc2cc3c(CC[C@H]4CC[N@H+](Cc5ccccc5)CC4)noc3cc21
REMARK SMILES IDX 11 1 12 2 14 3 15 4 13 5 23 6 24 7 16 9 17 10 18 11 22 12
REMARK SMILES IDX 19 13 21 14 20 15 10 16 9 17 8 18 25 19 7 20 27 21 26 22
REMARK SMILES IDX 6 23 28 24 5 25 29 26 3 27 2 28 4 29 1 30
REMARK H PARENT 15 8
ROOT
ATOM      1  C   UNL     1      10.310 -52.055 -22.357  1.00  0.00     0.010 C 
ENDROOT
BRANCH   1   2
ATOM      2  C   UNL     1      10.997 -53.424 -22.547  1.00  0.00     0.000 C 
ATOM      3  C   UNL     1      10.973 -55.854 -21.841  1.00  0.00     0.262 C 
ATOM      4  N   UNL     1      10.983 -56.257 -23.293  1.00  0.00    -0.331 N 
ATOM      5  C   UNL     1      10.306 -54.493 -21.688  1.00  0.00     0.065 C 
ATOM      6  C   UNL     1      11.692 -55.244 -24.162  1.00  0.00     0.262 C 
ATOM      7  C   UNL     1      11.022 -53.884 -24.010  1.00  0.00     0.065 C 
ATOM      8  H   UNL     1      10.009 -56.299 -23.616  1.00  0.00     0.348 HD
BRANCH   4   9
ATOM      9  C   UNL     1      11.539 -57.657 -23.469  1.00  0.00     0.299 C 
BRANCH   9  10
ATOM     10  C   UNL     1      10.613 -58.726 -22.958  1.00  0.00     0.006 A 
ATOM     11  C   UNL     1      11.056 -59.657 -22.004  1.00  0.00     0.009 A 
ATOM     12  C   UNL     1       9.299 -58.823 -23.443  1.00  0.00     0.009 A 
ATOM     13  C   UNL     1      10.203 -60.664 -21.553  1.00  0.00     0.001 A 
ATOM     14  C   UNL     1       8.451 -59.833 -22.988  1.00  0.00     0.001 A 
ATOM     15  C   UNL     1       8.904 -60.754 -22.046  1.00  0.00     0.000 A 
ENDBRANCH   9  10
ENDBRANCH   4   9
ENDBRANCH   1   2
BRANCH   1  16
ATOM     16  C   UNL     1      11.179 -50.953 -21.734  1.00  0.00     0.061 C 
BRANCH  16  17
ATOM     17  C   UNL     1      11.871 -50.097 -22.738  1.00  0.00     0.091 A 
ATOM     18  C   UNL     1      13.045 -50.384 -23.484  1.00  0.00     0.045 A 
ATOM     19  N   UNL     1      11.379 -48.886 -23.037  1.00  0.00    -0.084 NA
ATOM     20  C   UNL     1      13.956 -51.452 -23.594  1.00  0.00     0.020 A 
ATOM     21  C   UNL     1      13.230 -49.243 -24.256  1.00  0.00     0.169 A 
ATOM     22  O   UNL     1      12.235 -48.354 -23.987  1.00  0.00    -0.356 OA
ATOM     23  C   UNL     1      15.003 -51.277 -24.495  1.00  0.00    -0.014 A 
ATOM     24  C   UNL     1      14.271 -49.044 -25.164  1.00  0.00     0.077 A 
ATOM     25  C   UNL     1      16.117 -52.230 -24.822  1.00  0.00     0.138 C 
ATOM     26  C   UNL     1      15.151 -50.111 -25.251  1.00  0.00     0.051 A 
ATOM     27  C   UNL     1      16.922 -51.459 -25.870  1.00  0.00     0.231 C 
ATOM     28  N   UNL     1      16.286 -50.229 -26.060  1.00  0.00    -0.315 N 
ATOM     29  O   UNL     1      17.930 -51.865 -26.428  1.00  0.00    -0.274 OA
ATOM     30  C   UNL     1      16.747 -49.211 -26.966  1.00  0.00     0.153 C 
ENDBRANCH  16  17
ENDBRANCH   1  16
TORSDOF 5
ENDMDL
MODEL 9
REMARK VINA RESULT:   -10.290      3.150      4.670
REMARK INTER + INTRA:         -13.654
REMARK INTER:                 -13.171
REMARK INTRA:                  -0.483
REMARK UNBOUND:                -0.356
REMARK SMILES CN1C(=O)Cc2cc3c(CC[C@H]4CC[N@H+](Cc5ccccc5)CC4)noc3cc21
REMARK SMILES IDX 11 1 12 2 14 3 15 4 13 5 23 6 24 7 16 9 17 10 18 11 22 12
REMARK SMILES IDX 19 13 21 14 20 15 10 16 9 17 8 18 25 19 7 20 27 21 26 22
REMARK SMILES IDX 6 23 28 24 5 25 29 26 3 27 2 28 4 29 1 30
REMARK H PARENT 15 8
ROOT
ATOM      1  C   UNL     1      10.801 -52.134 -22.716  1.00  0.00     0.010 C 
ENDROOT
BRANCH   1   2
ATOM      2  C   UNL     1      11.367 -53.566 -22.826  1.00  0.00     0.000 C 
ATOM      3  C   UNL     1      11.064 -55.962 -22.072  1.00  0.00     0.262 C 
ATOM      4  N   UNL     1      11.135 -56.405 -23.510  1.00  0.00    -0.331 N 
ATOM      5  C   UNL     1      10.519 -54.542 -21.996  1.00  0.00     0.065 C 
ATOM      6  C   UNL     1      11.995 -55.487 -24.348  1.00  0.00     0.262 C 
ATOM      7  C   UNL     1      11.448 -54.067 -24.274  1.00  0.00     0.065 C 
ATOM      8  H   UNL     1      10.186 -56.365 -23.901  1.00  0.00     0.348 HD
BRANCH   4   9
ATOM      9  C   UNL     1      11.567 -57.855 -23.616  1.00  0.00     0.299 C 
BRANCH   9  10
ATOM     10  C   UNL     1      10.572 -58.811 -23.017  1.00  0.00     0.006 A 
ATOM     11  C   UNL     1      10.948 -59.669 -21.971  1.00  0.00     0.009 A 
ATOM     12  C   UNL     1       9.258 -58.873 -23.508  1.00  0.00     0.009 A 
ATOM     13  C   UNL     1      10.030 -60.574 -21.436  1.00  0.00     0.001 A 
ATOM     14  C   UNL     1       8.344 -59.779 -22.968  1.00  0.00     0.001 A 
ATOM     15  C   UNL     1       8.731 -60.630 -21.936  1.00  0.00     0.000 A 
ENDBRANCH   9  10
ENDBRANCH   4   9
ENDBRANCH   1   2
BRANCH   1  16
ATOM     16  C   UNL     1      11.823 -50.999 -22.878  1.00  0.00     0.061 C 
BRANCH  16  17
ATOM     17  C   UNL     1      11.226 -49.638 -22.771  1.00  0.00     0.091 A 
ATOM     18  C   UNL     1      11.639 -48.439 -23.411  1.00  0.00     0.045 A 
ATOM     19  N   UNL     1      10.153 -49.439 -21.991  1.00  0.00    -0.084 NA
ATOM     20  C   UNL     1      12.653 -48.050 -24.307  1.00  0.00     0.020 A 
ATOM     21  C   UNL     1      10.731 -47.492 -22.950  1.00  0.00     0.169 A 
ATOM     22  O   UNL     1       9.848 -48.092 -22.106  1.00  0.00    -0.356 OA
ATOM     23  C   UNL     1      12.669 -46.707 -24.674  1.00  0.00    -0.014 A 
ATOM     24  C   UNL     1      10.727 -46.142 -23.301  1.00  0.00     0.077 A 
ATOM     25  C   UNL     1      13.622 -46.008 -25.600  1.00  0.00     0.138 C 
ATOM     26  C   UNL     1      11.736 -45.789 -24.184  1.00  0.00     0.051 A 
ATOM     27  C   UNL     1      13.109 -44.566 -25.583  1.00  0.00     0.231 C 
ATOM     28  N   UNL     1      12.005 -44.528 -24.728  1.00  0.00    -0.315 N 
ATOM     29  O   UNL     1      13.591 -43.636 -26.211  1.00  0.00    -0.274 OA
ATOM     30  C   UNL     1      11.246 -43.341 -24.437  1.00  0.00     0.153 C 
ENDBRANCH  16  17
ENDBRANCH   1  16
TORSDOF 5
ENDMDL
