MODEL 1
REMARK VINA RESULT:   -13.218      0.000      0.000
REMARK INTER + INTRA:         -17.278
REMARK INTER:                 -17.082
REMARK INTRA:                  -0.196
REMARK UNBOUND:                -0.196
REMARK SMILES COc1ccccc1C(=O)Nc1ccc2c(c1)CN(C(=O)c1cccc(C)c1)C(=O)C2
REMARK SMILES IDX 12 1 13 2 14 3 15 4 16 5 17 6 18 7 19 8 29 9 30 10 31 11
REMARK SMILES IDX 11 12 9 13 10 14 8 16 3 17 4 18 5 19 7 20 6 21 2 22 1 23
REMARK SMILES IDX 20 24 21 25 22 26 23 27 28 28 24 29 26 30 25 31 27 32
REMARK H PARENT 11 15
ROOT
ATOM      1  C   UNL     1      10.927 -57.013 -22.311  1.00  0.00     0.041 A 
ATOM      2  C   UNL     1      11.353 -57.615 -21.123  1.00  0.00     0.026 A 
ATOM      3  C   UNL     1      11.078 -58.966 -20.875  1.00  0.00     0.007 A 
ATOM      4  C   UNL     1      10.366 -59.734 -21.810  1.00  0.00    -0.033 A 
ATOM      5  C   UNL     1       9.912 -59.138 -22.983  1.00  0.00    -0.022 A 
ATOM      6  C   UNL     1      10.202 -57.782 -23.231  1.00  0.00     0.032 A 
ATOM      7  C   UNL     1       9.206 -59.971 -24.024  1.00  0.00     0.164 C 
ATOM      8  N   UNL     1       8.569 -61.159 -23.487  1.00  0.00    -0.274 N 
ATOM      9  C   UNL     1       9.296 -61.934 -22.604  1.00  0.00     0.234 C 
ATOM     10  O   UNL     1       9.265 -63.166 -22.571  1.00  0.00    -0.274 OA
ATOM     11  C   UNL     1      10.095 -61.191 -21.547  1.00  0.00     0.136 C 
ENDROOT
BRANCH   1  12
ATOM     12  N   UNL     1      11.280 -55.659 -22.503  1.00  0.00    -0.322 N 
ATOM     13  C   UNL     1      10.547 -54.532 -22.189  1.00  0.00     0.259 C 
ATOM     14  O   UNL     1       9.458 -54.528 -21.621  1.00  0.00    -0.269 OA
ATOM     15  H   UNL     1      12.156 -55.486 -22.993  1.00  0.00     0.170 HD
BRANCH  13  16
ATOM     16  C   UNL     1      11.152 -53.210 -22.580  1.00  0.00     0.082 A 
ATOM     17  C   UNL     1      11.870 -52.978 -23.773  1.00  0.00     0.131 A 
ATOM     18  C   UNL     1      12.401 -51.702 -24.029  1.00  0.00     0.047 A 
ATOM     19  C   UNL     1      12.185 -50.650 -23.135  1.00  0.00     0.004 A 
ATOM     20  C   UNL     1      10.944 -52.136 -21.694  1.00  0.00     0.018 A 
ATOM     21  C   UNL     1      11.449 -50.864 -21.974  1.00  0.00     0.001 A 
BRANCH  17  22
ATOM     22  O   UNL     1      12.084 -54.025 -24.638  1.00  0.00    -0.496 OA
ATOM     23  C   UNL     1      13.020 -53.749 -25.705  1.00  0.00     0.278 C 
ENDBRANCH  17  22
ENDBRANCH  13  16
ENDBRANCH   1  12
BRANCH   8  24
ATOM     24  C   UNL     1       7.690 -61.772 -24.387  1.00  0.00     0.260 C 
ATOM     25  O   UNL     1       6.515 -62.025 -24.115  1.00  0.00    -0.269 OA
BRANCH  24  26
ATOM     26  C   UNL     1       8.174 -62.090 -25.759  1.00  0.00     0.040 A 
ATOM     27  C   UNL     1       7.694 -63.202 -26.461  1.00  0.00     0.014 A 
ATOM     28  C   UNL     1       9.130 -61.234 -26.336  1.00  0.00     0.017 A 
ATOM     29  C   UNL     1       8.185 -63.460 -27.746  1.00  0.00     0.001 A 
ATOM     30  C   UNL     1       9.637 -61.501 -27.616  1.00  0.00    -0.050 A 
ATOM     31  C   UNL     1       9.152 -62.617 -28.320  1.00  0.00     0.003 A 
ATOM     32  C   UNL     1      10.710 -60.610 -28.189  1.00  0.00     0.044 C 
ENDBRANCH  24  26
ENDBRANCH   8  24
TORSDOF 5
ENDMDL
MODEL 2
REMARK VINA RESULT:   -11.983      3.074      9.930
REMARK INTER + INTRA:         -15.681
REMARK INTER:                 -14.741
REMARK INTRA:                  -0.940
REMARK UNBOUND:                -0.196
REMARK SMILES COc1ccccc1C(=O)Nc1ccc2c(c1)CN(C(=O)c1cccc(C)c1)C(=O)C2
REMARK SMILES IDX 12 1 13 2 14 3 15 4 16 5 17 6 18 7 19 8 29 9 30 10 31 11
REMARK SMILES IDX 11 12 9 13 10 14 8 16 3 17 4 18 5 19 7 20 6 21 2 22 1 23
REMARK SMILES IDX 20 24 21 25 22 26 23 27 28 28 24 29 26 30 25 31 27 32
REMARK H PARENT 11 15
ROOT
ATOM      1  C   UNL     1      10.870 -55.874 -22.926  1.00  0.00     0.041 A 
ATOM      2  C   UNL     1      10.194 -55.240 -21.879  1.00  0.00     0.026 A 
ATOM      3  C   UNL     1      10.278 -53.851 -21.720  1.00  0.00     0.007 A 
ATOM      4  C   UNL     1      11.046 -53.075 -22.602  1.00  0.00    -0.033 A 
ATOM      5  C   UNL     1      11.746 -53.698 -23.631  1.00  0.00    -0.022 A 
ATOM      6  C   UNL     1      11.648 -55.094 -23.792  1.00  0.00     0.032 A 
ATOM      7  C   UNL     1      12.518 -52.866 -24.625  1.00  0.00     0.164 C 
ATOM      8  N   UNL     1      12.927 -51.573 -24.110  1.00  0.00    -0.274 N 
ATOM      9  C   UNL     1      11.988 -50.827 -23.425  1.00  0.00     0.234 C 
ATOM     10  O   UNL     1      11.880 -49.602 -23.503  1.00  0.00    -0.274 OA
ATOM     11  C   UNL     1      11.112 -51.580 -22.438  1.00  0.00     0.136 C 
ENDROOT
BRANCH   1  12
ATOM     12  N   UNL     1      10.701 -57.271 -23.043  1.00  0.00    -0.322 N 
ATOM     13  C   UNL     1      11.015 -58.249 -22.121  1.00  0.00     0.259 C 
ATOM     14  O   UNL     1      11.456 -58.048 -20.992  1.00  0.00    -0.269 OA
ATOM     15  H   UNL     1      10.365 -57.611 -23.942  1.00  0.00     0.170 HD
BRANCH  13  16
ATOM     16  C   UNL     1      10.790 -59.674 -22.555  1.00  0.00     0.082 A 
ATOM     17  C   UNL     1      11.326 -60.250 -23.727  1.00  0.00     0.131 A 
ATOM     18  C   UNL     1      11.038 -61.591 -24.037  1.00  0.00     0.047 A 
ATOM     19  C   UNL     1      10.266 -62.371 -23.172  1.00  0.00     0.004 A 
ATOM     20  C   UNL     1      10.016 -60.478 -21.696  1.00  0.00     0.018 A 
ATOM     21  C   UNL     1       9.764 -61.818 -21.998  1.00  0.00     0.001 A 
BRANCH  17  22
ATOM     22  O   UNL     1      12.075 -59.468 -24.573  1.00  0.00    -0.496 OA
ATOM     23  C   UNL     1      11.895 -59.751 -25.980  1.00  0.00     0.278 C 
ENDBRANCH  17  22
ENDBRANCH  13  16
ENDBRANCH   1  12
BRANCH   8  24
ATOM     24  C   UNL     1      13.870 -50.927 -24.919  1.00  0.00     0.260 C 
ATOM     25  O   UNL     1      13.567 -50.286 -25.927  1.00  0.00    -0.269 OA
BRANCH  24  26
ATOM     26  C   UNL     1      15.304 -50.970 -24.522  1.00  0.00     0.040 A 
ATOM     27  C   UNL     1      15.737 -50.449 -23.296  1.00  0.00     0.014 A 
ATOM     28  C   UNL     1      16.219 -51.557 -25.416  1.00  0.00     0.017 A 
ATOM     29  C   UNL     1      17.098 -50.510 -22.973  1.00  0.00     0.001 A 
ATOM     30  C   UNL     1      17.585 -51.603 -25.102  1.00  0.00    -0.050 A 
ATOM     31  C   UNL     1      18.017 -51.080 -23.870  1.00  0.00     0.003 A 
ATOM     32  C   UNL     1      18.557 -52.174 -26.102  1.00  0.00     0.044 C 
ENDBRANCH  24  26
ENDBRANCH   8  24
TORSDOF 5
ENDMDL
MODEL 3
REMARK VINA RESULT:   -11.923      2.991      9.982
REMARK INTER + INTRA:         -15.604
REMARK INTER:                 -14.565
REMARK INTRA:                  -1.038
REMARK UNBOUND:                -0.196
REMARK SMILES COc1ccccc1C(=O)Nc1ccc2c(c1)CN(C(=O)c1cccc(C)c1)C(=O)C2
REMARK SMILES IDX 12 1 13 2 14 3 15 4 16 5 17 6 18 7 19 8 29 9 30 10 31 11
REMARK SMILES IDX 11 12 9 13 10 14 8 16 3 17 4 18 5 19 7 20 6 21 2 22 1 23
REMARK SMILES IDX 20 24 21 25 22 26 23 27 28 28 24 29 26 30 25 31 27 32
REMARK H PARENT 11 15
ROOT
ATOM      1  C   UNL     1      10.533 -55.937 -23.027  1.00  0.00     0.041 A 
ATOM      2  C   UNL     1       9.904 -55.258 -21.979  1.00  0.00     0.026 A 
ATOM      3  C   UNL     1      10.102 -53.882 -21.805  1.00  0.00     0.007 A 
ATOM      4  C   UNL     1      10.940 -53.166 -22.674  1.00  0.00    -0.033 A 
ATOM      5  C   UNL     1      11.593 -53.836 -23.704  1.00  0.00    -0.022 A 
ATOM      6  C   UNL     1      11.381 -55.217 -23.879  1.00  0.00     0.032 A 
ATOM      7  C   UNL     1      12.441 -53.063 -24.684  1.00  0.00     0.164 C 
ATOM      8  N   UNL     1      12.952 -51.813 -24.154  1.00  0.00    -0.274 N 
ATOM      9  C   UNL     1      12.073 -50.997 -23.469  1.00  0.00     0.234 C 
ATOM     10  O   UNL     1      12.069 -49.767 -23.536  1.00  0.00    -0.274 OA
ATOM     11  C   UNL     1      11.129 -51.683 -22.496  1.00  0.00     0.136 C 
ENDROOT
BRANCH   1  12
ATOM     12  N   UNL     1      10.248 -57.314 -23.157  1.00  0.00    -0.322 N 
ATOM     13  C   UNL     1      10.703 -58.358 -22.377  1.00  0.00     0.259 C 
ATOM     14  O   UNL     1      11.408 -58.244 -21.377  1.00  0.00    -0.269 OA
ATOM     15  H   UNL     1       9.690 -57.584 -23.965  1.00  0.00     0.170 HD
BRANCH  13  16
ATOM     16  C   UNL     1      10.288 -59.742 -22.804  1.00  0.00     0.082 A 
ATOM     17  C   UNL     1       8.952 -60.154 -22.998  1.00  0.00     0.131 A 
ATOM     18  C   UNL     1       8.683 -61.478 -23.387  1.00  0.00     0.047 A 
ATOM     19  C   UNL     1       9.727 -62.375 -23.628  1.00  0.00     0.004 A 
ATOM     20  C   UNL     1      11.325 -60.660 -23.054  1.00  0.00     0.018 A 
ATOM     21  C   UNL     1      11.047 -61.964 -23.472  1.00  0.00     0.001 A 
BRANCH  17  22
ATOM     22  O   UNL     1       7.935 -59.264 -22.746  1.00  0.00    -0.496 OA
ATOM     23  C   UNL     1       6.645 -59.654 -23.270  1.00  0.00     0.278 C 
ENDBRANCH  17  22
ENDBRANCH  13  16
ENDBRANCH   1  12
BRANCH   8  24
ATOM     24  C   UNL     1      13.953 -51.242 -24.950  1.00  0.00     0.260 C 
ATOM     25  O   UNL     1      13.720 -50.662 -26.012  1.00  0.00    -0.269 OA
BRANCH  24  26
ATOM     26  C   UNL     1      15.363 -51.289 -24.473  1.00  0.00     0.040 A 
ATOM     27  C   UNL     1      15.699 -50.942 -23.158  1.00  0.00     0.014 A 
ATOM     28  C   UNL     1      16.354 -51.698 -25.384  1.00  0.00     0.017 A 
ATOM     29  C   UNL     1      17.040 -50.999 -22.761  1.00  0.00     0.001 A 
ATOM     30  C   UNL     1      17.700 -51.738 -24.993  1.00  0.00    -0.050 A 
ATOM     31  C   UNL     1      18.035 -51.391 -23.672  1.00  0.00     0.003 A 
ATOM     32  C   UNL     1      18.755 -52.113 -26.003  1.00  0.00     0.044 C 
ENDBRANCH  24  26
ENDBRANCH   8  24
TORSDOF 5
ENDMDL
MODEL 4
REMARK VINA RESULT:   -11.240      1.902      2.581
REMARK INTER + INTRA:         -14.720
REMARK INTER:                 -14.675
REMARK INTRA:                  -0.045
REMARK UNBOUND:                -0.196
REMARK SMILES COc1ccccc1C(=O)Nc1ccc2c(c1)CN(C(=O)c1cccc(C)c1)C(=O)C2
REMARK SMILES IDX 12 1 13 2 14 3 15 4 16 5 17 6 18 7 19 8 29 9 30 10 31 11
REMARK SMILES IDX 11 12 9 13 10 14 8 16 3 17 4 18 5 19 7 20 6 21 2 22 1 23
REMARK SMILES IDX 20 24 21 25 22 26 23 27 28 28 24 29 26 30 25 31 27 32
REMARK H PARENT 11 15
ROOT
ATOM      1  C   UNL     1      11.084 -55.735 -22.394  1.00  0.00     0.041 A 
ATOM      2  C   UNL     1      11.225 -56.377 -21.160  1.00  0.00     0.026 A 
ATOM      3  C   UNL     1      11.350 -57.771 -21.097  1.00  0.00     0.007 A 
ATOM      4  C   UNL     1      11.329 -58.544 -22.268  1.00  0.00    -0.033 A 
ATOM      5  C   UNL     1      11.162 -57.919 -23.500  1.00  0.00    -0.022 A 
ATOM      6  C   UNL     1      11.047 -56.516 -23.557  1.00  0.00     0.032 A 
ATOM      7  C   UNL     1      11.207 -58.734 -24.768  1.00  0.00     0.164 C 
ATOM      8  N   UNL     1      10.858 -60.130 -24.578  1.00  0.00    -0.274 N 
ATOM      9  C   UNL     1      11.428 -60.795 -23.510  1.00  0.00     0.234 C 
ATOM     10  O   UNL     1      11.804 -61.968 -23.541  1.00  0.00    -0.274 OA
ATOM     11  C   UNL     1      11.489 -60.039 -22.194  1.00  0.00     0.136 C 
ENDROOT
BRANCH   1  12
ATOM     12  N   UNL     1      11.005 -54.325 -22.375  1.00  0.00    -0.322 N 
ATOM     13  C   UNL     1      11.478 -53.430 -23.314  1.00  0.00     0.259 C 
ATOM     14  O   UNL     1      12.012 -53.732 -24.378  1.00  0.00    -0.269 OA
ATOM     15  H   UNL     1      10.608 -53.907 -21.536  1.00  0.00     0.170 HD
BRANCH  13  16
ATOM     16  C   UNL     1      11.314 -51.969 -22.987  1.00  0.00     0.082 A 
ATOM     17  C   UNL     1      12.237 -50.960 -23.339  1.00  0.00     0.131 A 
ATOM     18  C   UNL     1      11.983 -49.627 -22.971  1.00  0.00     0.047 A 
ATOM     19  C   UNL     1      10.805 -49.286 -22.302  1.00  0.00     0.004 A 
ATOM     20  C   UNL     1      10.132 -51.604 -22.316  1.00  0.00     0.018 A 
ATOM     21  C   UNL     1       9.875 -50.271 -21.984  1.00  0.00     0.001 A 
BRANCH  17  22
ATOM     22  O   UNL     1      13.397 -51.312 -23.987  1.00  0.00    -0.496 OA
ATOM     23  C   UNL     1      14.611 -51.044 -23.247  1.00  0.00     0.278 C 
ENDBRANCH  17  22
ENDBRANCH  13  16
ENDBRANCH   1  12
BRANCH   8  24
ATOM     24  C   UNL     1      10.628 -60.812 -25.778  1.00  0.00     0.260 C 
ATOM     25  O   UNL     1      11.360 -60.708 -26.764  1.00  0.00    -0.269 OA
BRANCH  24  26
ATOM     26  C   UNL     1       9.474 -61.749 -25.860  1.00  0.00     0.040 A 
ATOM     27  C   UNL     1       8.701 -62.055 -24.733  1.00  0.00     0.014 A 
ATOM     28  C   UNL     1       9.176 -62.320 -27.112  1.00  0.00     0.017 A 
ATOM     29  C   UNL     1       7.629 -62.946 -24.863  1.00  0.00     0.001 A 
ATOM     30  C   UNL     1       8.114 -63.228 -27.240  1.00  0.00    -0.050 A 
ATOM     31  C   UNL     1       7.339 -63.531 -26.107  1.00  0.00     0.003 A 
ATOM     32  C   UNL     1       7.854 -63.881 -28.574  1.00  0.00     0.044 C 
ENDBRANCH  24  26
ENDBRANCH   8  24
TORSDOF 5
ENDMDL
MODEL 5
REMARK VINA RESULT:   -11.111      2.335      3.686
REMARK INTER + INTRA:         -14.555
REMARK INTER:                 -13.604
REMARK INTRA:                  -0.951
REMARK UNBOUND:                -0.196
REMARK SMILES COc1ccccc1C(=O)Nc1ccc2c(c1)CN(C(=O)c1cccc(C)c1)C(=O)C2
REMARK SMILES IDX 12 1 13 2 14 3 15 4 16 5 17 6 18 7 19 8 29 9 30 10 31 11
REMARK SMILES IDX 11 12 9 13 10 14 8 16 3 17 4 18 5 19 7 20 6 21 2 22 1 23
REMARK SMILES IDX 20 24 21 25 22 26 23 27 28 28 24 29 26 30 25 31 27 32
REMARK H PARENT 11 15
ROOT
ATOM      1  C   UNL     1      11.080 -53.750 -23.317  1.00  0.00     0.041 A 
ATOM      2  C   UNL     1      10.009 -53.970 -22.446  1.00  0.00     0.026 A 
ATOM      3  C   UNL     1       9.632 -55.274 -22.102  1.00  0.00     0.007 A 
ATOM      4  C   UNL     1      10.317 -56.380 -22.631  1.00  0.00    -0.033 A 
ATOM      5  C   UNL     1      11.367 -56.174 -23.520  1.00  0.00    -0.022 A 
ATOM      6  C   UNL     1      11.748 -54.860 -23.853  1.00  0.00     0.032 A 
ATOM      7  C   UNL     1      12.153 -57.353 -24.040  1.00  0.00     0.164 C 
ATOM      8  N   UNL     1      11.413 -58.600 -24.022  1.00  0.00    -0.274 N 
ATOM      9  C   UNL     1      10.703 -58.911 -22.879  1.00  0.00     0.234 C 
ATOM     10  O   UNL     1      10.601 -60.046 -22.409  1.00  0.00    -0.274 OA
ATOM     11  C   UNL     1       9.921 -57.778 -22.237  1.00  0.00     0.136 C 
ENDROOT
BRANCH   1  12
ATOM     12  N   UNL     1      11.423 -52.406 -23.581  1.00  0.00    -0.322 N 
ATOM     13  C   UNL     1      11.677 -51.395 -22.676  1.00  0.00     0.259 C 
ATOM     14  O   UNL     1      11.700 -51.524 -21.454  1.00  0.00    -0.269 OA
ATOM     15  H   UNL     1      11.422 -52.124 -24.560  1.00  0.00     0.170 HD
BRANCH  13  16
ATOM     16  C   UNL     1      11.948 -50.031 -23.254  1.00  0.00     0.082 A 
ATOM     17  C   UNL     1      12.969 -49.745 -24.187  1.00  0.00     0.131 A 
ATOM     18  C   UNL     1      13.136 -48.428 -24.651  1.00  0.00     0.047 A 
ATOM     19  C   UNL     1      12.274 -47.412 -24.233  1.00  0.00     0.004 A 
ATOM     20  C   UNL     1      11.089 -48.993 -22.848  1.00  0.00     0.018 A 
ATOM     21  C   UNL     1      11.244 -47.695 -23.341  1.00  0.00     0.001 A 
BRANCH  17  22
ATOM     22  O   UNL     1      13.817 -50.752 -24.580  1.00  0.00    -0.496 OA
ATOM     23  C   UNL     1      13.764 -51.074 -25.989  1.00  0.00     0.278 C 
ENDBRANCH  17  22
ENDBRANCH  13  16
ENDBRANCH   1  12
BRANCH   8  24
ATOM     24  C   UNL     1      12.031 -59.621 -24.754  1.00  0.00     0.260 C 
ATOM     25  O   UNL     1      13.114 -60.116 -24.438  1.00  0.00    -0.269 OA
BRANCH  24  26
ATOM     26  C   UNL     1      11.330 -60.176 -25.945  1.00  0.00     0.040 A 
ATOM     27  C   UNL     1      11.687 -59.795 -27.244  1.00  0.00     0.014 A 
ATOM     28  C   UNL     1      10.294 -61.104 -25.727  1.00  0.00     0.017 A 
ATOM     29  C   UNL     1      10.993 -60.343 -28.329  1.00  0.00     0.001 A 
ATOM     30  C   UNL     1       9.585 -61.639 -26.812  1.00  0.00    -0.050 A 
ATOM     31  C   UNL     1       9.947 -61.257 -28.116  1.00  0.00     0.003 A 
ATOM     32  C   UNL     1       8.435 -62.580 -26.555  1.00  0.00     0.044 C 
ENDBRANCH  24  26
ENDBRANCH   8  24
TORSDOF 5
ENDMDL
MODEL 6
REMARK VINA RESULT:   -11.069      3.513     10.767
REMARK INTER + INTRA:         -14.500
REMARK INTER:                 -13.836
REMARK INTRA:                  -0.664
REMARK UNBOUND:                -0.196
REMARK SMILES COc1ccccc1C(=O)Nc1ccc2c(c1)CN(C(=O)c1cccc(C)c1)C(=O)C2
REMARK SMILES IDX 12 1 13 2 14 3 15 4 16 5 17 6 18 7 19 8 29 9 30 10 31 11
REMARK SMILES IDX 11 12 9 13 10 14 8 16 3 17 4 18 5 19 7 20 6 21 2 22 1 23
REMARK SMILES IDX 20 24 21 25 22 26 23 27 28 28 24 29 26 30 25 31 27 32
REMARK H PARENT 11 15
ROOT
ATOM      1  C   UNL     1      10.790 -53.136 -22.231  1.00  0.00     0.041 A 
ATOM      2  C   UNL     1       9.663 -52.404 -21.845  1.00  0.00     0.026 A 
ATOM      3  C   UNL     1       9.630 -51.014 -22.015  1.00  0.00     0.007 A 
ATOM      4  C   UNL     1      10.727 -50.334 -22.568  1.00  0.00    -0.033 A 
ATOM      5  C   UNL     1      11.864 -51.049 -22.931  1.00  0.00    -0.022 A 
ATOM      6  C   UNL     1      11.887 -52.448 -22.767  1.00  0.00     0.032 A 
ATOM      7  C   UNL     1      13.020 -50.337 -23.589  1.00  0.00     0.164 C 
ATOM      8  N   UNL     1      13.086 -48.922 -23.279  1.00  0.00    -0.274 N 
ATOM      9  C   UNL     1      11.916 -48.192 -23.352  1.00  0.00     0.234 C 
ATOM     10  O   UNL     1      11.841 -47.037 -23.774  1.00  0.00    -0.274 OA
ATOM     11  C   UNL     1      10.673 -48.843 -22.770  1.00  0.00     0.136 C 
ENDROOT
BRANCH   1  12
ATOM     12  N   UNL     1      10.729 -54.537 -22.065  1.00  0.00    -0.322 N 
ATOM     13  C   UNL     1      10.620 -55.509 -23.039  1.00  0.00     0.259 C 
ATOM     14  O   UNL     1      10.614 -55.305 -24.250  1.00  0.00    -0.269 OA
ATOM     15  H   UNL     1      10.696 -54.876 -21.105  1.00  0.00     0.170 HD
BRANCH  13  16
ATOM     16  C   UNL     1      10.502 -56.931 -22.555  1.00  0.00     0.082 A 
ATOM     17  C   UNL     1       9.575 -57.873 -23.052  1.00  0.00     0.131 A 
ATOM     18  C   UNL     1       9.548 -59.172 -22.515  1.00  0.00     0.047 A 
ATOM     19  C   UNL     1      10.460 -59.552 -21.528  1.00  0.00     0.004 A 
ATOM     20  C   UNL     1      11.413 -57.335 -21.561  1.00  0.00     0.018 A 
ATOM     21  C   UNL     1      11.399 -58.638 -21.058  1.00  0.00     0.001 A 
BRANCH  17  22
ATOM     22  O   UNL     1       8.677 -57.481 -24.016  1.00  0.00    -0.496 OA
ATOM     23  C   UNL     1       7.467 -58.272 -24.075  1.00  0.00     0.278 C 
ENDBRANCH  17  22
ENDBRANCH  13  16
ENDBRANCH   1  12
BRANCH   8  24
ATOM     24  C   UNL     1      14.298 -48.329 -23.652  1.00  0.00     0.260 C 
ATOM     25  O   UNL     1      14.935 -47.575 -22.914  1.00  0.00    -0.269 OA
BRANCH  24  26
ATOM     26  C   UNL     1      14.879 -48.659 -24.983  1.00  0.00     0.040 A 
ATOM     27  C   UNL     1      14.283 -48.212 -26.169  1.00  0.00     0.014 A 
ATOM     28  C   UNL     1      16.053 -49.434 -25.016  1.00  0.00     0.017 A 
ATOM     29  C   UNL     1      14.866 -48.555 -27.395  1.00  0.00     0.001 A 
ATOM     30  C   UNL     1      16.628 -49.793 -26.244  1.00  0.00    -0.050 A 
ATOM     31  C   UNL     1      16.029 -49.342 -27.433  1.00  0.00     0.003 A 
ATOM     32  C   UNL     1      17.847 -50.680 -26.260  1.00  0.00     0.044 C 
ENDBRANCH  24  26
ENDBRANCH   8  24
TORSDOF 5
ENDMDL
MODEL 7
REMARK VINA RESULT:   -11.063      2.669      4.357
REMARK INTER + INTRA:         -14.492
REMARK INTER:                 -13.900
REMARK INTRA:                  -0.592
REMARK UNBOUND:                -0.196
REMARK SMILES COc1ccccc1C(=O)Nc1ccc2c(c1)CN(C(=O)c1cccc(C)c1)C(=O)C2
REMARK SMILES IDX 12 1 13 2 14 3 15 4 16 5 17 6 18 7 19 8 29 9 30 10 31 11
REMARK SMILES IDX 11 12 9 13 10 14 8 16 3 17 4 18 5 19 7 20 6 21 2 22 1 23
REMARK SMILES IDX 20 24 21 25 22 26 23 27 28 28 24 29 26 30 25 31 27 32
REMARK H PARENT 11 15
ROOT
ATOM      1  C   UNL     1      11.151 -53.007 -22.657  1.00  0.00     0.041 A 
ATOM      2  C   UNL     1      10.892 -53.270 -21.308  1.00  0.00     0.026 A 
ATOM      3  C   UNL     1      10.863 -54.588 -20.836  1.00  0.00     0.007 A 
ATOM      4  C   UNL     1      11.085 -55.665 -21.709  1.00  0.00    -0.033 A 
ATOM      5  C   UNL     1      11.316 -55.418 -23.058  1.00  0.00    -0.022 A 
ATOM      6  C   UNL     1      11.354 -54.089 -23.524  1.00  0.00     0.032 A 
ATOM      7  C   UNL     1      11.623 -56.564 -23.991  1.00  0.00     0.164 C 
ATOM      8  N   UNL     1      11.105 -57.840 -23.536  1.00  0.00    -0.274 N 
ATOM      9  C   UNL     1      11.301 -58.179 -22.211  1.00  0.00     0.234 C 
ATOM     10  O   UNL     1      11.558 -59.317 -21.815  1.00  0.00    -0.274 OA
ATOM     11  C   UNL     1      11.076 -57.078 -21.189  1.00  0.00     0.136 C 
ENDROOT
BRANCH   1  12
ATOM     12  N   UNL     1      11.204 -51.651 -23.044  1.00  0.00    -0.322 N 
ATOM     13  C   UNL     1      12.298 -50.809 -23.061  1.00  0.00     0.259 C 
ATOM     14  O   UNL     1      13.450 -51.134 -22.785  1.00  0.00    -0.269 OA
ATOM     15  H   UNL     1      10.315 -51.214 -23.282  1.00  0.00     0.170 HD
BRANCH  13  16
ATOM     16  C   UNL     1      12.036 -49.379 -23.457  1.00  0.00     0.082 A 
ATOM     17  C   UNL     1      12.686 -48.708 -24.515  1.00  0.00     0.131 A 
ATOM     18  C   UNL     1      12.368 -47.366 -24.787  1.00  0.00     0.047 A 
ATOM     19  C   UNL     1      11.382 -46.706 -24.049  1.00  0.00     0.004 A 
ATOM     20  C   UNL     1      11.044 -48.696 -22.728  1.00  0.00     0.018 A 
ATOM     21  C   UNL     1      10.713 -47.373 -23.028  1.00  0.00     0.001 A 
BRANCH  17  22
ATOM     22  O   UNL     1      13.662 -49.367 -25.224  1.00  0.00    -0.496 OA
ATOM     23  C   UNL     1      15.000 -48.848 -25.042  1.00  0.00     0.278 C 
ENDBRANCH  17  22
ENDBRANCH  13  16
ENDBRANCH   1  12
BRANCH   8  24
ATOM     24  C   UNL     1      11.143 -58.835 -24.520  1.00  0.00     0.260 C 
ATOM     25  O   UNL     1      12.016 -58.892 -25.387  1.00  0.00    -0.269 OA
BRANCH  24  26
ATOM     26  C   UNL     1      10.111 -59.909 -24.495  1.00  0.00     0.040 A 
ATOM     27  C   UNL     1      10.405 -61.212 -24.916  1.00  0.00     0.014 A 
ATOM     28  C   UNL     1       8.826 -59.577 -24.027  1.00  0.00     0.017 A 
ATOM     29  C   UNL     1       9.398 -62.184 -24.876  1.00  0.00     0.001 A 
ATOM     30  C   UNL     1       7.811 -60.545 -24.004  1.00  0.00    -0.050 A 
ATOM     31  C   UNL     1       8.109 -61.853 -24.427  1.00  0.00     0.003 A 
ATOM     32  C   UNL     1       6.423 -60.154 -23.565  1.00  0.00     0.044 C 
ENDBRANCH  24  26
ENDBRANCH   8  24
TORSDOF 5
ENDMDL
MODEL 8
REMARK VINA RESULT:   -11.012      3.536     11.363
REMARK INTER + INTRA:         -14.426
REMARK INTER:                 -13.654
REMARK INTRA:                  -0.772
REMARK UNBOUND:                -0.196
REMARK SMILES COc1ccccc1C(=O)Nc1ccc2c(c1)CN(C(=O)c1cccc(C)c1)C(=O)C2
REMARK SMILES IDX 12 1 13 2 14 3 15 4 16 5 17 6 18 7 19 8 29 9 30 10 31 11
REMARK SMILES IDX 11 12 9 13 10 14 8 16 3 17 4 18 5 19 7 20 6 21 2 22 1 23
REMARK SMILES IDX 20 24 21 25 22 26 23 27 28 28 24 29 26 30 25 31 27 32
REMARK H PARENT 11 15
ROOT
ATOM      1  C   UNL     1      11.729 -54.159 -24.323  1.00  0.00     0.041 A 
ATOM      2  C   UNL     1      12.503 -54.087 -25.486  1.00  0.00     0.026 A 
ATOM      3  C   UNL     1      13.306 -52.967 -25.733  1.00  0.00     0.007 A 
ATOM      4  C   UNL     1      13.343 -51.898 -24.824  1.00  0.00    -0.033 A 
ATOM      5  C   UNL     1      12.557 -51.946 -23.677  1.00  0.00    -0.022 A 
ATOM      6  C   UNL     1      11.759 -53.080 -23.429  1.00  0.00     0.032 A 
ATOM      7  C   UNL     1      12.642 -50.834 -22.661  1.00  0.00     0.164 C 
ATOM      8  N   UNL     1      13.090 -49.570 -23.216  1.00  0.00    -0.274 N 
ATOM      9  C   UNL     1      14.184 -49.590 -24.059  1.00  0.00     0.234 C 
ATOM     10  O   UNL     1      15.060 -48.724 -24.083  1.00  0.00    -0.274 OA
ATOM     11  C   UNL     1      14.229 -50.709 -25.086  1.00  0.00     0.136 C 
ENDROOT
BRANCH   1  12
ATOM     12  N   UNL     1      10.978 -55.339 -24.127  1.00  0.00    -0.322 N 
ATOM     13  C   UNL     1      10.847 -56.086 -22.974  1.00  0.00     0.259 C 
ATOM     14  O   UNL     1      11.335 -55.803 -21.883  1.00  0.00    -0.269 OA
ATOM     15  H   UNL     1      10.526 -55.728 -24.953  1.00  0.00     0.170 HD
BRANCH  13  16
ATOM     16  C   UNL     1      10.032 -57.348 -23.085  1.00  0.00     0.082 A 
ATOM     17  C   UNL     1      10.570 -58.653 -23.080  1.00  0.00     0.131 A 
ATOM     18  C   UNL     1       9.711 -59.760 -23.200  1.00  0.00     0.047 A 
ATOM     19  C   UNL     1       8.328 -59.581 -23.278  1.00  0.00     0.004 A 
ATOM     20  C   UNL     1       8.635 -57.190 -23.161  1.00  0.00     0.018 A 
ATOM     21  C   UNL     1       7.789 -58.298 -23.247  1.00  0.00     0.001 A 
BRANCH  17  22
ATOM     22  O   UNL     1      11.934 -58.814 -23.014  1.00  0.00    -0.496 OA
ATOM     23  C   UNL     1      12.421 -60.077 -23.522  1.00  0.00     0.278 C 
ENDBRANCH  17  22
ENDBRANCH  13  16
ENDBRANCH   1  12
BRANCH   8  24
ATOM     24  C   UNL     1      12.901 -48.487 -22.349  1.00  0.00     0.260 C 
ATOM     25  O   UNL     1      13.322 -48.470 -21.191  1.00  0.00    -0.269 OA
BRANCH  24  26
ATOM     26  C   UNL     1      12.205 -47.274 -22.859  1.00  0.00     0.040 A 
ATOM     27  C   UNL     1      11.259 -47.355 -23.889  1.00  0.00     0.014 A 
ATOM     28  C   UNL     1      12.521 -46.036 -22.270  1.00  0.00     0.017 A 
ATOM     29  C   UNL     1      10.635 -46.184 -24.334  1.00  0.00     0.001 A 
ATOM     30  C   UNL     1      11.911 -44.858 -22.728  1.00  0.00    -0.050 A 
ATOM     31  C   UNL     1      10.961 -44.943 -23.761  1.00  0.00     0.003 A 
ATOM     32  C   UNL     1      12.313 -43.534 -22.130  1.00  0.00     0.044 C 
ENDBRANCH  24  26
ENDBRANCH   8  24
TORSDOF 5
ENDMDL
MODEL 9
REMARK VINA RESULT:   -10.938      3.395     11.479
REMARK INTER + INTRA:         -14.331
REMARK INTER:                 -14.377
REMARK INTRA:                   0.046
REMARK UNBOUND:                -0.196
REMARK SMILES COc1ccccc1C(=O)Nc1ccc2c(c1)CN(C(=O)c1cccc(C)c1)C(=O)C2
REMARK SMILES IDX 12 1 13 2 14 3 15 4 16 5 17 6 18 7 19 8 29 9 30 10 31 11
REMARK SMILES IDX 11 12 9 13 10 14 8 16 3 17 4 18 5 19 7 20 6 21 2 22 1 23
REMARK SMILES IDX 20 24 21 25 22 26 23 27 28 28 24 29 26 30 25 31 27 32
REMARK H PARENT 11 15
ROOT
ATOM      1  C   UNL     1      11.913 -54.249 -24.103  1.00  0.00     0.041 A 
ATOM      2  C   UNL     1      12.609 -54.141 -25.310  1.00  0.00     0.026 A 
ATOM      3  C   UNL     1      13.089 -52.898 -25.742  1.00  0.00     0.007 A 
ATOM      4  C   UNL     1      12.874 -51.742 -24.975  1.00  0.00    -0.033 A 
ATOM      5  C   UNL     1      12.159 -51.833 -23.785  1.00  0.00    -0.022 A 
ATOM      6  C   UNL     1      11.688 -53.087 -23.351  1.00  0.00     0.032 A 
ATOM      7  C   UNL     1      11.982 -50.609 -22.920  1.00  0.00     0.164 C 
ATOM      8  N   UNL     1      12.073 -49.360 -23.651  1.00  0.00    -0.274 N 
ATOM      9  C   UNL     1      13.111 -49.216 -24.551  1.00  0.00     0.234 C 
ATOM     10  O   UNL     1      13.733 -48.168 -24.734  1.00  0.00    -0.274 OA
ATOM     11  C   UNL     1      13.415 -50.415 -25.434  1.00  0.00     0.136 C 
ENDROOT
BRANCH   1  12
ATOM     12  N   UNL     1      11.498 -55.543 -23.718  1.00  0.00    -0.322 N 
ATOM     13  C   UNL     1      10.522 -55.891 -22.806  1.00  0.00     0.259 C 
ATOM     14  O   UNL     1       9.797 -55.103 -22.204  1.00  0.00    -0.269 OA
ATOM     15  H   UNL     1      12.024 -56.321 -24.112  1.00  0.00     0.170 HD
BRANCH  13  16
ATOM     16  C   UNL     1      10.347 -57.364 -22.543  1.00  0.00     0.082 A 
ATOM     17  C   UNL     1       9.287 -58.148 -23.048  1.00  0.00     0.131 A 
ATOM     18  C   UNL     1       9.219 -59.515 -22.728  1.00  0.00     0.047 A 
ATOM     19  C   UNL     1      10.215 -60.114 -21.953  1.00  0.00     0.004 A 
ATOM     20  C   UNL     1      11.341 -57.987 -21.766  1.00  0.00     0.018 A 
ATOM     21  C   UNL     1      11.281 -59.354 -21.481  1.00  0.00     0.001 A 
BRANCH  17  22
ATOM     22  O   UNL     1       8.308 -57.543 -23.801  1.00  0.00    -0.496 OA
ATOM     23  C   UNL     1       7.167 -58.380 -24.097  1.00  0.00     0.278 C 
ENDBRANCH  17  22
ENDBRANCH  13  16
ENDBRANCH   1  12
BRANCH   8  24
ATOM     24  C   UNL     1      11.635 -48.253 -22.914  1.00  0.00     0.260 C 
ATOM     25  O   UNL     1      10.450 -47.923 -22.835  1.00  0.00    -0.269 OA
BRANCH  24  26
ATOM     26  C   UNL     1      12.634 -47.462 -22.146  1.00  0.00     0.040 A 
ATOM     27  C   UNL     1      13.549 -48.081 -21.285  1.00  0.00     0.014 A 
ATOM     28  C   UNL     1      12.638 -46.064 -22.313  1.00  0.00     0.017 A 
ATOM     29  C   UNL     1      14.466 -47.290 -20.582  1.00  0.00     0.001 A 
ATOM     30  C   UNL     1      13.544 -45.269 -21.595  1.00  0.00    -0.050 A 
ATOM     31  C   UNL     1      14.462 -45.894 -20.733  1.00  0.00     0.003 A 
ATOM     32  C   UNL     1      13.487 -43.769 -21.737  1.00  0.00     0.044 C 
ENDBRANCH  24  26
ENDBRANCH   8  24
TORSDOF 5
ENDMDL
