MODEL 1
REMARK VINA RESULT:   -12.365      0.000      0.000
REMARK INTER + INTRA:         -18.284
REMARK INTER:                 -17.425
REMARK INTRA:                  -0.860
REMARK UNBOUND:                -0.860
REMARK SMILES O=C1CCc2cc(C(O)=CC[C@H]3CC[N@H+](Cc4ccccc4O)CC3)cc3ccn1c23
REMARK SMILES IDX 12 1 25 2 24 3 15 4 14 5 13 6 11 8 10 9 8 10 9 11 7 13 6 14
REMARK SMILES IDX 26 15 5 16 27 17 31 18 4 19 28 20 30 21 3 22 29 23 2 24 1 25
REMARK SMILES IDX 16 26 17 27 18 28 22 29 19 30 21 31 20 32 23 33
REMARK H PARENT 15 7 9 12 23 34
ROOT
ATOM      1  C   UNL     1      11.598 -58.111 -21.986  1.00  0.00     0.004 C 
ATOM      2  C   UNL     1      10.450 -59.004 -21.493  1.00  0.00     0.065 C 
ATOM      3  C   UNL     1      10.666 -60.452 -21.904  1.00  0.00     0.262 C 
ATOM      4  N   UNL     1      10.780 -60.540 -23.404  1.00  0.00    -0.331 N 
ATOM      5  C   UNL     1      11.912 -59.693 -23.939  1.00  0.00     0.262 C 
ATOM      6  C   UNL     1      11.714 -58.243 -23.513  1.00  0.00     0.065 C 
ATOM      7  H   UNL     1       9.910 -60.179 -23.813  1.00  0.00     0.348 HD
ENDROOT
BRANCH   1   8
ATOM      8  C   UNL     1      11.394 -56.636 -21.592  1.00  0.00     0.035 C 
BRANCH   8   9
ATOM      9  C   UNL     1      10.513 -55.763 -22.445  1.00  0.00     0.020 C 
BRANCH   9  10
ATOM     10  C   UNL     1      10.228 -54.455 -22.336  1.00  0.00     0.118 C 
BRANCH  10  11
ATOM     11  O   UNL     1       9.165 -53.978 -21.603  1.00  0.00    -0.508 OA
ATOM     12  H   UNL     1       8.379 -54.485 -21.879  1.00  0.00     0.293 HD
ENDBRANCH  10  11
BRANCH  10  13
ATOM     13  C   UNL     1      11.053 -53.432 -23.002  1.00  0.00     0.017 A 
ATOM     14  C   UNL     1      11.094 -52.116 -22.509  1.00  0.00     0.017 A 
ATOM     15  C   UNL     1      11.800 -53.793 -24.145  1.00  0.00     0.022 A 
ATOM     16  C   UNL     1      11.854 -51.133 -23.149  1.00  0.00    -0.022 A 
ATOM     17  C   UNL     1      12.587 -52.819 -24.787  1.00  0.00     0.001 A 
ATOM     18  C   UNL     1      12.566 -51.535 -24.275  1.00  0.00     0.059 A 
ATOM     19  C   UNL     1      12.052 -49.729 -22.668  1.00  0.00     0.047 C 
ATOM     20  C   UNL     1      13.484 -52.793 -25.889  1.00  0.00     0.029 A 
ATOM     21  N   UNL     1      13.377 -50.726 -25.039  1.00  0.00    -0.287 N 
ATOM     22  C   UNL     1      12.465 -48.801 -23.826  1.00  0.00     0.106 C 
ATOM     23  C   UNL     1      13.976 -51.507 -26.004  1.00  0.00     0.095 A 
ATOM     24  C   UNL     1      13.504 -49.353 -24.799  1.00  0.00     0.231 C 
ATOM     25  O   UNL     1      14.313 -48.693 -25.437  1.00  0.00    -0.274 OA
ENDBRANCH  10  13
ENDBRANCH   9  10
ENDBRANCH   8   9
ENDBRANCH   1   8
BRANCH   4  26
ATOM     26  C   UNL     1      10.890 -61.984 -23.858  1.00  0.00     0.302 C 
BRANCH  26  27
ATOM     27  C   UNL     1       9.561 -62.620 -24.159  1.00  0.00     0.048 A 
ATOM     28  C   UNL     1       8.931 -62.389 -25.393  1.00  0.00     0.013 A 
ATOM     29  C   UNL     1       8.930 -63.459 -23.234  1.00  0.00     0.124 A 
ATOM     30  C   UNL     1       7.701 -62.983 -25.680  1.00  0.00     0.001 A 
ATOM     31  C   UNL     1       7.702 -64.054 -23.516  1.00  0.00     0.046 A 
ATOM     32  C   UNL     1       7.088 -63.813 -24.743  1.00  0.00     0.004 A 
BRANCH  29  33
ATOM     33  O   UNL     1       9.555 -63.705 -22.044  1.00  0.00    -0.507 OA
ATOM     34  H   UNL     1       9.199 -63.090 -21.374  1.00  0.00     0.293 HD
ENDBRANCH  29  33
ENDBRANCH  26  27
ENDBRANCH   4  26
TORSDOF 8
ENDMDL
MODEL 2
REMARK VINA RESULT:   -12.231      1.146      2.213
REMARK INTER + INTRA:         -18.096
REMARK INTER:                 -17.356
REMARK INTRA:                  -0.740
REMARK UNBOUND:                -0.860
REMARK SMILES O=C1CCc2cc(C(O)=CC[C@H]3CC[N@H+](Cc4ccccc4O)CC3)cc3ccn1c23
REMARK SMILES IDX 12 1 25 2 24 3 15 4 14 5 13 6 11 8 10 9 8 10 9 11 7 13 6 14
REMARK SMILES IDX 26 15 5 16 27 17 31 18 4 19 28 20 30 21 3 22 29 23 2 24 1 25
REMARK SMILES IDX 16 26 17 27 18 28 22 29 19 30 21 31 20 32 23 33
REMARK H PARENT 15 7 9 12 23 34
ROOT
ATOM      1  C   UNL     1      10.683 -57.740 -22.322  1.00  0.00     0.004 C 
ATOM      2  C   UNL     1       9.416 -57.975 -23.157  1.00  0.00     0.065 C 
ATOM      3  C   UNL     1       8.813 -59.340 -22.866  1.00  0.00     0.262 C 
ATOM      4  N   UNL     1       9.829 -60.415 -23.157  1.00  0.00    -0.331 N 
ATOM      5  C   UNL     1      11.090 -60.241 -22.343  1.00  0.00     0.262 C 
ATOM      6  C   UNL     1      11.689 -58.865 -22.613  1.00  0.00     0.065 C 
ATOM      7  H   UNL     1      10.093 -60.345 -24.147  1.00  0.00     0.348 HD
ENDROOT
BRANCH   1   8
ATOM      8  C   UNL     1      11.320 -56.368 -22.610  1.00  0.00     0.035 C 
BRANCH   8   9
ATOM      9  C   UNL     1      10.472 -55.128 -22.504  1.00  0.00     0.020 C 
BRANCH   9  10
ATOM     10  C   UNL     1      10.732 -53.951 -21.913  1.00  0.00     0.118 C 
BRANCH  10  11
ATOM     11  O   UNL     1      10.465 -53.703 -20.586  1.00  0.00    -0.508 OA
ATOM     12  H   UNL     1       9.625 -54.153 -20.376  1.00  0.00     0.293 HD
ENDBRANCH  10  11
BRANCH  10  13
ATOM     13  C   UNL     1      11.337 -52.834 -22.661  1.00  0.00     0.017 A 
ATOM     14  C   UNL     1      12.074 -53.077 -23.834  1.00  0.00     0.017 A 
ATOM     15  C   UNL     1      11.168 -51.518 -22.179  1.00  0.00     0.022 A 
ATOM     16  C   UNL     1      12.672 -52.026 -24.535  1.00  0.00    -0.022 A 
ATOM     17  C   UNL     1      11.747 -50.448 -22.887  1.00  0.00     0.001 A 
ATOM     18  C   UNL     1      12.484 -50.749 -24.017  1.00  0.00     0.059 A 
ATOM     19  C   UNL     1      13.395 -52.146 -25.840  1.00  0.00     0.047 C 
ATOM     20  C   UNL     1      11.767 -49.032 -22.764  1.00  0.00     0.029 A 
ATOM     21  N   UNL     1      12.981 -49.585 -24.561  1.00  0.00    -0.287 N 
ATOM     22  C   UNL     1      14.357 -50.961 -26.050  1.00  0.00     0.106 C 
ATOM     23  C   UNL     1      12.504 -48.527 -23.817  1.00  0.00     0.095 A 
ATOM     24  C   UNL     1      13.822 -49.580 -25.679  1.00  0.00     0.231 C 
ATOM     25  O   UNL     1      14.156 -48.519 -26.188  1.00  0.00    -0.274 OA
ENDBRANCH  10  13
ENDBRANCH   9  10
ENDBRANCH   8   9
ENDBRANCH   1   8
BRANCH   4  26
ATOM     26  C   UNL     1       9.225 -61.796 -22.979  1.00  0.00     0.302 C 
BRANCH  26  27
ATOM     27  C   UNL     1       8.653 -62.368 -24.248  1.00  0.00     0.048 A 
ATOM     28  C   UNL     1       9.218 -62.034 -25.490  1.00  0.00     0.013 A 
ATOM     29  C   UNL     1       7.566 -63.247 -24.222  1.00  0.00     0.124 A 
ATOM     30  C   UNL     1       8.695 -62.568 -26.669  1.00  0.00     0.001 A 
ATOM     31  C   UNL     1       7.040 -63.782 -25.396  1.00  0.00     0.046 A 
ATOM     32  C   UNL     1       7.608 -63.440 -26.622  1.00  0.00     0.004 A 
BRANCH  29  33
ATOM     33  O   UNL     1       7.033 -63.592 -23.012  1.00  0.00    -0.507 OA
ATOM     34  H   UNL     1       7.651 -64.199 -22.562  1.00  0.00     0.293 HD
ENDBRANCH  29  33
ENDBRANCH  26  27
ENDBRANCH   4  26
TORSDOF 8
ENDMDL
MODEL 3
REMARK VINA RESULT:   -12.183      0.948      2.064
REMARK INTER + INTRA:         -18.029
REMARK INTER:                 -17.197
REMARK INTRA:                  -0.832
REMARK UNBOUND:                -0.860
REMARK SMILES O=C1CCc2cc(C(O)=CC[C@H]3CC[N@H+](Cc4ccccc4O)CC3)cc3ccn1c23
REMARK SMILES IDX 12 1 25 2 24 3 15 4 14 5 13 6 11 8 10 9 8 10 9 11 7 13 6 14
REMARK SMILES IDX 26 15 5 16 27 17 31 18 4 19 28 20 30 21 3 22 29 23 2 24 1 25
REMARK SMILES IDX 16 26 17 27 18 28 22 29 19 30 21 31 20 32 23 33
REMARK H PARENT 15 7 9 12 23 34
ROOT
ATOM      1  C   UNL     1      10.972 -57.506 -22.811  1.00  0.00     0.004 C 
ATOM      2  C   UNL     1      11.838 -58.570 -22.119  1.00  0.00     0.065 C 
ATOM      3  C   UNL     1      12.006 -59.797 -23.000  1.00  0.00     0.262 C 
ATOM      4  N   UNL     1      10.652 -60.371 -23.332  1.00  0.00    -0.331 N 
ATOM      5  C   UNL     1       9.767 -59.368 -24.035  1.00  0.00     0.262 C 
ATOM      6  C   UNL     1       9.611 -58.124 -23.168  1.00  0.00     0.065 C 
ATOM      7  H   UNL     1      10.187 -60.624 -22.452  1.00  0.00     0.348 HD
ENDROOT
BRANCH   1   8
ATOM      8  C   UNL     1      10.777 -56.257 -21.931  1.00  0.00     0.035 C 
BRANCH   8   9
ATOM      9  C   UNL     1      10.707 -54.902 -22.585  1.00  0.00     0.020 C 
BRANCH   9  10
ATOM     10  C   UNL     1      10.822 -53.677 -22.047  1.00  0.00     0.118 C 
BRANCH  10  11
ATOM     11  O   UNL     1      10.382 -53.371 -20.779  1.00  0.00    -0.508 OA
ATOM     12  H   UNL     1       9.792 -54.096 -20.499  1.00  0.00     0.293 HD
ENDBRANCH  10  11
BRANCH  10  13
ATOM     13  C   UNL     1      11.441 -52.567 -22.792  1.00  0.00     0.017 A 
ATOM     14  C   UNL     1      12.184 -52.818 -23.959  1.00  0.00     0.017 A 
ATOM     15  C   UNL     1      11.279 -51.248 -22.314  1.00  0.00     0.022 A 
ATOM     16  C   UNL     1      12.796 -51.773 -24.658  1.00  0.00    -0.022 A 
ATOM     17  C   UNL     1      11.871 -50.185 -23.020  1.00  0.00     0.001 A 
ATOM     18  C   UNL     1      12.615 -50.493 -24.144  1.00  0.00     0.059 A 
ATOM     19  C   UNL     1      13.529 -51.901 -25.956  1.00  0.00     0.047 C 
ATOM     20  C   UNL     1      11.901 -48.769 -22.900  1.00  0.00     0.029 A 
ATOM     21  N   UNL     1      13.125 -49.335 -24.686  1.00  0.00    -0.287 N 
ATOM     22  C   UNL     1      14.502 -50.725 -26.162  1.00  0.00     0.106 C 
ATOM     23  C   UNL     1      12.651 -48.271 -23.948  1.00  0.00     0.095 A 
ATOM     24  C   UNL     1      13.974 -49.339 -25.798  1.00  0.00     0.231 C 
ATOM     25  O   UNL     1      14.321 -48.282 -26.306  1.00  0.00    -0.274 OA
ENDBRANCH  10  13
ENDBRANCH   9  10
ENDBRANCH   8   9
ENDBRANCH   1   8
BRANCH   4  26
ATOM     26  C   UNL     1      10.786 -61.660 -24.122  1.00  0.00     0.302 C 
BRANCH  26  27
ATOM     27  C   UNL     1       9.489 -62.407 -24.273  1.00  0.00     0.048 A 
ATOM     28  C   UNL     1       8.827 -62.429 -25.511  1.00  0.00     0.013 A 
ATOM     29  C   UNL     1       8.923 -63.103 -23.200  1.00  0.00     0.124 A 
ATOM     30  C   UNL     1       7.627 -63.128 -25.658  1.00  0.00     0.001 A 
ATOM     31  C   UNL     1       7.725 -63.801 -23.341  1.00  0.00     0.046 A 
ATOM     32  C   UNL     1       7.078 -63.812 -24.575  1.00  0.00     0.004 A 
BRANCH  29  33
ATOM     33  O   UNL     1       9.580 -63.104 -22.002  1.00  0.00    -0.507 OA
ATOM     34  H   UNL     1       8.994 -62.714 -21.326  1.00  0.00     0.293 HD
ENDBRANCH  29  33
ENDBRANCH  26  27
ENDBRANCH   4  26
TORSDOF 8
ENDMDL
MODEL 4
REMARK VINA RESULT:   -12.065      2.675      9.174
REMARK INTER + INTRA:         -17.862
REMARK INTER:                 -16.735
REMARK INTRA:                  -1.126
REMARK UNBOUND:                -0.860
REMARK SMILES O=C1CCc2cc(C(O)=CC[C@H]3CC[N@H+](Cc4ccccc4O)CC3)cc3ccn1c23
REMARK SMILES IDX 12 1 25 2 24 3 15 4 14 5 13 6 11 8 10 9 8 10 9 11 7 13 6 14
REMARK SMILES IDX 26 15 5 16 27 17 31 18 4 19 28 20 30 21 3 22 29 23 2 24 1 25
REMARK SMILES IDX 16 26 17 27 18 28 22 29 19 30 21 31 20 32 23 33
REMARK H PARENT 15 7 9 12 23 34
ROOT
ATOM      1  C   UNL     1      10.291 -58.621 -21.618  1.00  0.00     0.004 C 
ATOM      2  C   UNL     1      11.546 -57.740 -21.691  1.00  0.00     0.065 C 
ATOM      3  C   UNL     1      11.181 -56.285 -21.938  1.00  0.00     0.262 C 
ATOM      4  N   UNL     1      10.396 -56.170 -23.219  1.00  0.00    -0.331 N 
ATOM      5  C   UNL     1       9.136 -57.005 -23.190  1.00  0.00     0.262 C 
ATOM      6  C   UNL     1       9.492 -58.462 -22.921  1.00  0.00     0.065 C 
ATOM      7  H   UNL     1      10.979 -56.526 -23.984  1.00  0.00     0.348 HD
ENDROOT
BRANCH   1   8
ATOM      8  C   UNL     1      10.637 -60.103 -21.381  1.00  0.00     0.035 C 
BRANCH   8   9
ATOM      9  C   UNL     1       9.641 -61.162 -21.774  1.00  0.00     0.020 C 
BRANCH   9  10
ATOM     10  C   UNL     1       9.725 -62.123 -22.709  1.00  0.00     0.118 C 
BRANCH  10  11
ATOM     11  O   UNL     1       9.601 -63.462 -22.420  1.00  0.00    -0.508 OA
ATOM     12  H   UNL     1      10.069 -63.950 -23.124  1.00  0.00     0.293 HD
ENDBRANCH  10  11
BRANCH  10  13
ATOM     13  C   UNL     1       9.955 -61.795 -24.127  1.00  0.00     0.017 A 
ATOM     14  C   UNL     1      11.030 -60.971 -24.504  1.00  0.00     0.017 A 
ATOM     15  C   UNL     1       9.077 -62.320 -25.101  1.00  0.00     0.022 A 
ATOM     16  C   UNL     1      11.240 -60.635 -25.845  1.00  0.00    -0.022 A 
ATOM     17  C   UNL     1       9.290 -62.007 -26.456  1.00  0.00     0.001 A 
ATOM     18  C   UNL     1      10.345 -61.169 -26.765  1.00  0.00     0.059 A 
ATOM     19  C   UNL     1      12.397 -59.848 -26.378  1.00  0.00     0.047 C 
ATOM     20  C   UNL     1       8.687 -62.360 -27.694  1.00  0.00     0.029 A 
ATOM     21  N   UNL     1      10.384 -60.967 -28.127  1.00  0.00    -0.287 N 
ATOM     22  C   UNL     1      12.056 -59.218 -27.741  1.00  0.00     0.106 C 
ATOM     23  C   UNL     1       9.393 -61.733 -28.703  1.00  0.00     0.095 A 
ATOM     24  C   UNL     1      11.309 -60.108 -28.731  1.00  0.00     0.231 C 
ATOM     25  O   UNL     1      11.372 -60.038 -29.951  1.00  0.00    -0.274 OA
ENDBRANCH  10  13
ENDBRANCH   9  10
ENDBRANCH   8   9
ENDBRANCH   1   8
BRANCH   4  26
ATOM     26  C   UNL     1      10.106 -54.718 -23.551  1.00  0.00     0.302 C 
BRANCH  26  27
ATOM     27  C   UNL     1      11.297 -53.979 -24.096  1.00  0.00     0.048 A 
ATOM     28  C   UNL     1      12.024 -54.508 -25.175  1.00  0.00     0.013 A 
ATOM     29  C   UNL     1      11.700 -52.753 -23.556  1.00  0.00     0.124 A 
ATOM     30  C   UNL     1      13.127 -53.823 -25.688  1.00  0.00     0.001 A 
ATOM     31  C   UNL     1      12.800 -52.065 -24.065  1.00  0.00     0.046 A 
ATOM     32  C   UNL     1      13.513 -52.604 -25.134  1.00  0.00     0.004 A 
BRANCH  29  33
ATOM     33  O   UNL     1      10.978 -52.225 -22.524  1.00  0.00    -0.507 OA
ATOM     34  H   UNL     1      10.417 -52.929 -22.145  1.00  0.00     0.293 HD
ENDBRANCH  29  33
ENDBRANCH  26  27
ENDBRANCH   4  26
TORSDOF 8
ENDMDL
MODEL 5
REMARK VINA RESULT:   -11.783      1.548      1.959
REMARK INTER + INTRA:         -17.464
REMARK INTER:                 -16.585
REMARK INTRA:                  -0.879
REMARK UNBOUND:                -0.860
REMARK SMILES O=C1CCc2cc(C(O)=CC[C@H]3CC[N@H+](Cc4ccccc4O)CC3)cc3ccn1c23
REMARK SMILES IDX 12 1 25 2 24 3 15 4 14 5 13 6 11 8 10 9 8 10 9 11 7 13 6 14
REMARK SMILES IDX 26 15 5 16 27 17 31 18 4 19 28 20 30 21 3 22 29 23 2 24 1 25
REMARK SMILES IDX 16 26 17 27 18 28 22 29 19 30 21 31 20 32 23 33
REMARK H PARENT 15 7 9 12 23 34
ROOT
ATOM      1  C   UNL     1      10.514 -57.897 -22.034  1.00  0.00     0.004 C 
ATOM      2  C   UNL     1       9.388 -58.001 -23.073  1.00  0.00     0.065 C 
ATOM      3  C   UNL     1       8.767 -59.388 -23.072  1.00  0.00     0.262 C 
ATOM      4  N   UNL     1       9.829 -60.418 -23.359  1.00  0.00    -0.331 N 
ATOM      5  C   UNL     1      10.953 -60.372 -22.350  1.00  0.00     0.262 C 
ATOM      6  C   UNL     1      11.567 -58.977 -22.329  1.00  0.00     0.065 C 
ATOM      7  H   UNL     1      10.236 -60.210 -24.278  1.00  0.00     0.348 HD
ENDROOT
BRANCH   1   8
ATOM      8  C   UNL     1      11.167 -56.503 -22.026  1.00  0.00     0.035 C 
BRANCH   8   9
ATOM      9  C   UNL     1      10.882 -55.551 -23.157  1.00  0.00     0.020 C 
BRANCH   9  10
ATOM     10  C   UNL     1      11.683 -55.117 -24.144  1.00  0.00     0.118 C 
BRANCH  10  11
ATOM     11  O   UNL     1      12.197 -55.949 -25.112  1.00  0.00    -0.508 OA
ATOM     12  H   UNL     1      12.400 -55.393 -25.888  1.00  0.00     0.293 HD
ENDBRANCH  10  11
BRANCH  10  13
ATOM     13  C   UNL     1      12.062 -53.698 -24.256  1.00  0.00     0.017 A 
ATOM     14  C   UNL     1      11.653 -52.771 -23.281  1.00  0.00     0.017 A 
ATOM     15  C   UNL     1      12.840 -53.283 -25.359  1.00  0.00     0.022 A 
ATOM     16  C   UNL     1      11.988 -51.418 -23.393  1.00  0.00    -0.022 A 
ATOM     17  C   UNL     1      13.202 -51.928 -25.473  1.00  0.00     0.001 A 
ATOM     18  C   UNL     1      12.748 -51.057 -24.500  1.00  0.00     0.059 A 
ATOM     19  C   UNL     1      11.694 -50.358 -22.378  1.00  0.00     0.047 C 
ATOM     20  C   UNL     1      13.984 -51.150 -26.369  1.00  0.00     0.029 A 
ATOM     21  N   UNL     1      13.186 -49.783 -24.788  1.00  0.00    -0.287 N 
ATOM     22  C   UNL     1      11.701 -48.959 -23.021  1.00  0.00     0.106 C 
ATOM     23  C   UNL     1      13.982 -49.847 -25.911  1.00  0.00     0.095 A 
ATOM     24  C   UNL     1      12.827 -48.675 -24.012  1.00  0.00     0.231 C 
ATOM     25  O   UNL     1      13.321 -47.580 -24.245  1.00  0.00    -0.274 OA
ENDBRANCH  10  13
ENDBRANCH   9  10
ENDBRANCH   8   9
ENDBRANCH   1   8
BRANCH   4  26
ATOM     26  C   UNL     1       9.225 -61.806 -23.471  1.00  0.00     0.302 C 
BRANCH  26  27
ATOM     27  C   UNL     1       8.884 -62.199 -24.882  1.00  0.00     0.048 A 
ATOM     28  C   UNL     1       9.606 -61.659 -25.959  1.00  0.00     0.013 A 
ATOM     29  C   UNL     1       7.860 -63.113 -25.155  1.00  0.00     0.124 A 
ATOM     30  C   UNL     1       9.298 -62.026 -27.271  1.00  0.00     0.001 A 
ATOM     31  C   UNL     1       7.549 -63.482 -26.462  1.00  0.00     0.046 A 
ATOM     32  C   UNL     1       8.272 -62.935 -27.521  1.00  0.00     0.004 A 
BRANCH  29  33
ATOM     33  O   UNL     1       7.175 -63.658 -24.106  1.00  0.00    -0.507 OA
ATOM     34  H   UNL     1       7.498 -64.568 -23.964  1.00  0.00     0.293 HD
ENDBRANCH  29  33
ENDBRANCH  26  27
ENDBRANCH   4  26
TORSDOF 8
ENDMDL
MODEL 6
REMARK VINA RESULT:   -11.659      2.320     10.915
REMARK INTER + INTRA:         -17.290
REMARK INTER:                 -16.585
REMARK INTRA:                  -0.704
REMARK UNBOUND:                -0.860
REMARK SMILES O=C1CCc2cc(C(O)=CC[C@H]3CC[N@H+](Cc4ccccc4O)CC3)cc3ccn1c23
REMARK SMILES IDX 12 1 25 2 24 3 15 4 14 5 13 6 11 8 10 9 8 10 9 11 7 13 6 14
REMARK SMILES IDX 26 15 5 16 27 17 31 18 4 19 28 20 30 21 3 22 29 23 2 24 1 25
REMARK SMILES IDX 16 26 17 27 18 28 22 29 19 30 21 31 20 32 23 33
REMARK H PARENT 15 7 9 12 23 34
ROOT
ATOM      1  C   UNL     1      10.600 -56.151 -22.309  1.00  0.00     0.004 C 
ATOM      2  C   UNL     1      11.127 -55.390 -21.083  1.00  0.00     0.065 C 
ATOM      3  C   UNL     1      10.512 -54.003 -20.992  1.00  0.00     0.262 C 
ATOM      4  N   UNL     1      10.820 -53.230 -22.249  1.00  0.00    -0.331 N 
ATOM      5  C   UNL     1      10.302 -53.927 -23.486  1.00  0.00     0.262 C 
ATOM      6  C   UNL     1      10.897 -55.328 -23.573  1.00  0.00     0.065 C 
ATOM      7  H   UNL     1      11.840 -53.163 -22.342  1.00  0.00     0.348 HD
ENDROOT
BRANCH   1   8
ATOM      8  C   UNL     1      11.219 -57.555 -22.429  1.00  0.00     0.035 C 
BRANCH   8   9
ATOM      9  C   UNL     1      11.709 -58.030 -23.771  1.00  0.00     0.020 C 
BRANCH   9  10
ATOM     10  C   UNL     1      12.018 -59.269 -24.189  1.00  0.00     0.118 C 
BRANCH  10  11
ATOM     11  O   UNL     1      13.308 -59.744 -24.233  1.00  0.00    -0.508 OA
ATOM     12  H   UNL     1      13.376 -60.313 -25.024  1.00  0.00     0.293 HD
ENDBRANCH  10  11
BRANCH  10  13
ATOM     13  C   UNL     1      10.975 -60.213 -24.629  1.00  0.00     0.017 A 
ATOM     14  C   UNL     1      10.167 -60.873 -23.687  1.00  0.00     0.017 A 
ATOM     15  C   UNL     1      10.803 -60.445 -26.011  1.00  0.00     0.022 A 
ATOM     16  C   UNL     1       9.193 -61.788 -24.094  1.00  0.00    -0.022 A 
ATOM     17  C   UNL     1       9.811 -61.349 -26.436  1.00  0.00     0.001 A 
ATOM     18  C   UNL     1       9.066 -61.990 -25.464  1.00  0.00     0.059 A 
ATOM     19  C   UNL     1       8.213 -62.479 -23.197  1.00  0.00     0.047 C 
ATOM     20  C   UNL     1       9.309 -61.803 -27.686  1.00  0.00     0.029 A 
ATOM     21  N   UNL     1       8.165 -62.840 -26.067  1.00  0.00    -0.287 N 
ATOM     22  C   UNL     1       7.677 -63.766 -23.851  1.00  0.00     0.106 C 
ATOM     23  C   UNL     1       8.283 -62.693 -27.432  1.00  0.00     0.095 A 
ATOM     24  C   UNL     1       7.316 -63.675 -25.331  1.00  0.00     0.231 C 
ATOM     25  O   UNL     1       6.462 -64.336 -25.906  1.00  0.00    -0.274 OA
ENDBRANCH  10  13
ENDBRANCH   9  10
ENDBRANCH   8   9
ENDBRANCH   1   8
BRANCH   4  26
ATOM     26  C   UNL     1      10.312 -51.803 -22.149  1.00  0.00     0.302 C 
BRANCH  26  27
ATOM     27  C   UNL     1      11.237 -50.793 -22.772  1.00  0.00     0.048 A 
ATOM     28  C   UNL     1      12.379 -51.218 -23.470  1.00  0.00     0.013 A 
ATOM     29  C   UNL     1      10.979 -49.421 -22.684  1.00  0.00     0.124 A 
ATOM     30  C   UNL     1      13.237 -50.285 -24.056  1.00  0.00     0.001 A 
ATOM     31  C   UNL     1      11.832 -48.486 -23.267  1.00  0.00     0.046 A 
ATOM     32  C   UNL     1      12.963 -48.922 -23.954  1.00  0.00     0.004 A 
BRANCH  29  33
ATOM     33  O   UNL     1       9.855 -49.009 -22.027  1.00  0.00    -0.507 OA
ATOM     34  H   UNL     1      10.105 -48.313 -21.389  1.00  0.00     0.293 HD
ENDBRANCH  29  33
ENDBRANCH  26  27
ENDBRANCH   4  26
TORSDOF 8
ENDMDL
MODEL 7
REMARK VINA RESULT:   -11.403      2.590     11.544
REMARK INTER + INTRA:         -16.928
REMARK INTER:                 -16.170
REMARK INTRA:                  -0.759
REMARK UNBOUND:                -0.860
REMARK SMILES O=C1CCc2cc(C(O)=CC[C@H]3CC[N@H+](Cc4ccccc4O)CC3)cc3ccn1c23
REMARK SMILES IDX 12 1 25 2 24 3 15 4 14 5 13 6 11 8 10 9 8 10 9 11 7 13 6 14
REMARK SMILES IDX 26 15 5 16 27 17 31 18 4 19 28 20 30 21 3 22 29 23 2 24 1 25
REMARK SMILES IDX 16 26 17 27 18 28 22 29 19 30 21 31 20 32 23 33
REMARK H PARENT 15 7 9 12 23 34
ROOT
ATOM      1  C   UNL     1      11.538 -52.918 -22.993  1.00  0.00     0.004 C 
ATOM      2  C   UNL     1      12.474 -52.137 -23.927  1.00  0.00     0.065 C 
ATOM      3  C   UNL     1      13.107 -50.957 -23.208  1.00  0.00     0.262 C 
ATOM      4  N   UNL     1      12.028 -50.047 -22.681  1.00  0.00    -0.331 N 
ATOM      5  C   UNL     1      11.091 -50.763 -21.737  1.00  0.00     0.262 C 
ATOM      6  C   UNL     1      10.467 -51.961 -22.444  1.00  0.00     0.065 C 
ATOM      7  H   UNL     1      11.468 -49.720 -23.477  1.00  0.00     0.348 HD
ENDROOT
BRANCH   1   8
ATOM      8  C   UNL     1      10.874 -54.111 -23.704  1.00  0.00     0.035 C 
BRANCH   8   9
ATOM      9  C   UNL     1      11.345 -55.507 -23.393  1.00  0.00     0.020 C 
BRANCH   9  10
ATOM     10  C   UNL     1      11.024 -56.320 -22.373  1.00  0.00     0.118 C 
BRANCH  10  11
ATOM     11  O   UNL     1      11.371 -56.058 -21.068  1.00  0.00    -0.508 OA
ATOM     12  H   UNL     1      12.176 -56.575 -20.878  1.00  0.00     0.293 HD
ENDBRANCH  10  11
BRANCH  10  13
ATOM     13  C   UNL     1      10.262 -57.562 -22.593  1.00  0.00     0.017 A 
ATOM     14  C   UNL     1       8.941 -57.513 -23.072  1.00  0.00     0.017 A 
ATOM     15  C   UNL     1      10.878 -58.801 -22.312  1.00  0.00     0.022 A 
ATOM     16  C   UNL     1       8.202 -58.685 -23.259  1.00  0.00    -0.022 A 
ATOM     17  C   UNL     1      10.153 -59.989 -22.517  1.00  0.00     0.001 A 
ATOM     18  C   UNL     1       8.849 -59.880 -22.962  1.00  0.00     0.059 A 
ATOM     19  C   UNL     1       6.829 -58.768 -23.850  1.00  0.00     0.047 C 
ATOM     20  C   UNL     1      10.419 -61.381 -22.404  1.00  0.00     0.029 A 
ATOM     21  N   UNL     1       8.301 -61.137 -23.086  1.00  0.00    -0.287 N 
ATOM     22  C   UNL     1       6.122 -60.069 -23.426  1.00  0.00     0.106 C 
ATOM     23  C   UNL     1       9.278 -62.062 -22.786  1.00  0.00     0.095 A 
ATOM     24  C   UNL     1       6.967 -61.340 -23.457  1.00  0.00     0.231 C 
ATOM     25  O   UNL     1       6.553 -62.474 -23.654  1.00  0.00    -0.274 OA
ENDBRANCH  10  13
ENDBRANCH   9  10
ENDBRANCH   8   9
ENDBRANCH   1   8
BRANCH   4  26
ATOM     26  C   UNL     1      12.626 -48.803 -22.049  1.00  0.00     0.302 C 
BRANCH  26  27
ATOM     27  C   UNL     1      12.015 -47.523 -22.551  1.00  0.00     0.048 A 
ATOM     28  C   UNL     1      11.464 -47.463 -23.841  1.00  0.00     0.013 A 
ATOM     29  C   UNL     1      11.969 -46.377 -21.750  1.00  0.00     0.124 A 
ATOM     30  C   UNL     1      10.889 -46.279 -24.309  1.00  0.00     0.001 A 
ATOM     31  C   UNL     1      11.397 -45.193 -22.213  1.00  0.00     0.046 A 
ATOM     32  C   UNL     1      10.856 -45.148 -23.496  1.00  0.00     0.004 A 
BRANCH  29  33
ATOM     33  O   UNL     1      12.483 -46.443 -20.486  1.00  0.00    -0.507 OA
ATOM     34  H   UNL     1      12.204 -47.286 -20.081  1.00  0.00     0.293 HD
ENDBRANCH  29  33
ENDBRANCH  26  27
ENDBRANCH   4  26
TORSDOF 8
ENDMDL
MODEL 8
REMARK VINA RESULT:   -11.199      2.340     11.503
REMARK INTER + INTRA:         -16.641
REMARK INTER:                 -15.746
REMARK INTRA:                  -0.895
REMARK UNBOUND:                -0.860
REMARK SMILES O=C1CCc2cc(C(O)=CC[C@H]3CC[N@H+](Cc4ccccc4O)CC3)cc3ccn1c23
REMARK SMILES IDX 12 1 25 2 24 3 15 4 14 5 13 6 11 8 10 9 8 10 9 11 7 13 6 14
REMARK SMILES IDX 26 15 5 16 27 17 31 18 4 19 28 20 30 21 3 22 29 23 2 24 1 25
REMARK SMILES IDX 16 26 17 27 18 28 22 29 19 30 21 31 20 32 23 33
REMARK H PARENT 15 7 9 12 23 34
ROOT
ATOM      1  C   UNL     1      11.622 -53.325 -23.179  1.00  0.00     0.004 C 
ATOM      2  C   UNL     1      12.286 -52.440 -24.244  1.00  0.00     0.065 C 
ATOM      3  C   UNL     1      12.975 -51.243 -23.611  1.00  0.00     0.262 C 
ATOM      4  N   UNL     1      11.971 -50.438 -22.825  1.00  0.00    -0.331 N 
ATOM      5  C   UNL     1      11.303 -51.260 -21.747  1.00  0.00     0.262 C 
ATOM      6  C   UNL     1      10.628 -52.475 -22.373  1.00  0.00     0.065 C 
ATOM      7  H   UNL     1      11.237 -50.127 -23.471  1.00  0.00     0.348 HD
ENDROOT
BRANCH   1   8
ATOM      8  C   UNL     1      10.906 -54.539 -23.800  1.00  0.00     0.035 C 
BRANCH   8   9
ATOM      9  C   UNL     1      11.395 -55.925 -23.476  1.00  0.00     0.020 C 
BRANCH   9  10
ATOM     10  C   UNL     1      11.055 -56.749 -22.471  1.00  0.00     0.118 C 
BRANCH  10  11
ATOM     11  O   UNL     1      11.435 -56.535 -21.166  1.00  0.00    -0.508 OA
ATOM     12  H   UNL     1      10.621 -56.360 -20.657  1.00  0.00     0.293 HD
ENDBRANCH  10  11
BRANCH  10  13
ATOM     13  C   UNL     1      10.234 -57.950 -22.708  1.00  0.00     0.017 A 
ATOM     14  C   UNL     1      10.813 -59.230 -22.661  1.00  0.00     0.017 A 
ATOM     15  C   UNL     1       8.858 -57.794 -22.985  1.00  0.00     0.022 A 
ATOM     16  C   UNL     1      10.047 -60.373 -22.908  1.00  0.00    -0.022 A 
ATOM     17  C   UNL     1       8.071 -58.937 -23.215  1.00  0.00     0.001 A 
ATOM     18  C   UNL     1       8.699 -60.168 -23.185  1.00  0.00     0.059 A 
ATOM     19  C   UNL     1      10.525 -61.787 -22.795  1.00  0.00     0.047 C 
ATOM     20  C   UNL     1       6.697 -59.198 -23.468  1.00  0.00     0.029 A 
ATOM     21  N   UNL     1       7.778 -61.157 -23.447  1.00  0.00    -0.287 N 
ATOM     22  C   UNL     1       9.642 -62.737 -23.627  1.00  0.00     0.106 C 
ATOM     23  C   UNL     1       6.539 -60.567 -23.577  1.00  0.00     0.095 A 
ATOM     24  C   UNL     1       8.136 -62.507 -23.546  1.00  0.00     0.231 C 
ATOM     25  O   UNL     1       7.270 -63.360 -23.679  1.00  0.00    -0.274 OA
ENDBRANCH  10  13
ENDBRANCH   9  10
ENDBRANCH   8   9
ENDBRANCH   1   8
BRANCH   4  26
ATOM     26  C   UNL     1      12.603 -49.176 -22.266  1.00  0.00     0.302 C 
BRANCH  26  27
ATOM     27  C   UNL     1      12.306 -47.947 -23.080  1.00  0.00     0.048 A 
ATOM     28  C   UNL     1      13.235 -47.484 -24.026  1.00  0.00     0.013 A 
ATOM     29  C   UNL     1      11.104 -47.247 -22.926  1.00  0.00     0.124 A 
ATOM     30  C   UNL     1      12.960 -46.347 -24.789  1.00  0.00     0.001 A 
ATOM     31  C   UNL     1      10.825 -46.112 -23.685  1.00  0.00     0.046 A 
ATOM     32  C   UNL     1      11.758 -45.663 -24.618  1.00  0.00     0.004 A 
BRANCH  29  33
ATOM     33  O   UNL     1      10.189 -47.711 -22.024  1.00  0.00    -0.507 OA
ATOM     34  H   UNL     1      10.547 -48.518 -21.606  1.00  0.00     0.293 HD
ENDBRANCH  29  33
ENDBRANCH  26  27
ENDBRANCH   4  26
TORSDOF 8
ENDMDL
MODEL 9
REMARK VINA RESULT:   -10.747      2.128      3.806
REMARK INTER + INTRA:         -16.005
REMARK INTER:                 -15.066
REMARK INTRA:                  -0.939
REMARK UNBOUND:                -0.860
REMARK SMILES O=C1CCc2cc(C(O)=CC[C@H]3CC[N@H+](Cc4ccccc4O)CC3)cc3ccn1c23
REMARK SMILES IDX 12 1 25 2 24 3 15 4 14 5 13 6 11 8 10 9 8 10 9 11 7 13 6 14
REMARK SMILES IDX 26 15 5 16 27 17 31 18 4 19 28 20 30 21 3 22 29 23 2 24 1 25
REMARK SMILES IDX 16 26 17 27 18 28 22 29 19 30 21 31 20 32 23 33
REMARK H PARENT 15 7 9 12 23 34
ROOT
ATOM      1  C   UNL     1      11.056 -54.857 -22.440  1.00  0.00     0.004 C 
ATOM      2  C   UNL     1      10.504 -56.208 -21.962  1.00  0.00     0.065 C 
ATOM      3  C   UNL     1      11.368 -57.359 -22.453  1.00  0.00     0.262 C 
ATOM      4  N   UNL     1      11.436 -57.333 -23.958  1.00  0.00    -0.331 N 
ATOM      5  C   UNL     1      11.995 -56.029 -24.480  1.00  0.00     0.262 C 
ATOM      6  C   UNL     1      11.147 -54.868 -23.974  1.00  0.00     0.065 C 
ATOM      7  H   UNL     1      10.481 -57.423 -24.324  1.00  0.00     0.348 HD
ENDROOT
BRANCH   1   8
ATOM      8  C   UNL     1      10.189 -53.677 -21.964  1.00  0.00     0.035 C 
BRANCH   8   9
ATOM      9  C   UNL     1      10.435 -52.307 -22.539  1.00  0.00     0.020 C 
BRANCH   9  10
ATOM     10  C   UNL     1      11.329 -51.369 -22.184  1.00  0.00     0.118 C 
BRANCH  10  11
ATOM     11  O   UNL     1      11.672 -51.119 -20.875  1.00  0.00    -0.508 OA
ATOM     12  H   UNL     1      11.777 -51.984 -20.437  1.00  0.00     0.293 HD
ENDBRANCH  10  11
BRANCH  10  13
ATOM     13  C   UNL     1      12.012 -50.539 -23.192  1.00  0.00     0.017 A 
ATOM     14  C   UNL     1      12.680 -51.138 -24.274  1.00  0.00     0.017 A 
ATOM     15  C   UNL     1      11.988 -49.135 -23.052  1.00  0.00     0.022 A 
ATOM     16  C   UNL     1      13.352 -50.360 -25.221  1.00  0.00    -0.022 A 
ATOM     17  C   UNL     1      12.642 -48.338 -24.010  1.00  0.00     0.001 A 
ATOM     18  C   UNL     1      13.307 -48.982 -25.036  1.00  0.00     0.059 A 
ATOM     19  C   UNL     1      14.016 -50.872 -26.462  1.00  0.00     0.047 C 
ATOM     20  C   UNL     1      12.802 -46.945 -24.244  1.00  0.00     0.029 A 
ATOM     21  N   UNL     1      13.894 -48.046 -25.858  1.00  0.00    -0.287 N 
ATOM     22  C   UNL     1      15.079 -49.880 -26.970  1.00  0.00     0.106 C 
ATOM     23  C   UNL     1      13.548 -46.794 -25.398  1.00  0.00     0.095 A 
ATOM     24  C   UNL     1      14.693 -48.404 -26.950  1.00  0.00     0.231 C 
ATOM     25  O   UNL     1      15.110 -47.541 -27.711  1.00  0.00    -0.274 OA
ENDBRANCH  10  13
ENDBRANCH   9  10
ENDBRANCH   8   9
ENDBRANCH   1   8
BRANCH   4  26
ATOM     26  C   UNL     1      12.204 -58.531 -24.489  1.00  0.00     0.302 C 
BRANCH  26  27
ATOM     27  C   UNL     1      11.424 -59.816 -24.428  1.00  0.00     0.048 A 
ATOM     28  C   UNL     1      11.577 -60.683 -23.334  1.00  0.00     0.013 A 
ATOM     29  C   UNL     1      10.528 -60.170 -25.442  1.00  0.00     0.124 A 
ATOM     30  C   UNL     1      10.851 -61.874 -23.270  1.00  0.00     0.001 A 
ATOM     31  C   UNL     1       9.801 -61.357 -25.383  1.00  0.00     0.046 A 
ATOM     32  C   UNL     1       9.965 -62.210 -24.293  1.00  0.00     0.004 A 
BRANCH  29  33
ATOM     33  O   UNL     1      10.360 -59.314 -26.494  1.00  0.00    -0.507 OA
ATOM     34  H   UNL     1      10.122 -58.434 -26.143  1.00  0.00     0.293 HD
ENDBRANCH  29  33
ENDBRANCH  26  27
ENDBRANCH   4  26
TORSDOF 8
ENDMDL
