MODEL 1
REMARK VINA RESULT:    -9.437      0.000      0.000
REMARK INTER + INTRA:         -14.327
REMARK INTER:                 -13.023
REMARK INTRA:                  -1.304
REMARK UNBOUND:                -1.304
REMARK SMILES COc1ccc(OC)c([C@H]2CC(c3cc(F)ccc3F)=NN2c2ccc(S(N)(=O)=O)cc2)c1
REMARK SMILES IDX 23 1 24 2 25 3 26 4 31 5 32 6 22 7 10 8 11 9 12 10 21 11
REMARK SMILES IDX 9 12 3 13 4 14 33 15 5 16 6 17 2 18 1 19 7 20 8 21 13 22
REMARK SMILES IDX 14 23 19 24 15 25 18 26 17 27 20 28 16 29 27 30 29 31 30 32
REMARK SMILES IDX 28 33
REMARK H PARENT 28 34 28 35
ROOT
ATOM      1  C   UNL     1      13.183 -48.702 -24.850  1.00  0.00     0.060 A 
ATOM      2  C   UNL     1      14.141 -47.927 -25.520  1.00  0.00     0.029 A 
ATOM      3  C   UNL     1      14.025 -46.534 -25.625  1.00  0.00     0.024 A 
ATOM      4  C   UNL     1      12.926 -45.890 -25.061  1.00  0.00     0.082 A 
ATOM      5  C   UNL     1      11.959 -46.621 -24.380  1.00  0.00     0.024 A 
ATOM      6  C   UNL     1      12.091 -48.011 -24.286  1.00  0.00     0.029 A 
ENDROOT
BRANCH   1   7
ATOM      7  N   UNL     1      13.282 -50.087 -24.727  1.00  0.00    -0.257 N 
ATOM      8  C   UNL     1      14.195 -50.968 -25.466  1.00  0.00     0.148 C 
ATOM      9  C   UNL     1      13.604 -52.360 -25.230  1.00  0.00     0.091 C 
ATOM     10  C   UNL     1      12.555 -52.040 -24.201  1.00  0.00     0.074 C 
ATOM     11  N   UNL     1      12.369 -50.775 -23.976  1.00  0.00    -0.176 NA
BRANCH   8  12
ATOM     12  C   UNL     1      15.646 -50.857 -25.020  1.00  0.00     0.023 A 
ATOM     13  C   UNL     1      17.254 -50.951 -23.166  1.00  0.00     0.119 A 
ATOM     14  C   UNL     1      18.292 -50.658 -24.046  1.00  0.00     0.050 A 
ATOM     15  C   UNL     1      15.946 -51.039 -23.655  1.00  0.00     0.056 A 
ATOM     16  C   UNL     1      18.019 -50.458 -25.401  1.00  0.00     0.050 A 
ATOM     17  C   UNL     1      16.711 -50.572 -25.884  1.00  0.00     0.124 A 
BRANCH  13  18
ATOM     18  O   UNL     1      17.375 -51.161 -21.821  1.00  0.00    -0.497 OA
ATOM     19  C   UNL     1      17.776 -50.050 -21.030  1.00  0.00     0.278 C 
ENDBRANCH  13  18
BRANCH  17  20
ATOM     20  O   UNL     1      16.475 -50.305 -27.207  1.00  0.00    -0.496 OA
ATOM     21  C   UNL     1      17.021 -49.035 -27.573  1.00  0.00     0.278 C 
ENDBRANCH  17  20
ENDBRANCH   8  12
BRANCH  10  22
ATOM     22  C   UNL     1      11.778 -53.092 -23.511  1.00  0.00     0.037 A 
ATOM     23  C   UNL     1      11.439 -52.901 -22.165  1.00  0.00     0.052 A 
ATOM     24  C   UNL     1      11.373 -54.266 -24.153  1.00  0.00     0.132 A 
ATOM     25  C   UNL     1      10.714 -53.879 -21.492  1.00  0.00     0.124 A 
ATOM     26  C   UNL     1      10.644 -55.241 -23.471  1.00  0.00     0.043 A 
ATOM     27  C   UNL     1      10.314 -55.047 -22.131  1.00  0.00     0.042 A 
ATOM     28  F   UNL     1      11.655 -54.487 -25.444  1.00  0.00    -0.206 F 
ATOM     29  F   UNL     1      10.395 -53.693 -20.205  1.00  0.00    -0.207 F 
ENDBRANCH  10  22
ENDBRANCH   1   7
BRANCH   4  30
ATOM     30  S   UNL     1      12.789 -44.132 -25.159  1.00  0.00     0.238 S 
ATOM     31  O   UNL     1      13.618 -43.529 -24.140  1.00  0.00    -0.207 OA
ATOM     32  O   UNL     1      12.847 -43.722 -26.544  1.00  0.00    -0.207 OA
BRANCH  30  33
ATOM     33  N   UNL     1      11.202 -43.878 -24.674  1.00  0.00    -0.225 NA
ATOM     34  H   UNL     1      10.954 -42.897 -24.804  1.00  0.00     0.137 HD
ATOM     35  H   UNL     1      10.585 -44.530 -25.156  1.00  0.00     0.137 HD
ENDBRANCH  30  33
ENDBRANCH   4  30
TORSDOF 7
ENDMDL
MODEL 2
REMARK VINA RESULT:    -9.362      0.785      1.481
REMARK INTER + INTRA:         -14.223
REMARK INTER:                 -13.015
REMARK INTRA:                  -1.209
REMARK UNBOUND:                -1.304
REMARK SMILES COc1ccc(OC)c([C@H]2CC(c3cc(F)ccc3F)=NN2c2ccc(S(N)(=O)=O)cc2)c1
REMARK SMILES IDX 23 1 24 2 25 3 26 4 31 5 32 6 22 7 10 8 11 9 12 10 21 11
REMARK SMILES IDX 9 12 3 13 4 14 33 15 5 16 6 17 2 18 1 19 7 20 8 21 13 22
REMARK SMILES IDX 14 23 19 24 15 25 18 26 17 27 20 28 16 29 27 30 29 31 30 32
REMARK SMILES IDX 28 33
REMARK H PARENT 28 34 28 35
ROOT
ATOM      1  C   UNL     1      13.007 -48.610 -24.706  1.00  0.00     0.060 A 
ATOM      2  C   UNL     1      13.970 -47.897 -25.436  1.00  0.00     0.029 A 
ATOM      3  C   UNL     1      13.897 -46.506 -25.596  1.00  0.00     0.024 A 
ATOM      4  C   UNL     1      12.838 -45.801 -25.028  1.00  0.00     0.082 A 
ATOM      5  C   UNL     1      11.868 -46.471 -24.288  1.00  0.00     0.024 A 
ATOM      6  C   UNL     1      11.957 -47.860 -24.140  1.00  0.00     0.029 A 
ENDROOT
BRANCH   1   7
ATOM      7  N   UNL     1      13.064 -49.991 -24.527  1.00  0.00    -0.257 N 
ATOM      8  C   UNL     1      13.876 -50.941 -25.299  1.00  0.00     0.148 C 
ATOM      9  C   UNL     1      13.255 -52.295 -24.950  1.00  0.00     0.091 C 
ATOM     10  C   UNL     1      12.312 -51.888 -23.853  1.00  0.00     0.074 C 
ATOM     11  N   UNL     1      12.194 -50.608 -23.672  1.00  0.00    -0.176 NA
BRANCH   8  12
ATOM     12  C   UNL     1      15.363 -50.871 -24.983  1.00  0.00     0.023 A 
ATOM     13  C   UNL     1      17.130 -51.061 -23.288  1.00  0.00     0.119 A 
ATOM     14  C   UNL     1      18.090 -50.753 -24.247  1.00  0.00     0.050 A 
ATOM     15  C   UNL     1      15.781 -51.109 -23.659  1.00  0.00     0.056 A 
ATOM     16  C   UNL     1      17.700 -50.498 -25.564  1.00  0.00     0.050 A 
ATOM     17  C   UNL     1      16.352 -50.571 -25.930  1.00  0.00     0.124 A 
BRANCH  13  18
ATOM     18  O   UNL     1      17.366 -51.324 -21.967  1.00  0.00    -0.497 OA
ATOM     19  C   UNL     1      18.111 -50.354 -21.242  1.00  0.00     0.278 C 
ENDBRANCH  13  18
BRANCH  17  20
ATOM     20  O   UNL     1      16.003 -50.252 -27.216  1.00  0.00    -0.496 OA
ATOM     21  C   UNL     1      16.939 -49.329 -27.779  1.00  0.00     0.278 C 
ENDBRANCH  17  20
ENDBRANCH   8  12
BRANCH  10  22
ATOM     22  C   UNL     1      11.558 -52.876 -23.051  1.00  0.00     0.037 A 
ATOM     23  C   UNL     1      11.236 -54.108 -23.634  1.00  0.00     0.052 A 
ATOM     24  C   UNL     1      11.156 -52.621 -21.737  1.00  0.00     0.132 A 
ATOM     25  C   UNL     1      10.521 -55.051 -22.902  1.00  0.00     0.124 A 
ATOM     26  C   UNL     1      10.440 -53.572 -21.009  1.00  0.00     0.043 A 
ATOM     27  C   UNL     1      10.119 -54.795 -21.596  1.00  0.00     0.042 A 
ATOM     28  F   UNL     1      11.455 -51.465 -21.128  1.00  0.00    -0.206 F 
ATOM     29  F   UNL     1      10.214 -56.227 -23.465  1.00  0.00    -0.207 F 
ENDBRANCH  10  22
ENDBRANCH   1   7
BRANCH   4  30
ATOM     30  S   UNL     1      12.756 -44.045 -25.196  1.00  0.00     0.238 S 
ATOM     31  O   UNL     1      13.599 -43.429 -24.197  1.00  0.00    -0.207 OA
ATOM     32  O   UNL     1      12.832 -43.693 -26.595  1.00  0.00    -0.207 OA
BRANCH  30  33
ATOM     33  N   UNL     1      11.176 -43.723 -24.729  1.00  0.00    -0.225 NA
ATOM     34  H   UNL     1      10.586 -43.618 -25.554  1.00  0.00     0.137 HD
ATOM     35  H   UNL     1      10.855 -44.439 -24.077  1.00  0.00     0.137 HD
ENDBRANCH  30  33
ENDBRANCH   4  30
TORSDOF 7
ENDMDL
MODEL 3
REMARK VINA RESULT:    -9.029      4.112      7.474
REMARK INTER + INTRA:         -13.764
REMARK INTER:                 -12.249
REMARK INTRA:                  -1.515
REMARK UNBOUND:                -1.304
REMARK SMILES COc1ccc(OC)c([C@H]2CC(c3cc(F)ccc3F)=NN2c2ccc(S(N)(=O)=O)cc2)c1
REMARK SMILES IDX 23 1 24 2 25 3 26 4 31 5 32 6 22 7 10 8 11 9 12 10 21 11
REMARK SMILES IDX 9 12 3 13 4 14 33 15 5 16 6 17 2 18 1 19 7 20 8 21 13 22
REMARK SMILES IDX 14 23 19 24 15 25 18 26 17 27 20 28 16 29 27 30 29 31 30 32
REMARK SMILES IDX 28 33
REMARK H PARENT 28 34 28 35
ROOT
ATOM      1  C   UNL     1      12.241 -51.501 -23.153  1.00  0.00     0.060 A 
ATOM      2  C   UNL     1      11.483 -51.962 -22.065  1.00  0.00     0.029 A 
ATOM      3  C   UNL     1      10.991 -53.274 -22.009  1.00  0.00     0.024 A 
ATOM      4  C   UNL     1      11.245 -54.151 -23.061  1.00  0.00     0.082 A 
ATOM      5  C   UNL     1      12.001 -53.735 -24.152  1.00  0.00     0.024 A 
ATOM      6  C   UNL     1      12.483 -52.422 -24.192  1.00  0.00     0.029 A 
ENDROOT
BRANCH   1   7
ATOM      7  N   UNL     1      12.747 -50.204 -23.225  1.00  0.00    -0.257 N 
ATOM      8  C   UNL     1      14.117 -49.780 -22.911  1.00  0.00     0.148 C 
ATOM      9  C   UNL     1      13.991 -48.260 -22.782  1.00  0.00     0.091 C 
ATOM     10  C   UNL     1      12.581 -48.062 -23.263  1.00  0.00     0.074 C 
ATOM     11  N   UNL     1      11.904 -49.153 -23.458  1.00  0.00    -0.176 NA
BRANCH   8  12
ATOM     12  C   UNL     1      15.142 -50.203 -23.953  1.00  0.00     0.023 A 
ATOM     13  C   UNL     1      15.817 -50.194 -26.315  1.00  0.00     0.119 A 
ATOM     14  C   UNL     1      16.949 -50.940 -25.998  1.00  0.00     0.050 A 
ATOM     15  C   UNL     1      14.924 -49.841 -25.298  1.00  0.00     0.056 A 
ATOM     16  C   UNL     1      17.181 -51.324 -24.676  1.00  0.00     0.050 A 
ATOM     17  C   UNL     1      16.294 -50.946 -23.663  1.00  0.00     0.124 A 
BRANCH  13  18
ATOM     18  O   UNL     1      15.463 -49.758 -27.561  1.00  0.00    -0.497 OA
ATOM     19  C   UNL     1      15.115 -48.385 -27.686  1.00  0.00     0.278 C 
ENDBRANCH  13  18
BRANCH  17  20
ATOM     20  O   UNL     1      16.522 -51.397 -22.389  1.00  0.00    -0.496 OA
ATOM     21  C   UNL     1      17.677 -50.767 -21.829  1.00  0.00     0.278 C 
ENDBRANCH  17  20
ENDBRANCH   8  12
BRANCH  10  22
ATOM     22  C   UNL     1      12.000 -46.719 -23.480  1.00  0.00     0.037 A 
ATOM     23  C   UNL     1      12.619 -45.861 -24.398  1.00  0.00     0.052 A 
ATOM     24  C   UNL     1      10.861 -46.279 -22.801  1.00  0.00     0.132 A 
ATOM     25  C   UNL     1      12.096 -44.590 -24.615  1.00  0.00     0.124 A 
ATOM     26  C   UNL     1      10.341 -45.003 -23.025  1.00  0.00     0.043 A 
ATOM     27  C   UNL     1      10.963 -44.152 -23.937  1.00  0.00     0.042 A 
ATOM     28  F   UNL     1      10.221 -47.069 -21.928  1.00  0.00    -0.206 F 
ATOM     29  F   UNL     1      12.693 -43.773 -25.492  1.00  0.00    -0.207 F 
ENDBRANCH  10  22
ENDBRANCH   1   7
BRANCH   4  30
ATOM     30  S   UNL     1      10.658 -55.814 -22.983  1.00  0.00     0.238 S 
ATOM     31  O   UNL     1      11.013 -56.389 -21.706  1.00  0.00    -0.207 OA
ATOM     32  O   UNL     1       9.314 -55.874 -23.510  1.00  0.00    -0.207 OA
BRANCH  30  33
ATOM     33  N   UNL     1      11.628 -56.581 -24.119  1.00  0.00    -0.225 NA
ATOM     34  H   UNL     1      11.097 -56.740 -24.976  1.00  0.00     0.137 HD
ATOM     35  H   UNL     1      12.487 -56.048 -24.256  1.00  0.00     0.137 HD
ENDBRANCH  30  33
ENDBRANCH   4  30
TORSDOF 7
ENDMDL
MODEL 4
REMARK VINA RESULT:    -8.645      2.898      4.481
REMARK INTER + INTRA:         -13.234
REMARK INTER:                 -11.789
REMARK INTRA:                  -1.445
REMARK UNBOUND:                -1.304
REMARK SMILES COc1ccc(OC)c([C@H]2CC(c3cc(F)ccc3F)=NN2c2ccc(S(N)(=O)=O)cc2)c1
REMARK SMILES IDX 23 1 24 2 25 3 26 4 31 5 32 6 22 7 10 8 11 9 12 10 21 11
REMARK SMILES IDX 9 12 3 13 4 14 33 15 5 16 6 17 2 18 1 19 7 20 8 21 13 22
REMARK SMILES IDX 14 23 19 24 15 25 18 26 17 27 20 28 16 29 27 30 29 31 30 32
REMARK SMILES IDX 28 33
REMARK H PARENT 28 34 28 35
ROOT
ATOM      1  C   UNL     1      14.346 -49.147 -26.179  1.00  0.00     0.060 A 
ATOM      2  C   UNL     1      14.355 -47.745 -26.230  1.00  0.00     0.029 A 
ATOM      3  C   UNL     1      14.765 -47.049 -27.376  1.00  0.00     0.024 A 
ATOM      4  C   UNL     1      15.187 -47.756 -28.498  1.00  0.00     0.082 A 
ATOM      5  C   UNL     1      15.184 -49.148 -28.492  1.00  0.00     0.024 A 
ATOM      6  C   UNL     1      14.772 -49.826 -27.339  1.00  0.00     0.029 A 
ENDROOT
BRANCH   1   7
ATOM      7  N   UNL     1      13.935 -49.860 -25.054  1.00  0.00    -0.257 N 
ATOM      8  C   UNL     1      14.473 -49.734 -23.694  1.00  0.00     0.148 C 
ATOM      9  C   UNL     1      13.950 -50.991 -22.994  1.00  0.00     0.091 C 
ATOM     10  C   UNL     1      13.012 -51.517 -24.044  1.00  0.00     0.074 C 
ATOM     11  N   UNL     1      13.057 -50.900 -25.186  1.00  0.00    -0.176 NA
BRANCH   8  12
ATOM     12  C   UNL     1      14.060 -48.450 -22.990  1.00  0.00     0.023 A 
ATOM     13  C   UNL     1      12.226 -47.010 -22.218  1.00  0.00     0.119 A 
ATOM     14  C   UNL     1      13.149 -46.091 -21.726  1.00  0.00     0.050 A 
ATOM     15  C   UNL     1      12.686 -48.170 -22.850  1.00  0.00     0.056 A 
ATOM     16  C   UNL     1      14.516 -46.337 -21.865  1.00  0.00     0.050 A 
ATOM     17  C   UNL     1      14.966 -47.511 -22.478  1.00  0.00     0.124 A 
BRANCH  13  18
ATOM     18  O   UNL     1      10.865 -46.895 -22.158  1.00  0.00    -0.497 OA
ATOM     19  C   UNL     1      10.304 -45.666 -22.601  1.00  0.00     0.278 C 
ENDBRANCH  13  18
BRANCH  17  20
ATOM     20  O   UNL     1      16.314 -47.685 -22.653  1.00  0.00    -0.496 OA
ATOM     21  C   UNL     1      16.815 -46.788 -23.647  1.00  0.00     0.278 C 
ENDBRANCH  17  20
ENDBRANCH   8  12
BRANCH  10  22
ATOM     22  C   UNL     1      12.116 -52.668 -23.799  1.00  0.00     0.037 A 
ATOM     23  C   UNL     1      11.246 -52.620 -22.703  1.00  0.00     0.052 A 
ATOM     24  C   UNL     1      12.109 -53.798 -24.622  1.00  0.00     0.132 A 
ATOM     25  C   UNL     1      10.398 -53.693 -22.447  1.00  0.00     0.124 A 
ATOM     26  C   UNL     1      11.255 -54.870 -24.360  1.00  0.00     0.043 A 
ATOM     27  C   UNL     1      10.395 -54.819 -23.265  1.00  0.00     0.042 A 
ATOM     28  F   UNL     1      12.908 -53.885 -25.695  1.00  0.00    -0.206 F 
ATOM     29  F   UNL     1       9.570 -53.644 -21.396  1.00  0.00    -0.207 F 
ENDBRANCH  10  22
ENDBRANCH   1   7
BRANCH   4  30
ATOM     30  S   UNL     1      15.673 -46.887 -29.957  1.00  0.00     0.238 S 
ATOM     31  O   UNL     1      16.392 -45.691 -29.585  1.00  0.00    -0.207 OA
ATOM     32  O   UNL     1      16.186 -47.828 -30.927  1.00  0.00    -0.207 OA
BRANCH  30  33
ATOM     33  N   UNL     1      14.195 -46.368 -30.563  1.00  0.00    -0.225 NA
ATOM     34  H   UNL     1      13.442 -46.677 -29.948  1.00  0.00     0.137 HD
ATOM     35  H   UNL     1      14.220 -45.361 -30.716  1.00  0.00     0.137 HD
ENDBRANCH  30  33
ENDBRANCH   4  30
TORSDOF 7
ENDMDL
MODEL 5
REMARK VINA RESULT:    -8.580      1.707      1.974
REMARK INTER + INTRA:         -13.144
REMARK INTER:                 -11.881
REMARK INTRA:                  -1.263
REMARK UNBOUND:                -1.304
REMARK SMILES COc1ccc(OC)c([C@H]2CC(c3cc(F)ccc3F)=NN2c2ccc(S(N)(=O)=O)cc2)c1
REMARK SMILES IDX 23 1 24 2 25 3 26 4 31 5 32 6 22 7 10 8 11 9 12 10 21 11
REMARK SMILES IDX 9 12 3 13 4 14 33 15 5 16 6 17 2 18 1 19 7 20 8 21 13 22
REMARK SMILES IDX 14 23 19 24 15 25 18 26 17 27 20 28 16 29 27 30 29 31 30 32
REMARK SMILES IDX 28 33
REMARK H PARENT 28 34 28 35
ROOT
ATOM      1  C   UNL     1      12.387 -48.055 -23.608  1.00  0.00     0.060 A 
ATOM      2  C   UNL     1      12.567 -47.208 -24.713  1.00  0.00     0.029 A 
ATOM      3  C   UNL     1      12.228 -45.849 -24.665  1.00  0.00     0.024 A 
ATOM      4  C   UNL     1      11.686 -45.313 -23.499  1.00  0.00     0.082 A 
ATOM      5  C   UNL     1      11.500 -46.118 -22.380  1.00  0.00     0.024 A 
ATOM      6  C   UNL     1      11.843 -47.473 -22.445  1.00  0.00     0.029 A 
ENDROOT
BRANCH   1   7
ATOM      7  N   UNL     1      12.724 -49.408 -23.630  1.00  0.00    -0.257 N 
ATOM      8  C   UNL     1      13.851 -50.017 -24.347  1.00  0.00     0.148 C 
ATOM      9  C   UNL     1      13.503 -51.507 -24.343  1.00  0.00     0.091 C 
ATOM     10  C   UNL     1      12.316 -51.507 -23.420  1.00  0.00     0.074 C 
ATOM     11  N   UNL     1      11.881 -50.332 -23.079  1.00  0.00    -0.176 NA
BRANCH   8  12
ATOM     12  C   UNL     1      15.206 -49.723 -23.719  1.00  0.00     0.023 A 
ATOM     13  C   UNL     1      16.447 -48.723 -21.851  1.00  0.00     0.119 A 
ATOM     14  C   UNL     1      17.650 -49.090 -22.448  1.00  0.00     0.050 A 
ATOM     15  C   UNL     1      15.242 -49.033 -22.491  1.00  0.00     0.056 A 
ATOM     16  C   UNL     1      17.641 -49.761 -23.672  1.00  0.00     0.050 A 
ATOM     17  C   UNL     1      16.431 -50.087 -24.293  1.00  0.00     0.124 A 
BRANCH  13  18
ATOM     18  O   UNL     1      16.307 -48.058 -20.665  1.00  0.00    -0.497 OA
ATOM     19  C   UNL     1      15.154 -47.239 -20.519  1.00  0.00     0.278 C 
ENDBRANCH  13  18
BRANCH  17  20
ATOM     20  O   UNL     1      16.466 -50.689 -25.523  1.00  0.00    -0.496 OA
ATOM     21  C   UNL     1      17.011 -52.008 -25.426  1.00  0.00     0.278 C 
ENDBRANCH  17  20
ENDBRANCH   8  12
BRANCH  10  22
ATOM     22  C   UNL     1      11.678 -52.756 -22.952  1.00  0.00     0.037 A 
ATOM     23  C   UNL     1      11.291 -52.849 -21.609  1.00  0.00     0.052 A 
ATOM     24  C   UNL     1      11.451 -53.844 -23.801  1.00  0.00     0.132 A 
ATOM     25  C   UNL     1      10.695 -54.017 -21.143  1.00  0.00     0.124 A 
ATOM     26  C   UNL     1      10.852 -55.011 -23.325  1.00  0.00     0.043 A 
ATOM     27  C   UNL     1      10.472 -55.099 -21.987  1.00  0.00     0.042 A 
ATOM     28  F   UNL     1      11.786 -53.798 -25.098  1.00  0.00    -0.206 F 
ATOM     29  F   UNL     1      10.329 -54.101 -19.858  1.00  0.00    -0.207 F 
ENDBRANCH  10  22
ENDBRANCH   1   7
BRANCH   4  30
ATOM     30  S   UNL     1      11.288 -43.595 -23.420  1.00  0.00     0.238 S 
ATOM     31  O   UNL     1      11.887 -43.018 -22.239  1.00  0.00    -0.207 OA
ATOM     32  O   UNL     1      11.441 -43.006 -24.730  1.00  0.00    -0.207 OA
BRANCH  30  33
ATOM     33  N   UNL     1       9.635 -43.633 -23.127  1.00  0.00    -0.225 NA
ATOM     34  H   UNL     1       9.441 -44.220 -22.316  1.00  0.00     0.137 HD
ATOM     35  H   UNL     1       9.276 -42.682 -23.047  1.00  0.00     0.137 HD
ENDBRANCH  30  33
ENDBRANCH   4  30
TORSDOF 7
ENDMDL
MODEL 6
REMARK VINA RESULT:    -8.577      4.084      7.346
REMARK INTER + INTRA:         -13.141
REMARK INTER:                 -11.458
REMARK INTRA:                  -1.683
REMARK UNBOUND:                -1.304
REMARK SMILES COc1ccc(OC)c([C@H]2CC(c3cc(F)ccc3F)=NN2c2ccc(S(N)(=O)=O)cc2)c1
REMARK SMILES IDX 23 1 24 2 25 3 26 4 31 5 32 6 22 7 10 8 11 9 12 10 21 11
REMARK SMILES IDX 9 12 3 13 4 14 33 15 5 16 6 17 2 18 1 19 7 20 8 21 13 22
REMARK SMILES IDX 14 23 19 24 15 25 18 26 17 27 20 28 16 29 27 30 29 31 30 32
REMARK SMILES IDX 28 33
REMARK H PARENT 28 34 28 35
ROOT
ATOM      1  C   UNL     1      12.436 -50.654 -23.154  1.00  0.00     0.060 A 
ATOM      2  C   UNL     1      12.523 -51.723 -24.058  1.00  0.00     0.029 A 
ATOM      3  C   UNL     1      11.903 -52.955 -23.809  1.00  0.00     0.024 A 
ATOM      4  C   UNL     1      11.186 -53.141 -22.630  1.00  0.00     0.082 A 
ATOM      5  C   UNL     1      11.067 -52.102 -21.712  1.00  0.00     0.024 A 
ATOM      6  C   UNL     1      11.694 -50.879 -21.977  1.00  0.00     0.029 A 
ENDROOT
BRANCH   1   7
ATOM      7  N   UNL     1      13.037 -49.418 -23.384  1.00  0.00    -0.257 N 
ATOM      8  C   UNL     1      14.444 -49.072 -23.148  1.00  0.00     0.148 C 
ATOM      9  C   UNL     1      14.439 -47.542 -23.191  1.00  0.00     0.091 C 
ATOM     10  C   UNL     1      13.036 -47.287 -23.663  1.00  0.00     0.074 C 
ATOM     11  N   UNL     1      12.271 -48.335 -23.718  1.00  0.00    -0.176 NA
BRANCH   8  12
ATOM     12  C   UNL     1      15.403 -49.689 -24.156  1.00  0.00     0.023 A 
ATOM     13  C   UNL     1      16.301 -49.666 -26.442  1.00  0.00     0.119 A 
ATOM     14  C   UNL     1      17.118 -50.750 -26.137  1.00  0.00     0.050 A 
ATOM     15  C   UNL     1      15.449 -49.152 -25.458  1.00  0.00     0.056 A 
ATOM     16  C   UNL     1      17.081 -51.310 -24.858  1.00  0.00     0.050 A 
ATOM     17  C   UNL     1      16.243 -50.775 -23.875  1.00  0.00     0.124 A 
BRANCH  13  18
ATOM     18  O   UNL     1      16.229 -49.026 -27.648  1.00  0.00    -0.497 OA
ATOM     19  C   UNL     1      15.072 -48.234 -27.887  1.00  0.00     0.278 C 
ENDBRANCH  13  18
BRANCH  17  20
ATOM     20  O   UNL     1      16.187 -51.393 -22.653  1.00  0.00    -0.496 OA
ATOM     21  C   UNL     1      17.385 -51.151 -21.909  1.00  0.00     0.278 C 
ENDBRANCH  17  20
ENDBRANCH   8  12
BRANCH  10  22
ATOM     22  C   UNL     1      12.554 -45.935 -24.021  1.00  0.00     0.037 A 
ATOM     23  C   UNL     1      11.533 -45.361 -23.252  1.00  0.00     0.052 A 
ATOM     24  C   UNL     1      13.081 -45.214 -25.096  1.00  0.00     0.132 A 
ATOM     25  C   UNL     1      11.058 -44.094 -23.573  1.00  0.00     0.124 A 
ATOM     26  C   UNL     1      12.600 -43.942 -25.410  1.00  0.00     0.043 A 
ATOM     27  C   UNL     1      11.581 -43.378 -24.645  1.00  0.00     0.042 A 
ATOM     28  F   UNL     1      14.072 -45.710 -25.850  1.00  0.00    -0.206 F 
ATOM     29  F   UNL     1      10.080 -43.551 -22.837  1.00  0.00    -0.207 F 
ENDBRANCH  10  22
ENDBRANCH   1   7
BRANCH   4  30
ATOM     30  S   UNL     1      10.373 -54.679 -22.324  1.00  0.00     0.238 S 
ATOM     31  O   UNL     1      11.341 -55.650 -21.868  1.00  0.00    -0.207 OA
ATOM     32  O   UNL     1       9.134 -54.435 -21.622  1.00  0.00    -0.207 OA
BRANCH  30  33
ATOM     33  N   UNL     1       9.935 -55.156 -23.873  1.00  0.00    -0.225 NA
ATOM     34  H   UNL     1       9.057 -54.709 -24.137  1.00  0.00     0.137 HD
ATOM     35  H   UNL     1      10.702 -54.978 -24.520  1.00  0.00     0.137 HD
ENDBRANCH  30  33
ENDBRANCH   4  30
TORSDOF 7
ENDMDL
MODEL 7
REMARK VINA RESULT:    -8.450      4.106      7.109
REMARK INTER + INTRA:         -12.965
REMARK INTER:                 -11.285
REMARK INTRA:                  -1.680
REMARK UNBOUND:                -1.304
REMARK SMILES COc1ccc(OC)c([C@H]2CC(c3cc(F)ccc3F)=NN2c2ccc(S(N)(=O)=O)cc2)c1
REMARK SMILES IDX 23 1 24 2 25 3 26 4 31 5 32 6 22 7 10 8 11 9 12 10 21 11
REMARK SMILES IDX 9 12 3 13 4 14 33 15 5 16 6 17 2 18 1 19 7 20 8 21 13 22
REMARK SMILES IDX 14 23 19 24 15 25 18 26 17 27 20 28 16 29 27 30 29 31 30 32
REMARK SMILES IDX 28 33
REMARK H PARENT 28 34 28 35
ROOT
ATOM      1  C   UNL     1      13.418 -50.801 -24.640  1.00  0.00     0.060 A 
ATOM      2  C   UNL     1      13.115 -52.133 -24.961  1.00  0.00     0.029 A 
ATOM      3  C   UNL     1      12.163 -52.869 -24.242  1.00  0.00     0.024 A 
ATOM      4  C   UNL     1      11.499 -52.277 -23.170  1.00  0.00     0.082 A 
ATOM      5  C   UNL     1      11.764 -50.955 -22.827  1.00  0.00     0.024 A 
ATOM      6  C   UNL     1      12.719 -50.236 -23.555  1.00  0.00     0.029 A 
ENDROOT
BRANCH   1   7
ATOM      7  N   UNL     1      14.355 -50.048 -25.346  1.00  0.00    -0.257 N 
ATOM      8  C   UNL     1      15.162 -48.940 -24.822  1.00  0.00     0.148 C 
ATOM      9  C   UNL     1      15.686 -48.260 -26.088  1.00  0.00     0.091 C 
ATOM     10  C   UNL     1      15.247 -49.249 -27.131  1.00  0.00     0.074 C 
ATOM     11  N   UNL     1      14.476 -50.201 -26.700  1.00  0.00    -0.176 NA
BRANCH   8  12
ATOM     12  C   UNL     1      16.275 -49.384 -23.884  1.00  0.00     0.023 A 
ATOM     13  C   UNL     1      18.418 -50.556 -23.624  1.00  0.00     0.119 A 
ATOM     14  C   UNL     1      18.400 -50.294 -22.257  1.00  0.00     0.050 A 
ATOM     15  C   UNL     1      17.358 -50.109 -24.421  1.00  0.00     0.056 A 
ATOM     16  C   UNL     1      17.331 -49.591 -21.698  1.00  0.00     0.050 A 
ATOM     17  C   UNL     1      16.287 -49.129 -22.506  1.00  0.00     0.124 A 
BRANCH  13  18
ATOM     18  O   UNL     1      19.391 -51.236 -24.301  1.00  0.00    -0.497 OA
ATOM     19  C   UNL     1      18.999 -51.900 -25.496  1.00  0.00     0.278 C 
ENDBRANCH  13  18
BRANCH  17  20
ATOM     20  O   UNL     1      15.226 -48.500 -21.911  1.00  0.00    -0.496 OA
ATOM     21  C   UNL     1      15.470 -47.095 -21.796  1.00  0.00     0.278 C 
ENDBRANCH  17  20
ENDBRANCH   8  12
BRANCH  10  22
ATOM     22  C   UNL     1      15.647 -49.133 -28.550  1.00  0.00     0.037 A 
ATOM     23  C   UNL     1      14.723 -48.618 -29.468  1.00  0.00     0.052 A 
ATOM     24  C   UNL     1      16.911 -49.522 -29.004  1.00  0.00     0.132 A 
ATOM     25  C   UNL     1      15.073 -48.506 -30.810  1.00  0.00     0.124 A 
ATOM     26  C   UNL     1      17.255 -49.405 -30.352  1.00  0.00     0.043 A 
ATOM     27  C   UNL     1      16.330 -48.895 -31.261  1.00  0.00     0.042 A 
ATOM     28  F   UNL     1      17.837 -50.003 -28.163  1.00  0.00    -0.206 F 
ATOM     29  F   UNL     1      14.186 -48.015 -31.684  1.00  0.00    -0.207 F 
ENDBRANCH  10  22
ENDBRANCH   1   7
BRANCH   4  30
ATOM     30  S   UNL     1      10.274 -53.185 -22.280  1.00  0.00     0.238 S 
ATOM     31  O   UNL     1       9.900 -54.356 -23.040  1.00  0.00    -0.207 OA
ATOM     32  O   UNL     1      10.647 -53.255 -20.886  1.00  0.00    -0.207 OA
BRANCH  30  33
ATOM     33  N   UNL     1       8.953 -52.150 -22.349  1.00  0.00    -0.225 NA
ATOM     34  H   UNL     1       8.993 -51.596 -23.204  1.00  0.00     0.137 HD
ATOM     35  H   UNL     1       8.091 -52.682 -22.237  1.00  0.00     0.137 HD
ENDBRANCH  30  33
ENDBRANCH   4  30
TORSDOF 7
ENDMDL
MODEL 8
REMARK VINA RESULT:    -8.359      4.117      7.611
REMARK INTER + INTRA:         -12.839
REMARK INTER:                 -11.416
REMARK INTRA:                  -1.423
REMARK UNBOUND:                -1.304
REMARK SMILES COc1ccc(OC)c([C@H]2CC(c3cc(F)ccc3F)=NN2c2ccc(S(N)(=O)=O)cc2)c1
REMARK SMILES IDX 23 1 24 2 25 3 26 4 31 5 32 6 22 7 10 8 11 9 12 10 21 11
REMARK SMILES IDX 9 12 3 13 4 14 33 15 5 16 6 17 2 18 1 19 7 20 8 21 13 22
REMARK SMILES IDX 14 23 19 24 15 25 18 26 17 27 20 28 16 29 27 30 29 31 30 32
REMARK SMILES IDX 28 33
REMARK H PARENT 28 34 28 35
ROOT
ATOM      1  C   UNL     1      12.547 -51.003 -23.884  1.00  0.00     0.060 A 
ATOM      2  C   UNL     1      11.885 -50.773 -22.668  1.00  0.00     0.029 A 
ATOM      3  C   UNL     1      11.224 -51.800 -21.981  1.00  0.00     0.024 A 
ATOM      4  C   UNL     1      11.207 -53.087 -22.514  1.00  0.00     0.082 A 
ATOM      5  C   UNL     1      11.860 -53.358 -23.712  1.00  0.00     0.024 A 
ATOM      6  C   UNL     1      12.514 -52.319 -24.385  1.00  0.00     0.029 A 
ENDROOT
BRANCH   1   7
ATOM      7  N   UNL     1      13.218 -49.998 -24.580  1.00  0.00    -0.257 N 
ATOM      8  C   UNL     1      12.926 -48.560 -24.539  1.00  0.00     0.148 C 
ATOM      9  C   UNL     1      13.678 -48.016 -25.756  1.00  0.00     0.091 C 
ATOM     10  C   UNL     1      14.455 -49.236 -26.164  1.00  0.00     0.074 C 
ATOM     11  N   UNL     1      14.148 -50.326 -25.528  1.00  0.00    -0.176 NA
BRANCH   8  12
ATOM     12  C   UNL     1      13.342 -47.889 -23.238  1.00  0.00     0.023 A 
ATOM     13  C   UNL     1      15.134 -47.446 -21.618  1.00  0.00     0.119 A 
ATOM     14  C   UNL     1      14.248 -46.718 -20.829  1.00  0.00     0.050 A 
ATOM     15  C   UNL     1      14.676 -48.029 -22.804  1.00  0.00     0.056 A 
ATOM     16  C   UNL     1      12.917 -46.577 -21.229  1.00  0.00     0.050 A 
ATOM     17  C   UNL     1      12.474 -47.144 -22.428  1.00  0.00     0.124 A 
BRANCH  13  18
ATOM     18  O   UNL     1      16.455 -47.671 -21.347  1.00  0.00    -0.497 OA
ATOM     19  C   UNL     1      16.872 -47.501 -19.998  1.00  0.00     0.278 C 
ENDBRANCH  13  18
BRANCH  17  20
ATOM     20  O   UNL     1      11.147 -47.038 -22.753  1.00  0.00    -0.496 OA
ATOM     21  C   UNL     1      10.633 -45.760 -22.369  1.00  0.00     0.278 C 
ENDBRANCH  17  20
ENDBRANCH   8  12
BRANCH  10  22
ATOM     22  C   UNL     1      15.480 -49.202 -27.229  1.00  0.00     0.037 A 
ATOM     23  C   UNL     1      15.067 -49.000 -28.552  1.00  0.00     0.052 A 
ATOM     24  C   UNL     1      16.842 -49.365 -26.961  1.00  0.00     0.132 A 
ATOM     25  C   UNL     1      16.012 -48.971 -29.573  1.00  0.00     0.124 A 
ATOM     26  C   UNL     1      17.784 -49.333 -27.990  1.00  0.00     0.043 A 
ATOM     27  C   UNL     1      17.367 -49.136 -29.305  1.00  0.00     0.042 A 
ATOM     28  F   UNL     1      17.290 -49.542 -25.710  1.00  0.00    -0.206 F 
ATOM     29  F   UNL     1      15.612 -48.780 -30.836  1.00  0.00    -0.207 F 
ENDBRANCH  10  22
ENDBRANCH   1   7
BRANCH   4  30
ATOM     30  S   UNL     1      10.405 -54.394 -21.637  1.00  0.00     0.238 S 
ATOM     31  O   UNL     1       8.973 -54.210 -21.707  1.00  0.00    -0.207 OA
ATOM     32  O   UNL     1      11.039 -55.650 -21.964  1.00  0.00    -0.207 OA
BRANCH  30  33
ATOM     33  N   UNL     1      10.836 -54.065 -20.048  1.00  0.00    -0.225 NA
ATOM     34  H   UNL     1      10.670 -54.887 -19.468  1.00  0.00     0.137 HD
ATOM     35  H   UNL     1      11.794 -53.719 -20.015  1.00  0.00     0.137 HD
ENDBRANCH  30  33
ENDBRANCH   4  30
TORSDOF 7
ENDMDL
MODEL 9
REMARK VINA RESULT:    -8.190      4.127      7.568
REMARK INTER + INTRA:         -12.606
REMARK INTER:                 -11.029
REMARK INTRA:                  -1.577
REMARK UNBOUND:                -1.304
REMARK SMILES COc1ccc(OC)c([C@H]2CC(c3cc(F)ccc3F)=NN2c2ccc(S(N)(=O)=O)cc2)c1
REMARK SMILES IDX 23 1 24 2 25 3 26 4 31 5 32 6 22 7 10 8 11 9 12 10 21 11
REMARK SMILES IDX 9 12 3 13 4 14 33 15 5 16 6 17 2 18 1 19 7 20 8 21 13 22
REMARK SMILES IDX 14 23 19 24 15 25 18 26 17 27 20 28 16 29 27 30 29 31 30 32
REMARK SMILES IDX 28 33
REMARK H PARENT 28 34 28 35
ROOT
ATOM      1  C   UNL     1      15.585 -48.631 -22.393  1.00  0.00     0.060 A 
ATOM      2  C   UNL     1      16.021 -47.934 -21.256  1.00  0.00     0.029 A 
ATOM      3  C   UNL     1      17.115 -48.370 -20.496  1.00  0.00     0.024 A 
ATOM      4  C   UNL     1      17.790 -49.532 -20.862  1.00  0.00     0.082 A 
ATOM      5  C   UNL     1      17.394 -50.246 -21.988  1.00  0.00     0.024 A 
ATOM      6  C   UNL     1      16.299 -49.797 -22.735  1.00  0.00     0.029 A 
ENDROOT
BRANCH   1   7
ATOM      7  N   UNL     1      14.505 -48.211 -23.168  1.00  0.00    -0.257 N 
ATOM      8  C   UNL     1      13.975 -48.877 -24.365  1.00  0.00     0.148 C 
ATOM      9  C   UNL     1      13.093 -47.801 -25.002  1.00  0.00     0.091 C 
ATOM     10  C   UNL     1      13.111 -46.758 -23.919  1.00  0.00     0.074 C 
ATOM     11  N   UNL     1      13.932 -46.990 -22.941  1.00  0.00    -0.176 NA
BRANCH   8  12
ATOM     12  C   UNL     1      13.217 -50.162 -24.063  1.00  0.00     0.023 A 
ATOM     13  C   UNL     1      11.522 -51.292 -22.691  1.00  0.00     0.119 A 
ATOM     14  C   UNL     1      11.751 -52.480 -23.379  1.00  0.00     0.050 A 
ATOM     15  C   UNL     1      12.258 -50.152 -23.030  1.00  0.00     0.056 A 
ATOM     16  C   UNL     1      12.706 -52.521 -24.397  1.00  0.00     0.050 A 
ATOM     17  C   UNL     1      13.420 -51.370 -24.744  1.00  0.00     0.124 A 
BRANCH  13  18
ATOM     18  O   UNL     1      10.628 -51.111 -21.673  1.00  0.00    -0.497 OA
ATOM     19  C   UNL     1       9.535 -50.236 -21.926  1.00  0.00     0.278 C 
ENDBRANCH  13  18
BRANCH  17  20
ATOM     20  O   UNL     1      14.394 -51.466 -25.704  1.00  0.00    -0.496 OA
ATOM     21  C   UNL     1      15.419 -52.375 -25.295  1.00  0.00     0.278 C 
ENDBRANCH  17  20
ENDBRANCH   8  12
BRANCH  10  22
ATOM     22  C   UNL     1      12.267 -45.545 -23.975  1.00  0.00     0.037 A 
ATOM     23  C   UNL     1      12.682 -44.475 -24.779  1.00  0.00     0.052 A 
ATOM     24  C   UNL     1      11.075 -45.429 -23.255  1.00  0.00     0.132 A 
ATOM     25  C   UNL     1      11.909 -43.320 -24.843  1.00  0.00     0.124 A 
ATOM     26  C   UNL     1      10.304 -44.268 -23.326  1.00  0.00     0.043 A 
ATOM     27  C   UNL     1      10.725 -43.205 -24.124  1.00  0.00     0.042 A 
ATOM     28  F   UNL     1      10.624 -46.431 -22.487  1.00  0.00    -0.206 F 
ATOM     29  F   UNL     1      12.313 -42.300 -25.610  1.00  0.00    -0.207 F 
ENDBRANCH  10  22
ENDBRANCH   1   7
BRANCH   4  30
ATOM     30  S   UNL     1      19.190 -50.070 -19.929  1.00  0.00     0.238 S 
ATOM     31  O   UNL     1      20.032 -50.896 -20.763  1.00  0.00    -0.207 OA
ATOM     32  O   UNL     1      19.711 -48.961 -19.163  1.00  0.00    -0.207 OA
BRANCH  30  33
ATOM     33  N   UNL     1      18.487 -51.108 -18.811  1.00  0.00    -0.225 NA
ATOM     34  H   UNL     1      18.681 -52.075 -19.069  1.00  0.00     0.137 HD
ATOM     35  H   UNL     1      18.790 -50.858 -17.871  1.00  0.00     0.137 HD
ENDBRANCH  30  33
ENDBRANCH   4  30
TORSDOF 7
ENDMDL
