MODEL 1
REMARK VINA RESULT:   -10.055      0.000      0.000
REMARK INTER + INTRA:         -15.740
REMARK INTER:                 -15.052
REMARK INTRA:                  -0.689
REMARK UNBOUND:                -0.689
REMARK SMILES COc1ccc(-c2cc(=O)c3ccc(OCC[N@H+]4CC[N@H+](CCO)CC4)cc3o2)cc1
REMARK SMILES IDX 17 1 18 2 20 3 21 4 19 5 25 6 26 7 22 10 23 11 24 12 16 14
REMARK SMILES IDX 15 15 14 16 13 17 27 18 12 19 28 20 11 21 29 22 9 23 7 24
REMARK SMILES IDX 8 25 10 26 6 27 5 28 30 29 4 30 31 31 3 32 2 33 1 34
REMARK H PARENT 21 8 18 9 24 13
ROOT
ATOM      1  C   UNL     1      11.701 -58.911 -23.480  1.00  0.00     0.304 C 
ENDROOT
BRANCH   1   2
ATOM      2  N   UNL     1      10.584 -59.973 -23.508  1.00  0.00    -0.323 N 
ATOM      3  C   UNL     1       8.429 -60.793 -24.573  1.00  0.00     0.324 C 
ATOM      4  N   UNL     1       9.001 -62.196 -24.598  1.00  0.00    -0.324 N 
ATOM      5  C   UNL     1       9.555 -59.729 -24.610  1.00  0.00     0.324 C 
ATOM      6  C   UNL     1      10.024 -62.448 -23.504  1.00  0.00     0.324 C 
ATOM      7  C   UNL     1      11.152 -61.388 -23.542  1.00  0.00     0.324 C 
ATOM      8  H   UNL     1       9.477 -62.352 -25.516  1.00  0.00     0.348 HD
ATOM      9  H   UNL     1      10.114 -59.828 -22.594  1.00  0.00     0.348 HD
BRANCH   4  10
ATOM     10  C   UNL     1       7.917 -63.283 -24.670  1.00  0.00     0.291 C 
BRANCH  10  11
ATOM     11  C   UNL     1       7.672 -63.787 -23.241  1.00  0.00     0.217 C 
BRANCH  11  12
ATOM     12  O   UNL     1       6.509 -63.101 -22.748  1.00  0.00    -0.391 OA
ATOM     13  H   UNL     1       6.527 -62.205 -23.154  1.00  0.00     0.210 HD
ENDBRANCH  11  12
ENDBRANCH  10  11
ENDBRANCH   4  10
ENDBRANCH   1   2
BRANCH   1  14
ATOM     14  C   UNL     1      11.215 -57.663 -22.728  1.00  0.00     0.290 C 
BRANCH  14  15
ATOM     15  O   UNL     1      10.826 -56.713 -23.729  1.00  0.00    -0.488 OA
BRANCH  15  16
ATOM     16  C   UNL     1      11.037 -55.390 -23.439  1.00  0.00     0.123 A 
ATOM     17  C   UNL     1      10.503 -54.971 -22.215  1.00  0.00     0.047 A 
ATOM     18  C   UNL     1      11.710 -54.471 -24.247  1.00  0.00     0.094 A 
ATOM     19  C   UNL     1      10.634 -53.643 -21.802  1.00  0.00     0.020 A 
ATOM     20  C   UNL     1      11.842 -53.142 -23.830  1.00  0.00     0.142 A 
ATOM     21  C   UNL     1      11.305 -52.732 -22.616  1.00  0.00     0.065 A 
ATOM     22  O   UNL     1      12.513 -52.289 -24.670  1.00  0.00    -0.456 OA
ATOM     23  C   UNL     1      11.456 -51.326 -22.213  1.00  0.00     0.193 A 
ATOM     24  C   UNL     1      12.687 -50.971 -24.272  1.00  0.00     0.138 A 
ATOM     25  C   UNL     1      12.206 -50.457 -23.131  1.00  0.00     0.100 A 
ATOM     26  O   UNL     1      10.979 -50.904 -21.169  1.00  0.00    -0.289 OA
BRANCH  24  27
ATOM     27  C   UNL     1      13.438 -50.145 -25.237  1.00  0.00     0.018 A 
ATOM     28  C   UNL     1      13.598 -48.764 -25.054  1.00  0.00     0.016 A 
ATOM     29  C   UNL     1      14.034 -50.742 -26.355  1.00  0.00     0.016 A 
ATOM     30  C   UNL     1      14.326 -47.995 -25.973  1.00  0.00     0.047 A 
ATOM     31  C   UNL     1      14.759 -49.973 -27.269  1.00  0.00     0.047 A 
ATOM     32  C   UNL     1      14.909 -48.597 -27.086  1.00  0.00     0.118 A 
BRANCH  32  33
ATOM     33  O   UNL     1      15.641 -47.969 -28.053  1.00  0.00    -0.497 OA
ATOM     34  C   UNL     1      15.018 -47.788 -29.319  1.00  0.00     0.278 C 
ENDBRANCH  32  33
ENDBRANCH  24  27
ENDBRANCH  15  16
ENDBRANCH  14  15
ENDBRANCH   1  14
TORSDOF 9
ENDMDL
MODEL 2
REMARK VINA RESULT:    -9.696      4.186     11.438
REMARK INTER + INTRA:         -15.203
REMARK INTER:                 -14.552
REMARK INTRA:                  -0.650
REMARK UNBOUND:                -0.689
REMARK SMILES COc1ccc(-c2cc(=O)c3ccc(OCC[N@H+]4CC[N@H+](CCO)CC4)cc3o2)cc1
REMARK SMILES IDX 17 1 18 2 20 3 21 4 19 5 25 6 26 7 22 10 23 11 24 12 16 14
REMARK SMILES IDX 15 15 14 16 13 17 27 18 12 19 28 20 11 21 29 22 9 23 7 24
REMARK SMILES IDX 8 25 10 26 6 27 5 28 30 29 4 30 31 31 3 32 2 33 1 34
REMARK H PARENT 21 8 18 9 24 13
ROOT
ATOM      1  C   UNL     1      15.753 -49.783 -27.039  1.00  0.00     0.304 C 
ENDROOT
BRANCH   1   2
ATOM      2  N   UNL     1      15.795 -49.465 -28.547  1.00  0.00    -0.323 N 
ATOM      3  C   UNL     1      15.064 -47.937 -30.439  1.00  0.00     0.324 C 
ATOM      4  N   UNL     1      16.485 -47.948 -30.967  1.00  0.00    -0.324 N 
ATOM      5  C   UNL     1      15.034 -48.193 -28.911  1.00  0.00     0.324 C 
ATOM      6  C   UNL     1      17.249 -49.211 -30.611  1.00  0.00     0.324 C 
ATOM      7  C   UNL     1      17.222 -49.465 -29.083  1.00  0.00     0.324 C 
ATOM      8  H   UNL     1      17.005 -47.139 -30.557  1.00  0.00     0.348 HD
ATOM      9  H   UNL     1      15.287 -50.272 -28.959  1.00  0.00     0.348 HD
BRANCH   4  10
ATOM     10  C   UNL     1      16.572 -47.593 -32.460  1.00  0.00     0.291 C 
BRANCH  10  11
ATOM     11  C   UNL     1      15.803 -48.671 -33.237  1.00  0.00     0.217 C 
BRANCH  11  12
ATOM     12  O   UNL     1      16.635 -49.065 -34.342  1.00  0.00    -0.391 OA
ATOM     13  H   UNL     1      16.305 -49.943 -34.635  1.00  0.00     0.210 HD
ENDBRANCH  11  12
ENDBRANCH  10  11
ENDBRANCH   4  10
ENDBRANCH   1   2
BRANCH   1  14
ATOM     14  C   UNL     1      14.297 -49.960 -26.584  1.00  0.00     0.290 C 
BRANCH  14  15
ATOM     15  O   UNL     1      14.081 -51.372 -26.459  1.00  0.00    -0.488 OA
BRANCH  15  16
ATOM     16  C   UNL     1      13.294 -51.786 -25.417  1.00  0.00     0.123 A 
ATOM     17  C   UNL     1      12.904 -50.767 -24.541  1.00  0.00     0.047 A 
ATOM     18  C   UNL     1      12.878 -53.097 -25.174  1.00  0.00     0.094 A 
ATOM     19  C   UNL     1      12.111 -51.052 -23.428  1.00  0.00     0.020 A 
ATOM     20  C   UNL     1      12.081 -53.382 -24.059  1.00  0.00     0.142 A 
ATOM     21  C   UNL     1      11.702 -52.365 -23.192  1.00  0.00     0.065 A 
ATOM     22  O   UNL     1      11.708 -54.690 -23.878  1.00  0.00    -0.456 OA
ATOM     23  C   UNL     1      10.871 -52.700 -22.027  1.00  0.00     0.193 A 
ATOM     24  C   UNL     1      10.893 -54.999 -22.798  1.00  0.00     0.138 A 
ATOM     25  C   UNL     1      10.473 -54.108 -21.888  1.00  0.00     0.100 A 
ATOM     26  O   UNL     1      10.533 -51.851 -21.215  1.00  0.00    -0.289 OA
BRANCH  24  27
ATOM     27  C   UNL     1      10.534 -56.427 -22.705  1.00  0.00     0.018 A 
ATOM     28  C   UNL     1      11.367 -57.354 -22.062  1.00  0.00     0.016 A 
ATOM     29  C   UNL     1       9.324 -56.882 -23.245  1.00  0.00     0.016 A 
ATOM     30  C   UNL     1      11.006 -58.706 -21.971  1.00  0.00     0.047 A 
ATOM     31  C   UNL     1       8.967 -58.230 -23.153  1.00  0.00     0.047 A 
ATOM     32  C   UNL     1       9.804 -59.149 -22.519  1.00  0.00     0.118 A 
BRANCH  32  33
ATOM     33  O   UNL     1       9.333 -60.432 -22.500  1.00  0.00    -0.497 OA
ATOM     34  C   UNL     1      10.285 -61.472 -22.686  1.00  0.00     0.278 C 
ENDBRANCH  32  33
ENDBRANCH  24  27
ENDBRANCH  15  16
ENDBRANCH  14  15
ENDBRANCH   1  14
TORSDOF 9
ENDMDL
MODEL 3
REMARK VINA RESULT:    -9.621      3.861     10.860
REMARK INTER + INTRA:         -15.091
REMARK INTER:                 -14.143
REMARK INTRA:                  -0.948
REMARK UNBOUND:                -0.689
REMARK SMILES COc1ccc(-c2cc(=O)c3ccc(OCC[N@H+]4CC[N@H+](CCO)CC4)cc3o2)cc1
REMARK SMILES IDX 17 1 18 2 20 3 21 4 19 5 25 6 26 7 22 10 23 11 24 12 16 14
REMARK SMILES IDX 15 15 14 16 13 17 27 18 12 19 28 20 11 21 29 22 9 23 7 24
REMARK SMILES IDX 8 25 10 26 6 27 5 28 30 29 4 30 31 31 3 32 2 33 1 34
REMARK H PARENT 21 8 18 9 24 13
ROOT
ATOM      1  C   UNL     1      15.055 -49.828 -26.424  1.00  0.00     0.304 C 
ENDROOT
BRANCH   1   2
ATOM      2  N   UNL     1      14.847 -48.782 -25.310  1.00  0.00    -0.323 N 
ATOM      3  C   UNL     1      13.293 -47.105 -24.203  1.00  0.00     0.324 C 
ATOM      4  N   UNL     1      13.705 -47.650 -22.850  1.00  0.00    -0.324 N 
ATOM      5  C   UNL     1      13.444 -48.181 -25.309  1.00  0.00     0.324 C 
ATOM      6  C   UNL     1      15.101 -48.248 -22.842  1.00  0.00     0.324 C 
ATOM      7  C   UNL     1      15.251 -49.326 -23.944  1.00  0.00     0.324 C 
ATOM      8  H   UNL     1      13.038 -48.405 -22.572  1.00  0.00     0.348 HD
ATOM      9  H   UNL     1      15.516 -48.034 -25.578  1.00  0.00     0.348 HD
BRANCH   4  10
ATOM     10  C   UNL     1      13.472 -46.650 -21.706  1.00  0.00     0.291 C 
BRANCH  10  11
ATOM     11  C   UNL     1      12.183 -45.879 -22.023  1.00  0.00     0.217 C 
BRANCH  11  12
ATOM     12  O   UNL     1      11.102 -46.595 -21.401  1.00  0.00    -0.391 OA
ATOM     13  H   UNL     1      11.324 -46.650 -20.445  1.00  0.00     0.210 HD
ENDBRANCH  11  12
ENDBRANCH  10  11
ENDBRANCH   4  10
ENDBRANCH   1   2
BRANCH   1  14
ATOM     14  C   UNL     1      14.953 -51.242 -25.836  1.00  0.00     0.290 C 
BRANCH  14  15
ATOM     15  O   UNL     1      13.648 -51.729 -26.175  1.00  0.00    -0.488 OA
BRANCH  15  16
ATOM     16  C   UNL     1      12.924 -52.308 -25.167  1.00  0.00     0.123 A 
ATOM     17  C   UNL     1      12.537 -51.429 -24.148  1.00  0.00     0.047 A 
ATOM     18  C   UNL     1      12.567 -53.656 -25.083  1.00  0.00     0.094 A 
ATOM     19  C   UNL     1      11.805 -51.891 -23.052  1.00  0.00     0.020 A 
ATOM     20  C   UNL     1      11.832 -54.117 -23.985  1.00  0.00     0.142 A 
ATOM     21  C   UNL     1      11.456 -53.239 -22.976  1.00  0.00     0.065 A 
ATOM     22  O   UNL     1      11.515 -55.452 -23.964  1.00  0.00    -0.456 OA
ATOM     23  C   UNL     1      10.690 -53.758 -21.834  1.00  0.00     0.193 A 
ATOM     24  C   UNL     1      10.760 -55.934 -22.903  1.00  0.00     0.138 A 
ATOM     25  C   UNL     1      10.350 -55.188 -21.867  1.00  0.00     0.100 A 
ATOM     26  O   UNL     1      10.358 -53.037 -20.904  1.00  0.00    -0.289 OA
BRANCH  24  27
ATOM     27  C   UNL     1      10.458 -57.376 -22.986  1.00  0.00     0.018 A 
ATOM     28  C   UNL     1      11.460 -58.346 -22.841  1.00  0.00     0.016 A 
ATOM     29  C   UNL     1       9.140 -57.805 -23.191  1.00  0.00     0.016 A 
ATOM     30  C   UNL     1      11.154 -59.713 -22.910  1.00  0.00     0.047 A 
ATOM     31  C   UNL     1       8.839 -59.167 -23.259  1.00  0.00     0.047 A 
ATOM     32  C   UNL     1       9.841 -60.128 -23.121  1.00  0.00     0.118 A 
BRANCH  32  33
ATOM     33  O   UNL     1       9.408 -61.421 -23.208  1.00  0.00    -0.497 OA
ATOM     34  C   UNL     1      10.402 -62.439 -23.177  1.00  0.00     0.278 C 
ENDBRANCH  32  33
ENDBRANCH  24  27
ENDBRANCH  15  16
ENDBRANCH  14  15
ENDBRANCH   1  14
TORSDOF 9
ENDMDL
MODEL 4
REMARK VINA RESULT:    -9.584      3.199      4.647
REMARK INTER + INTRA:         -15.035
REMARK INTER:                 -14.497
REMARK INTRA:                  -0.538
REMARK UNBOUND:                -0.689
REMARK SMILES COc1ccc(-c2cc(=O)c3ccc(OCC[N@H+]4CC[N@H+](CCO)CC4)cc3o2)cc1
REMARK SMILES IDX 17 1 18 2 20 3 21 4 19 5 25 6 26 7 22 10 23 11 24 12 16 14
REMARK SMILES IDX 15 15 14 16 13 17 27 18 12 19 28 20 11 21 29 22 9 23 7 24
REMARK SMILES IDX 8 25 10 26 6 27 5 28 30 29 4 30 31 31 3 32 2 33 1 34
REMARK H PARENT 21 8 18 9 24 13
ROOT
ATOM      1  C   UNL     1      10.025 -61.520 -22.103  1.00  0.00     0.304 C 
ENDROOT
BRANCH   1   2
ATOM      2  N   UNL     1       9.330 -61.650 -23.473  1.00  0.00    -0.323 N 
ATOM      3  C   UNL     1       9.570 -61.751 -25.999  1.00  0.00     0.324 C 
ATOM      4  N   UNL     1       8.606 -62.920 -26.022  1.00  0.00    -0.324 N 
ATOM      5  C   UNL     1      10.312 -61.664 -24.642  1.00  0.00     0.324 C 
ATOM      6  C   UNL     1       7.624 -62.912 -24.864  1.00  0.00     0.324 C 
ATOM      7  C   UNL     1       8.366 -62.830 -23.506  1.00  0.00     0.324 C 
ATOM      8  H   UNL     1       9.152 -63.810 -25.966  1.00  0.00     0.348 HD
ATOM      9  H   UNL     1       8.779 -60.772 -23.528  1.00  0.00     0.348 HD
BRANCH   4  10
ATOM     10  C   UNL     1       7.925 -63.108 -27.387  1.00  0.00     0.291 C 
BRANCH  10  11
ATOM     11  C   UNL     1       9.005 -62.951 -28.467  1.00  0.00     0.217 C 
BRANCH  11  12
ATOM     12  O   UNL     1       8.771 -61.686 -29.111  1.00  0.00    -0.391 OA
ATOM     13  H   UNL     1       8.307 -61.124 -28.451  1.00  0.00     0.210 HD
ENDBRANCH  11  12
ENDBRANCH  10  11
ENDBRANCH   4  10
ENDBRANCH   1   2
BRANCH   1  14
ATOM     14  C   UNL     1       9.679 -60.165 -21.469  1.00  0.00     0.290 C 
BRANCH  14  15
ATOM     15  O   UNL     1      10.922 -59.479 -21.276  1.00  0.00    -0.488 OA
BRANCH  15  16
ATOM     16  C   UNL     1      11.202 -58.453 -22.141  1.00  0.00     0.123 A 
ATOM     17  C   UNL     1      11.759 -58.855 -23.360  1.00  0.00     0.047 A 
ATOM     18  C   UNL     1      10.986 -57.094 -21.899  1.00  0.00     0.094 A 
ATOM     19  C   UNL     1      12.105 -57.910 -24.329  1.00  0.00     0.020 A 
ATOM     20  C   UNL     1      11.331 -56.149 -22.871  1.00  0.00     0.142 A 
ATOM     21  C   UNL     1      11.888 -56.556 -24.077  1.00  0.00     0.065 A 
ATOM     22  O   UNL     1      11.094 -54.831 -22.570  1.00  0.00    -0.456 OA
ATOM     23  C   UNL     1      12.245 -55.535 -25.072  1.00  0.00     0.193 A 
ATOM     24  C   UNL     1      11.397 -53.871 -23.526  1.00  0.00     0.138 A 
ATOM     25  C   UNL     1      11.948 -54.140 -24.719  1.00  0.00     0.100 A 
ATOM     26  O   UNL     1      12.765 -55.833 -26.139  1.00  0.00    -0.289 OA
BRANCH  24  27
ATOM     27  C   UNL     1      11.086 -52.490 -23.110  1.00  0.00     0.018 A 
ATOM     28  C   UNL     1       9.935 -52.188 -22.368  1.00  0.00     0.016 A 
ATOM     29  C   UNL     1      11.961 -51.446 -23.435  1.00  0.00     0.016 A 
ATOM     30  C   UNL     1       9.659 -50.872 -21.969  1.00  0.00     0.047 A 
ATOM     31  C   UNL     1      11.684 -50.136 -23.037  1.00  0.00     0.047 A 
ATOM     32  C   UNL     1      10.533 -49.840 -22.304  1.00  0.00     0.118 A 
BRANCH  32  33
ATOM     33  O   UNL     1      10.386 -48.521 -21.980  1.00  0.00    -0.497 OA
ATOM     34  C   UNL     1      11.138 -47.582 -22.738  1.00  0.00     0.278 C 
ENDBRANCH  32  33
ENDBRANCH  24  27
ENDBRANCH  15  16
ENDBRANCH  14  15
ENDBRANCH   1  14
TORSDOF 9
ENDMDL
MODEL 5
REMARK VINA RESULT:    -9.552      3.905     11.618
REMARK INTER + INTRA:         -14.987
REMARK INTER:                 -14.326
REMARK INTRA:                  -0.661
REMARK UNBOUND:                -0.689
REMARK SMILES COc1ccc(-c2cc(=O)c3ccc(OCC[N@H+]4CC[N@H+](CCO)CC4)cc3o2)cc1
REMARK SMILES IDX 17 1 18 2 20 3 21 4 19 5 25 6 26 7 22 10 23 11 24 12 16 14
REMARK SMILES IDX 15 15 14 16 13 17 27 18 12 19 28 20 11 21 29 22 9 23 7 24
REMARK SMILES IDX 8 25 10 26 6 27 5 28 30 29 4 30 31 31 3 32 2 33 1 34
REMARK H PARENT 21 8 18 9 24 13
ROOT
ATOM      1  C   UNL     1      15.539 -50.527 -26.191  1.00  0.00     0.304 C 
ENDROOT
BRANCH   1   2
ATOM      2  N   UNL     1      16.082 -49.932 -27.505  1.00  0.00    -0.323 N 
ATOM      3  C   UNL     1      15.617 -48.577 -29.602  1.00  0.00     0.324 C 
ATOM      4  N   UNL     1      16.909 -47.819 -29.373  1.00  0.00    -0.324 N 
ATOM      5  C   UNL     1      15.041 -49.118 -28.269  1.00  0.00     0.324 C 
ATOM      6  C   UNL     1      17.951 -48.623 -28.615  1.00  0.00     0.324 C 
ATOM      7  C   UNL     1      17.378 -49.160 -27.281  1.00  0.00     0.324 C 
ATOM      8  H   UNL     1      16.703 -46.962 -28.811  1.00  0.00     0.348 HD
ATOM      9  H   UNL     1      16.297 -50.781 -28.062  1.00  0.00     0.348 HD
BRANCH   4  10
ATOM     10  C   UNL     1      17.460 -47.174 -30.654  1.00  0.00     0.291 C 
BRANCH  10  11
ATOM     11  C   UNL     1      16.875 -45.758 -30.747  1.00  0.00     0.217 C 
BRANCH  11  12
ATOM     12  O   UNL     1      15.873 -45.786 -31.779  1.00  0.00    -0.391 OA
ATOM     13  H   UNL     1      15.517 -44.871 -31.839  1.00  0.00     0.210 HD
ENDBRANCH  11  12
ENDBRANCH  10  11
ENDBRANCH   4  10
ENDBRANCH   1   2
BRANCH   1  14
ATOM     14  C   UNL     1      14.004 -50.537 -26.219  1.00  0.00     0.290 C 
BRANCH  14  15
ATOM     15  O   UNL     1      13.609 -51.911 -26.323  1.00  0.00    -0.488 OA
BRANCH  15  16
ATOM     16  C   UNL     1      12.904 -52.432 -25.269  1.00  0.00     0.123 A 
ATOM     17  C   UNL     1      12.538 -51.496 -24.295  1.00  0.00     0.047 A 
ATOM     18  C   UNL     1      12.548 -53.772 -25.103  1.00  0.00     0.094 A 
ATOM     19  C   UNL     1      11.827 -51.894 -23.160  1.00  0.00     0.020 A 
ATOM     20  C   UNL     1      11.835 -54.169 -23.967  1.00  0.00     0.142 A 
ATOM     21  C   UNL     1      11.478 -53.235 -23.002  1.00  0.00     0.065 A 
ATOM     22  O   UNL     1      11.517 -55.500 -23.864  1.00  0.00    -0.456 OA
ATOM     23  C   UNL     1      10.735 -53.688 -21.818  1.00  0.00     0.193 A 
ATOM     24  C   UNL     1      10.783 -55.921 -22.764  1.00  0.00     0.138 A 
ATOM     25  C   UNL     1      10.393 -55.117 -21.763  1.00  0.00     0.100 A 
ATOM     26  O   UNL     1      10.421 -52.915 -20.923  1.00  0.00    -0.289 OA
BRANCH  24  27
ATOM     27  C   UNL     1      10.478 -57.364 -22.760  1.00  0.00     0.018 A 
ATOM     28  C   UNL     1       9.327 -57.873 -23.380  1.00  0.00     0.016 A 
ATOM     29  C   UNL     1      11.358 -58.265 -22.149  1.00  0.00     0.016 A 
ATOM     30  C   UNL     1       9.057 -59.249 -23.380  1.00  0.00     0.047 A 
ATOM     31  C   UNL     1      11.087 -59.636 -22.151  1.00  0.00     0.047 A 
ATOM     32  C   UNL     1       9.937 -60.136 -22.763  1.00  0.00     0.118 A 
BRANCH  32  33
ATOM     33  O   UNL     1       9.796 -61.493 -22.690  1.00  0.00    -0.497 OA
ATOM     34  C   UNL     1       9.881 -62.218 -23.912  1.00  0.00     0.278 C 
ENDBRANCH  32  33
ENDBRANCH  24  27
ENDBRANCH  15  16
ENDBRANCH  14  15
ENDBRANCH   1  14
TORSDOF 9
ENDMDL
MODEL 6
REMARK VINA RESULT:    -9.429      1.584      1.976
REMARK INTER + INTRA:         -14.803
REMARK INTER:                 -14.249
REMARK INTRA:                  -0.554
REMARK UNBOUND:                -0.689
REMARK SMILES COc1ccc(-c2cc(=O)c3ccc(OCC[N@H+]4CC[N@H+](CCO)CC4)cc3o2)cc1
REMARK SMILES IDX 17 1 18 2 20 3 21 4 19 5 25 6 26 7 22 10 23 11 24 12 16 14
REMARK SMILES IDX 15 15 14 16 13 17 27 18 12 19 28 20 11 21 29 22 9 23 7 24
REMARK SMILES IDX 8 25 10 26 6 27 5 28 30 29 4 30 31 31 3 32 2 33 1 34
REMARK H PARENT 21 8 18 9 24 13
ROOT
ATOM      1  C   UNL     1      10.808 -59.423 -22.938  1.00  0.00     0.304 C 
ENDROOT
BRANCH   1   2
ATOM      2  N   UNL     1       9.936 -60.086 -24.023  1.00  0.00    -0.323 N 
ATOM      3  C   UNL     1       9.832 -61.248 -26.279  1.00  0.00     0.324 C 
ATOM      4  N   UNL     1       8.894 -62.277 -25.681  1.00  0.00    -0.324 N 
ATOM      5  C   UNL     1      10.750 -60.631 -25.194  1.00  0.00     0.324 C 
ATOM      6  C   UNL     1       8.078 -61.743 -24.517  1.00  0.00     0.324 C 
ATOM      7  C   UNL     1       8.996 -61.130 -23.430  1.00  0.00     0.324 C 
ATOM      8  H   UNL     1       9.458 -63.084 -25.327  1.00  0.00     0.348 HD
ATOM      9  H   UNL     1       9.368 -59.290 -24.371  1.00  0.00     0.348 HD
BRANCH   4  10
ATOM     10  C   UNL     1       8.037 -62.993 -26.738  1.00  0.00     0.291 C 
BRANCH  10  11
ATOM     11  C   UNL     1       8.754 -62.847 -28.088  1.00  0.00     0.217 C 
BRANCH  11  12
ATOM     12  O   UNL     1       8.049 -61.836 -28.829  1.00  0.00    -0.391 OA
ATOM     13  H   UNL     1       7.110 -61.890 -28.543  1.00  0.00     0.210 HD
ENDBRANCH  11  12
ENDBRANCH  10  11
ENDBRANCH   4  10
ENDBRANCH   1   2
BRANCH   1  14
ATOM     14  C   UNL     1      10.330 -57.984 -22.694  1.00  0.00     0.290 C 
BRANCH  14  15
ATOM     15  O   UNL     1      11.045 -57.157 -23.621  1.00  0.00    -0.488 OA
BRANCH  15  16
ATOM     16  C   UNL     1      11.121 -55.821 -23.324  1.00  0.00     0.123 A 
ATOM     17  C   UNL     1      10.477 -55.451 -22.138  1.00  0.00     0.047 A 
ATOM     18  C   UNL     1      11.760 -54.846 -24.093  1.00  0.00     0.094 A 
ATOM     19  C   UNL     1      10.466 -54.117 -21.723  1.00  0.00     0.020 A 
ATOM     20  C   UNL     1      11.750 -53.510 -23.675  1.00  0.00     0.142 A 
ATOM     21  C   UNL     1      11.105 -53.150 -22.498  1.00  0.00     0.065 A 
ATOM     22  O   UNL     1      12.396 -52.602 -24.475  1.00  0.00    -0.456 OA
ATOM     23  C   UNL     1      11.107 -51.737 -22.093  1.00  0.00     0.193 A 
ATOM     24  C   UNL     1      12.429 -51.274 -24.073  1.00  0.00     0.138 A 
ATOM     25  C   UNL     1      11.834 -50.804 -22.966  1.00  0.00     0.100 A 
ATOM     26  O   UNL     1      10.531 -51.359 -21.083  1.00  0.00    -0.289 OA
BRANCH  24  27
ATOM     27  C   UNL     1      13.164 -50.385 -24.993  1.00  0.00     0.018 A 
ATOM     28  C   UNL     1      13.811 -50.882 -26.134  1.00  0.00     0.016 A 
ATOM     29  C   UNL     1      13.208 -49.006 -24.750  1.00  0.00     0.016 A 
ATOM     30  C   UNL     1      14.495 -50.023 -27.005  1.00  0.00     0.047 A 
ATOM     31  C   UNL     1      13.890 -48.153 -25.621  1.00  0.00     0.047 A 
ATOM     32  C   UNL     1      14.538 -48.653 -26.751  1.00  0.00     0.118 A 
BRANCH  32  33
ATOM     33  O   UNL     1      15.165 -47.710 -27.514  1.00  0.00    -0.497 OA
ATOM     34  C   UNL     1      15.500 -48.076 -28.848  1.00  0.00     0.278 C 
ENDBRANCH  32  33
ENDBRANCH  24  27
ENDBRANCH  15  16
ENDBRANCH  14  15
ENDBRANCH   1  14
TORSDOF 9
ENDMDL
MODEL 7
REMARK VINA RESULT:    -9.286      4.265     11.104
REMARK INTER + INTRA:         -14.588
REMARK INTER:                 -13.935
REMARK INTRA:                  -0.653
REMARK UNBOUND:                -0.689
REMARK SMILES COc1ccc(-c2cc(=O)c3ccc(OCC[N@H+]4CC[N@H+](CCO)CC4)cc3o2)cc1
REMARK SMILES IDX 17 1 18 2 20 3 21 4 19 5 25 6 26 7 22 10 23 11 24 12 16 14
REMARK SMILES IDX 15 15 14 16 13 17 27 18 12 19 28 20 11 21 29 22 9 23 7 24
REMARK SMILES IDX 8 25 10 26 6 27 5 28 30 29 4 30 31 31 3 32 2 33 1 34
REMARK H PARENT 21 8 18 9 24 13
ROOT
ATOM      1  C   UNL     1      15.920 -51.881 -25.391  1.00  0.00     0.304 C 
ENDROOT
BRANCH   1   2
ATOM      2  N   UNL     1      17.245 -51.655 -26.146  1.00  0.00    -0.323 N 
ATOM      3  C   UNL     1      18.724 -50.057 -27.454  1.00  0.00     0.324 C 
ATOM      4  N   UNL     1      19.912 -50.522 -26.636  1.00  0.00    -0.324 N 
ATOM      5  C   UNL     1      17.401 -50.228 -26.666  1.00  0.00     0.324 C 
ATOM      6  C   UNL     1      19.767 -51.941 -26.116  1.00  0.00     0.324 C 
ATOM      7  C   UNL     1      18.447 -52.111 -25.324  1.00  0.00     0.324 C 
ATOM      8  H   UNL     1      20.019 -49.892 -25.808  1.00  0.00     0.348 HD
ATOM      9  H   UNL     1      17.147 -52.285 -26.964  1.00  0.00     0.348 HD
BRANCH   4  10
ATOM     10  C   UNL     1      21.256 -50.272 -27.338  1.00  0.00     0.291 C 
BRANCH  10  11
ATOM     11  C   UNL     1      20.961 -50.009 -28.821  1.00  0.00     0.217 C 
BRANCH  11  12
ATOM     12  O   UNL     1      21.306 -51.209 -29.535  1.00  0.00    -0.391 OA
ATOM     13  H   UNL     1      21.984 -51.667 -28.991  1.00  0.00     0.210 HD
ENDBRANCH  11  12
ENDBRANCH  10  11
ENDBRANCH   4  10
ENDBRANCH   1   2
BRANCH   1  14
ATOM     14  C   UNL     1      14.809 -51.032 -26.024  1.00  0.00     0.290 C 
BRANCH  14  15
ATOM     15  O   UNL     1      13.741 -51.935 -26.343  1.00  0.00    -0.488 OA
BRANCH  15  16
ATOM     16  C   UNL     1      12.984 -52.390 -25.296  1.00  0.00     0.123 A 
ATOM     17  C   UNL     1      12.641 -51.410 -24.357  1.00  0.00     0.047 A 
ATOM     18  C   UNL     1      12.555 -53.705 -25.105  1.00  0.00     0.094 A 
ATOM     19  C   UNL     1      11.881 -51.740 -23.232  1.00  0.00     0.020 A 
ATOM     20  C   UNL     1      11.793 -54.034 -23.978  1.00  0.00     0.142 A 
ATOM     21  C   UNL     1      11.460 -53.057 -23.048  1.00  0.00     0.065 A 
ATOM     22  O   UNL     1      11.405 -55.344 -23.850  1.00  0.00    -0.456 OA
ATOM     23  C   UNL     1      10.664 -53.439 -21.873  1.00  0.00     0.193 A 
ATOM     24  C   UNL     1      10.622 -55.696 -22.759  1.00  0.00     0.138 A 
ATOM     25  C   UNL     1      10.248 -54.847 -21.791  1.00  0.00     0.100 A 
ATOM     26  O   UNL     1      10.367 -52.627 -21.008  1.00  0.00    -0.289 OA
BRANCH  24  27
ATOM     27  C   UNL     1      10.243 -57.122 -22.726  1.00  0.00     0.018 A 
ATOM     28  C   UNL     1      11.089 -58.094 -22.172  1.00  0.00     0.016 A 
ATOM     29  C   UNL     1       9.003 -57.530 -23.233  1.00  0.00     0.016 A 
ATOM     30  C   UNL     1      10.709 -59.443 -22.137  1.00  0.00     0.047 A 
ATOM     31  C   UNL     1       8.627 -58.875 -23.195  1.00  0.00     0.047 A 
ATOM     32  C   UNL     1       9.476 -59.839 -22.650  1.00  0.00     0.118 A 
BRANCH  32  33
ATOM     33  O   UNL     1       8.985 -61.113 -22.677  1.00  0.00    -0.497 OA
ATOM     34  C   UNL     1       9.860 -62.153 -22.257  1.00  0.00     0.278 C 
ENDBRANCH  32  33
ENDBRANCH  24  27
ENDBRANCH  15  16
ENDBRANCH  14  15
ENDBRANCH   1  14
TORSDOF 9
ENDMDL
MODEL 8
REMARK VINA RESULT:    -9.177      2.398      3.702
REMARK INTER + INTRA:         -14.425
REMARK INTER:                 -13.751
REMARK INTRA:                  -0.674
REMARK UNBOUND:                -0.689
REMARK SMILES COc1ccc(-c2cc(=O)c3ccc(OCC[N@H+]4CC[N@H+](CCO)CC4)cc3o2)cc1
REMARK SMILES IDX 17 1 18 2 20 3 21 4 19 5 25 6 26 7 22 10 23 11 24 12 16 14
REMARK SMILES IDX 15 15 14 16 13 17 27 18 12 19 28 20 11 21 29 22 9 23 7 24
REMARK SMILES IDX 8 25 10 26 6 27 5 28 30 29 4 30 31 31 3 32 2 33 1 34
REMARK H PARENT 21 8 18 9 24 13
ROOT
ATOM      1  C   UNL     1      10.664 -57.835 -22.024  1.00  0.00     0.304 C 
ENDROOT
BRANCH   1   2
ATOM      2  N   UNL     1      10.465 -59.253 -22.595  1.00  0.00    -0.323 N 
ATOM      3  C   UNL     1       9.956 -61.699 -22.140  1.00  0.00     0.324 C 
ATOM      4  N   UNL     1       8.991 -61.693 -23.308  1.00  0.00    -0.324 N 
ATOM      5  C   UNL     1      10.103 -60.282 -21.529  1.00  0.00     0.324 C 
ATOM      6  C   UNL     1       9.345 -60.672 -24.376  1.00  0.00     0.324 C 
ATOM      7  C   UNL     1       9.487 -59.256 -23.766  1.00  0.00     0.324 C 
ATOM      8  H   UNL     1       8.034 -61.460 -22.955  1.00  0.00     0.348 HD
ATOM      9  H   UNL     1      11.411 -59.483 -22.955  1.00  0.00     0.348 HD
BRANCH   4  10
ATOM     10  C   UNL     1       8.733 -63.096 -23.879  1.00  0.00     0.291 C 
BRANCH  10  11
ATOM     11  C   UNL     1       7.305 -63.499 -23.485  1.00  0.00     0.217 C 
BRANCH  11  12
ATOM     12  O   UNL     1       6.429 -62.991 -24.507  1.00  0.00    -0.391 OA
ATOM     13  H   UNL     1       6.874 -63.173 -25.364  1.00  0.00     0.210 HD
ENDBRANCH  11  12
ENDBRANCH  10  11
ENDBRANCH   4  10
ENDBRANCH   1   2
BRANCH   1  14
ATOM     14  C   UNL     1      10.406 -56.790 -23.119  1.00  0.00     0.290 C 
BRANCH  14  15
ATOM     15  O   UNL     1      10.401 -55.513 -22.468  1.00  0.00    -0.488 OA
BRANCH  15  16
ATOM     16  C   UNL     1      11.048 -54.490 -23.111  1.00  0.00     0.123 A 
ATOM     17  C   UNL     1      11.725 -54.870 -24.275  1.00  0.00     0.047 A 
ATOM     18  C   UNL     1      11.082 -53.155 -22.700  1.00  0.00     0.094 A 
ATOM     19  C   UNL     1      12.438 -53.929 -25.021  1.00  0.00     0.020 A 
ATOM     20  C   UNL     1      11.795 -52.213 -23.450  1.00  0.00     0.142 A 
ATOM     21  C   UNL     1      12.469 -52.599 -24.602  1.00  0.00     0.065 A 
ATOM     22  O   UNL     1      11.789 -50.920 -22.992  1.00  0.00    -0.456 OA
ATOM     23  C   UNL     1      13.213 -51.584 -25.361  1.00  0.00     0.193 A 
ATOM     24  C   UNL     1      12.462 -49.955 -23.730  1.00  0.00     0.138 A 
ATOM     25  C   UNL     1      13.157 -50.208 -24.848  1.00  0.00     0.100 A 
ATOM     26  O   UNL     1      13.848 -51.873 -26.366  1.00  0.00    -0.289 OA
BRANCH  24  27
ATOM     27  C   UNL     1      12.377 -48.596 -23.161  1.00  0.00     0.018 A 
ATOM     28  C   UNL     1      13.527 -47.840 -22.891  1.00  0.00     0.016 A 
ATOM     29  C   UNL     1      11.127 -48.021 -22.902  1.00  0.00     0.016 A 
ATOM     30  C   UNL     1      13.430 -46.545 -22.363  1.00  0.00     0.047 A 
ATOM     31  C   UNL     1      11.033 -46.730 -22.376  1.00  0.00     0.047 A 
ATOM     32  C   UNL     1      12.181 -45.985 -22.102  1.00  0.00     0.118 A 
BRANCH  32  33
ATOM     33  O   UNL     1      11.946 -44.740 -21.592  1.00  0.00    -0.497 OA
ATOM     34  C   UNL     1      12.850 -43.707 -21.965  1.00  0.00     0.278 C 
ENDBRANCH  32  33
ENDBRANCH  24  27
ENDBRANCH  15  16
ENDBRANCH  14  15
ENDBRANCH   1  14
TORSDOF 9
ENDMDL
MODEL 9
REMARK VINA RESULT:    -8.590      1.976      3.159
REMARK INTER + INTRA:         -13.547
REMARK INTER:                 -12.939
REMARK INTRA:                  -0.609
REMARK UNBOUND:                -0.689
REMARK SMILES COc1ccc(-c2cc(=O)c3ccc(OCC[N@H+]4CC[N@H+](CCO)CC4)cc3o2)cc1
REMARK SMILES IDX 17 1 18 2 20 3 21 4 19 5 25 6 26 7 22 10 23 11 24 12 16 14
REMARK SMILES IDX 15 15 14 16 13 17 27 18 12 19 28 20 11 21 29 22 9 23 7 24
REMARK SMILES IDX 8 25 10 26 6 27 5 28 30 29 4 30 31 31 3 32 2 33 1 34
REMARK H PARENT 21 8 18 9 24 13
ROOT
ATOM      1  C   UNL     1      10.903 -56.261 -22.716  1.00  0.00     0.304 C 
ENDROOT
BRANCH   1   2
ATOM      2  N   UNL     1      10.244 -57.425 -23.482  1.00  0.00    -0.323 N 
ATOM      3  C   UNL     1      10.307 -59.882 -24.123  1.00  0.00     0.324 C 
ATOM      4  N   UNL     1       8.827 -59.978 -23.813  1.00  0.00    -0.324 N 
ATOM      5  C   UNL     1      10.978 -58.751 -23.302  1.00  0.00     0.324 C 
ATOM      6  C   UNL     1       8.088 -58.664 -23.991  1.00  0.00     0.324 C 
ATOM      7  C   UNL     1       8.756 -57.535 -23.167  1.00  0.00     0.324 C 
ATOM      8  H   UNL     1       8.709 -60.274 -22.817  1.00  0.00     0.348 HD
ATOM      9  H   UNL     1      10.351 -57.130 -24.471  1.00  0.00     0.348 HD
BRANCH   4  10
ATOM     10  C   UNL     1       8.142 -61.155 -24.525  1.00  0.00     0.291 C 
BRANCH  10  11
ATOM     11  C   UNL     1       6.876 -61.503 -23.729  1.00  0.00     0.217 C 
BRANCH  11  12
ATOM     12  O   UNL     1       6.508 -62.845 -24.093  1.00  0.00    -0.391 OA
ATOM     13  H   UNL     1       5.549 -62.929 -23.893  1.00  0.00     0.210 HD
ENDBRANCH  11  12
ENDBRANCH  10  11
ENDBRANCH   4  10
ENDBRANCH   1   2
BRANCH   1  14
ATOM     14  C   UNL     1      10.606 -54.934 -23.428  1.00  0.00     0.290 C 
BRANCH  14  15
ATOM     15  O   UNL     1      11.697 -54.704 -24.330  1.00  0.00    -0.488 OA
BRANCH  15  16
ATOM     16  C   UNL     1      12.143 -53.414 -24.443  1.00  0.00     0.123 A 
ATOM     17  C   UNL     1      11.732 -52.563 -23.410  1.00  0.00     0.047 A 
ATOM     18  C   UNL     1      12.937 -52.908 -25.475  1.00  0.00     0.094 A 
ATOM     19  C   UNL     1      12.105 -51.217 -23.409  1.00  0.00     0.020 A 
ATOM     20  C   UNL     1      13.311 -51.560 -25.471  1.00  0.00     0.142 A 
ATOM     21  C   UNL     1      12.896 -50.721 -24.445  1.00  0.00     0.065 A 
ATOM     22  O   UNL     1      14.091 -51.127 -26.514  1.00  0.00    -0.456 OA
ATOM     23  C   UNL     1      13.302 -49.309 -24.476  1.00  0.00     0.193 A 
ATOM     24  C   UNL     1      14.504 -49.802 -26.523  1.00  0.00     0.138 A 
ATOM     25  C   UNL     1      14.159 -48.896 -25.597  1.00  0.00     0.100 A 
ATOM     26  O   UNL     1      12.941 -48.519 -23.615  1.00  0.00    -0.289 OA
BRANCH  24  27
ATOM     27  C   UNL     1      15.354 -49.445 -27.676  1.00  0.00     0.018 A 
ATOM     28  C   UNL     1      14.809 -48.907 -28.851  1.00  0.00     0.016 A 
ATOM     29  C   UNL     1      16.742 -49.618 -27.604  1.00  0.00     0.016 A 
ATOM     30  C   UNL     1      15.631 -48.560 -29.933  1.00  0.00     0.047 A 
ATOM     31  C   UNL     1      17.558 -49.271 -28.683  1.00  0.00     0.047 A 
ATOM     32  C   UNL     1      17.010 -48.743 -29.853  1.00  0.00     0.118 A 
BRANCH  32  33
ATOM     33  O   UNL     1      17.921 -48.449 -30.828  1.00  0.00    -0.497 OA
ATOM     34  C   UNL     1      18.350 -49.522 -31.657  1.00  0.00     0.278 C 
ENDBRANCH  32  33
ENDBRANCH  24  27
ENDBRANCH  15  16
ENDBRANCH  14  15
ENDBRANCH   1  14
TORSDOF 9
ENDMDL
