MODEL 1
REMARK VINA RESULT:   -11.910      0.000      0.000
REMARK INTER + INTRA:         -14.376
REMARK INTER:                 -13.998
REMARK INTRA:                  -0.378
REMARK UNBOUND:                -0.378
REMARK SMILES O=C(C[NH+]1CCCCC1)Nc1ccc2[nH]c3c4nc5ccccc5c-4ccn3c(=O)c2c1
REMARK SMILES IDX 10 1 2 2 1 3 11 5 15 6 14 7 16 8 13 9 31 10 17 11 28 12
REMARK SMILES IDX 12 13 32 14 29 15 18 16 25 17 27 18 19 19 26 20 24 21 20 22
REMARK SMILES IDX 23 23 21 24 22 25 30 27 3 28 4 29 5 30 9 31 6 32 8 33 7 34
REMARK H PARENT 10 4 15 26 4 35
ROOT
ATOM      1  N   UNL     1      10.317 -57.278 -22.489  1.00  0.00    -0.321 N 
ATOM      2  C   UNL     1       9.280 -57.934 -23.118  1.00  0.00     0.279 C 
ATOM      3  O   UNL     1       8.430 -57.454 -23.866  1.00  0.00    -0.268 OA
ATOM      4  H   UNL     1      10.935 -57.812 -21.885  1.00  0.00     0.170 HD
ENDROOT
BRANCH   1   5
ATOM      5  C   UNL     1      10.630 -55.902 -22.575  1.00  0.00     0.042 A 
ATOM      6  N   UNL     1      11.698 -51.855 -23.078  1.00  0.00    -0.339 N 
ATOM      7  C   UNL     1      11.344 -53.186 -22.902  1.00  0.00     0.053 A 
ATOM      8  C   UNL     1      12.446 -51.434 -24.159  1.00  0.00     0.144 A 
ATOM      9  C   UNL     1      10.590 -53.598 -21.803  1.00  0.00     0.029 A 
ATOM     10  C   UNL     1      11.737 -54.145 -23.840  1.00  0.00     0.066 A 
ATOM     11  C   UNL     1      12.775 -50.132 -24.285  1.00  0.00     0.113 A 
ATOM     12  N   UNL     1      12.867 -52.365 -25.131  1.00  0.00    -0.267 N 
ATOM     13  C   UNL     1      10.235 -54.944 -21.640  1.00  0.00     0.028 A 
ATOM     14  C   UNL     1      11.385 -55.493 -23.679  1.00  0.00     0.042 A 
ATOM     15  C   UNL     1      12.539 -53.724 -25.022  1.00  0.00     0.265 A 
ATOM     16  N   UNL     1      12.468 -49.075 -23.455  1.00  0.00    -0.244 NA
ATOM     17  C   UNL     1      13.557 -49.677 -25.411  1.00  0.00     0.015 A 
ATOM     18  C   UNL     1      13.623 -51.903 -26.217  1.00  0.00     0.097 A 
ATOM     19  C   UNL     1      13.029 -48.063 -24.048  1.00  0.00     0.072 A 
ATOM     20  C   UNL     1      13.985 -50.620 -26.402  1.00  0.00     0.029 A 
ATOM     21  C   UNL     1      13.748 -48.362 -25.309  1.00  0.00     0.010 A 
ATOM     22  C   UNL     1      13.031 -46.653 -23.608  1.00  0.00     0.029 A 
ATOM     23  C   UNL     1      14.408 -47.342 -26.060  1.00  0.00     0.011 A 
ATOM     24  C   UNL     1      13.672 -45.743 -24.364  1.00  0.00     0.002 A 
ATOM     25  C   UNL     1      14.366 -46.082 -25.597  1.00  0.00     0.001 A 
ATOM     26  H   UNL     1      11.441 -51.133 -22.415  1.00  0.00     0.168 HD
ATOM     27  O   UNL     1      12.870 -54.589 -25.835  1.00  0.00    -0.268 OA
ENDBRANCH   1   5
BRANCH   2  28
ATOM     28  C   UNL     1       9.216 -59.438 -22.825  1.00  0.00     0.363 C 
BRANCH  28  29
ATOM     29  N   UNL     1       8.946 -60.222 -24.114  1.00  0.00    -0.327 N 
ATOM     30  C   UNL     1       8.473 -61.624 -23.861  1.00  0.00     0.262 C 
ATOM     31  C   UNL     1      10.105 -60.153 -25.078  1.00  0.00     0.262 C 
ATOM     32  C   UNL     1       8.074 -62.273 -25.178  1.00  0.00     0.062 C 
ATOM     33  C   UNL     1       9.703 -60.794 -26.399  1.00  0.00     0.062 C 
ATOM     34  C   UNL     1       9.202 -62.221 -26.202  1.00  0.00     0.012 C 
ATOM     35  H   UNL     1       8.176 -59.691 -24.561  1.00  0.00     0.348 HD
ENDBRANCH  28  29
ENDBRANCH   2  28
TORSDOF 3
ENDMDL
MODEL 2
REMARK VINA RESULT:   -11.739      1.468      2.128
REMARK INTER + INTRA:         -14.175
REMARK INTER:                 -13.893
REMARK INTRA:                  -0.283
REMARK UNBOUND:                -0.378
REMARK SMILES O=C(C[NH+]1CCCCC1)Nc1ccc2[nH]c3c4nc5ccccc5c-4ccn3c(=O)c2c1
REMARK SMILES IDX 10 1 2 2 1 3 11 5 15 6 14 7 16 8 13 9 31 10 17 11 28 12
REMARK SMILES IDX 12 13 32 14 29 15 18 16 25 17 27 18 19 19 26 20 24 21 20 22
REMARK SMILES IDX 23 23 21 24 22 25 30 27 3 28 4 29 5 30 9 31 6 32 8 33 7 34
REMARK H PARENT 10 4 15 26 4 35
ROOT
ATOM      1  N   UNL     1      11.276 -59.054 -23.656  1.00  0.00    -0.321 N 
ATOM      2  C   UNL     1      10.634 -59.738 -24.666  1.00  0.00     0.279 C 
ATOM      3  O   UNL     1       9.938 -59.272 -25.567  1.00  0.00    -0.268 OA
ATOM      4  H   UNL     1      11.806 -59.583 -22.971  1.00  0.00     0.170 HD
ENDROOT
BRANCH   1   5
ATOM      5  C   UNL     1      11.276 -57.657 -23.441  1.00  0.00     0.042 A 
ATOM      6  N   UNL     1      11.433 -53.463 -23.040  1.00  0.00    -0.339 N 
ATOM      7  C   UNL     1      11.377 -54.845 -23.162  1.00  0.00     0.053 A 
ATOM      8  C   UNL     1      12.121 -52.676 -23.941  1.00  0.00     0.144 A 
ATOM      9  C   UNL     1      10.681 -55.628 -22.242  1.00  0.00     0.029 A 
ATOM     10  C   UNL     1      12.022 -55.480 -24.226  1.00  0.00     0.066 A 
ATOM     11  C   UNL     1      12.155 -51.337 -23.778  1.00  0.00     0.113 A 
ATOM     12  N   UNL     1      12.788 -53.271 -25.031  1.00  0.00    -0.267 N 
ATOM     13  C   UNL     1      10.629 -57.022 -22.379  1.00  0.00     0.028 A 
ATOM     14  C   UNL     1      11.975 -56.875 -24.366  1.00  0.00     0.042 A 
ATOM     15  C   UNL     1      12.769 -54.660 -25.221  1.00  0.00     0.265 A 
ATOM     16  N   UNL     1      11.577 -50.568 -22.791  1.00  0.00    -0.244 NA
ATOM     17  C   UNL     1      12.871 -50.501 -24.714  1.00  0.00     0.015 A 
ATOM     18  C   UNL     1      13.476 -52.442 -25.928  1.00  0.00     0.097 A 
ATOM     19  C   UNL     1      11.926 -49.359 -23.118  1.00  0.00     0.072 A 
ATOM     20  C   UNL     1      13.549 -51.103 -25.824  1.00  0.00     0.029 A 
ATOM     21  C   UNL     1      12.757 -49.228 -24.340  1.00  0.00     0.010 A 
ATOM     22  C   UNL     1      11.589 -48.105 -22.414  1.00  0.00     0.029 A 
ATOM     23  C   UNL     1      13.208 -47.957 -24.810  1.00  0.00     0.011 A 
ATOM     24  C   UNL     1      12.047 -46.943 -22.913  1.00  0.00     0.002 A 
ATOM     25  C   UNL     1      12.861 -46.860 -24.116  1.00  0.00     0.001 A 
ATOM     26  H   UNL     1      10.987 -52.967 -22.276  1.00  0.00     0.168 HD
ATOM     27  O   UNL     1      13.327 -55.245 -26.152  1.00  0.00    -0.268 OA
ENDBRANCH   1   5
BRANCH   2  28
ATOM     28  C   UNL     1      10.838 -61.257 -24.626  1.00  0.00     0.363 C 
BRANCH  28  29
ATOM     29  N   UNL     1       9.592 -61.949 -24.064  1.00  0.00    -0.327 N 
ATOM     30  C   UNL     1       9.914 -63.013 -23.056  1.00  0.00     0.262 C 
ATOM     31  C   UNL     1       8.664 -62.427 -25.154  1.00  0.00     0.262 C 
ATOM     32  C   UNL     1       8.626 -63.531 -22.432  1.00  0.00     0.062 C 
ATOM     33  C   UNL     1       7.372 -62.936 -24.531  1.00  0.00     0.062 C 
ATOM     34  C   UNL     1       7.638 -64.016 -23.488  1.00  0.00     0.012 C 
ATOM     35  H   UNL     1       9.087 -61.181 -23.582  1.00  0.00     0.348 HD
ENDBRANCH  28  29
ENDBRANCH   2  28
TORSDOF 3
ENDMDL
MODEL 3
REMARK VINA RESULT:   -11.571      1.444      1.827
REMARK INTER + INTRA:         -13.978
REMARK INTER:                 -13.555
REMARK INTRA:                  -0.423
REMARK UNBOUND:                -0.378
REMARK SMILES O=C(C[NH+]1CCCCC1)Nc1ccc2[nH]c3c4nc5ccccc5c-4ccn3c(=O)c2c1
REMARK SMILES IDX 10 1 2 2 1 3 11 5 15 6 14 7 16 8 13 9 31 10 17 11 28 12
REMARK SMILES IDX 12 13 32 14 29 15 18 16 25 17 27 18 19 19 26 20 24 21 20 22
REMARK SMILES IDX 23 23 21 24 22 25 30 27 3 28 4 29 5 30 9 31 6 32 8 33 7 34
REMARK H PARENT 10 4 15 26 4 35
ROOT
ATOM      1  N   UNL     1      10.444 -56.898 -23.201  1.00  0.00    -0.321 N 
ATOM      2  C   UNL     1      10.844 -57.905 -22.348  1.00  0.00     0.279 C 
ATOM      3  O   UNL     1      11.394 -57.791 -21.254  1.00  0.00    -0.268 OA
ATOM      4  H   UNL     1      10.013 -57.151 -24.084  1.00  0.00     0.170 HD
ENDROOT
BRANCH   1   5
ATOM      5  C   UNL     1      10.577 -55.506 -22.994  1.00  0.00     0.042 A 
ATOM      6  N   UNL     1      11.148 -51.347 -22.606  1.00  0.00    -0.339 N 
ATOM      7  C   UNL     1      10.955 -52.717 -22.724  1.00  0.00     0.053 A 
ATOM      8  C   UNL     1      11.985 -50.651 -23.453  1.00  0.00     0.144 A 
ATOM      9  C   UNL     1      10.109 -53.408 -21.859  1.00  0.00     0.029 A 
ATOM     10  C   UNL     1      11.611 -53.432 -23.730  1.00  0.00     0.066 A 
ATOM     11  C   UNL     1      12.150 -49.321 -23.296  1.00  0.00     0.113 A 
ATOM     12  N   UNL     1      12.670 -51.328 -24.483  1.00  0.00    -0.267 N 
ATOM     13  C   UNL     1       9.919 -54.792 -21.992  1.00  0.00     0.028 A 
ATOM     14  C   UNL     1      11.426 -54.816 -23.865  1.00  0.00     0.042 A 
ATOM     15  C   UNL     1      12.518 -52.710 -24.666  1.00  0.00     0.265 A 
ATOM     16  N   UNL     1      11.581 -48.480 -22.364  1.00  0.00    -0.244 NA
ATOM     17  C   UNL     1      13.022 -48.578 -24.176  1.00  0.00     0.015 A 
ATOM     18  C   UNL     1      13.511 -50.590 -25.327  1.00  0.00     0.097 A 
ATOM     19  C   UNL     1      12.082 -47.320 -22.668  1.00  0.00     0.072 A 
ATOM     20  C   UNL     1      13.719 -49.264 -25.225  1.00  0.00     0.029 A 
ATOM     21  C   UNL     1      13.016 -47.295 -23.819  1.00  0.00     0.010 A 
ATOM     22  C   UNL     1      11.825 -46.027 -22.001  1.00  0.00     0.029 A 
ATOM     23  C   UNL     1      13.636 -46.086 -24.259  1.00  0.00     0.011 A 
ATOM     24  C   UNL     1      12.443 -44.927 -22.467  1.00  0.00     0.002 A 
ATOM     25  C   UNL     1      13.355 -44.948 -23.602  1.00  0.00     0.001 A 
ATOM     26  H   UNL     1      10.698 -50.796 -21.884  1.00  0.00     0.168 HD
ATOM     27  O   UNL     1      13.082 -53.364 -25.546  1.00  0.00    -0.268 OA
ENDBRANCH   1   5
BRANCH   2  28
ATOM     28  C   UNL     1      10.549 -59.319 -22.862  1.00  0.00     0.363 C 
BRANCH  28  29
ATOM     29  N   UNL     1      10.589 -59.351 -24.393  1.00  0.00    -0.327 N 
ATOM     30  C   UNL     1       9.538 -60.239 -24.992  1.00  0.00     0.262 C 
ATOM     31  C   UNL     1      11.974 -59.634 -24.922  1.00  0.00     0.262 C 
ATOM     32  C   UNL     1       9.541 -60.085 -26.506  1.00  0.00     0.062 C 
ATOM     33  C   UNL     1      11.981 -59.471 -26.436  1.00  0.00     0.062 C 
ATOM     34  C   UNL     1      10.921 -60.345 -27.100  1.00  0.00     0.012 C 
ATOM     35  H   UNL     1      10.381 -58.370 -24.660  1.00  0.00     0.348 HD
ENDBRANCH  28  29
ENDBRANCH   2  28
TORSDOF 3
ENDMDL
MODEL 4
REMARK VINA RESULT:   -11.106      1.893      2.387
REMARK INTER + INTRA:         -13.431
REMARK INTER:                 -13.064
REMARK INTRA:                  -0.367
REMARK UNBOUND:                -0.378
REMARK SMILES O=C(C[NH+]1CCCCC1)Nc1ccc2[nH]c3c4nc5ccccc5c-4ccn3c(=O)c2c1
REMARK SMILES IDX 10 1 2 2 1 3 11 5 15 6 14 7 16 8 13 9 31 10 17 11 28 12
REMARK SMILES IDX 12 13 32 14 29 15 18 16 25 17 27 18 19 19 26 20 24 21 20 22
REMARK SMILES IDX 23 23 21 24 22 25 30 27 3 28 4 29 5 30 9 31 6 32 8 33 7 34
REMARK H PARENT 10 4 15 26 4 35
ROOT
ATOM      1  N   UNL     1       9.853 -55.798 -23.329  1.00  0.00    -0.321 N 
ATOM      2  C   UNL     1      10.190 -57.036 -22.826  1.00  0.00     0.279 C 
ATOM      3  O   UNL     1      11.063 -57.301 -22.000  1.00  0.00    -0.268 OA
ATOM      4  H   UNL     1       9.113 -55.739 -24.021  1.00  0.00     0.170 HD
ENDROOT
BRANCH   1   5
ATOM      5  C   UNL     1      10.440 -54.555 -22.996  1.00  0.00     0.042 A 
ATOM      6  N   UNL     1      12.329 -50.860 -22.254  1.00  0.00    -0.339 N 
ATOM      7  C   UNL     1      11.703 -52.077 -22.488  1.00  0.00     0.053 A 
ATOM      8  C   UNL     1      13.228 -50.316 -23.148  1.00  0.00     0.144 A 
ATOM      9  C   UNL     1      10.799 -52.617 -21.574  1.00  0.00     0.029 A 
ATOM     10  C   UNL     1      11.970 -52.787 -23.662  1.00  0.00     0.066 A 
ATOM     11  C   UNL     1      13.819 -49.134 -22.876  1.00  0.00     0.113 A 
ATOM     12  N   UNL     1      13.530 -50.995 -24.346  1.00  0.00    -0.267 N 
ATOM     13  C   UNL     1      10.171 -53.845 -21.825  1.00  0.00     0.028 A 
ATOM     14  C   UNL     1      11.346 -54.017 -23.915  1.00  0.00     0.042 A 
ATOM     15  C   UNL     1      12.931 -52.226 -24.652  1.00  0.00     0.265 A 
ATOM     16  N   UNL     1      13.664 -48.320 -21.774  1.00  0.00    -0.244 NA
ATOM     17  C   UNL     1      14.762 -48.552 -23.802  1.00  0.00     0.015 A 
ATOM     18  C   UNL     1      14.447 -50.413 -25.233  1.00  0.00     0.097 A 
ATOM     19  C   UNL     1      14.460 -47.324 -22.029  1.00  0.00     0.072 A 
ATOM     20  C   UNL     1      15.070 -49.239 -25.022  1.00  0.00     0.029 A 
ATOM     21  C   UNL     1      15.202 -47.395 -23.311  1.00  0.00     0.010 A 
ATOM     22  C   UNL     1      14.708 -46.134 -21.190  1.00  0.00     0.029 A 
ATOM     23  C   UNL     1      16.109 -46.367 -23.713  1.00  0.00     0.011 A 
ATOM     24  C   UNL     1      15.575 -45.205 -21.629  1.00  0.00     0.002 A 
ATOM     25  C   UNL     1      16.283 -45.315 -22.896  1.00  0.00     0.001 A 
ATOM     26  H   UNL     1      12.169 -50.321 -21.410  1.00  0.00     0.168 HD
ATOM     27  O   UNL     1      13.147 -52.870 -25.680  1.00  0.00    -0.268 OA
ENDBRANCH   1   5
BRANCH   2  28
ATOM     28  C   UNL     1       9.354 -58.192 -23.386  1.00  0.00     0.363 C 
BRANCH  28  29
ATOM     29  N   UNL     1      10.047 -59.532 -23.117  1.00  0.00    -0.327 N 
ATOM     30  C   UNL     1      10.790 -60.060 -24.310  1.00  0.00     0.262 C 
ATOM     31  C   UNL     1       9.112 -60.547 -22.507  1.00  0.00     0.262 C 
ATOM     32  C   UNL     1      11.579 -61.299 -23.912  1.00  0.00     0.062 C 
ATOM     33  C   UNL     1       9.901 -61.783 -22.100  1.00  0.00     0.062 C 
ATOM     34  C   UNL     1      10.688 -62.359 -23.273  1.00  0.00     0.012 C 
ATOM     35  H   UNL     1      10.735 -59.302 -22.376  1.00  0.00     0.348 HD
ENDBRANCH  28  29
ENDBRANCH   2  28
TORSDOF 3
ENDMDL
MODEL 5
REMARK VINA RESULT:   -10.881      2.383     10.780
REMARK INTER + INTRA:         -13.167
REMARK INTER:                 -12.743
REMARK INTRA:                  -0.424
REMARK UNBOUND:                -0.378
REMARK SMILES O=C(C[NH+]1CCCCC1)Nc1ccc2[nH]c3c4nc5ccccc5c-4ccn3c(=O)c2c1
REMARK SMILES IDX 10 1 2 2 1 3 11 5 15 6 14 7 16 8 13 9 31 10 17 11 28 12
REMARK SMILES IDX 12 13 32 14 29 15 18 16 25 17 27 18 19 19 26 20 24 21 20 22
REMARK SMILES IDX 23 23 21 24 22 25 30 27 3 28 4 29 5 30 9 31 6 32 8 33 7 34
REMARK H PARENT 10 4 15 26 4 35
ROOT
ATOM      1  N   UNL     1      13.345 -48.424 -24.978  1.00  0.00    -0.321 N 
ATOM      2  C   UNL     1      14.222 -47.702 -24.197  1.00  0.00     0.279 C 
ATOM      3  O   UNL     1      15.036 -48.133 -23.383  1.00  0.00    -0.268 OA
ATOM      4  H   UNL     1      12.718 -47.922 -25.599  1.00  0.00     0.170 HD
ENDROOT
BRANCH   1   5
ATOM      5  C   UNL     1      13.197 -49.830 -25.013  1.00  0.00     0.042 A 
ATOM      6  N   UNL     1      12.605 -54.002 -24.873  1.00  0.00    -0.339 N 
ATOM      7  C   UNL     1      12.807 -52.629 -24.927  1.00  0.00     0.053 A 
ATOM      8  C   UNL     1      11.925 -54.600 -23.832  1.00  0.00     0.144 A 
ATOM      9  C   UNL     1      13.500 -52.038 -25.983  1.00  0.00     0.029 A 
ATOM     10  C   UNL     1      12.308 -51.808 -23.913  1.00  0.00     0.066 A 
ATOM     11  C   UNL     1      11.760 -55.939 -23.817  1.00  0.00     0.113 A 
ATOM     12  N   UNL     1      11.403 -53.813 -22.785  1.00  0.00    -0.267 N 
ATOM     13  C   UNL     1      13.693 -50.650 -26.027  1.00  0.00     0.028 A 
ATOM     14  C   UNL     1      12.501 -50.419 -23.952  1.00  0.00     0.042 A 
ATOM     15  C   UNL     1      11.563 -52.420 -22.777  1.00  0.00     0.265 A 
ATOM     16  N   UNL     1      12.188 -56.877 -24.731  1.00  0.00    -0.244 NA
ATOM     17  C   UNL     1      11.049 -56.580 -22.734  1.00  0.00     0.015 A 
ATOM     18  C   UNL     1      10.715 -54.454 -21.745  1.00  0.00     0.097 A 
ATOM     19  C   UNL     1      11.762 -57.997 -24.226  1.00  0.00     0.072 A 
ATOM     20  C   UNL     1      10.516 -55.782 -21.669  1.00  0.00     0.029 A 
ATOM     21  C   UNL     1      11.021 -57.895 -22.946  1.00  0.00     0.010 A 
ATOM     22  C   UNL     1      11.930 -59.355 -24.782  1.00  0.00     0.029 A 
ATOM     23  C   UNL     1      10.498 -59.048 -22.285  1.00  0.00     0.011 A 
ATOM     24  C   UNL     1      11.412 -60.397 -24.107  1.00  0.00     0.002 A 
ATOM     25  C   UNL     1      10.691 -60.251 -22.851  1.00  0.00     0.001 A 
ATOM     26  H   UNL     1      12.961 -54.631 -25.584  1.00  0.00     0.168 HD
ATOM     27  O   UNL     1      11.130 -51.673 -21.898  1.00  0.00    -0.268 OA
ENDBRANCH   1   5
BRANCH   2  28
ATOM     28  C   UNL     1      14.141 -46.184 -24.401  1.00  0.00     0.363 C 
BRANCH  28  29
ATOM     29  N   UNL     1      12.750 -45.667 -24.020  1.00  0.00    -0.327 N 
ATOM     30  C   UNL     1      12.526 -44.236 -24.416  1.00  0.00     0.262 C 
ATOM     31  C   UNL     1      12.414 -45.940 -22.575  1.00  0.00     0.262 C 
ATOM     32  C   UNL     1      11.076 -43.856 -24.153  1.00  0.00     0.062 C 
ATOM     33  C   UNL     1      10.962 -45.569 -22.314  1.00  0.00     0.062 C 
ATOM     34  C   UNL     1      10.671 -44.125 -22.708  1.00  0.00     0.012 C 
ATOM     35  H   UNL     1      12.111 -46.266 -24.576  1.00  0.00     0.348 HD
ENDBRANCH  28  29
ENDBRANCH   2  28
TORSDOF 3
ENDMDL
MODEL 6
REMARK VINA RESULT:   -10.873      2.159     10.301
REMARK INTER + INTRA:         -13.158
REMARK INTER:                 -12.811
REMARK INTRA:                  -0.347
REMARK UNBOUND:                -0.378
REMARK SMILES O=C(C[NH+]1CCCCC1)Nc1ccc2[nH]c3c4nc5ccccc5c-4ccn3c(=O)c2c1
REMARK SMILES IDX 10 1 2 2 1 3 11 5 15 6 14 7 16 8 13 9 31 10 17 11 28 12
REMARK SMILES IDX 12 13 32 14 29 15 18 16 25 17 27 18 19 19 26 20 24 21 20 22
REMARK SMILES IDX 23 23 21 24 22 25 30 27 3 28 4 29 5 30 9 31 6 32 8 33 7 34
REMARK H PARENT 10 4 15 26 4 35
ROOT
ATOM      1  N   UNL     1      11.655 -50.134 -22.638  1.00  0.00    -0.321 N 
ATOM      2  C   UNL     1      10.740 -49.103 -22.603  1.00  0.00     0.279 C 
ATOM      3  O   UNL     1       9.530 -49.177 -22.394  1.00  0.00    -0.268 OA
ATOM      4  H   UNL     1      12.626 -49.916 -22.839  1.00  0.00     0.170 HD
ENDROOT
BRANCH   1   5
ATOM      5  C   UNL     1      11.396 -51.508 -22.432  1.00  0.00     0.042 A 
ATOM      6  N   UNL     1      10.761 -55.660 -22.065  1.00  0.00    -0.339 N 
ATOM      7  C   UNL     1      10.963 -54.291 -22.177  1.00  0.00     0.053 A 
ATOM      8  C   UNL     1      11.182 -56.544 -23.037  1.00  0.00     0.144 A 
ATOM      9  C   UNL     1      10.529 -53.408 -21.189  1.00  0.00     0.029 A 
ATOM     10  C   UNL     1      11.619 -53.770 -23.296  1.00  0.00     0.066 A 
ATOM     11  C   UNL     1      10.956 -57.866 -22.890  1.00  0.00     0.113 A 
ATOM     12  N   UNL     1      11.847 -56.066 -24.184  1.00  0.00    -0.267 N 
ATOM     13  C   UNL     1      10.744 -52.028 -21.313  1.00  0.00     0.028 A 
ATOM     14  C   UNL     1      11.834 -52.390 -23.425  1.00  0.00     0.042 A 
ATOM     15  C   UNL     1      12.093 -54.697 -24.362  1.00  0.00     0.265 A 
ATOM     16  N   UNL     1      10.329 -58.529 -21.857  1.00  0.00    -0.244 NA
ATOM     17  C   UNL     1      11.392 -58.803 -23.899  1.00  0.00     0.015 A 
ATOM     18  C   UNL     1      12.264 -56.992 -25.151  1.00  0.00     0.097 A 
ATOM     19  C   UNL     1      10.388 -59.774 -22.227  1.00  0.00     0.072 A 
ATOM     20  C   UNL     1      12.070 -58.321 -25.066  1.00  0.00     0.029 A 
ATOM     21  C   UNL     1      11.054 -60.037 -23.526  1.00  0.00     0.010 A 
ATOM     22  C   UNL     1       9.870 -60.953 -21.504  1.00  0.00     0.029 A 
ATOM     23  C   UNL     1      11.187 -61.359 -24.050  1.00  0.00     0.011 A 
ATOM     24  C   UNL     1      10.029 -62.169 -22.055  1.00  0.00     0.002 A 
ATOM     25  C   UNL     1      10.690 -62.382 -23.334  1.00  0.00     0.001 A 
ATOM     26  H   UNL     1      10.280 -56.074 -21.274  1.00  0.00     0.168 HD
ATOM     27  O   UNL     1      12.671 -54.212 -25.336  1.00  0.00    -0.268 OA
ENDBRANCH   1   5
BRANCH   2  28
ATOM     28  C   UNL     1      11.343 -47.717 -22.860  1.00  0.00     0.363 C 
BRANCH  28  29
ATOM     29  N   UNL     1      12.751 -47.848 -23.450  1.00  0.00    -0.327 N 
ATOM     30  C   UNL     1      13.763 -46.987 -22.752  1.00  0.00     0.262 C 
ATOM     31  C   UNL     1      12.761 -47.677 -24.949  1.00  0.00     0.262 C 
ATOM     32  C   UNL     1      15.153 -47.298 -23.287  1.00  0.00     0.062 C 
ATOM     33  C   UNL     1      14.149 -47.997 -25.486  1.00  0.00     0.062 C 
ATOM     34  C   UNL     1      15.223 -47.157 -24.804  1.00  0.00     0.012 C 
ATOM     35  H   UNL     1      12.992 -48.842 -23.279  1.00  0.00     0.348 HD
ENDBRANCH  28  29
ENDBRANCH   2  28
TORSDOF 3
ENDMDL
MODEL 7
REMARK VINA RESULT:   -10.810      1.763      2.750
REMARK INTER + INTRA:         -13.083
REMARK INTER:                 -12.962
REMARK INTRA:                  -0.121
REMARK UNBOUND:                -0.378
REMARK SMILES O=C(C[NH+]1CCCCC1)Nc1ccc2[nH]c3c4nc5ccccc5c-4ccn3c(=O)c2c1
REMARK SMILES IDX 10 1 2 2 1 3 11 5 15 6 14 7 16 8 13 9 31 10 17 11 28 12
REMARK SMILES IDX 12 13 32 14 29 15 18 16 25 17 27 18 19 19 26 20 24 21 20 22
REMARK SMILES IDX 23 23 21 24 22 25 30 27 3 28 4 29 5 30 9 31 6 32 8 33 7 34
REMARK H PARENT 10 4 15 26 4 35
ROOT
ATOM      1  N   UNL     1      10.544 -56.640 -22.953  1.00  0.00    -0.321 N 
ATOM      2  C   UNL     1      11.068 -57.914 -22.933  1.00  0.00     0.279 C 
ATOM      3  O   UNL     1      12.141 -58.295 -23.401  1.00  0.00    -0.268 OA
ATOM      4  H   UNL     1       9.633 -56.482 -22.535  1.00  0.00     0.170 HD
ENDROOT
BRANCH   1   5
ATOM      5  C   UNL     1      11.136 -55.485 -23.516  1.00  0.00     0.042 A 
ATOM      6  N   UNL     1      12.791 -51.893 -24.975  1.00  0.00    -0.339 N 
ATOM      7  C   UNL     1      12.248 -53.081 -24.504  1.00  0.00     0.053 A 
ATOM      8  C   UNL     1      12.585 -50.689 -24.332  1.00  0.00     0.144 A 
ATOM      9  C   UNL     1      12.461 -54.290 -25.166  1.00  0.00     0.029 A 
ATOM     10  C   UNL     1      11.474 -53.084 -23.340  1.00  0.00     0.066 A 
ATOM     11  C   UNL     1      13.125 -49.558 -24.831  1.00  0.00     0.113 A 
ATOM     12  N   UNL     1      11.811 -50.641 -23.155  1.00  0.00    -0.267 N 
ATOM     13  C   UNL     1      11.911 -55.483 -24.677  1.00  0.00     0.028 A 
ATOM     14  C   UNL     1      10.920 -54.275 -22.849  1.00  0.00     0.042 A 
ATOM     15  C   UNL     1      11.237 -51.803 -22.617  1.00  0.00     0.265 A 
ATOM     16  N   UNL     1      13.903 -49.390 -25.956  1.00  0.00    -0.244 NA
ATOM     17  C   UNL     1      12.919 -48.291 -24.168  1.00  0.00     0.015 A 
ATOM     18  C   UNL     1      11.624 -49.402 -22.526  1.00  0.00     0.097 A 
ATOM     19  C   UNL     1      14.141 -48.112 -25.962  1.00  0.00     0.072 A 
ATOM     20  C   UNL     1      12.133 -48.239 -22.970  1.00  0.00     0.029 A 
ATOM     21  C   UNL     1      13.547 -47.333 -24.849  1.00  0.00     0.010 A 
ATOM     22  C   UNL     1      14.936 -47.350 -26.947  1.00  0.00     0.029 A 
ATOM     23  C   UNL     1      13.731 -45.921 -24.736  1.00  0.00     0.011 A 
ATOM     24  C   UNL     1      15.069 -46.023 -26.779  1.00  0.00     0.002 A 
ATOM     25  C   UNL     1      14.467 -45.297 -25.670  1.00  0.00     0.001 A 
ATOM     26  H   UNL     1      13.348 -51.849 -25.820  1.00  0.00     0.168 HD
ATOM     27  O   UNL     1      10.554 -51.834 -21.592  1.00  0.00    -0.268 OA
ENDBRANCH   1   5
BRANCH   2  28
ATOM     28  C   UNL     1      10.179 -58.950 -22.235  1.00  0.00     0.363 C 
BRANCH  28  29
ATOM     29  N   UNL     1      10.161 -60.261 -23.028  1.00  0.00    -0.327 N 
ATOM     30  C   UNL     1       9.182 -60.247 -24.166  1.00  0.00     0.262 C 
ATOM     31  C   UNL     1      10.013 -61.467 -22.134  1.00  0.00     0.262 C 
ATOM     32  C   UNL     1       9.346 -61.513 -24.994  1.00  0.00     0.062 C 
ATOM     33  C   UNL     1      10.186 -62.734 -22.960  1.00  0.00     0.062 C 
ATOM     34  C   UNL     1       9.221 -62.771 -24.141  1.00  0.00     0.012 C 
ATOM     35  H   UNL     1      11.120 -60.317 -23.420  1.00  0.00     0.348 HD
ENDBRANCH  28  29
ENDBRANCH   2  28
TORSDOF 3
ENDMDL
MODEL 8
REMARK VINA RESULT:    -9.698      4.205     12.227
REMARK INTER + INTRA:         -11.776
REMARK INTER:                 -11.406
REMARK INTRA:                  -0.370
REMARK UNBOUND:                -0.378
REMARK SMILES O=C(C[NH+]1CCCCC1)Nc1ccc2[nH]c3c4nc5ccccc5c-4ccn3c(=O)c2c1
REMARK SMILES IDX 10 1 2 2 1 3 11 5 15 6 14 7 16 8 13 9 31 10 17 11 28 12
REMARK SMILES IDX 12 13 32 14 29 15 18 16 25 17 27 18 19 19 26 20 24 21 20 22
REMARK SMILES IDX 23 23 21 24 22 25 30 27 3 28 4 29 5 30 9 31 6 32 8 33 7 34
REMARK H PARENT 10 4 15 26 4 35
ROOT
ATOM      1  N   UNL     1      12.899 -43.616 -23.565  1.00  0.00    -0.321 N 
ATOM      2  C   UNL     1      13.571 -42.742 -22.738  1.00  0.00     0.279 C 
ATOM      3  O   UNL     1      13.956 -42.940 -21.586  1.00  0.00    -0.268 OA
ATOM      4  H   UNL     1      12.633 -43.300 -24.492  1.00  0.00     0.170 HD
ENDROOT
BRANCH   1   5
ATOM      5  C   UNL     1      12.510 -44.941 -23.265  1.00  0.00     0.042 A 
ATOM      6  N   UNL     1      11.514 -48.981 -22.589  1.00  0.00    -0.339 N 
ATOM      7  C   UNL     1      11.834 -47.648 -22.805  1.00  0.00     0.053 A 
ATOM      8  C   UNL     1      12.007 -49.991 -23.391  1.00  0.00     0.144 A 
ATOM      9  C   UNL     1      11.325 -46.638 -21.989  1.00  0.00     0.029 A 
ATOM     10  C   UNL     1      12.686 -47.294 -23.854  1.00  0.00     0.066 A 
ATOM     11  C   UNL     1      11.662 -51.273 -23.149  1.00  0.00     0.113 A 
ATOM     12  N   UNL     1      12.870 -49.683 -24.462  1.00  0.00    -0.267 N 
ATOM     13  C   UNL     1      11.660 -45.295 -22.216  1.00  0.00     0.028 A 
ATOM     14  C   UNL     1      13.022 -45.952 -24.085  1.00  0.00     0.042 A 
ATOM     15  C   UNL     1      13.242 -48.359 -24.735  1.00  0.00     0.265 A 
ATOM     16  N   UNL     1      10.840 -51.780 -22.166  1.00  0.00    -0.244 NA
ATOM     17  C   UNL     1      12.171 -52.340 -23.979  1.00  0.00     0.015 A 
ATOM     18  C   UNL     1      13.354 -50.733 -25.255  1.00  0.00     0.097 A 
ATOM     19  C   UNL     1      10.859 -53.060 -22.397  1.00  0.00     0.072 A 
ATOM     20  C   UNL     1      13.050 -52.030 -25.069  1.00  0.00     0.029 A 
ATOM     21  C   UNL     1      11.690 -53.503 -23.542  1.00  0.00     0.010 A 
ATOM     22  C   UNL     1      10.151 -54.118 -21.649  1.00  0.00     0.029 A 
ATOM     23  C   UNL     1      11.799 -54.880 -23.904  1.00  0.00     0.011 A 
ATOM     24  C   UNL     1      10.298 -55.395 -22.044  1.00  0.00     0.002 A 
ATOM     25  C   UNL     1      11.125 -55.786 -23.177  1.00  0.00     0.001 A 
ATOM     26  H   UNL     1      10.891 -49.277 -21.846  1.00  0.00     0.168 HD
ATOM     27  O   UNL     1      13.994 -48.020 -25.651  1.00  0.00    -0.268 OA
ENDBRANCH   1   5
BRANCH   2  28
ATOM     28  C   UNL     1      13.854 -41.372 -23.366  1.00  0.00     0.363 C 
BRANCH  28  29
ATOM     29  N   UNL     1      12.680 -40.936 -24.248  1.00  0.00    -0.327 N 
ATOM     30  C   UNL     1      13.111 -40.436 -25.597  1.00  0.00     0.262 C 
ATOM     31  C   UNL     1      11.751 -39.985 -23.534  1.00  0.00     0.262 C 
ATOM     32  C   UNL     1      11.885 -40.182 -26.462  1.00  0.00     0.062 C 
ATOM     33  C   UNL     1      10.521 -39.737 -24.395  1.00  0.00     0.062 C 
ATOM     34  C   UNL     1      10.898 -39.237 -25.785  1.00  0.00     0.012 C 
ATOM     35  H   UNL     1      12.140 -41.811 -24.379  1.00  0.00     0.348 HD
ENDBRANCH  28  29
ENDBRANCH   2  28
TORSDOF 3
ENDMDL
MODEL 9
REMARK VINA RESULT:    -9.284      4.224     12.414
REMARK INTER + INTRA:         -11.290
REMARK INTER:                 -10.914
REMARK INTRA:                  -0.376
REMARK UNBOUND:                -0.378
REMARK SMILES O=C(C[NH+]1CCCCC1)Nc1ccc2[nH]c3c4nc5ccccc5c-4ccn3c(=O)c2c1
REMARK SMILES IDX 10 1 2 2 1 3 11 5 15 6 14 7 16 8 13 9 31 10 17 11 28 12
REMARK SMILES IDX 12 13 32 14 29 15 18 16 25 17 27 18 19 19 26 20 24 21 20 22
REMARK SMILES IDX 23 23 21 24 22 25 30 27 3 28 4 29 5 30 9 31 6 32 8 33 7 34
REMARK H PARENT 10 4 15 26 4 35
ROOT
ATOM      1  N   UNL     1      12.920 -43.798 -23.763  1.00  0.00    -0.321 N 
ATOM      2  C   UNL     1      12.145 -42.810 -24.331  1.00  0.00     0.279 C 
ATOM      3  O   UNL     1      10.966 -42.883 -24.675  1.00  0.00    -0.268 OA
ATOM      4  H   UNL     1      13.889 -43.591 -23.545  1.00  0.00     0.170 HD
ENDROOT
BRANCH   1   5
ATOM      5  C   UNL     1      12.521 -45.117 -23.446  1.00  0.00     0.042 A 
ATOM      6  N   UNL     1      11.496 -49.141 -22.715  1.00  0.00    -0.339 N 
ATOM      7  C   UNL     1      11.825 -47.813 -22.949  1.00  0.00     0.053 A 
ATOM      8  C   UNL     1      11.990 -50.165 -23.497  1.00  0.00     0.144 A 
ATOM      9  C   UNL     1      11.316 -46.787 -22.153  1.00  0.00     0.029 A 
ATOM     10  C   UNL     1      12.688 -47.479 -23.996  1.00  0.00     0.066 A 
ATOM     11  C   UNL     1      11.636 -51.441 -23.238  1.00  0.00     0.113 A 
ATOM     12  N   UNL     1      12.864 -49.879 -24.566  1.00  0.00    -0.267 N 
ATOM     13  C   UNL     1      11.661 -45.449 -22.398  1.00  0.00     0.028 A 
ATOM     14  C   UNL     1      13.034 -46.143 -24.246  1.00  0.00     0.042 A 
ATOM     15  C   UNL     1      13.245 -48.561 -24.856  1.00  0.00     0.265 A 
ATOM     16  N   UNL     1      10.803 -51.928 -22.254  1.00  0.00    -0.244 NA
ATOM     17  C   UNL     1      12.145 -52.524 -24.047  1.00  0.00     0.015 A 
ATOM     18  C   UNL     1      13.348 -50.944 -25.338  1.00  0.00     0.097 A 
ATOM     19  C   UNL     1      10.817 -53.211 -22.464  1.00  0.00     0.072 A 
ATOM     20  C   UNL     1      13.035 -52.237 -25.134  1.00  0.00     0.029 A 
ATOM     21  C   UNL     1      11.654 -53.677 -23.596  1.00  0.00     0.010 A 
ATOM     22  C   UNL     1      10.097 -54.254 -21.705  1.00  0.00     0.029 A 
ATOM     23  C   UNL     1      11.758 -55.060 -23.936  1.00  0.00     0.011 A 
ATOM     24  C   UNL     1      10.240 -55.538 -22.080  1.00  0.00     0.002 A 
ATOM     25  C   UNL     1      11.073 -55.951 -23.200  1.00  0.00     0.001 A 
ATOM     26  H   UNL     1      10.866 -49.421 -21.972  1.00  0.00     0.168 HD
ATOM     27  O   UNL     1      14.006 -48.241 -25.771  1.00  0.00    -0.268 OA
ENDBRANCH   1   5
BRANCH   2  28
ATOM     28  C   UNL     1      12.875 -41.479 -24.540  1.00  0.00     0.363 C 
BRANCH  28  29
ATOM     29  N   UNL     1      13.086 -40.768 -23.200  1.00  0.00    -0.327 N 
ATOM     30  C   UNL     1      12.250 -39.530 -23.053  1.00  0.00     0.262 C 
ATOM     31  C   UNL     1      14.546 -40.535 -22.899  1.00  0.00     0.262 C 
ATOM     32  C   UNL     1      12.394 -38.982 -21.640  1.00  0.00     0.062 C 
ATOM     33  C   UNL     1      14.692 -39.996 -21.484  1.00  0.00     0.062 C 
ATOM     34  C   UNL     1      13.854 -38.740 -21.271  1.00  0.00     0.012 C 
ATOM     35  H   UNL     1      12.763 -41.467 -22.504  1.00  0.00     0.348 HD
ENDBRANCH  28  29
ENDBRANCH   2  28
TORSDOF 3
ENDMDL
