MODEL 1
REMARK VINA RESULT:    -8.253      0.000      0.000
REMARK INTER + INTRA:         -10.465
REMARK INTER:                 -10.183
REMARK INTRA:                  -0.281
REMARK UNBOUND:                -0.281
REMARK SMILES COc1ccc2c(c1)CC[C@H](NS(=O)(=O)N(C)C)C2
REMARK SMILES IDX 12 1 11 3 3 4 4 5 8 6 5 7 7 8 6 9 9 10 19 11 10 12 2 13 1 14
REMARK SMILES IDX 13 15 14 16 15 17 16 18 17 19 18 20
REMARK H PARENT 12 2
ROOT
ATOM      1  N   UNL     1      11.000 -57.198 -23.495  1.00  0.00    -0.199 NA
ATOM      2  H   UNL     1      11.413 -57.390 -24.409  1.00  0.00     0.142 HD
ENDROOT
BRANCH   1   3
ATOM      3  C   UNL     1      10.739 -55.748 -23.282  1.00  0.00     0.075 C 
ATOM      4  C   UNL     1      11.883 -50.734 -22.801  1.00  0.00     0.119 A 
ATOM      5  C   UNL     1      12.448 -51.132 -24.010  1.00  0.00     0.047 A 
ATOM      6  C   UNL     1      11.261 -51.688 -21.993  1.00  0.00     0.050 A 
ATOM      7  C   UNL     1      12.385 -52.471 -24.405  1.00  0.00     0.008 A 
ATOM      8  C   UNL     1      11.200 -53.038 -22.373  1.00  0.00    -0.041 A 
ATOM      9  C   UNL     1      11.754 -53.431 -23.602  1.00  0.00    -0.043 A 
ATOM     10  C   UNL     1      10.490 -54.021 -21.478  1.00  0.00     0.037 C 
ATOM     11  C   UNL     1      11.732 -54.870 -24.058  1.00  0.00     0.056 C 
ATOM     12  C   UNL     1      10.854 -55.471 -21.781  1.00  0.00     0.025 C 
BRANCH   4  13
ATOM     13  O   UNL     1      11.869 -49.462 -22.298  1.00  0.00    -0.497 OA
ATOM     14  C   UNL     1      10.820 -48.608 -22.740  1.00  0.00     0.278 C 
ENDBRANCH   4  13
ENDBRANCH   1   3
BRANCH   1  15
ATOM     15  S   UNL     1       9.691 -58.227 -23.304  1.00  0.00     0.279 S 
ATOM     16  O   UNL     1       9.881 -59.029 -22.122  1.00  0.00    -0.195 OA
ATOM     17  O   UNL     1       8.509 -57.427 -23.514  1.00  0.00    -0.195 OA
BRANCH  15  18
ATOM     18  N   UNL     1       9.937 -59.195 -24.666  1.00  0.00    -0.195 NA
ATOM     19  C   UNL     1      11.319 -59.701 -24.822  1.00  0.00     0.125 C 
ATOM     20  C   UNL     1       8.947 -60.287 -24.794  1.00  0.00     0.125 C 
ENDBRANCH  15  18
ENDBRANCH   1  15
TORSDOF 4
ENDMDL
MODEL 2
REMARK VINA RESULT:    -8.241      2.356      3.223
REMARK INTER + INTRA:         -10.449
REMARK INTER:                 -10.144
REMARK INTRA:                  -0.305
REMARK UNBOUND:                -0.281
REMARK SMILES COc1ccc2c(c1)CC[C@H](NS(=O)(=O)N(C)C)C2
REMARK SMILES IDX 12 1 11 3 3 4 4 5 8 6 5 7 7 8 6 9 9 10 19 11 10 12 2 13 1 14
REMARK SMILES IDX 13 15 14 16 15 17 16 18 17 19 18 20
REMARK H PARENT 12 2
ROOT
ATOM      1  N   UNL     1      12.045 -59.904 -23.661  1.00  0.00    -0.199 NA
ATOM      2  H   UNL     1      12.723 -59.689 -24.393  1.00  0.00     0.142 HD
ENDROOT
BRANCH   1   3
ATOM      3  C   UNL     1      11.378 -58.686 -23.126  1.00  0.00     0.075 C 
ATOM      4  C   UNL     1      10.828 -53.674 -22.004  1.00  0.00     0.119 A 
ATOM      5  C   UNL     1      11.121 -53.722 -23.365  1.00  0.00     0.047 A 
ATOM      6  C   UNL     1      10.830 -54.858 -21.264  1.00  0.00     0.050 A 
ATOM      7  C   UNL     1      11.408 -54.946 -23.976  1.00  0.00     0.008 A 
ATOM      8  C   UNL     1      11.128 -56.092 -21.863  1.00  0.00    -0.041 A 
ATOM      9  C   UNL     1      11.402 -56.139 -23.239  1.00  0.00    -0.043 A 
ATOM     10  C   UNL     1      11.086 -57.343 -21.025  1.00  0.00     0.037 C 
ATOM     11  C   UNL     1      11.742 -57.434 -23.938  1.00  0.00     0.056 C 
ATOM     12  C   UNL     1      11.818 -58.516 -21.670  1.00  0.00     0.025 C 
BRANCH   4  13
ATOM     13  O   UNL     1      10.526 -52.550 -21.284  1.00  0.00    -0.497 OA
ATOM     14  C   UNL     1      10.399 -51.335 -22.013  1.00  0.00     0.278 C 
ENDBRANCH   4  13
ENDBRANCH   1   3
BRANCH   1  15
ATOM     15  S   UNL     1      11.037 -61.110 -24.243  1.00  0.00     0.279 S 
ATOM     16  O   UNL     1      11.054 -61.094 -25.685  1.00  0.00    -0.195 OA
ATOM     17  O   UNL     1      11.335 -62.296 -23.479  1.00  0.00    -0.195 OA
BRANCH  15  18
ATOM     18  N   UNL     1       9.564 -60.479 -23.708  1.00  0.00    -0.195 NA
ATOM     19  C   UNL     1       8.640 -60.066 -24.788  1.00  0.00     0.125 C 
ATOM     20  C   UNL     1       8.882 -61.345 -22.719  1.00  0.00     0.125 C 
ENDBRANCH  15  18
ENDBRANCH   1  15
TORSDOF 4
ENDMDL
MODEL 3
REMARK VINA RESULT:    -8.175      4.558      8.480
REMARK INTER + INTRA:         -10.368
REMARK INTER:                 -10.050
REMARK INTRA:                  -0.318
REMARK UNBOUND:                -0.281
REMARK SMILES COc1ccc2c(c1)CC[C@H](NS(=O)(=O)N(C)C)C2
REMARK SMILES IDX 12 1 11 3 3 4 4 5 8 6 5 7 7 8 6 9 9 10 19 11 10 12 2 13 1 14
REMARK SMILES IDX 13 15 14 16 15 17 16 18 17 19 18 20
REMARK H PARENT 12 2
ROOT
ATOM      1  N   UNL     1      11.834 -48.541 -22.049  1.00  0.00    -0.199 NA
ATOM      2  H   UNL     1      11.529 -48.550 -21.075  1.00  0.00     0.142 HD
ENDROOT
BRANCH   1   3
ATOM      3  C   UNL     1      11.527 -49.816 -22.754  1.00  0.00     0.075 C 
ATOM      4  C   UNL     1      11.110 -54.928 -23.362  1.00  0.00     0.119 A 
ATOM      5  C   UNL     1      10.405 -54.631 -22.198  1.00  0.00     0.047 A 
ATOM      6  C   UNL     1      11.798 -53.907 -24.021  1.00  0.00     0.050 A 
ATOM      7  C   UNL     1      10.388 -53.324 -21.704  1.00  0.00     0.008 A 
ATOM      8  C   UNL     1      11.798 -52.592 -23.529  1.00  0.00    -0.041 A 
ATOM      9  C   UNL     1      11.070 -52.294 -22.367  1.00  0.00    -0.043 A 
ATOM     10  C   UNL     1      12.533 -51.523 -24.296  1.00  0.00     0.037 C 
ATOM     11  C   UNL     1      11.043 -50.902 -21.782  1.00  0.00     0.056 C 
ATOM     12  C   UNL     1      12.804 -50.274 -23.462  1.00  0.00     0.025 C 
BRANCH   4  13
ATOM     13  O   UNL     1      11.205 -56.157 -23.955  1.00  0.00    -0.497 OA
ATOM     14  C   UNL     1      11.455 -57.266 -23.099  1.00  0.00     0.278 C 
ENDBRANCH   4  13
ENDBRANCH   1   3
BRANCH   1  15
ATOM     15  S   UNL     1      11.241 -47.140 -22.752  1.00  0.00     0.279 S 
ATOM     16  O   UNL     1      11.059 -47.353 -24.166  1.00  0.00    -0.195 OA
ATOM     17  O   UNL     1      10.177 -46.672 -21.898  1.00  0.00    -0.195 OA
BRANCH  15  18
ATOM     18  N   UNL     1      12.594 -46.155 -22.518  1.00  0.00    -0.195 NA
ATOM     19  C   UNL     1      12.896 -45.848 -21.102  1.00  0.00     0.125 C 
ATOM     20  C   UNL     1      13.797 -46.636 -23.233  1.00  0.00     0.125 C 
ENDBRANCH  15  18
ENDBRANCH   1  15
TORSDOF 4
ENDMDL
MODEL 4
REMARK VINA RESULT:    -8.052      2.868      7.773
REMARK INTER + INTRA:         -10.217
REMARK INTER:                 -10.080
REMARK INTRA:                  -0.137
REMARK UNBOUND:                -0.281
REMARK SMILES COc1ccc2c(c1)CC[C@H](NS(=O)(=O)N(C)C)C2
REMARK SMILES IDX 12 1 11 3 3 4 4 5 8 6 5 7 7 8 6 9 9 10 19 11 10 12 2 13 1 14
REMARK SMILES IDX 13 15 14 16 15 17 16 18 17 19 18 20
REMARK H PARENT 12 2
ROOT
ATOM      1  N   UNL     1      11.170 -55.271 -22.212  1.00  0.00    -0.199 NA
ATOM      2  H   UNL     1      10.644 -55.007 -21.378  1.00  0.00     0.142 HD
ENDROOT
BRANCH   1   3
ATOM      3  C   UNL     1      10.968 -56.698 -22.585  1.00  0.00     0.075 C 
ATOM      4  C   UNL     1       8.421 -61.163 -23.097  1.00  0.00     0.119 A 
ATOM      5  C   UNL     1       7.617 -60.202 -23.705  1.00  0.00     0.047 A 
ATOM      6  C   UNL     1       9.594 -60.761 -22.452  1.00  0.00     0.050 A 
ATOM      7  C   UNL     1       7.988 -58.854 -23.671  1.00  0.00     0.008 A 
ATOM      8  C   UNL     1       9.972 -59.410 -22.402  1.00  0.00    -0.041 A 
ATOM      9  C   UNL     1       9.169 -58.448 -23.034  1.00  0.00    -0.043 A 
ATOM     10  C   UNL     1      11.263 -59.036 -21.720  1.00  0.00     0.037 C 
ATOM     11  C   UNL     1       9.517 -56.979 -23.002  1.00  0.00     0.056 C 
ATOM     12  C   UNL     1      11.342 -57.553 -21.372  1.00  0.00     0.025 C 
BRANCH   4  13
ATOM     13  O   UNL     1       8.180 -62.508 -23.059  1.00  0.00    -0.497 OA
ATOM     14  C   UNL     1       9.247 -63.340 -22.620  1.00  0.00     0.278 C 
ENDBRANCH   4  13
ENDBRANCH   1   3
BRANCH   1  15
ATOM     15  S   UNL     1      10.836 -54.137 -23.400  1.00  0.00     0.279 S 
ATOM     16  O   UNL     1      11.364 -54.595 -24.661  1.00  0.00    -0.195 OA
ATOM     17  O   UNL     1       9.454 -53.762 -23.231  1.00  0.00    -0.195 OA
BRANCH  15  18
ATOM     18  N   UNL     1      11.810 -52.883 -22.824  1.00  0.00    -0.195 NA
ATOM     19  C   UNL     1      12.503 -52.106 -23.875  1.00  0.00     0.125 C 
ATOM     20  C   UNL     1      11.113 -51.993 -21.869  1.00  0.00     0.125 C 
ENDBRANCH  15  18
ENDBRANCH   1  15
TORSDOF 4
ENDMDL
MODEL 5
REMARK VINA RESULT:    -7.900      1.606      2.457
REMARK INTER + INTRA:         -10.029
REMARK INTER:                  -9.777
REMARK INTRA:                  -0.252
REMARK UNBOUND:                -0.281
REMARK SMILES COc1ccc2c(c1)CC[C@H](NS(=O)(=O)N(C)C)C2
REMARK SMILES IDX 12 1 11 3 3 4 4 5 8 6 5 7 7 8 6 9 9 10 19 11 10 12 2 13 1 14
REMARK SMILES IDX 13 15 14 16 15 17 16 18 17 19 18 20
REMARK H PARENT 12 2
ROOT
ATOM      1  N   UNL     1      10.209 -56.120 -23.192  1.00  0.00    -0.199 NA
ATOM      2  H   UNL     1       9.443 -56.011 -22.526  1.00  0.00     0.142 HD
ENDROOT
BRANCH   1   3
ATOM      3  C   UNL     1      11.144 -54.962 -23.182  1.00  0.00     0.075 C 
ATOM      4  C   UNL     1      12.554 -49.993 -23.193  1.00  0.00     0.119 A 
ATOM      5  C   UNL     1      11.652 -50.123 -22.140  1.00  0.00     0.047 A 
ATOM      6  C   UNL     1      12.806 -51.094 -24.014  1.00  0.00     0.050 A 
ATOM      7  C   UNL     1      11.015 -51.346 -21.910  1.00  0.00     0.008 A 
ATOM      8  C   UNL     1      12.165 -52.325 -23.802  1.00  0.00    -0.041 A 
ATOM      9  C   UNL     1      11.272 -52.457 -22.726  1.00  0.00    -0.043 A 
ATOM     10  C   UNL     1      12.496 -53.489 -24.699  1.00  0.00     0.037 C 
ATOM     11  C   UNL     1      10.541 -53.750 -22.455  1.00  0.00     0.056 C 
ATOM     12  C   UNL     1      11.456 -54.603 -24.636  1.00  0.00     0.025 C 
BRANCH   4  13
ATOM     13  O   UNL     1      13.248 -48.862 -23.525  1.00  0.00    -0.497 OA
ATOM     14  C   UNL     1      13.035 -48.337 -24.830  1.00  0.00     0.278 C 
ENDBRANCH   4  13
ENDBRANCH   1   3
BRANCH   1  15
ATOM     15  S   UNL     1      10.890 -57.630 -22.936  1.00  0.00     0.279 S 
ATOM     16  O   UNL     1      11.754 -57.960 -24.042  1.00  0.00    -0.195 OA
ATOM     17  O   UNL     1      11.346 -57.646 -21.568  1.00  0.00    -0.195 OA
BRANCH  15  18
ATOM     18  N   UNL     1       9.483 -58.557 -23.048  1.00  0.00    -0.195 NA
ATOM     19  C   UNL     1       8.274 -57.799 -23.440  1.00  0.00     0.125 C 
ATOM     20  C   UNL     1       9.647 -59.773 -23.876  1.00  0.00     0.125 C 
ENDBRANCH  15  18
ENDBRANCH   1  15
TORSDOF 4
ENDMDL
MODEL 6
REMARK VINA RESULT:    -7.704      2.889      8.508
REMARK INTER + INTRA:          -9.787
REMARK INTER:                  -9.663
REMARK INTRA:                  -0.124
REMARK UNBOUND:                -0.281
REMARK SMILES COc1ccc2c(c1)CC[C@H](NS(=O)(=O)N(C)C)C2
REMARK SMILES IDX 12 1 11 3 3 4 4 5 8 6 5 7 7 8 6 9 9 10 19 11 10 12 2 13 1 14
REMARK SMILES IDX 13 15 14 16 15 17 16 18 17 19 18 20
REMARK H PARENT 12 2
ROOT
ATOM      1  N   UNL     1       9.541 -56.526 -23.361  1.00  0.00    -0.199 NA
ATOM      2  H   UNL     1       9.435 -56.218 -24.329  1.00  0.00     0.142 HD
ENDROOT
BRANCH   1   3
ATOM      3  C   UNL     1       8.994 -57.892 -23.136  1.00  0.00     0.075 C 
ATOM      4  C   UNL     1       7.924 -62.824 -24.238  1.00  0.00     0.119 A 
ATOM      5  C   UNL     1       9.296 -62.686 -24.436  1.00  0.00     0.047 A 
ATOM      6  C   UNL     1       7.167 -61.698 -23.904  1.00  0.00     0.050 A 
ATOM      7  C   UNL     1       9.901 -61.434 -24.295  1.00  0.00     0.008 A 
ATOM      8  C   UNL     1       7.761 -60.433 -23.771  1.00  0.00    -0.041 A 
ATOM      9  C   UNL     1       9.147 -60.303 -23.951  1.00  0.00    -0.043 A 
ATOM     10  C   UNL     1       6.903 -59.259 -23.380  1.00  0.00     0.037 C 
ATOM     11  C   UNL     1       9.840 -58.967 -23.835  1.00  0.00     0.056 C 
ATOM     12  C   UNL     1       7.563 -57.916 -23.677  1.00  0.00     0.025 C 
BRANCH   4  13
ATOM     13  O   UNL     1       7.208 -63.985 -24.338  1.00  0.00    -0.497 OA
ATOM     14  C   UNL     1       6.653 -64.291 -25.612  1.00  0.00     0.278 C 
ENDBRANCH   4  13
ENDBRANCH   1   3
BRANCH   1  15
ATOM     15  S   UNL     1      11.140 -56.282 -22.924  1.00  0.00     0.279 S 
ATOM     16  O   UNL     1      11.435 -57.048 -21.739  1.00  0.00    -0.195 OA
ATOM     17  O   UNL     1      11.917 -56.401 -24.134  1.00  0.00    -0.195 OA
BRANCH  15  18
ATOM     18  N   UNL     1      11.035 -54.649 -22.508  1.00  0.00    -0.195 NA
ATOM     19  C   UNL     1      11.384 -53.710 -23.598  1.00  0.00     0.125 C 
ATOM     20  C   UNL     1       9.745 -54.287 -21.879  1.00  0.00     0.125 C 
ENDBRANCH  15  18
ENDBRANCH   1  15
TORSDOF 4
ENDMDL
MODEL 7
REMARK VINA RESULT:    -7.535      1.805      2.188
REMARK INTER + INTRA:          -9.578
REMARK INTER:                 -10.105
REMARK INTRA:                   0.527
REMARK UNBOUND:                -0.281
REMARK SMILES COc1ccc2c(c1)CC[C@H](NS(=O)(=O)N(C)C)C2
REMARK SMILES IDX 12 1 11 3 3 4 4 5 8 6 5 7 7 8 6 9 9 10 19 11 10 12 2 13 1 14
REMARK SMILES IDX 13 15 14 16 15 17 16 18 17 19 18 20
REMARK H PARENT 12 2
ROOT
ATOM      1  N   UNL     1       9.703 -56.044 -23.254  1.00  0.00    -0.199 NA
ATOM      2  H   UNL     1       8.942 -56.205 -22.592  1.00  0.00     0.142 HD
ENDROOT
BRANCH   1   3
ATOM      3  C   UNL     1      10.068 -54.605 -23.365  1.00  0.00     0.075 C 
ATOM      4  C   UNL     1      13.195 -50.514 -23.772  1.00  0.00     0.119 A 
ATOM      5  C   UNL     1      13.563 -51.370 -24.807  1.00  0.00     0.047 A 
ATOM      6  C   UNL     1      12.217 -50.925 -22.864  1.00  0.00     0.050 A 
ATOM      7  C   UNL     1      12.953 -52.622 -24.932  1.00  0.00     0.008 A 
ATOM      8  C   UNL     1      11.604 -52.183 -22.971  1.00  0.00    -0.041 A 
ATOM      9  C   UNL     1      11.964 -53.034 -24.027  1.00  0.00    -0.043 A 
ATOM     10  C   UNL     1      10.533 -52.563 -21.981  1.00  0.00     0.037 C 
ATOM     11  C   UNL     1      11.351 -54.405 -24.187  1.00  0.00     0.056 C 
ATOM     12  C   UNL     1      10.262 -54.064 -21.947  1.00  0.00     0.025 C 
BRANCH   4  13
ATOM     13  O   UNL     1      13.705 -49.267 -23.539  1.00  0.00    -0.497 OA
ATOM     14  C   UNL     1      15.095 -49.185 -23.248  1.00  0.00     0.278 C 
ENDBRANCH   4  13
ENDBRANCH   1   3
BRANCH   1  15
ATOM     15  S   UNL     1      10.945 -57.100 -22.864  1.00  0.00     0.279 S 
ATOM     16  O   UNL     1      11.813 -57.260 -24.003  1.00  0.00    -0.195 OA
ATOM     17  O   UNL     1      11.434 -56.694 -21.569  1.00  0.00    -0.195 OA
BRANCH  15  18
ATOM     18  N   UNL     1      10.024 -58.504 -22.677  1.00  0.00    -0.195 NA
ATOM     19  C   UNL     1       8.731 -58.494 -23.396  1.00  0.00     0.125 C 
ATOM     20  C   UNL     1      10.784 -59.743 -22.955  1.00  0.00     0.125 C 
ENDBRANCH  15  18
ENDBRANCH   1  15
TORSDOF 4
ENDMDL
MODEL 8
REMARK VINA RESULT:    -7.141      4.785      8.473
REMARK INTER + INTRA:          -9.092
REMARK INTER:                  -8.801
REMARK INTRA:                  -0.291
REMARK UNBOUND:                -0.281
REMARK SMILES COc1ccc2c(c1)CC[C@H](NS(=O)(=O)N(C)C)C2
REMARK SMILES IDX 12 1 11 3 3 4 4 5 8 6 5 7 7 8 6 9 9 10 19 11 10 12 2 13 1 14
REMARK SMILES IDX 13 15 14 16 15 17 16 18 17 19 18 20
REMARK H PARENT 12 2
ROOT
ATOM      1  N   UNL     1      12.756 -48.259 -23.175  1.00  0.00    -0.199 NA
ATOM      2  H   UNL     1      12.730 -48.018 -24.167  1.00  0.00     0.142 HD
ENDROOT
BRANCH   1   3
ATOM      3  C   UNL     1      12.651 -49.725 -22.941  1.00  0.00     0.075 C 
ATOM      4  C   UNL     1      11.590 -54.653 -24.071  1.00  0.00     0.119 A 
ATOM      5  C   UNL     1      12.422 -54.206 -25.095  1.00  0.00     0.047 A 
ATOM      6  C   UNL     1      11.173 -53.751 -23.089  1.00  0.00     0.050 A 
ATOM      7  C   UNL     1      12.833 -52.870 -25.129  1.00  0.00     0.008 A 
ATOM      8  C   UNL     1      11.570 -52.405 -23.118  1.00  0.00    -0.041 A 
ATOM      9  C   UNL     1      12.425 -51.964 -24.141  1.00  0.00    -0.043 A 
ATOM     10  C   UNL     1      11.115 -51.483 -22.017  1.00  0.00     0.037 C 
ATOM     11  C   UNL     1      12.874 -50.525 -24.234  1.00  0.00     0.056 C 
ATOM     12  C   UNL     1      11.255 -50.008 -22.382  1.00  0.00     0.025 C 
BRANCH   4  13
ATOM     13  O   UNL     1      11.119 -55.927 -23.914  1.00  0.00    -0.497 OA
ATOM     14  C   UNL     1      11.061 -56.432 -22.586  1.00  0.00     0.278 C 
ENDBRANCH   4  13
ENDBRANCH   1   3
BRANCH   1  15
ATOM     15  S   UNL     1      14.086 -47.492 -22.502  1.00  0.00     0.279 S 
ATOM     16  O   UNL     1      15.106 -48.467 -22.210  1.00  0.00    -0.195 OA
ATOM     17  O   UNL     1      14.339 -46.327 -23.314  1.00  0.00    -0.195 OA
BRANCH  15  18
ATOM     18  N   UNL     1      13.375 -46.994 -21.052  1.00  0.00    -0.195 NA
ATOM     19  C   UNL     1      14.284 -47.002 -19.885  1.00  0.00     0.125 C 
ATOM     20  C   UNL     1      12.656 -45.706 -21.165  1.00  0.00     0.125 C 
ENDBRANCH  15  18
ENDBRANCH   1  15
TORSDOF 4
ENDMDL
MODEL 9
REMARK VINA RESULT:    -6.911      4.815      7.915
REMARK INTER + INTRA:          -8.809
REMARK INTER:                  -8.592
REMARK INTRA:                  -0.217
REMARK UNBOUND:                -0.281
REMARK SMILES COc1ccc2c(c1)CC[C@H](NS(=O)(=O)N(C)C)C2
REMARK SMILES IDX 12 1 11 3 3 4 4 5 8 6 5 7 7 8 6 9 9 10 19 11 10 12 2 13 1 14
REMARK SMILES IDX 13 15 14 16 15 17 16 18 17 19 18 20
REMARK H PARENT 12 2
ROOT
ATOM      1  N   UNL     1      14.639 -50.061 -25.176  1.00  0.00    -0.199 NA
ATOM      2  H   UNL     1      14.609 -49.351 -24.442  1.00  0.00     0.142 HD
ENDROOT
BRANCH   1   3
ATOM      3  C   UNL     1      13.518 -51.034 -25.073  1.00  0.00     0.075 C 
ATOM      4  C   UNL     1      10.402 -54.472 -22.803  1.00  0.00     0.119 A 
ATOM      5  C   UNL     1      10.375 -53.346 -21.984  1.00  0.00     0.047 A 
ATOM      6  C   UNL     1      11.248 -54.487 -23.914  1.00  0.00     0.050 A 
ATOM      7  C   UNL     1      11.185 -52.245 -22.280  1.00  0.00     0.008 A 
ATOM      8  C   UNL     1      12.075 -53.393 -24.216  1.00  0.00    -0.041 A 
ATOM      9  C   UNL     1      12.029 -52.252 -23.399  1.00  0.00    -0.043 A 
ATOM     10  C   UNL     1      12.946 -53.450 -25.443  1.00  0.00     0.037 C 
ATOM     11  C   UNL     1      12.905 -51.051 -23.664  1.00  0.00     0.056 C 
ATOM     12  C   UNL     1      14.070 -52.418 -25.423  1.00  0.00     0.025 C 
BRANCH   4  13
ATOM     13  O   UNL     1       9.661 -55.609 -22.633  1.00  0.00    -0.497 OA
ATOM     14  C   UNL     1      10.351 -56.848 -22.747  1.00  0.00     0.278 C 
ENDBRANCH   4  13
ENDBRANCH   1   3
BRANCH   1  15
ATOM     15  S   UNL     1      14.804 -49.266 -26.642  1.00  0.00     0.279 S 
ATOM     16  O   UNL     1      14.307 -50.108 -27.702  1.00  0.00    -0.195 OA
ATOM     17  O   UNL     1      14.325 -47.921 -26.434  1.00  0.00    -0.195 OA
BRANCH  15  18
ATOM     18  N   UNL     1      16.491 -49.233 -26.716  1.00  0.00    -0.195 NA
ATOM     19  C   UNL     1      17.154 -50.466 -26.235  1.00  0.00     0.125 C 
ATOM     20  C   UNL     1      17.011 -48.826 -28.040  1.00  0.00     0.125 C 
ENDBRANCH  15  18
ENDBRANCH   1  15
TORSDOF 4
ENDMDL
