MODEL 1
REMARK VINA RESULT:    -9.348      0.000      0.000
REMARK INTER + INTRA:         -14.267
REMARK INTER:                 -12.900
REMARK INTRA:                  -1.367
REMARK UNBOUND:                -1.367
REMARK SMILES COc1ccc([C@@H]2C=C(c3cc(F)ccc3F)NN2c2ccc(S(N)(=O)=O)cc2)cc1OC
REMARK SMILES IDX 20 1 21 2 22 3 23 4 28 5 29 6 19 7 18 8 9 9 8 10 7 11 10 13
REMARK SMILES IDX 11 14 16 15 12 16 15 17 14 18 17 19 13 20 6 21 5 22 30 23
REMARK SMILES IDX 4 24 31 25 3 26 32 27 33 28 2 29 1 30 24 31 26 32 27 33
REMARK SMILES IDX 25 34
REMARK H PARENT 18 12 25 35 25 36
ROOT
ATOM      1  C   UNL     1      12.821 -51.797 -24.744  1.00  0.00     0.058 A 
ATOM      2  C   UNL     1      12.857 -53.013 -25.453  1.00  0.00     0.029 A 
ATOM      3  C   UNL     1      12.265 -54.179 -24.954  1.00  0.00     0.024 A 
ATOM      4  C   UNL     1      11.618 -54.142 -23.723  1.00  0.00     0.082 A 
ATOM      5  C   UNL     1      11.538 -52.950 -23.004  1.00  0.00     0.024 A 
ATOM      6  C   UNL     1      12.135 -51.792 -23.517  1.00  0.00     0.029 A 
ENDROOT
BRANCH   1   7
ATOM      7  N   UNL     1      13.409 -50.639 -25.285  1.00  0.00    -0.276 N 
ATOM      8  N   UNL     1      13.986 -50.616 -26.552  1.00  0.00    -0.297 N 
ATOM      9  C   UNL     1      14.976 -49.644 -26.618  1.00  0.00     0.063 C 
ATOM     10  C   UNL     1      15.153 -49.097 -25.406  1.00  0.00     0.033 C 
ATOM     11  C   UNL     1      14.175 -49.694 -24.410  1.00  0.00     0.161 C 
ATOM     12  H   UNL     1      13.325 -50.552 -27.327  1.00  0.00     0.188 HD
BRANCH   9  13
ATOM     13  C   UNL     1      15.670 -49.330 -27.871  1.00  0.00     0.038 A 
ATOM     14  C   UNL     1      14.963 -48.745 -28.933  1.00  0.00     0.052 A 
ATOM     15  C   UNL     1      17.039 -49.578 -28.055  1.00  0.00     0.132 A 
ATOM     16  C   UNL     1      15.613 -48.433 -30.125  1.00  0.00     0.124 A 
ATOM     17  C   UNL     1      17.687 -49.262 -29.251  1.00  0.00     0.043 A 
ATOM     18  C   UNL     1      16.968 -48.685 -30.294  1.00  0.00     0.042 A 
ATOM     19  F   UNL     1      17.776 -50.119 -27.072  1.00  0.00    -0.206 F 
ATOM     20  F   UNL     1      14.917 -47.879 -31.127  1.00  0.00    -0.207 F 
ENDBRANCH   9  13
BRANCH  11  21
ATOM     21  C   UNL     1      13.308 -48.622 -23.774  1.00  0.00    -0.016 A 
ATOM     22  C   UNL     1      12.224 -48.043 -24.448  1.00  0.00     0.010 A 
ATOM     23  C   UNL     1      13.614 -48.161 -22.480  1.00  0.00     0.056 A 
ATOM     24  C   UNL     1      11.450 -47.050 -23.843  1.00  0.00     0.051 A 
ATOM     25  C   UNL     1      12.846 -47.165 -21.865  1.00  0.00     0.161 A 
ATOM     26  C   UNL     1      11.750 -46.606 -22.552  1.00  0.00     0.160 A 
BRANCH  25  27
ATOM     27  O   UNL     1      13.079 -46.672 -20.605  1.00  0.00    -0.493 OA
ATOM     28  C   UNL     1      14.271 -47.072 -19.944  1.00  0.00     0.278 C 
ENDBRANCH  25  27
BRANCH  26  29
ATOM     29  O   UNL     1      11.046 -45.637 -21.881  1.00  0.00    -0.493 OA
ATOM     30  C   UNL     1      10.804 -44.413 -22.557  1.00  0.00     0.278 C 
ENDBRANCH  26  29
ENDBRANCH  11  21
ENDBRANCH   1   7
BRANCH   4  31
ATOM     31  S   UNL     1      10.858 -55.606 -23.076  1.00  0.00     0.238 S 
ATOM     32  O   UNL     1       9.513 -55.695 -23.598  1.00  0.00    -0.207 OA
ATOM     33  O   UNL     1      11.154 -55.694 -21.667  1.00  0.00    -0.207 OA
BRANCH  31  34
ATOM     34  N   UNL     1      11.730 -56.812 -23.867  1.00  0.00    -0.225 NA
ATOM     35  H   UNL     1      11.205 -57.111 -24.689  1.00  0.00     0.137 HD
ATOM     36  H   UNL     1      12.680 -56.529 -24.104  1.00  0.00     0.137 HD
ENDBRANCH  31  34
ENDBRANCH   4  31
TORSDOF 7
ENDMDL
MODEL 2
REMARK VINA RESULT:    -9.119      3.546      6.231
REMARK INTER + INTRA:         -13.951
REMARK INTER:                 -12.897
REMARK INTRA:                  -1.055
REMARK UNBOUND:                -1.367
REMARK SMILES COc1ccc([C@@H]2C=C(c3cc(F)ccc3F)NN2c2ccc(S(N)(=O)=O)cc2)cc1OC
REMARK SMILES IDX 20 1 21 2 22 3 23 4 28 5 29 6 19 7 18 8 9 9 8 10 7 11 10 13
REMARK SMILES IDX 11 14 16 15 12 16 15 17 14 18 17 19 13 20 6 21 5 22 30 23
REMARK SMILES IDX 4 24 31 25 3 26 32 27 33 28 2 29 1 30 24 31 26 32 27 33
REMARK SMILES IDX 25 34
REMARK H PARENT 18 12 25 35 25 36
ROOT
ATOM      1  C   UNL     1      12.131 -52.396 -23.547  1.00  0.00     0.058 A 
ATOM      2  C   UNL     1      11.474 -52.786 -22.364  1.00  0.00     0.029 A 
ATOM      3  C   UNL     1      10.972 -54.080 -22.189  1.00  0.00     0.024 A 
ATOM      4  C   UNL     1      11.125 -55.015 -23.210  1.00  0.00     0.082 A 
ATOM      5  C   UNL     1      11.794 -54.673 -24.384  1.00  0.00     0.024 A 
ATOM      6  C   UNL     1      12.290 -53.374 -24.544  1.00  0.00     0.029 A 
ENDROOT
BRANCH   1   7
ATOM      7  N   UNL     1      12.641 -51.091 -23.681  1.00  0.00    -0.276 N 
ATOM      8  N   UNL     1      11.980 -49.975 -23.176  1.00  0.00    -0.297 N 
ATOM      9  C   UNL     1      12.308 -48.841 -23.909  1.00  0.00     0.063 C 
ATOM     10  C   UNL     1      13.078 -49.187 -24.952  1.00  0.00     0.033 C 
ATOM     11  C   UNL     1      13.358 -50.678 -24.930  1.00  0.00     0.161 C 
ATOM     12  H   UNL     1      12.081 -49.831 -22.170  1.00  0.00     0.188 HD
BRANCH   9  13
ATOM     13  C   UNL     1      11.839 -47.507 -23.523  1.00  0.00     0.038 A 
ATOM     14  C   UNL     1      12.541 -46.370 -23.954  1.00  0.00     0.052 A 
ATOM     15  C   UNL     1      10.691 -47.310 -22.741  1.00  0.00     0.132 A 
ATOM     16  C   UNL     1      12.100 -45.095 -23.602  1.00  0.00     0.124 A 
ATOM     17  C   UNL     1      10.252 -46.031 -22.391  1.00  0.00     0.043 A 
ATOM     18  C   UNL     1      10.962 -44.916 -22.825  1.00  0.00     0.042 A 
ATOM     19  F   UNL     1       9.966 -48.355 -22.312  1.00  0.00    -0.206 F 
ATOM     20  F   UNL     1      12.787 -44.024 -24.020  1.00  0.00    -0.207 F 
ENDBRANCH   9  13
BRANCH  11  21
ATOM     21  C   UNL     1      14.851 -50.961 -24.891  1.00  0.00    -0.016 A 
ATOM     22  C   UNL     1      15.487 -51.444 -23.740  1.00  0.00     0.010 A 
ATOM     23  C   UNL     1      15.635 -50.699 -26.030  1.00  0.00     0.056 A 
ATOM     24  C   UNL     1      16.863 -51.684 -23.728  1.00  0.00     0.051 A 
ATOM     25  C   UNL     1      17.015 -50.934 -26.028  1.00  0.00     0.161 A 
ATOM     26  C   UNL     1      17.635 -51.436 -24.866  1.00  0.00     0.160 A 
BRANCH  25  27
ATOM     27  O   UNL     1      17.842 -50.711 -27.102  1.00  0.00    -0.493 OA
ATOM     28  C   UNL     1      17.521 -49.639 -27.976  1.00  0.00     0.278 C 
ENDBRANCH  25  27
BRANCH  26  29
ATOM     29  O   UNL     1      18.990 -51.642 -24.946  1.00  0.00    -0.493 OA
ATOM     30  C   UNL     1      19.834 -50.752 -24.231  1.00  0.00     0.278 C 
ENDBRANCH  26  29
ENDBRANCH  11  21
ENDBRANCH   1   7
BRANCH   4  31
ATOM     31  S   UNL     1      10.501 -56.660 -23.005  1.00  0.00     0.238 S 
ATOM     32  O   UNL     1       9.144 -56.703 -23.502  1.00  0.00    -0.207 OA
ATOM     33  O   UNL     1      10.863 -57.130 -21.690  1.00  0.00    -0.207 OA
BRANCH  31  34
ATOM     34  N   UNL     1      11.422 -57.510 -24.132  1.00  0.00    -0.225 NA
ATOM     35  H   UNL     1      12.364 -57.635 -23.757  1.00  0.00     0.137 HD
ATOM     36  H   UNL     1      11.001 -58.397 -24.406  1.00  0.00     0.137 HD
ENDBRANCH  31  34
ENDBRANCH   4  31
TORSDOF 7
ENDMDL
MODEL 3
REMARK VINA RESULT:    -9.117      4.407      8.499
REMARK INTER + INTRA:         -13.948
REMARK INTER:                 -12.608
REMARK INTRA:                  -1.340
REMARK UNBOUND:                -1.367
REMARK SMILES COc1ccc([C@@H]2C=C(c3cc(F)ccc3F)NN2c2ccc(S(N)(=O)=O)cc2)cc1OC
REMARK SMILES IDX 20 1 21 2 22 3 23 4 28 5 29 6 19 7 18 8 9 9 8 10 7 11 10 13
REMARK SMILES IDX 11 14 16 15 12 16 15 17 14 18 17 19 13 20 6 21 5 22 30 23
REMARK SMILES IDX 4 24 31 25 3 26 32 27 33 28 2 29 1 30 24 31 26 32 27 33
REMARK SMILES IDX 25 34
REMARK H PARENT 18 12 25 35 25 36
ROOT
ATOM      1  C   UNL     1      12.471 -47.743 -24.011  1.00  0.00     0.058 A 
ATOM      2  C   UNL     1      11.145 -47.273 -24.071  1.00  0.00     0.029 A 
ATOM      3  C   UNL     1      10.837 -45.912 -23.959  1.00  0.00     0.024 A 
ATOM      4  C   UNL     1      11.866 -44.992 -23.785  1.00  0.00     0.082 A 
ATOM      5  C   UNL     1      13.193 -45.418 -23.748  1.00  0.00     0.024 A 
ATOM      6  C   UNL     1      13.485 -46.782 -23.862  1.00  0.00     0.029 A 
ENDROOT
BRANCH   1   7
ATOM      7  N   UNL     1      12.746 -49.117 -24.147  1.00  0.00    -0.276 N 
ATOM      8  N   UNL     1      11.885 -50.102 -23.673  1.00  0.00    -0.297 N 
ATOM      9  C   UNL     1      12.589 -51.261 -23.372  1.00  0.00     0.063 C 
ATOM     10  C   UNL     1      13.904 -51.042 -23.526  1.00  0.00     0.033 C 
ATOM     11  C   UNL     1      14.148 -49.629 -24.023  1.00  0.00     0.161 C 
ATOM     12  H   UNL     1      11.069 -50.283 -24.259  1.00  0.00     0.188 HD
BRANCH   9  13
ATOM     13  C   UNL     1      11.912 -52.494 -22.958  1.00  0.00     0.038 A 
ATOM     14  C   UNL     1      11.419 -52.613 -21.649  1.00  0.00     0.052 A 
ATOM     15  C   UNL     1      11.719 -53.575 -23.831  1.00  0.00     0.132 A 
ATOM     16  C   UNL     1      10.765 -53.777 -21.246  1.00  0.00     0.124 A 
ATOM     17  C   UNL     1      11.062 -54.739 -23.424  1.00  0.00     0.043 A 
ATOM     18  C   UNL     1      10.582 -54.839 -22.121  1.00  0.00     0.042 A 
ATOM     19  F   UNL     1      12.151 -53.518 -25.101  1.00  0.00    -0.206 F 
ATOM     20  F   UNL     1      10.306 -53.870 -19.992  1.00  0.00    -0.207 F 
ENDBRANCH   9  13
BRANCH  11  21
ATOM     21  C   UNL     1      14.910 -49.627 -25.337  1.00  0.00    -0.016 A 
ATOM     22  C   UNL     1      14.324 -49.207 -26.538  1.00  0.00     0.010 A 
ATOM     23  C   UNL     1      16.238 -50.095 -25.368  1.00  0.00     0.056 A 
ATOM     24  C   UNL     1      15.044 -49.228 -27.735  1.00  0.00     0.051 A 
ATOM     25  C   UNL     1      16.968 -50.122 -26.563  1.00  0.00     0.161 A 
ATOM     26  C   UNL     1      16.366 -49.679 -27.757  1.00  0.00     0.160 A 
BRANCH  25  27
ATOM     27  O   UNL     1      18.267 -50.555 -26.668  1.00  0.00    -0.493 OA
ATOM     28  C   UNL     1      18.553 -51.896 -26.297  1.00  0.00     0.278 C 
ENDBRANCH  25  27
BRANCH  26  29
ATOM     29  O   UNL     1      17.149 -49.734 -28.884  1.00  0.00    -0.493 OA
ATOM     30  C   UNL     1      16.695 -49.038 -30.035  1.00  0.00     0.278 C 
ENDBRANCH  26  29
ENDBRANCH  11  21
ENDBRANCH   1   7
BRANCH   4  31
ATOM     31  S   UNL     1      11.497 -43.265 -23.646  1.00  0.00     0.238 S 
ATOM     32  O   UNL     1      12.608 -42.512 -24.184  1.00  0.00    -0.207 OA
ATOM     33  O   UNL     1      10.951 -43.015 -22.334  1.00  0.00    -0.207 OA
BRANCH  31  34
ATOM     34  N   UNL     1      10.251 -43.098 -24.768  1.00  0.00    -0.225 NA
ATOM     35  H   UNL     1      10.516 -42.384 -25.448  1.00  0.00     0.137 HD
ATOM     36  H   UNL     1       9.997 -43.976 -25.219  1.00  0.00     0.137 HD
ENDBRANCH  31  34
ENDBRANCH   4  31
TORSDOF 7
ENDMDL
MODEL 4
REMARK VINA RESULT:    -8.874      1.142      1.933
REMARK INTER + INTRA:         -13.612
REMARK INTER:                 -12.219
REMARK INTRA:                  -1.394
REMARK UNBOUND:                -1.367
REMARK SMILES COc1ccc([C@@H]2C=C(c3cc(F)ccc3F)NN2c2ccc(S(N)(=O)=O)cc2)cc1OC
REMARK SMILES IDX 20 1 21 2 22 3 23 4 28 5 29 6 19 7 18 8 9 9 8 10 7 11 10 13
REMARK SMILES IDX 11 14 16 15 12 16 15 17 14 18 17 19 13 20 6 21 5 22 30 23
REMARK SMILES IDX 4 24 31 25 3 26 32 27 33 28 2 29 1 30 24 31 26 32 27 33
REMARK SMILES IDX 25 34
REMARK H PARENT 18 12 25 35 25 36
ROOT
ATOM      1  C   UNL     1      12.823 -51.569 -24.461  1.00  0.00     0.058 A 
ATOM      2  C   UNL     1      12.796 -52.828 -25.092  1.00  0.00     0.029 A 
ATOM      3  C   UNL     1      12.075 -53.904 -24.564  1.00  0.00     0.024 A 
ATOM      4  C   UNL     1      11.358 -53.732 -23.383  1.00  0.00     0.082 A 
ATOM      5  C   UNL     1      11.339 -52.493 -22.745  1.00  0.00     0.024 A 
ATOM      6  C   UNL     1      12.066 -51.425 -23.286  1.00  0.00     0.029 A 
ENDROOT
BRANCH   1   7
ATOM      7  N   UNL     1      13.544 -50.503 -25.030  1.00  0.00    -0.276 N 
ATOM      8  N   UNL     1      14.325 -50.654 -26.172  1.00  0.00    -0.297 N 
ATOM      9  C   UNL     1      15.354 -49.721 -26.186  1.00  0.00     0.063 C 
ATOM     10  C   UNL     1      15.348 -49.027 -25.037  1.00  0.00     0.033 C 
ATOM     11  C   UNL     1      14.193 -49.471 -24.159  1.00  0.00     0.161 C 
ATOM     12  H   UNL     1      13.807 -50.675 -27.051  1.00  0.00     0.188 HD
BRANCH   9  13
ATOM     13  C   UNL     1      16.261 -49.584 -27.330  1.00  0.00     0.038 A 
ATOM     14  C   UNL     1      17.585 -50.039 -27.229  1.00  0.00     0.052 A 
ATOM     15  C   UNL     1      15.854 -49.021 -28.549  1.00  0.00     0.132 A 
ATOM     16  C   UNL     1      18.454 -49.924 -28.312  1.00  0.00     0.124 A 
ATOM     17  C   UNL     1      16.728 -48.907 -29.633  1.00  0.00     0.043 A 
ATOM     18  C   UNL     1      18.038 -49.363 -29.513  1.00  0.00     0.042 A 
ATOM     19  F   UNL     1      14.597 -48.582 -28.716  1.00  0.00    -0.206 F 
ATOM     20  F   UNL     1      19.714 -50.361 -28.192  1.00  0.00    -0.207 F 
ENDBRANCH   9  13
BRANCH  11  21
ATOM     21  C   UNL     1      13.278 -48.307 -23.817  1.00  0.00    -0.016 A 
ATOM     22  C   UNL     1      12.447 -47.707 -24.772  1.00  0.00     0.010 A 
ATOM     23  C   UNL     1      13.283 -47.783 -22.511  1.00  0.00     0.056 A 
ATOM     24  C   UNL     1      11.625 -46.630 -24.433  1.00  0.00     0.051 A 
ATOM     25  C   UNL     1      12.465 -46.703 -22.161  1.00  0.00     0.161 A 
ATOM     26  C   UNL     1      11.623 -46.123 -23.131  1.00  0.00     0.160 A 
BRANCH  25  27
ATOM     27  O   UNL     1      12.410 -46.145 -20.907  1.00  0.00    -0.493 OA
ATOM     28  C   UNL     1      13.429 -46.491 -19.980  1.00  0.00     0.278 C 
ENDBRANCH  25  27
BRANCH  26  29
ATOM     29  O   UNL     1      10.850 -45.070 -22.708  1.00  0.00    -0.493 OA
ATOM     30  C   UNL     1      10.624 -44.010 -23.625  1.00  0.00     0.278 C 
ENDBRANCH  26  29
ENDBRANCH  11  21
ENDBRANCH   1   7
BRANCH   4  31
ATOM     31  S   UNL     1      10.434 -55.081 -22.702  1.00  0.00     0.238 S 
ATOM     32  O   UNL     1      11.322 -55.887 -21.896  1.00  0.00    -0.207 OA
ATOM     33  O   UNL     1       9.603 -55.640 -23.741  1.00  0.00    -0.207 OA
BRANCH  31  34
ATOM     34  N   UNL     1       9.431 -54.282 -21.609  1.00  0.00    -0.225 NA
ATOM     35  H   UNL     1       9.975 -53.561 -21.132  1.00  0.00     0.137 HD
ATOM     36  H   UNL     1       8.591 -53.900 -22.041  1.00  0.00     0.137 HD
ENDBRANCH  31  34
ENDBRANCH   4  31
TORSDOF 7
ENDMDL
MODEL 5
REMARK VINA RESULT:    -8.798      3.445      5.825
REMARK INTER + INTRA:         -13.508
REMARK INTER:                 -12.442
REMARK INTRA:                  -1.066
REMARK UNBOUND:                -1.367
REMARK SMILES COc1ccc([C@@H]2C=C(c3cc(F)ccc3F)NN2c2ccc(S(N)(=O)=O)cc2)cc1OC
REMARK SMILES IDX 20 1 21 2 22 3 23 4 28 5 29 6 19 7 18 8 9 9 8 10 7 11 10 13
REMARK SMILES IDX 11 14 16 15 12 16 15 17 14 18 17 19 13 20 6 21 5 22 30 23
REMARK SMILES IDX 4 24 31 25 3 26 32 27 33 28 2 29 1 30 24 31 26 32 27 33
REMARK SMILES IDX 25 34
REMARK H PARENT 18 12 25 35 25 36
ROOT
ATOM      1  C   UNL     1      12.381 -52.240 -23.824  1.00  0.00     0.058 A 
ATOM      2  C   UNL     1      12.525 -53.224 -24.820  1.00  0.00     0.029 A 
ATOM      3  C   UNL     1      12.007 -54.516 -24.664  1.00  0.00     0.024 A 
ATOM      4  C   UNL     1      11.327 -54.841 -23.494  1.00  0.00     0.082 A 
ATOM      5  C   UNL     1      11.141 -53.885 -22.498  1.00  0.00     0.024 A 
ATOM      6  C   UNL     1      11.665 -52.598 -22.668  1.00  0.00     0.029 A 
ENDROOT
BRANCH   1   7
ATOM      7  N   UNL     1      12.897 -50.946 -24.022  1.00  0.00    -0.276 N 
ATOM      8  N   UNL     1      12.204 -49.799 -23.645  1.00  0.00    -0.297 N 
ATOM      9  C   UNL     1      12.578 -48.721 -24.439  1.00  0.00     0.063 C 
ATOM     10  C   UNL     1      13.414 -49.139 -25.401  1.00  0.00     0.033 C 
ATOM     11  C   UNL     1      13.694 -50.623 -25.249  1.00  0.00     0.161 C 
ATOM     12  H   UNL     1      12.239 -49.580 -22.649  1.00  0.00     0.188 HD
BRANCH   9  13
ATOM     13  C   UNL     1      12.084 -47.364 -24.185  1.00  0.00     0.038 A 
ATOM     14  C   UNL     1      11.019 -47.165 -23.293  1.00  0.00     0.052 A 
ATOM     15  C   UNL     1      12.647 -46.233 -24.796  1.00  0.00     0.132 A 
ATOM     16  C   UNL     1      10.546 -45.879 -23.037  1.00  0.00     0.124 A 
ATOM     17  C   UNL     1      12.171 -44.946 -24.535  1.00  0.00     0.043 A 
ATOM     18  C   UNL     1      11.112 -44.768 -23.649  1.00  0.00     0.042 A 
ATOM     19  F   UNL     1      13.679 -46.354 -25.645  1.00  0.00    -0.206 F 
ATOM     20  F   UNL     1       9.526 -45.713 -22.185  1.00  0.00    -0.207 F 
ENDBRANCH   9  13
BRANCH  11  21
ATOM     21  C   UNL     1      15.181 -50.893 -25.092  1.00  0.00    -0.016 A 
ATOM     22  C   UNL     1      15.740 -52.152 -25.350  1.00  0.00     0.010 A 
ATOM     23  C   UNL     1      16.028 -49.864 -24.640  1.00  0.00     0.056 A 
ATOM     24  C   UNL     1      17.109 -52.377 -25.185  1.00  0.00     0.051 A 
ATOM     25  C   UNL     1      17.401 -50.079 -24.470  1.00  0.00     0.161 A 
ATOM     26  C   UNL     1      17.948 -51.347 -24.750  1.00  0.00     0.160 A 
BRANCH  25  27
ATOM     27  O   UNL     1      18.289 -49.123 -24.041  1.00  0.00    -0.493 OA
ATOM     28  C   UNL     1      18.158 -48.642 -22.712  1.00  0.00     0.278 C 
ENDBRANCH  25  27
BRANCH  26  29
ATOM     29  O   UNL     1      19.302 -51.476 -24.561  1.00  0.00    -0.493 OA
ATOM     30  C   UNL     1      20.086 -51.881 -25.674  1.00  0.00     0.278 C 
ENDBRANCH  26  29
ENDBRANCH  11  21
ENDBRANCH   1   7
BRANCH   4  31
ATOM     31  S   UNL     1      10.660 -56.468 -23.281  1.00  0.00     0.238 S 
ATOM     32  O   UNL     1      11.383 -57.378 -24.139  1.00  0.00    -0.207 OA
ATOM     33  O   UNL     1       9.220 -56.379 -23.280  1.00  0.00    -0.207 OA
BRANCH  31  34
ATOM     34  N   UNL     1      11.159 -56.831 -21.713  1.00  0.00    -0.225 NA
ATOM     35  H   UNL     1      10.692 -57.688 -21.411  1.00  0.00     0.137 HD
ATOM     36  H   UNL     1      12.172 -56.897 -21.620  1.00  0.00     0.137 HD
ENDBRANCH  31  34
ENDBRANCH   4  31
TORSDOF 7
ENDMDL
MODEL 6
REMARK VINA RESULT:    -8.646      3.960      6.082
REMARK INTER + INTRA:         -13.298
REMARK INTER:                 -11.736
REMARK INTRA:                  -1.563
REMARK UNBOUND:                -1.367
REMARK SMILES COc1ccc([C@@H]2C=C(c3cc(F)ccc3F)NN2c2ccc(S(N)(=O)=O)cc2)cc1OC
REMARK SMILES IDX 20 1 21 2 22 3 23 4 28 5 29 6 19 7 18 8 9 9 8 10 7 11 10 13
REMARK SMILES IDX 11 14 16 15 12 16 15 17 14 18 17 19 13 20 6 21 5 22 30 23
REMARK SMILES IDX 4 24 31 25 3 26 32 27 33 28 2 29 1 30 24 31 26 32 27 33
REMARK SMILES IDX 25 34
REMARK H PARENT 18 12 25 35 25 36
ROOT
ATOM      1  C   UNL     1      12.428 -50.629 -22.902  1.00  0.00     0.058 A 
ATOM      2  C   UNL     1      11.601 -51.196 -21.914  1.00  0.00     0.029 A 
ATOM      3  C   UNL     1      11.100 -52.498 -22.027  1.00  0.00     0.024 A 
ATOM      4  C   UNL     1      11.427 -53.261 -23.144  1.00  0.00     0.082 A 
ATOM      5  C   UNL     1      12.266 -52.742 -24.130  1.00  0.00     0.024 A 
ATOM      6  C   UNL     1      12.759 -51.438 -24.003  1.00  0.00     0.029 A 
ENDROOT
BRANCH   1   7
ATOM      7  N   UNL     1      12.930 -49.323 -22.747  1.00  0.00    -0.276 N 
ATOM      8  N   UNL     1      12.100 -48.212 -22.633  1.00  0.00    -0.297 N 
ATOM      9  C   UNL     1      12.748 -47.071 -23.089  1.00  0.00     0.063 C 
ATOM     10  C   UNL     1      13.941 -47.406 -23.604  1.00  0.00     0.033 C 
ATOM     11  C   UNL     1      14.179 -48.898 -23.457  1.00  0.00     0.161 C 
ATOM     12  H   UNL     1      11.678 -48.079 -21.713  1.00  0.00     0.188 HD
BRANCH   9  13
ATOM     13  C   UNL     1      12.143 -45.740 -22.979  1.00  0.00     0.038 A 
ATOM     14  C   UNL     1      12.730 -44.773 -22.149  1.00  0.00     0.052 A 
ATOM     15  C   UNL     1      10.990 -45.378 -23.692  1.00  0.00     0.132 A 
ATOM     16  C   UNL     1      12.169 -43.501 -22.043  1.00  0.00     0.124 A 
ATOM     17  C   UNL     1      10.432 -44.102 -23.585  1.00  0.00     0.043 A 
ATOM     18  C   UNL     1      11.027 -43.157 -22.754  1.00  0.00     0.042 A 
ATOM     19  F   UNL     1      10.390 -46.251 -24.517  1.00  0.00    -0.206 F 
ATOM     20  F   UNL     1      12.744 -42.595 -21.242  1.00  0.00    -0.207 F 
ENDBRANCH   9  13
BRANCH  11  21
ATOM     21  C   UNL     1      15.448 -49.183 -22.673  1.00  0.00    -0.016 A 
ATOM     22  C   UNL     1      16.118 -50.410 -22.762  1.00  0.00     0.010 A 
ATOM     23  C   UNL     1      15.956 -48.204 -21.798  1.00  0.00     0.056 A 
ATOM     24  C   UNL     1      17.277 -50.650 -22.019  1.00  0.00     0.051 A 
ATOM     25  C   UNL     1      17.115 -48.436 -21.047  1.00  0.00     0.161 A 
ATOM     26  C   UNL     1      17.785 -49.670 -21.163  1.00  0.00     0.160 A 
BRANCH  25  27
ATOM     27  O   UNL     1      17.673 -47.527 -20.182  1.00  0.00    -0.493 OA
ATOM     28  C   UNL     1      16.824 -46.915 -19.222  1.00  0.00     0.278 C 
ENDBRANCH  25  27
BRANCH  26  29
ATOM     29  O   UNL     1      18.915 -49.818 -20.397  1.00  0.00    -0.493 OA
ATOM     30  C   UNL     1      18.881 -50.779 -19.353  1.00  0.00     0.278 C 
ENDBRANCH  26  29
ENDBRANCH  11  21
ENDBRANCH   1   7
BRANCH   4  31
ATOM     31  S   UNL     1      10.807 -54.912 -23.303  1.00  0.00     0.238 S 
ATOM     32  O   UNL     1       9.487 -54.854 -23.888  1.00  0.00    -0.207 OA
ATOM     33  O   UNL     1      11.086 -55.628 -22.081  1.00  0.00    -0.207 OA
BRANCH  31  34
ATOM     34  N   UNL     1      11.809 -55.532 -24.507  1.00  0.00    -0.225 NA
ATOM     35  H   UNL     1      12.723 -55.737 -24.100  1.00  0.00     0.137 HD
ATOM     36  H   UNL     1      11.413 -56.343 -24.981  1.00  0.00     0.137 HD
ENDBRANCH  31  34
ENDBRANCH   4  31
TORSDOF 7
ENDMDL
MODEL 7
REMARK VINA RESULT:    -8.549      4.868      8.494
REMARK INTER + INTRA:         -13.165
REMARK INTER:                 -11.703
REMARK INTRA:                  -1.462
REMARK UNBOUND:                -1.367
REMARK SMILES COc1ccc([C@@H]2C=C(c3cc(F)ccc3F)NN2c2ccc(S(N)(=O)=O)cc2)cc1OC
REMARK SMILES IDX 20 1 21 2 22 3 23 4 28 5 29 6 19 7 18 8 9 9 8 10 7 11 10 13
REMARK SMILES IDX 11 14 16 15 12 16 15 17 14 18 17 19 13 20 6 21 5 22 30 23
REMARK SMILES IDX 4 24 31 25 3 26 32 27 33 28 2 29 1 30 24 31 26 32 27 33
REMARK SMILES IDX 25 34
REMARK H PARENT 18 12 25 35 25 36
ROOT
ATOM      1  C   UNL     1      12.374 -47.017 -23.583  1.00  0.00     0.058 A 
ATOM      2  C   UNL     1      11.207 -46.330 -23.970  1.00  0.00     0.029 A 
ATOM      3  C   UNL     1      11.003 -44.982 -23.655  1.00  0.00     0.024 A 
ATOM      4  C   UNL     1      11.980 -44.293 -22.941  1.00  0.00     0.082 A 
ATOM      5  C   UNL     1      13.160 -44.932 -22.565  1.00  0.00     0.024 A 
ATOM      6  C   UNL     1      13.349 -46.281 -22.887  1.00  0.00     0.029 A 
ENDROOT
BRANCH   1   7
ATOM      7  N   UNL     1      12.555 -48.367 -23.934  1.00  0.00    -0.276 N 
ATOM      8  N   UNL     1      11.786 -49.391 -23.387  1.00  0.00    -0.297 N 
ATOM      9  C   UNL     1      12.493 -50.587 -23.391  1.00  0.00     0.063 C 
ATOM     10  C   UNL     1      13.746 -50.368 -23.820  1.00  0.00     0.033 C 
ATOM     11  C   UNL     1      13.927 -48.909 -24.197  1.00  0.00     0.161 C 
ATOM     12  H   UNL     1      10.851 -49.490 -23.785  1.00  0.00     0.188 HD
BRANCH   9  13
ATOM     13  C   UNL     1      11.879 -51.851 -22.973  1.00  0.00     0.038 A 
ATOM     14  C   UNL     1      11.896 -52.955 -23.840  1.00  0.00     0.052 A 
ATOM     15  C   UNL     1      11.277 -52.015 -21.716  1.00  0.00     0.132 A 
ATOM     16  C   UNL     1      11.324 -54.165 -23.451  1.00  0.00     0.124 A 
ATOM     17  C   UNL     1      10.706 -53.230 -21.330  1.00  0.00     0.043 A 
ATOM     18  C   UNL     1      10.730 -54.313 -22.205  1.00  0.00     0.042 A 
ATOM     19  F   UNL     1      11.243 -51.004 -20.834  1.00  0.00    -0.206 F 
ATOM     20  F   UNL     1      11.349 -55.203 -24.297  1.00  0.00    -0.207 F 
ENDBRANCH   9  13
BRANCH  11  21
ATOM     21  C   UNL     1      14.368 -48.761 -25.643  1.00  0.00    -0.016 A 
ATOM     22  C   UNL     1      14.372 -49.841 -26.535  1.00  0.00     0.010 A 
ATOM     23  C   UNL     1      14.823 -47.511 -26.103  1.00  0.00     0.056 A 
ATOM     24  C   UNL     1      14.795 -49.680 -27.856  1.00  0.00     0.051 A 
ATOM     25  C   UNL     1      15.251 -47.339 -27.425  1.00  0.00     0.161 A 
ATOM     26  C   UNL     1      15.232 -48.433 -28.312  1.00  0.00     0.160 A 
BRANCH  25  27
ATOM     27  O   UNL     1      15.700 -46.150 -27.946  1.00  0.00    -0.493 OA
ATOM     28  C   UNL     1      15.512 -44.972 -27.175  1.00  0.00     0.278 C 
ENDBRANCH  25  27
BRANCH  26  29
ATOM     29  O   UNL     1      15.664 -48.182 -29.591  1.00  0.00    -0.493 OA
ATOM     30  C   UNL     1      16.683 -49.019 -30.118  1.00  0.00     0.278 C 
ENDBRANCH  26  29
ENDBRANCH  11  21
ENDBRANCH   1   7
BRANCH   4  31
ATOM     31  S   UNL     1      11.742 -42.584 -22.538  1.00  0.00     0.238 S 
ATOM     32  O   UNL     1      12.631 -42.240 -21.451  1.00  0.00    -0.207 OA
ATOM     33  O   UNL     1      10.325 -42.313 -22.499  1.00  0.00    -0.207 OA
BRANCH  31  34
ATOM     34  N   UNL     1      12.380 -41.827 -23.901  1.00  0.00    -0.225 NA
ATOM     35  H   UNL     1      11.614 -41.404 -24.429  1.00  0.00     0.137 HD
ATOM     36  H   UNL     1      13.108 -41.149 -23.680  1.00  0.00     0.137 HD
ENDBRANCH  31  34
ENDBRANCH   4  31
TORSDOF 7
ENDMDL
MODEL 8
REMARK VINA RESULT:    -8.547      3.239      4.548
REMARK INTER + INTRA:         -13.162
REMARK INTER:                 -11.665
REMARK INTRA:                  -1.497
REMARK UNBOUND:                -1.367
REMARK SMILES COc1ccc([C@@H]2C=C(c3cc(F)ccc3F)NN2c2ccc(S(N)(=O)=O)cc2)cc1OC
REMARK SMILES IDX 20 1 21 2 22 3 23 4 28 5 29 6 19 7 18 8 9 9 8 10 7 11 10 13
REMARK SMILES IDX 11 14 16 15 12 16 15 17 14 18 17 19 13 20 6 21 5 22 30 23
REMARK SMILES IDX 4 24 31 25 3 26 32 27 33 28 2 29 1 30 24 31 26 32 27 33
REMARK SMILES IDX 25 34
REMARK H PARENT 18 12 25 35 25 36
ROOT
ATOM      1  C   UNL     1      13.279 -51.160 -24.376  1.00  0.00     0.058 A 
ATOM      2  C   UNL     1      12.660 -50.650 -23.219  1.00  0.00     0.029 A 
ATOM      3  C   UNL     1      11.685 -51.372 -22.522  1.00  0.00     0.024 A 
ATOM      4  C   UNL     1      11.314 -52.634 -22.979  1.00  0.00     0.082 A 
ATOM      5  C   UNL     1      11.925 -53.183 -24.105  1.00  0.00     0.024 A 
ATOM      6  C   UNL     1      12.898 -52.447 -24.792  1.00  0.00     0.029 A 
ENDROOT
BRANCH   1   7
ATOM      7  N   UNL     1      14.269 -50.413 -25.041  1.00  0.00    -0.276 N 
ATOM      8  N   UNL     1      13.972 -49.532 -26.077  1.00  0.00    -0.297 N 
ATOM      9  C   UNL     1      15.059 -49.399 -26.931  1.00  0.00     0.063 C 
ATOM     10  C   UNL     1      16.030 -50.248 -26.559  1.00  0.00     0.033 C 
ATOM     11  C   UNL     1      15.617 -51.008 -25.313  1.00  0.00     0.161 C 
ATOM     12  H   UNL     1      13.595 -48.630 -25.782  1.00  0.00     0.188 HD
BRANCH   9  13
ATOM     13  C   UNL     1      15.058 -48.446 -28.045  1.00  0.00     0.038 A 
ATOM     14  C   UNL     1      15.056 -48.918 -29.367  1.00  0.00     0.052 A 
ATOM     15  C   UNL     1      15.044 -47.057 -27.846  1.00  0.00     0.132 A 
ATOM     16  C   UNL     1      15.045 -48.022 -30.435  1.00  0.00     0.124 A 
ATOM     17  C   UNL     1      15.032 -46.163 -28.919  1.00  0.00     0.043 A 
ATOM     18  C   UNL     1      15.032 -46.650 -30.223  1.00  0.00     0.042 A 
ATOM     19  F   UNL     1      15.028 -46.542 -26.607  1.00  0.00    -0.206 F 
ATOM     20  F   UNL     1      15.047 -48.495 -31.688  1.00  0.00    -0.207 F 
ENDBRANCH   9  13
BRANCH  11  21
ATOM     21  C   UNL     1      16.609 -50.798 -24.181  1.00  0.00    -0.016 A 
ATOM     22  C   UNL     1      16.532 -51.517 -22.981  1.00  0.00     0.010 A 
ATOM     23  C   UNL     1      17.621 -49.829 -24.318  1.00  0.00     0.056 A 
ATOM     24  C   UNL     1      17.450 -51.295 -21.951  1.00  0.00     0.051 A 
ATOM     25  C   UNL     1      18.544 -49.597 -23.291  1.00  0.00     0.161 A 
ATOM     26  C   UNL     1      18.461 -50.341 -22.098  1.00  0.00     0.160 A 
BRANCH  25  27
ATOM     27  O   UNL     1      19.561 -48.676 -23.356  1.00  0.00    -0.493 OA
ATOM     28  C   UNL     1      19.219 -47.327 -23.640  1.00  0.00     0.278 C 
ENDBRANCH  25  27
BRANCH  26  29
ATOM     29  O   UNL     1      19.405 -50.057 -21.142  1.00  0.00    -0.493 OA
ATOM     30  C   UNL     1      19.268 -50.683 -19.875  1.00  0.00     0.278 C 
ENDBRANCH  26  29
ENDBRANCH  11  21
ENDBRANCH   1   7
BRANCH   4  31
ATOM     31  S   UNL     1      10.086 -53.567 -22.107  1.00  0.00     0.238 S 
ATOM     32  O   UNL     1      10.445 -53.606 -20.707  1.00  0.00    -0.207 OA
ATOM     33  O   UNL     1       9.787 -54.756 -22.866  1.00  0.00    -0.207 OA
BRANCH  31  34
ATOM     34  N   UNL     1       8.754 -52.539 -22.204  1.00  0.00    -0.225 NA
ATOM     35  H   UNL     1       7.924 -53.097 -22.408  1.00  0.00     0.137 HD
ATOM     36  H   UNL     1       8.630 -51.964 -21.372  1.00  0.00     0.137 HD
ENDBRANCH  31  34
ENDBRANCH   4  31
TORSDOF 7
ENDMDL
MODEL 9
REMARK VINA RESULT:    -8.537      5.059      7.656
REMARK INTER + INTRA:         -13.148
REMARK INTER:                 -11.668
REMARK INTRA:                  -1.480
REMARK UNBOUND:                -1.367
REMARK SMILES COc1ccc([C@@H]2C=C(c3cc(F)ccc3F)NN2c2ccc(S(N)(=O)=O)cc2)cc1OC
REMARK SMILES IDX 20 1 21 2 22 3 23 4 28 5 29 6 19 7 18 8 9 9 8 10 7 11 10 13
REMARK SMILES IDX 11 14 16 15 12 16 15 17 14 18 17 19 13 20 6 21 5 22 30 23
REMARK SMILES IDX 4 24 31 25 3 26 32 27 33 28 2 29 1 30 24 31 26 32 27 33
REMARK SMILES IDX 25 34
REMARK H PARENT 18 12 25 35 25 36
ROOT
ATOM      1  C   UNL     1      17.104 -50.959 -24.963  1.00  0.00     0.058 A 
ATOM      2  C   UNL     1      17.778 -51.796 -25.872  1.00  0.00     0.029 A 
ATOM      3  C   UNL     1      19.172 -51.917 -25.873  1.00  0.00     0.024 A 
ATOM      4  C   UNL     1      19.920 -51.194 -24.947  1.00  0.00     0.082 A 
ATOM      5  C   UNL     1      19.285 -50.377 -24.013  1.00  0.00     0.024 A 
ATOM      6  C   UNL     1      17.890 -50.266 -24.026  1.00  0.00     0.029 A 
ENDROOT
BRANCH   1   7
ATOM      7  N   UNL     1      15.699 -50.876 -24.978  1.00  0.00    -0.276 N 
ATOM      8  N   UNL     1      14.892 -51.734 -24.236  1.00  0.00    -0.297 N 
ATOM      9  C   UNL     1      13.648 -51.876 -24.838  1.00  0.00     0.063 C 
ATOM     10  C   UNL     1      13.641 -51.228 -26.014  1.00  0.00     0.033 C 
ATOM     11  C   UNL     1      14.969 -50.531 -26.240  1.00  0.00     0.161 C 
ATOM     12  H   UNL     1      14.820 -51.509 -23.242  1.00  0.00     0.188 HD
BRANCH   9  13
ATOM     13  C   UNL     1      12.564 -52.636 -24.208  1.00  0.00     0.038 A 
ATOM     14  C   UNL     1      11.906 -52.112 -23.085  1.00  0.00     0.052 A 
ATOM     15  C   UNL     1      12.136 -53.880 -24.697  1.00  0.00     0.132 A 
ATOM     16  C   UNL     1      10.868 -52.821 -22.482  1.00  0.00     0.124 A 
ATOM     17  C   UNL     1      11.094 -54.586 -24.091  1.00  0.00     0.043 A 
ATOM     18  C   UNL     1      10.456 -54.052 -22.976  1.00  0.00     0.042 A 
ATOM     19  F   UNL     1      12.712 -54.428 -25.778  1.00  0.00    -0.206 F 
ATOM     20  F   UNL     1      10.257 -52.304 -21.409  1.00  0.00    -0.207 F 
ENDBRANCH   9  13
BRANCH  11  21
ATOM     21  C   UNL     1      14.784 -49.037 -26.441  1.00  0.00    -0.016 A 
ATOM     22  C   UNL     1      14.285 -48.205 -25.430  1.00  0.00     0.010 A 
ATOM     23  C   UNL     1      15.087 -48.464 -27.691  1.00  0.00     0.056 A 
ATOM     24  C   UNL     1      14.113 -46.836 -25.647  1.00  0.00     0.051 A 
ATOM     25  C   UNL     1      14.916 -47.093 -27.919  1.00  0.00     0.161 A 
ATOM     26  C   UNL     1      14.429 -46.269 -26.885  1.00  0.00     0.160 A 
BRANCH  25  27
ATOM     27  O   UNL     1      15.198 -46.463 -29.107  1.00  0.00    -0.493 OA
ATOM     28  C   UNL     1      14.318 -46.681 -30.200  1.00  0.00     0.278 C 
ENDBRANCH  25  27
BRANCH  26  29
ATOM     29  O   UNL     1      14.292 -44.937 -27.187  1.00  0.00    -0.493 OA
ATOM     30  C   UNL     1      13.340 -44.188 -26.447  1.00  0.00     0.278 C 
ENDBRANCH  26  29
ENDBRANCH  11  21
ENDBRANCH   1   7
BRANCH   4  31
ATOM     31  S   UNL     1      21.685 -51.338 -24.928  1.00  0.00     0.238 S 
ATOM     32  O   UNL     1      22.119 -51.501 -23.559  1.00  0.00    -0.207 OA
ATOM     33  O   UNL     1      22.238 -50.335 -25.805  1.00  0.00    -0.207 OA
BRANCH  31  34
ATOM     34  N   UNL     1      21.906 -52.843 -25.655  1.00  0.00    -0.225 NA
ATOM     35  H   UNL     1      22.359 -53.466 -24.986  1.00  0.00     0.137 HD
ATOM     36  H   UNL     1      21.043 -53.241 -26.022  1.00  0.00     0.137 HD
ENDBRANCH  31  34
ENDBRANCH   4  31
TORSDOF 7
ENDMDL
