MODEL 1
REMARK VINA RESULT:   -11.425      0.000      0.000
REMARK INTER + INTRA:         -16.195
REMARK INTER:                 -15.766
REMARK INTRA:                  -0.429
REMARK UNBOUND:                -0.429
REMARK SMILES COc1cc2c(cc1OC)C(O)=C(C[C@H]1CC[N@H+](Cc3ccccc3)CC1)C2
REMARK SMILES IDX 14 1 13 2 11 3 6 4 28 5 7 6 5 7 8 8 4 9 3 10 12 11 9 13
REMARK SMILES IDX 10 14 2 15 1 16 15 17 27 18 16 19 26 20 17 21 18 22 19 24
REMARK SMILES IDX 20 25 21 26 25 27 22 28 24 29 23 30
REMARK H PARENT 12 12 18 23
ROOT
ATOM      1  C   UNL     1      10.146 -55.878 -22.367  1.00  0.00     0.039 C 
ENDROOT
BRANCH   1   2
ATOM      2  C   UNL     1      10.853 -54.647 -22.852  1.00  0.00    -0.023 C 
ATOM      3  C   UNL     1      10.906 -53.399 -22.351  1.00  0.00     0.122 C 
ATOM      4  C   UNL     1      11.714 -52.555 -23.221  1.00  0.00     0.024 A 
ATOM      5  C   UNL     1      11.637 -54.736 -24.152  1.00  0.00     0.071 C 
ATOM      6  C   UNL     1      12.079 -51.224 -23.136  1.00  0.00     0.062 A 
ATOM      7  C   UNL     1      12.149 -53.333 -24.296  1.00  0.00    -0.029 A 
ATOM      8  C   UNL     1      12.891 -50.670 -24.139  1.00  0.00     0.161 A 
ATOM      9  C   UNL     1      12.935 -52.802 -25.310  1.00  0.00     0.055 A 
ATOM     10  C   UNL     1      13.303 -51.450 -25.247  1.00  0.00     0.161 A 
BRANCH   3  11
ATOM     11  O   UNL     1      10.294 -52.922 -21.233  1.00  0.00    -0.507 OA
ATOM     12  H   UNL     1      10.992 -52.603 -20.634  1.00  0.00     0.293 HD
ENDBRANCH   3  11
BRANCH   8  13
ATOM     13  O   UNL     1      13.160 -49.340 -23.915  1.00  0.00    -0.493 OA
ATOM     14  C   UNL     1      12.086 -48.529 -23.455  1.00  0.00     0.278 C 
ENDBRANCH   8  13
BRANCH  10  15
ATOM     15  O   UNL     1      14.036 -50.828 -26.223  1.00  0.00    -0.493 OA
ATOM     16  C   UNL     1      15.433 -50.665 -26.015  1.00  0.00     0.278 C 
ENDBRANCH  10  15
ENDBRANCH   1   2
BRANCH   1  17
ATOM     17  C   UNL     1      10.523 -57.220 -23.025  1.00  0.00     0.004 C 
ATOM     18  C   UNL     1      11.474 -58.018 -22.121  1.00  0.00     0.065 C 
ATOM     19  C   UNL     1       9.287 -58.080 -23.329  1.00  0.00     0.065 C 
ATOM     20  C   UNL     1      11.867 -59.345 -22.759  1.00  0.00     0.262 C 
ATOM     21  C   UNL     1       9.683 -59.392 -23.986  1.00  0.00     0.262 C 
ATOM     22  N   UNL     1      10.627 -60.146 -23.082  1.00  0.00    -0.331 N 
ATOM     23  H   UNL     1      10.138 -60.314 -22.194  1.00  0.00     0.348 HD
BRANCH  22  24
ATOM     24  C   UNL     1      10.948 -61.514 -23.646  1.00  0.00     0.299 C 
BRANCH  24  25
ATOM     25  C   UNL     1       9.722 -62.339 -23.927  1.00  0.00     0.006 A 
ATOM     26  C   UNL     1       9.113 -62.301 -25.192  1.00  0.00     0.009 A 
ATOM     27  C   UNL     1       9.158 -63.143 -22.925  1.00  0.00     0.009 A 
ATOM     28  C   UNL     1       7.961 -63.046 -25.443  1.00  0.00     0.001 A 
ATOM     29  C   UNL     1       8.005 -63.887 -23.182  1.00  0.00     0.001 A 
ATOM     30  C   UNL     1       7.407 -63.836 -24.439  1.00  0.00     0.000 A 
ENDBRANCH  24  25
ENDBRANCH  22  24
ENDBRANCH   1  17
TORSDOF 7
ENDMDL
MODEL 2
REMARK VINA RESULT:   -11.200      1.101      2.149
REMARK INTER + INTRA:         -15.884
REMARK INTER:                 -15.673
REMARK INTRA:                  -0.211
REMARK UNBOUND:                -0.429
REMARK SMILES COc1cc2c(cc1OC)C(O)=C(C[C@H]1CC[N@H+](Cc3ccccc3)CC1)C2
REMARK SMILES IDX 14 1 13 2 11 3 6 4 28 5 7 6 5 7 8 8 4 9 3 10 12 11 9 13
REMARK SMILES IDX 10 14 2 15 1 16 15 17 27 18 16 19 26 20 17 21 18 22 19 24
REMARK SMILES IDX 20 25 21 26 25 27 22 28 24 29 23 30
REMARK H PARENT 12 12 18 23
ROOT
ATOM      1  C   UNL     1       9.865 -55.637 -22.436  1.00  0.00     0.039 C 
ENDROOT
BRANCH   1   2
ATOM      2  C   UNL     1      10.626 -54.402 -22.820  1.00  0.00    -0.023 C 
ATOM      3  C   UNL     1      11.431 -54.145 -23.866  1.00  0.00     0.122 C 
ATOM      4  C   UNL     1      11.953 -52.788 -23.763  1.00  0.00     0.024 A 
ATOM      5  C   UNL     1      10.555 -53.200 -21.890  1.00  0.00     0.071 C 
ATOM      6  C   UNL     1      12.791 -52.057 -24.583  1.00  0.00     0.062 A 
ATOM      7  C   UNL     1      11.446 -52.218 -22.593  1.00  0.00    -0.029 A 
ATOM      8  C   UNL     1      13.123 -50.740 -24.227  1.00  0.00     0.161 A 
ATOM      9  C   UNL     1      11.776 -50.926 -22.208  1.00  0.00     0.055 A 
ATOM     10  C   UNL     1      12.637 -50.174 -23.022  1.00  0.00     0.161 A 
BRANCH   3  11
ATOM     11  O   UNL     1      11.778 -54.985 -24.879  1.00  0.00    -0.507 OA
ATOM     12  H   UNL     1      12.740 -54.904 -25.006  1.00  0.00     0.293 HD
ENDBRANCH   3  11
BRANCH   8  13
ATOM     13  O   UNL     1      13.967 -50.150 -25.138  1.00  0.00    -0.493 OA
ATOM     14  C   UNL     1      14.019 -50.722 -26.439  1.00  0.00     0.278 C 
ENDBRANCH   8  13
BRANCH  10  15
ATOM     15  O   UNL     1      13.054 -48.909 -22.701  1.00  0.00    -0.493 OA
ATOM     16  C   UNL     1      12.171 -47.824 -22.955  1.00  0.00     0.278 C 
ENDBRANCH  10  15
ENDBRANCH   1   2
BRANCH   1  17
ATOM     17  C   UNL     1      10.325 -56.974 -23.049  1.00  0.00     0.004 C 
ATOM     18  C   UNL     1      11.369 -57.651 -22.149  1.00  0.00     0.065 C 
ATOM     19  C   UNL     1       9.152 -57.944 -23.264  1.00  0.00     0.065 C 
ATOM     20  C   UNL     1      11.845 -58.972 -22.742  1.00  0.00     0.262 C 
ATOM     21  C   UNL     1       9.628 -59.250 -23.878  1.00  0.00     0.262 C 
ATOM     22  N   UNL     1      10.662 -59.882 -22.979  1.00  0.00    -0.331 N 
ATOM     23  H   UNL     1      10.222 -60.046 -22.066  1.00  0.00     0.348 HD
BRANCH  22  24
ATOM     24  C   UNL     1      11.072 -61.246 -23.495  1.00  0.00     0.299 C 
BRANCH  24  25
ATOM     25  C   UNL     1       9.914 -62.194 -23.642  1.00  0.00     0.006 A 
ATOM     26  C   UNL     1       9.203 -62.267 -24.852  1.00  0.00     0.009 A 
ATOM     27  C   UNL     1       9.513 -63.004 -22.569  1.00  0.00     0.009 A 
ATOM     28  C   UNL     1       8.112 -63.127 -24.979  1.00  0.00     0.001 A 
ATOM     29  C   UNL     1       8.421 -63.864 -22.702  1.00  0.00     0.001 A 
ATOM     30  C   UNL     1       7.721 -63.922 -23.905  1.00  0.00     0.000 A 
ENDBRANCH  24  25
ENDBRANCH  22  24
ENDBRANCH   1  17
TORSDOF 7
ENDMDL
MODEL 3
REMARK VINA RESULT:   -10.138      2.305      3.577
REMARK INTER + INTRA:         -14.420
REMARK INTER:                 -14.354
REMARK INTRA:                  -0.065
REMARK UNBOUND:                -0.429
REMARK SMILES COc1cc2c(cc1OC)C(O)=C(C[C@H]1CC[N@H+](Cc3ccccc3)CC1)C2
REMARK SMILES IDX 14 1 13 2 11 3 6 4 28 5 7 6 5 7 8 8 4 9 3 10 12 11 9 13
REMARK SMILES IDX 10 14 2 15 1 16 15 17 27 18 16 19 26 20 17 21 18 22 19 24
REMARK SMILES IDX 20 25 21 26 25 27 22 28 24 29 23 30
REMARK H PARENT 12 12 18 23
ROOT
ATOM      1  C   UNL     1       9.969 -52.881 -22.027  1.00  0.00     0.039 C 
ENDROOT
BRANCH   1   2
ATOM      2  C   UNL     1      10.496 -51.523 -22.387  1.00  0.00    -0.023 C 
ATOM      3  C   UNL     1       9.973 -50.295 -22.218  1.00  0.00     0.122 C 
ATOM      4  C   UNL     1      10.878 -49.295 -22.771  1.00  0.00     0.024 A 
ATOM      5  C   UNL     1      11.834 -51.441 -23.107  1.00  0.00     0.071 C 
ATOM      6  C   UNL     1      10.806 -47.916 -22.827  1.00  0.00     0.062 A 
ATOM      7  C   UNL     1      11.983 -49.961 -23.306  1.00  0.00    -0.029 A 
ATOM      8  C   UNL     1      11.854 -47.197 -23.426  1.00  0.00     0.161 A 
ATOM      9  C   UNL     1      13.021 -49.275 -23.921  1.00  0.00     0.055 A 
ATOM     10  C   UNL     1      12.958 -47.875 -24.000  1.00  0.00     0.161 A 
BRANCH   3  11
ATOM     11  O   UNL     1       8.776 -49.967 -21.661  1.00  0.00    -0.507 OA
ATOM     12  H   UNL     1       8.947 -49.695 -20.742  1.00  0.00     0.293 HD
ENDBRANCH   3  11
BRANCH   8  13
ATOM     13  O   UNL     1      11.631 -45.841 -23.409  1.00  0.00    -0.493 OA
ATOM     14  C   UNL     1      11.185 -45.271 -22.185  1.00  0.00     0.278 C 
ENDBRANCH   8  13
BRANCH  10  15
ATOM     15  O   UNL     1      13.911 -47.118 -24.628  1.00  0.00    -0.493 OA
ATOM     16  C   UNL     1      15.238 -47.624 -24.694  1.00  0.00     0.278 C 
ENDBRANCH  10  15
ENDBRANCH   1   2
BRANCH   1  17
ATOM     17  C   UNL     1      10.834 -54.100 -22.401  1.00  0.00     0.004 C 
ATOM     18  C   UNL     1      10.499 -55.298 -21.500  1.00  0.00     0.065 C 
ATOM     19  C   UNL     1      10.644 -54.514 -23.869  1.00  0.00     0.065 C 
ATOM     20  C   UNL     1      11.351 -56.513 -21.848  1.00  0.00     0.262 C 
ATOM     21  C   UNL     1      11.513 -55.711 -24.216  1.00  0.00     0.262 C 
ATOM     22  N   UNL     1      11.170 -56.865 -23.306  1.00  0.00    -0.331 N 
ATOM     23  H   UNL     1      10.176 -57.083 -23.442  1.00  0.00     0.348 HD
BRANCH  22  24
ATOM     24  C   UNL     1      11.929 -58.115 -23.701  1.00  0.00     0.299 C 
BRANCH  24  25
ATOM     25  C   UNL     1      11.297 -59.377 -23.183  1.00  0.00     0.006 A 
ATOM     26  C   UNL     1      11.531 -60.605 -23.823  1.00  0.00     0.009 A 
ATOM     27  C   UNL     1      10.449 -59.344 -22.066  1.00  0.00     0.009 A 
ATOM     28  C   UNL     1      10.922 -61.771 -23.358  1.00  0.00     0.001 A 
ATOM     29  C   UNL     1       9.842 -60.514 -21.604  1.00  0.00     0.001 A 
ATOM     30  C   UNL     1      10.078 -61.725 -22.252  1.00  0.00     0.000 A 
ENDBRANCH  24  25
ENDBRANCH  22  24
ENDBRANCH   1  17
TORSDOF 7
ENDMDL
MODEL 4
REMARK VINA RESULT:   -10.122      1.750      2.911
REMARK INTER + INTRA:         -14.397
REMARK INTER:                 -14.252
REMARK INTRA:                  -0.146
REMARK UNBOUND:                -0.429
REMARK SMILES COc1cc2c(cc1OC)C(O)=C(C[C@H]1CC[N@H+](Cc3ccccc3)CC1)C2
REMARK SMILES IDX 14 1 13 2 11 3 6 4 28 5 7 6 5 7 8 8 4 9 3 10 12 11 9 13
REMARK SMILES IDX 10 14 2 15 1 16 15 17 27 18 16 19 26 20 17 21 18 22 19 24
REMARK SMILES IDX 20 25 21 26 25 27 22 28 24 29 23 30
REMARK H PARENT 12 12 18 23
ROOT
ATOM      1  C   UNL     1      10.053 -55.442 -22.059  1.00  0.00     0.039 C 
ENDROOT
BRANCH   1   2
ATOM      2  C   UNL     1      10.723 -54.191 -22.548  1.00  0.00    -0.023 C 
ATOM      3  C   UNL     1      11.408 -53.936 -23.676  1.00  0.00     0.122 C 
ATOM      4  C   UNL     1      11.885 -52.558 -23.660  1.00  0.00     0.024 A 
ATOM      5  C   UNL     1      10.697 -52.965 -21.647  1.00  0.00     0.071 C 
ATOM      6  C   UNL     1      12.608 -51.821 -24.579  1.00  0.00     0.062 A 
ATOM      7  C   UNL     1      11.475 -51.973 -22.460  1.00  0.00    -0.029 A 
ATOM      8  C   UNL     1      12.921 -50.482 -24.291  1.00  0.00     0.161 A 
ATOM      9  C   UNL     1      11.790 -50.659 -22.143  1.00  0.00     0.055 A 
ATOM     10  C   UNL     1      12.536 -49.900 -23.058  1.00  0.00     0.161 A 
BRANCH   3  11
ATOM     11  O   UNL     1      11.686 -54.792 -24.697  1.00  0.00    -0.507 OA
ATOM     12  H   UNL     1      11.510 -54.318 -25.529  1.00  0.00     0.293 HD
ENDBRANCH   3  11
BRANCH   8  13
ATOM     13  O   UNL     1      13.647 -49.890 -25.297  1.00  0.00    -0.493 OA
ATOM     14  C   UNL     1      14.041 -50.715 -26.386  1.00  0.00     0.278 C 
ENDBRANCH   8  13
BRANCH  10  15
ATOM     15  O   UNL     1      12.933 -48.612 -22.813  1.00  0.00    -0.493 OA
ATOM     16  C   UNL     1      14.248 -48.395 -22.319  1.00  0.00     0.278 C 
ENDBRANCH  10  15
ENDBRANCH   1   2
BRANCH   1  17
ATOM     17  C   UNL     1      10.325 -56.744 -22.835  1.00  0.00     0.004 C 
ATOM     18  C   UNL     1      11.361 -57.607 -22.099  1.00  0.00     0.065 C 
ATOM     19  C   UNL     1       9.046 -57.571 -23.040  1.00  0.00     0.065 C 
ATOM     20  C   UNL     1      11.652 -58.897 -22.856  1.00  0.00     0.262 C 
ATOM     21  C   UNL     1       9.338 -58.845 -23.817  1.00  0.00     0.262 C 
ATOM     22  N   UNL     1      10.367 -59.662 -23.076  1.00  0.00    -0.331 N 
ATOM     23  H   UNL     1       9.984 -59.879 -22.148  1.00  0.00     0.348 HD
BRANCH  22  24
ATOM     24  C   UNL     1      10.595 -60.997 -23.756  1.00  0.00     0.299 C 
BRANCH  24  25
ATOM     25  C   UNL     1      10.611 -60.900 -25.256  1.00  0.00     0.006 A 
ATOM     26  C   UNL     1      11.643 -60.210 -25.914  1.00  0.00     0.009 A 
ATOM     27  C   UNL     1       9.587 -61.481 -26.020  1.00  0.00     0.009 A 
ATOM     28  C   UNL     1      11.642 -60.098 -27.305  1.00  0.00     0.001 A 
ATOM     29  C   UNL     1       9.592 -61.366 -27.412  1.00  0.00     0.001 A 
ATOM     30  C   UNL     1      10.617 -60.674 -28.051  1.00  0.00     0.000 A 
ENDBRANCH  24  25
ENDBRANCH  22  24
ENDBRANCH   1  17
TORSDOF 7
ENDMDL
MODEL 5
REMARK VINA RESULT:    -9.939      3.774     10.322
REMARK INTER + INTRA:         -14.144
REMARK INTER:                 -13.359
REMARK INTRA:                  -0.785
REMARK UNBOUND:                -0.429
REMARK SMILES COc1cc2c(cc1OC)C(O)=C(C[C@H]1CC[N@H+](Cc3ccccc3)CC1)C2
REMARK SMILES IDX 14 1 13 2 11 3 6 4 28 5 7 6 5 7 8 8 4 9 3 10 12 11 9 13
REMARK SMILES IDX 10 14 2 15 1 16 15 17 27 18 16 19 26 20 17 21 18 22 19 24
REMARK SMILES IDX 20 25 21 26 25 27 22 28 24 29 23 30
REMARK H PARENT 12 12 18 23
ROOT
ATOM      1  C   UNL     1      11.463 -57.347 -22.230  1.00  0.00     0.039 C 
ENDROOT
BRANCH   1   2
ATOM      2  C   UNL     1      10.905 -58.428 -23.107  1.00  0.00    -0.023 C 
ATOM      3  C   UNL     1      11.338 -58.937 -24.274  1.00  0.00     0.122 C 
ATOM      4  C   UNL     1      10.413 -59.964 -24.736  1.00  0.00     0.024 A 
ATOM      5  C   UNL     1       9.598 -59.087 -22.688  1.00  0.00     0.071 C 
ATOM      6  C   UNL     1      10.423 -60.780 -25.852  1.00  0.00     0.062 A 
ATOM      7  C   UNL     1       9.374 -60.059 -23.808  1.00  0.00    -0.029 A 
ATOM      8  C   UNL     1       9.381 -61.703 -26.036  1.00  0.00     0.161 A 
ATOM      9  C   UNL     1       8.321 -60.948 -23.979  1.00  0.00     0.055 A 
ATOM     10  C   UNL     1       8.308 -61.775 -25.113  1.00  0.00     0.161 A 
BRANCH   3  11
ATOM     11  O   UNL     1      12.439 -58.572 -24.986  1.00  0.00    -0.507 OA
ATOM     12  H   UNL     1      12.131 -58.043 -25.744  1.00  0.00     0.293 HD
ENDBRANCH   3  11
BRANCH   8  13
ATOM     13  O   UNL     1       9.531 -62.434 -27.191  1.00  0.00    -0.493 OA
ATOM     14  C   UNL     1       8.851 -61.965 -28.349  1.00  0.00     0.278 C 
ENDBRANCH   8  13
BRANCH  10  15
ATOM     15  O   UNL     1       7.290 -62.648 -25.390  1.00  0.00    -0.493 OA
ATOM     16  C   UNL     1       7.253 -63.884 -24.687  1.00  0.00     0.278 C 
ENDBRANCH  10  15
ENDBRANCH   1   2
BRANCH   1  17
ATOM     17  C   UNL     1      10.714 -56.001 -22.197  1.00  0.00     0.004 C 
ATOM     18  C   UNL     1      11.109 -55.192 -20.952  1.00  0.00     0.065 C 
ATOM     19  C   UNL     1      10.994 -55.154 -23.448  1.00  0.00     0.065 C 
ATOM     20  C   UNL     1      10.371 -53.859 -20.895  1.00  0.00     0.262 C 
ATOM     21  C   UNL     1      10.237 -53.838 -23.398  1.00  0.00     0.262 C 
ATOM     22  N   UNL     1      10.636 -53.074 -22.159  1.00  0.00    -0.331 N 
ATOM     23  H   UNL     1      11.649 -52.912 -22.205  1.00  0.00     0.348 HD
BRANCH  22  24
ATOM     24  C   UNL     1       9.995 -51.701 -22.135  1.00  0.00     0.299 C 
BRANCH  24  25
ATOM     25  C   UNL     1      10.944 -50.600 -22.520  1.00  0.00     0.006 A 
ATOM     26  C   UNL     1      10.492 -49.275 -22.626  1.00  0.00     0.009 A 
ATOM     27  C   UNL     1      12.290 -50.883 -22.799  1.00  0.00     0.009 A 
ATOM     28  C   UNL     1      11.367 -48.258 -23.010  1.00  0.00     0.001 A 
ATOM     29  C   UNL     1      13.162 -49.862 -23.182  1.00  0.00     0.001 A 
ATOM     30  C   UNL     1      12.699 -48.553 -23.289  1.00  0.00     0.000 A 
ENDBRANCH  24  25
ENDBRANCH  22  24
ENDBRANCH   1  17
TORSDOF 7
ENDMDL
MODEL 6
REMARK VINA RESULT:    -9.801      2.866      5.459
REMARK INTER + INTRA:         -13.954
REMARK INTER:                 -13.136
REMARK INTRA:                  -0.817
REMARK UNBOUND:                -0.429
REMARK SMILES COc1cc2c(cc1OC)C(O)=C(C[C@H]1CC[N@H+](Cc3ccccc3)CC1)C2
REMARK SMILES IDX 14 1 13 2 11 3 6 4 28 5 7 6 5 7 8 8 4 9 3 10 12 11 9 13
REMARK SMILES IDX 10 14 2 15 1 16 15 17 27 18 16 19 26 20 17 21 18 22 19 24
REMARK SMILES IDX 20 25 21 26 25 27 22 28 24 29 23 30
REMARK H PARENT 12 12 18 23
ROOT
ATOM      1  C   UNL     1      12.602 -51.215 -22.561  1.00  0.00     0.039 C 
ENDROOT
BRANCH   1   2
ATOM      2  C   UNL     1      12.360 -49.799 -22.995  1.00  0.00    -0.023 C 
ATOM      3  C   UNL     1      11.372 -48.937 -22.696  1.00  0.00     0.122 C 
ATOM      4  C   UNL     1      11.585 -47.681 -23.405  1.00  0.00     0.024 A 
ATOM      5  C   UNL     1      13.340 -49.173 -23.975  1.00  0.00     0.071 C 
ATOM      6  C   UNL     1      10.872 -46.497 -23.418  1.00  0.00     0.062 A 
ATOM      7  C   UNL     1      12.745 -47.810 -24.171  1.00  0.00    -0.029 A 
ATOM      8  C   UNL     1      11.331 -45.429 -24.207  1.00  0.00     0.161 A 
ATOM      9  C   UNL     1      13.206 -46.776 -24.976  1.00  0.00     0.055 A 
ATOM     10  C   UNL     1      12.488 -45.571 -25.012  1.00  0.00     0.161 A 
BRANCH   3  11
ATOM     11  O   UNL     1      10.292 -49.149 -21.896  1.00  0.00    -0.507 OA
ATOM     12  H   UNL     1       9.887 -49.991 -22.172  1.00  0.00     0.293 HD
ENDBRANCH   3  11
BRANCH   8  13
ATOM     13  O   UNL     1      10.513 -44.327 -24.117  1.00  0.00    -0.493 OA
ATOM     14  C   UNL     1      10.566 -43.576 -22.911  1.00  0.00     0.278 C 
ENDBRANCH   8  13
BRANCH  10  15
ATOM     15  O   UNL     1      12.840 -44.514 -25.809  1.00  0.00    -0.493 OA
ATOM     16  C   UNL     1      13.839 -43.619 -25.338  1.00  0.00     0.278 C 
ENDBRANCH  10  15
ENDBRANCH   1   2
BRANCH   1  17
ATOM     17  C   UNL     1      11.527 -52.261 -22.913  1.00  0.00     0.004 C 
ATOM     18  C   UNL     1      12.101 -53.330 -23.855  1.00  0.00     0.065 C 
ATOM     19  C   UNL     1      10.964 -52.952 -21.662  1.00  0.00     0.065 C 
ATOM     20  C   UNL     1      11.049 -54.370 -24.224  1.00  0.00     0.262 C 
ATOM     21  C   UNL     1       9.899 -53.971 -22.034  1.00  0.00     0.262 C 
ATOM     22  N   UNL     1      10.488 -54.998 -22.970  1.00  0.00    -0.331 N 
ATOM     23  H   UNL     1      11.272 -55.449 -22.483  1.00  0.00     0.348 HD
BRANCH  22  24
ATOM     24  C   UNL     1       9.492 -56.100 -23.267  1.00  0.00     0.299 C 
BRANCH  24  25
ATOM     25  C   UNL     1       9.906 -57.435 -22.711  1.00  0.00     0.006 A 
ATOM     26  C   UNL     1       9.161 -58.589 -23.001  1.00  0.00     0.009 A 
ATOM     27  C   UNL     1      11.030 -57.544 -21.878  1.00  0.00     0.009 A 
ATOM     28  C   UNL     1       9.530 -59.822 -22.463  1.00  0.00     0.001 A 
ATOM     29  C   UNL     1      11.396 -58.780 -21.343  1.00  0.00     0.001 A 
ATOM     30  C   UNL     1      10.645 -59.916 -21.634  1.00  0.00     0.000 A 
ENDBRANCH  24  25
ENDBRANCH  22  24
ENDBRANCH   1  17
TORSDOF 7
ENDMDL
MODEL 7
REMARK VINA RESULT:    -9.760      4.150     10.351
REMARK INTER + INTRA:         -13.897
REMARK INTER:                 -13.208
REMARK INTRA:                  -0.689
REMARK UNBOUND:                -0.429
REMARK SMILES COc1cc2c(cc1OC)C(O)=C(C[C@H]1CC[N@H+](Cc3ccccc3)CC1)C2
REMARK SMILES IDX 14 1 13 2 11 3 6 4 28 5 7 6 5 7 8 8 4 9 3 10 12 11 9 13
REMARK SMILES IDX 10 14 2 15 1 16 15 17 27 18 16 19 26 20 17 21 18 22 19 24
REMARK SMILES IDX 20 25 21 26 25 27 22 28 24 29 23 30
REMARK H PARENT 12 12 18 23
ROOT
ATOM      1  C   UNL     1      10.729 -60.409 -22.182  1.00  0.00     0.039 C 
ENDROOT
BRANCH   1   2
ATOM      2  C   UNL     1      10.045 -61.144 -23.297  1.00  0.00    -0.023 C 
ATOM      3  C   UNL     1      10.285 -61.172 -24.620  1.00  0.00     0.122 C 
ATOM      4  C   UNL     1       9.307 -62.028 -25.279  1.00  0.00     0.024 A 
ATOM      5  C   UNL     1       8.833 -61.999 -22.954  1.00  0.00     0.071 C 
ATOM      6  C   UNL     1       9.141 -62.391 -26.602  1.00  0.00     0.062 A 
ATOM      7  C   UNL     1       8.437 -62.521 -24.303  1.00  0.00    -0.029 A 
ATOM      8  C   UNL     1       8.093 -63.259 -26.951  1.00  0.00     0.161 A 
ATOM      9  C   UNL     1       7.381 -63.363 -24.625  1.00  0.00     0.055 A 
ATOM     10  C   UNL     1       7.189 -63.730 -25.966  1.00  0.00     0.161 A 
BRANCH   3  11
ATOM     11  O   UNL     1      11.247 -60.500 -25.308  1.00  0.00    -0.507 OA
ATOM     12  H   UNL     1      11.116 -60.693 -26.254  1.00  0.00     0.293 HD
ENDBRANCH   3  11
BRANCH   8  13
ATOM     13  O   UNL     1       8.057 -63.518 -28.300  1.00  0.00    -0.493 OA
ATOM     14  C   UNL     1       9.092 -62.953 -29.097  1.00  0.00     0.278 C 
ENDBRANCH   8  13
BRANCH  10  15
ATOM     15  O   UNL     1       6.149 -64.517 -26.384  1.00  0.00    -0.493 OA
ATOM     16  C   UNL     1       5.476 -65.313 -25.417  1.00  0.00     0.278 C 
ENDBRANCH  10  15
ENDBRANCH   1   2
BRANCH   1  17
ATOM     17  C   UNL     1      10.383 -58.919 -21.995  1.00  0.00     0.004 C 
ATOM     18  C   UNL     1      11.662 -58.069 -21.948  1.00  0.00     0.065 C 
ATOM     19  C   UNL     1       9.478 -58.392 -23.120  1.00  0.00     0.065 C 
ATOM     20  C   UNL     1      11.342 -56.592 -21.754  1.00  0.00     0.262 C 
ATOM     21  C   UNL     1       9.143 -56.925 -22.909  1.00  0.00     0.262 C 
ATOM     22  N   UNL     1      10.418 -56.119 -22.852  1.00  0.00    -0.331 N 
ATOM     23  H   UNL     1      10.913 -56.258 -23.741  1.00  0.00     0.348 HD
BRANCH  22  24
ATOM     24  C   UNL     1      10.122 -54.636 -22.766  1.00  0.00     0.299 C 
BRANCH  24  25
ATOM     25  C   UNL     1      11.145 -53.789 -23.471  1.00  0.00     0.006 A 
ATOM     26  C   UNL     1      11.449 -52.501 -23.000  1.00  0.00     0.009 A 
ATOM     27  C   UNL     1      11.797 -54.264 -24.619  1.00  0.00     0.009 A 
ATOM     28  C   UNL     1      12.378 -51.705 -23.670  1.00  0.00     0.001 A 
ATOM     29  C   UNL     1      12.727 -53.463 -25.286  1.00  0.00     0.001 A 
ATOM     30  C   UNL     1      13.014 -52.186 -24.812  1.00  0.00     0.000 A 
ENDBRANCH  24  25
ENDBRANCH  22  24
ENDBRANCH   1  17
TORSDOF 7
ENDMDL
MODEL 8
REMARK VINA RESULT:    -9.667      3.569     10.273
REMARK INTER + INTRA:         -13.770
REMARK INTER:                 -13.269
REMARK INTRA:                  -0.501
REMARK UNBOUND:                -0.429
REMARK SMILES COc1cc2c(cc1OC)C(O)=C(C[C@H]1CC[N@H+](Cc3ccccc3)CC1)C2
REMARK SMILES IDX 14 1 13 2 11 3 6 4 28 5 7 6 5 7 8 8 4 9 3 10 12 11 9 13
REMARK SMILES IDX 10 14 2 15 1 16 15 17 27 18 16 19 26 20 17 21 18 22 19 24
REMARK SMILES IDX 20 25 21 26 25 27 22 28 24 29 23 30
REMARK H PARENT 12 12 18 23
ROOT
ATOM      1  C   UNL     1       9.602 -55.001 -22.386  1.00  0.00     0.039 C 
ENDROOT
BRANCH   1   2
ATOM      2  C   UNL     1       9.956 -56.395 -22.813  1.00  0.00    -0.023 C 
ATOM      3  C   UNL     1       9.183 -57.448 -23.133  1.00  0.00     0.122 C 
ATOM      4  C   UNL     1      10.023 -58.595 -23.455  1.00  0.00     0.024 A 
ATOM      5  C   UNL     1      11.429 -56.771 -22.882  1.00  0.00     0.071 C 
ATOM      6  C   UNL     1       9.715 -59.881 -23.855  1.00  0.00     0.062 A 
ATOM      7  C   UNL     1      11.357 -58.209 -23.304  1.00  0.00    -0.029 A 
ATOM      8  C   UNL     1      10.756 -60.790 -24.108  1.00  0.00     0.161 A 
ATOM      9  C   UNL     1      12.403 -59.094 -23.528  1.00  0.00     0.055 A 
ATOM     10  C   UNL     1      12.108 -60.409 -23.921  1.00  0.00     0.161 A 
BRANCH   3  11
ATOM     11  O   UNL     1       7.824 -57.515 -23.140  1.00  0.00    -0.507 OA
ATOM     12  H   UNL     1       7.565 -58.097 -23.877  1.00  0.00     0.293 HD
ENDBRANCH   3  11
BRANCH   8  13
ATOM     13  O   UNL     1      10.288 -62.025 -24.490  1.00  0.00    -0.493 OA
ATOM     14  C   UNL     1       9.720 -62.845 -23.476  1.00  0.00     0.278 C 
ENDBRANCH   8  13
BRANCH  10  15
ATOM     15  O   UNL     1      13.070 -61.363 -24.120  1.00  0.00    -0.493 OA
ATOM     16  C   UNL     1      14.265 -60.986 -24.791  1.00  0.00     0.278 C 
ENDBRANCH  10  15
ENDBRANCH   1   2
BRANCH   1  17
ATOM     17  C   UNL     1      10.731 -53.952 -22.377  1.00  0.00     0.004 C 
ATOM     18  C   UNL     1      11.142 -53.586 -23.811  1.00  0.00     0.065 C 
ATOM     19  C   UNL     1      10.320 -52.670 -21.636  1.00  0.00     0.065 C 
ATOM     20  C   UNL     1      12.265 -52.556 -23.824  1.00  0.00     0.262 C 
ATOM     21  C   UNL     1      11.452 -51.656 -21.631  1.00  0.00     0.262 C 
ATOM     22  N   UNL     1      11.842 -51.328 -23.051  1.00  0.00    -0.331 N 
ATOM     23  H   UNL     1      11.012 -50.948 -23.522  1.00  0.00     0.348 HD
BRANCH  22  24
ATOM     24  C   UNL     1      12.884 -50.229 -23.091  1.00  0.00     0.299 C 
BRANCH  24  25
ATOM     25  C   UNL     1      12.318 -48.894 -23.488  1.00  0.00     0.006 A 
ATOM     26  C   UNL     1      12.893 -48.161 -24.540  1.00  0.00     0.009 A 
ATOM     27  C   UNL     1      11.220 -48.352 -22.803  1.00  0.00     0.009 A 
ATOM     28  C   UNL     1      12.384 -46.910 -24.890  1.00  0.00     0.001 A 
ATOM     29  C   UNL     1      10.714 -47.099 -23.158  1.00  0.00     0.001 A 
ATOM     30  C   UNL     1      11.297 -46.380 -24.199  1.00  0.00     0.000 A 
ENDBRANCH  24  25
ENDBRANCH  22  24
ENDBRANCH   1  17
TORSDOF 7
ENDMDL
MODEL 9
REMARK VINA RESULT:    -9.550      2.468      4.642
REMARK INTER + INTRA:         -13.607
REMARK INTER:                 -13.165
REMARK INTRA:                  -0.442
REMARK UNBOUND:                -0.429
REMARK SMILES COc1cc2c(cc1OC)C(O)=C(C[C@H]1CC[N@H+](Cc3ccccc3)CC1)C2
REMARK SMILES IDX 14 1 13 2 11 3 6 4 28 5 7 6 5 7 8 8 4 9 3 10 12 11 9 13
REMARK SMILES IDX 10 14 2 15 1 16 15 17 27 18 16 19 26 20 17 21 18 22 19 24
REMARK SMILES IDX 20 25 21 26 25 27 22 28 24 29 23 30
REMARK H PARENT 12 12 18 23
ROOT
ATOM      1  C   UNL     1      10.361 -51.997 -21.708  1.00  0.00     0.039 C 
ENDROOT
BRANCH   1   2
ATOM      2  C   UNL     1      10.932 -50.736 -22.285  1.00  0.00    -0.023 C 
ATOM      3  C   UNL     1      12.179 -50.428 -22.684  1.00  0.00     0.122 C 
ATOM      4  C   UNL     1      12.220 -49.047 -23.147  1.00  0.00     0.024 A 
ATOM      5  C   UNL     1      10.009 -49.536 -22.440  1.00  0.00     0.071 C 
ATOM      6  C   UNL     1      13.245 -48.277 -23.665  1.00  0.00     0.062 A 
ATOM      7  C   UNL     1      10.941 -48.505 -23.003  1.00  0.00    -0.029 A 
ATOM      8  C   UNL     1      12.983 -46.950 -24.044  1.00  0.00     0.161 A 
ATOM      9  C   UNL     1      10.662 -47.190 -23.350  1.00  0.00     0.055 A 
ATOM     10  C   UNL     1      11.694 -46.389 -23.864  1.00  0.00     0.161 A 
BRANCH   3  11
ATOM     11  O   UNL     1      13.286 -51.220 -22.652  1.00  0.00    -0.507 OA
ATOM     12  H   UNL     1      13.451 -51.450 -21.721  1.00  0.00     0.293 HD
ENDBRANCH   3  11
BRANCH   8  13
ATOM     13  O   UNL     1      14.101 -46.317 -24.532  1.00  0.00    -0.493 OA
ATOM     14  C   UNL     1      15.361 -46.903 -24.232  1.00  0.00     0.278 C 
ENDBRANCH   8  13
BRANCH  10  15
ATOM     15  O   UNL     1      11.524 -45.070 -24.190  1.00  0.00    -0.493 OA
ATOM     16  C   UNL     1      10.794 -44.243 -23.294  1.00  0.00     0.278 C 
ENDBRANCH  10  15
ENDBRANCH   1   2
BRANCH   1  17
ATOM     17  C   UNL     1      11.031 -53.327 -22.105  1.00  0.00     0.004 C 
ATOM     18  C   UNL     1      10.507 -54.478 -21.233  1.00  0.00     0.065 C 
ATOM     19  C   UNL     1      10.790 -53.675 -23.582  1.00  0.00     0.065 C 
ATOM     20  C   UNL     1      11.164 -55.803 -21.604  1.00  0.00     0.262 C 
ATOM     21  C   UNL     1      11.468 -54.984 -23.952  1.00  0.00     0.262 C 
ATOM     22  N   UNL     1      10.944 -56.090 -23.071  1.00  0.00    -0.331 N 
ATOM     23  H   UNL     1       9.929 -56.149 -23.216  1.00  0.00     0.348 HD
BRANCH  22  24
ATOM     24  C   UNL     1      11.504 -57.434 -23.490  1.00  0.00     0.299 C 
BRANCH  24  25
ATOM     25  C   UNL     1      10.693 -58.595 -22.985  1.00  0.00     0.006 A 
ATOM     26  C   UNL     1      11.062 -59.262 -21.805  1.00  0.00     0.009 A 
ATOM     27  C   UNL     1       9.567 -59.041 -23.694  1.00  0.00     0.009 A 
ATOM     28  C   UNL     1      10.324 -60.356 -21.353  1.00  0.00     0.001 A 
ATOM     29  C   UNL     1       8.832 -60.136 -23.236  1.00  0.00     0.001 A 
ATOM     30  C   UNL     1       9.212 -60.793 -22.068  1.00  0.00     0.000 A 
ENDBRANCH  24  25
ENDBRANCH  22  24
ENDBRANCH   1  17
TORSDOF 7
ENDMDL
