MODEL 1
REMARK VINA RESULT:    -9.887      0.000      0.000
REMARK INTER + INTRA:         -16.540
REMARK INTER:                 -15.668
REMARK INTRA:                  -0.873
REMARK UNBOUND:                -0.873
REMARK SMILES O=C(C[n+]1ccccc1)NN=Cc1ccc(/C=N/NC(=O)C[n+]2ccccc2)cc1
REMARK SMILES IDX 13 1 14 2 15 3 16 4 29 5 30 6 12 7 11 8 10 9 2 10 1 12 3 13
REMARK SMILES IDX 4 14 5 15 9 16 6 17 8 18 7 19 17 20 18 21 19 22 20 23 21 25
REMARK SMILES IDX 22 26 23 27 24 28 28 29 25 30 27 31 26 32
REMARK H PARENT 10 11 19 24
ROOT
ATOM      1  C   UNL     1      11.043 -55.849 -22.757  1.00  0.00    -0.005 A 
ATOM      2  C   UNL     1      10.989 -55.473 -21.412  1.00  0.00     0.010 A 
ATOM      3  C   UNL     1      10.737 -54.140 -21.072  1.00  0.00     0.010 A 
ATOM      4  C   UNL     1      10.559 -53.186 -22.079  1.00  0.00    -0.005 A 
ATOM      5  C   UNL     1      10.623 -53.565 -23.426  1.00  0.00     0.010 A 
ATOM      6  C   UNL     1      10.871 -54.898 -23.767  1.00  0.00     0.010 A 
ENDROOT
BRANCH   1   7
ATOM      7  C   UNL     1      11.406 -57.242 -23.071  1.00  0.00     0.141 C 
BRANCH   7   8
ATOM      8  N   UNL     1      11.800 -57.757 -24.197  1.00  0.00    -0.181 NA
BRANCH   8   9
ATOM      9  N   UNL     1      11.857 -59.104 -24.372  1.00  0.00    -0.242 N 
ATOM     10  C   UNL     1      10.712 -59.738 -24.843  1.00  0.00     0.305 C 
ATOM     11  H   UNL     1      12.772 -59.545 -24.361  1.00  0.00     0.193 HD
ATOM     12  O   UNL     1       9.610 -59.205 -24.967  1.00  0.00    -0.266 OA
BRANCH  10  13
ATOM     13  C   UNL     1      10.909 -61.194 -25.195  1.00  0.00     0.458 C 
BRANCH  13  14
ATOM     14  N   UNL     1      10.022 -62.047 -24.370  1.00  0.00    -0.196 N 
ATOM     15  C   UNL     1       8.840 -62.474 -24.879  1.00  0.00     0.308 A 
ATOM     16  C   UNL     1      10.418 -62.437 -23.135  1.00  0.00     0.308 A 
ATOM     17  C   UNL     1       7.997 -63.285 -24.128  1.00  0.00     0.071 A 
ATOM     18  C   UNL     1       9.605 -63.247 -22.352  1.00  0.00     0.071 A 
ATOM     19  C   UNL     1       8.381 -63.671 -22.851  1.00  0.00     0.012 A 
ENDBRANCH  13  14
ENDBRANCH  10  13
ENDBRANCH   8   9
ENDBRANCH   7   8
ENDBRANCH   1   7
BRANCH   4  20
ATOM     20  C   UNL     1      10.351 -51.774 -21.687  1.00  0.00     0.141 C 
BRANCH  20  21
ATOM     21  N   UNL     1      11.329 -51.031 -21.268  1.00  0.00    -0.181 NA
BRANCH  21  22
ATOM     22  N   UNL     1      12.425 -50.868 -22.079  1.00  0.00    -0.242 N 
ATOM     23  C   UNL     1      12.582 -49.805 -22.970  1.00  0.00     0.305 C 
ATOM     24  H   UNL     1      13.255 -51.300 -21.673  1.00  0.00     0.193 HD
ATOM     25  O   UNL     1      11.712 -48.992 -23.276  1.00  0.00    -0.266 OA
BRANCH  23  26
ATOM     26  C   UNL     1      13.978 -49.722 -23.558  1.00  0.00     0.458 C 
BRANCH  26  27
ATOM     27  N   UNL     1      14.298 -50.945 -24.332  1.00  0.00    -0.196 N 
ATOM     28  C   UNL     1      15.546 -51.466 -24.282  1.00  0.00     0.308 A 
ATOM     29  C   UNL     1      13.329 -51.549 -25.062  1.00  0.00     0.308 A 
ATOM     30  C   UNL     1      15.865 -52.613 -24.999  1.00  0.00     0.071 A 
ATOM     31  C   UNL     1      13.605 -52.697 -25.793  1.00  0.00     0.071 A 
ATOM     32  C   UNL     1      14.885 -53.233 -25.765  1.00  0.00     0.012 A 
ENDBRANCH  26  27
ENDBRANCH  23  26
ENDBRANCH  21  22
ENDBRANCH  20  21
ENDBRANCH   4  20
TORSDOF 10
ENDMDL
MODEL 2
REMARK VINA RESULT:    -9.873      0.747     10.125
REMARK INTER + INTRA:         -16.517
REMARK INTER:                 -15.604
REMARK INTRA:                  -0.913
REMARK UNBOUND:                -0.873
REMARK SMILES O=C(C[n+]1ccccc1)NN=Cc1ccc(/C=N/NC(=O)C[n+]2ccccc2)cc1
REMARK SMILES IDX 13 1 14 2 15 3 16 4 29 5 30 6 12 7 11 8 10 9 2 10 1 12 3 13
REMARK SMILES IDX 4 14 5 15 9 16 6 17 8 18 7 19 17 20 18 21 19 22 20 23 21 25
REMARK SMILES IDX 22 26 23 27 24 28 28 29 25 30 27 31 26 32
REMARK H PARENT 10 11 19 24
ROOT
ATOM      1  C   UNL     1      10.718 -53.800 -22.208  1.00  0.00    -0.005 A 
ATOM      2  C   UNL     1      10.755 -54.838 -21.272  1.00  0.00     0.010 A 
ATOM      3  C   UNL     1      11.090 -56.132 -21.681  1.00  0.00     0.010 A 
ATOM      4  C   UNL     1      11.369 -56.387 -23.028  1.00  0.00    -0.005 A 
ATOM      5  C   UNL     1      11.322 -55.347 -23.965  1.00  0.00     0.010 A 
ATOM      6  C   UNL     1      10.991 -54.051 -23.556  1.00  0.00     0.010 A 
ENDROOT
BRANCH   1   7
ATOM      7  C   UNL     1      10.267 -52.474 -21.753  1.00  0.00     0.141 C 
BRANCH   7   8
ATOM      8  N   UNL     1      10.966 -51.473 -21.309  1.00  0.00    -0.181 NA
BRANCH   8   9
ATOM      9  N   UNL     1      12.067 -51.035 -21.976  1.00  0.00    -0.242 N 
ATOM     10  C   UNL     1      11.984 -49.796 -22.604  1.00  0.00     0.305 C 
ATOM     11  H   UNL     1      12.946 -51.515 -21.810  1.00  0.00     0.193 HD
ATOM     12  O   UNL     1      10.954 -49.137 -22.734  1.00  0.00    -0.266 OA
BRANCH  10  13
ATOM     13  C   UNL     1      13.297 -49.291 -23.156  1.00  0.00     0.458 C 
BRANCH  13  14
ATOM     14  N   UNL     1      13.940 -50.335 -23.989  1.00  0.00    -0.196 N 
ATOM     15  C   UNL     1      15.172 -50.792 -23.659  1.00  0.00     0.308 A 
ATOM     16  C   UNL     1      13.271 -50.864 -25.042  1.00  0.00     0.308 A 
ATOM     17  C   UNL     1      15.789 -51.779 -24.419  1.00  0.00     0.071 A 
ATOM     18  C   UNL     1      13.853 -51.852 -25.827  1.00  0.00     0.071 A 
ATOM     19  C   UNL     1      15.126 -52.310 -25.516  1.00  0.00     0.012 A 
ENDBRANCH  13  14
ENDBRANCH  10  13
ENDBRANCH   8   9
ENDBRANCH   7   8
ENDBRANCH   1   7
BRANCH   4  20
ATOM     20  C   UNL     1      11.665 -57.778 -23.439  1.00  0.00     0.141 C 
BRANCH  20  21
ATOM     21  N   UNL     1      11.717 -58.124 -24.689  1.00  0.00    -0.181 NA
BRANCH  21  22
ATOM     22  N   UNL     1      11.367 -59.407 -25.030  1.00  0.00    -0.242 N 
ATOM     23  C   UNL     1      10.053 -59.818 -25.262  1.00  0.00     0.305 C 
ATOM     24  H   UNL     1      12.127 -59.883 -25.514  1.00  0.00     0.193 HD
ATOM     25  O   UNL     1       9.044 -59.160 -25.024  1.00  0.00    -0.266 OA
BRANCH  23  26
ATOM     26  C   UNL     1       9.962 -61.209 -25.863  1.00  0.00     0.458 C 
BRANCH  26  27
ATOM     27  N   UNL     1       9.324 -62.153 -24.915  1.00  0.00    -0.196 N 
ATOM     28  C   UNL     1       8.135 -62.721 -25.228  1.00  0.00     0.308 A 
ATOM     29  C   UNL     1       9.950 -62.462 -23.754  1.00  0.00     0.308 A 
ATOM     30  C   UNL     1       7.522 -63.610 -24.353  1.00  0.00     0.071 A 
ATOM     31  C   UNL     1       9.371 -63.346 -22.851  1.00  0.00     0.071 A 
ATOM     32  C   UNL     1       8.145 -63.923 -23.151  1.00  0.00     0.012 A 
ENDBRANCH  26  27
ENDBRANCH  23  26
ENDBRANCH  21  22
ENDBRANCH  20  21
ENDBRANCH   4  20
TORSDOF 10
ENDMDL
MODEL 3
REMARK VINA RESULT:    -9.783      2.448     10.113
REMARK INTER + INTRA:         -16.374
REMARK INTER:                 -15.365
REMARK INTRA:                  -1.009
REMARK UNBOUND:                -0.873
REMARK SMILES O=C(C[n+]1ccccc1)NN=Cc1ccc(/C=N/NC(=O)C[n+]2ccccc2)cc1
REMARK SMILES IDX 13 1 14 2 15 3 16 4 29 5 30 6 12 7 11 8 10 9 2 10 1 12 3 13
REMARK SMILES IDX 4 14 5 15 9 16 6 17 8 18 7 19 17 20 18 21 19 22 20 23 21 25
REMARK SMILES IDX 22 26 23 27 24 28 28 29 25 30 27 31 26 32
REMARK H PARENT 10 11 19 24
ROOT
ATOM      1  C   UNL     1      11.224 -57.033 -22.414  1.00  0.00    -0.005 A 
ATOM      2  C   UNL     1      11.695 -57.182 -23.721  1.00  0.00     0.010 A 
ATOM      3  C   UNL     1      12.047 -58.450 -24.194  1.00  0.00     0.010 A 
ATOM      4  C   UNL     1      11.943 -59.562 -23.350  1.00  0.00    -0.005 A 
ATOM      5  C   UNL     1      11.479 -59.407 -22.038  1.00  0.00     0.010 A 
ATOM      6  C   UNL     1      11.124 -58.140 -21.566  1.00  0.00     0.010 A 
ENDROOT
BRANCH   1   7
ATOM      7  C   UNL     1      10.958 -55.668 -21.926  1.00  0.00     0.141 C 
BRANCH   7   8
ATOM      8  N   UNL     1      10.408 -54.666 -22.544  1.00  0.00    -0.181 NA
BRANCH   8   9
ATOM      9  N   UNL     1      10.939 -53.417 -22.467  1.00  0.00    -0.242 N 
ATOM     10  C   UNL     1      11.697 -52.975 -23.547  1.00  0.00     0.305 C 
ATOM     11  H   UNL     1      10.590 -52.796 -21.743  1.00  0.00     0.193 HD
ATOM     12  O   UNL     1      12.053 -53.676 -24.494  1.00  0.00    -0.266 OA
BRANCH  10  13
ATOM     13  C   UNL     1      12.089 -51.518 -23.475  1.00  0.00     0.458 C 
BRANCH  13  14
ATOM     14  N   UNL     1      13.336 -51.282 -24.242  1.00  0.00    -0.196 N 
ATOM     15  C   UNL     1      13.262 -50.829 -25.517  1.00  0.00     0.308 A 
ATOM     16  C   UNL     1      14.538 -51.471 -23.648  1.00  0.00     0.308 A 
ATOM     17  C   UNL     1      14.418 -50.589 -26.251  1.00  0.00     0.071 A 
ATOM     18  C   UNL     1      15.717 -51.244 -24.348  1.00  0.00     0.071 A 
ATOM     19  C   UNL     1      15.657 -50.804 -25.663  1.00  0.00     0.012 A 
ENDBRANCH  13  14
ENDBRANCH  10  13
ENDBRANCH   8   9
ENDBRANCH   7   8
ENDBRANCH   1   7
BRANCH   4  20
ATOM     20  C   UNL     1      12.376 -60.882 -23.862  1.00  0.00     0.141 C 
BRANCH  20  21
ATOM     21  N   UNL     1      11.607 -61.925 -23.794  1.00  0.00    -0.181 NA
BRANCH  21  22
ATOM     22  N   UNL     1      10.375 -61.873 -24.398  1.00  0.00    -0.242 N 
ATOM     23  C   UNL     1       9.270 -62.612 -23.973  1.00  0.00     0.305 C 
ATOM     24  H   UNL     1      10.224 -60.974 -24.856  1.00  0.00     0.193 HD
ATOM     25  O   UNL     1       9.289 -63.517 -23.143  1.00  0.00    -0.266 OA
BRANCH  23  26
ATOM     26  C   UNL     1       7.977 -62.188 -24.646  1.00  0.00     0.458 C 
BRANCH  26  27
ATOM     27  N   UNL     1       7.552 -60.849 -24.176  1.00  0.00    -0.196 N 
ATOM     28  C   UNL     1       6.435 -60.723 -23.421  1.00  0.00     0.308 A 
ATOM     29  C   UNL     1       8.301 -59.762 -24.482  1.00  0.00     0.308 A 
ATOM     30  C   UNL     1       6.021 -59.475 -22.969  1.00  0.00     0.071 A 
ATOM     31  C   UNL     1       7.923 -58.497 -24.051  1.00  0.00     0.071 A 
ATOM     32  C   UNL     1       6.771 -58.351 -23.290  1.00  0.00     0.012 A 
ENDBRANCH  26  27
ENDBRANCH  23  26
ENDBRANCH  21  22
ENDBRANCH  20  21
ENDBRANCH   4  20
TORSDOF 10
ENDMDL
MODEL 4
REMARK VINA RESULT:    -9.609      2.486     11.678
REMARK INTER + INTRA:         -16.099
REMARK INTER:                 -15.566
REMARK INTRA:                  -0.533
REMARK UNBOUND:                -0.873
REMARK SMILES O=C(C[n+]1ccccc1)NN=Cc1ccc(/C=N/NC(=O)C[n+]2ccccc2)cc1
REMARK SMILES IDX 13 1 14 2 15 3 16 4 29 5 30 6 12 7 11 8 10 9 2 10 1 12 3 13
REMARK SMILES IDX 4 14 5 15 9 16 6 17 8 18 7 19 17 20 18 21 19 22 20 23 21 25
REMARK SMILES IDX 22 26 23 27 24 28 28 29 25 30 27 31 26 32
REMARK H PARENT 10 11 19 24
ROOT
ATOM      1  C   UNL     1      10.854 -53.041 -22.194  1.00  0.00    -0.005 A 
ATOM      2  C   UNL     1      10.656 -54.020 -21.217  1.00  0.00     0.010 A 
ATOM      3  C   UNL     1      10.826 -55.370 -21.539  1.00  0.00     0.010 A 
ATOM      4  C   UNL     1      11.176 -55.736 -22.842  1.00  0.00    -0.005 A 
ATOM      5  C   UNL     1      11.365 -54.753 -23.822  1.00  0.00     0.010 A 
ATOM      6  C   UNL     1      11.198 -53.403 -23.500  1.00  0.00     0.010 A 
ENDROOT
BRANCH   1   7
ATOM      7  C   UNL     1      10.569 -51.640 -21.838  1.00  0.00     0.141 C 
BRANCH   7   8
ATOM      8  N   UNL     1      11.396 -50.664 -21.610  1.00  0.00    -0.181 NA
BRANCH   8   9
ATOM      9  N   UNL     1      11.786 -49.826 -22.608  1.00  0.00    -0.242 N 
ATOM     10  C   UNL     1      10.999 -48.704 -22.846  1.00  0.00     0.305 C 
ATOM     11  H   UNL     1      12.724 -49.936 -22.979  1.00  0.00     0.193 HD
ATOM     12  O   UNL     1       9.901 -48.489 -22.335  1.00  0.00    -0.266 OA
BRANCH  10  13
ATOM     13  C   UNL     1      11.596 -47.726 -23.831  1.00  0.00     0.458 C 
BRANCH  13  14
ATOM     14  N   UNL     1      11.594 -46.358 -23.262  1.00  0.00    -0.196 N 
ATOM     15  C   UNL     1      12.594 -45.977 -22.431  1.00  0.00     0.308 A 
ATOM     16  C   UNL     1      10.624 -45.481 -23.616  1.00  0.00     0.308 A 
ATOM     17  C   UNL     1      12.620 -44.694 -21.894  1.00  0.00     0.071 A 
ATOM     18  C   UNL     1      10.613 -44.190 -23.102  1.00  0.00     0.071 A 
ATOM     19  C   UNL     1      11.617 -43.795 -22.229  1.00  0.00     0.012 A 
ENDBRANCH  13  14
ENDBRANCH  10  13
ENDBRANCH   8   9
ENDBRANCH   7   8
ENDBRANCH   1   7
BRANCH   4  20
ATOM     20  C   UNL     1      11.294 -57.176 -23.166  1.00  0.00     0.141 C 
BRANCH  20  21
ATOM     21  N   UNL     1      10.333 -57.825 -23.748  1.00  0.00    -0.181 NA
BRANCH  21  22
ATOM     22  N   UNL     1      10.490 -59.171 -23.970  1.00  0.00    -0.242 N 
ATOM     23  C   UNL     1      10.017 -59.831 -25.105  1.00  0.00     0.305 C 
ATOM     24  H   UNL     1      11.318 -59.532 -23.497  1.00  0.00     0.193 HD
ATOM     25  O   UNL     1       9.263 -59.355 -25.949  1.00  0.00    -0.266 OA
BRANCH  23  26
ATOM     26  C   UNL     1      10.535 -61.253 -25.226  1.00  0.00     0.458 C 
BRANCH  26  27
ATOM     27  N   UNL     1       9.662 -62.197 -24.491  1.00  0.00    -0.196 N 
ATOM     28  C   UNL     1      10.014 -62.615 -23.252  1.00  0.00     0.308 A 
ATOM     29  C   UNL     1       8.501 -62.613 -25.053  1.00  0.00     0.308 A 
ATOM     30  C   UNL     1       9.206 -63.499 -22.546  1.00  0.00     0.071 A 
ATOM     31  C   UNL     1       7.665 -63.496 -24.381  1.00  0.00     0.071 A 
ATOM     32  C   UNL     1       8.022 -63.946 -23.118  1.00  0.00     0.012 A 
ENDBRANCH  26  27
ENDBRANCH  23  26
ENDBRANCH  21  22
ENDBRANCH  20  21
ENDBRANCH   4  20
TORSDOF 10
ENDMDL
MODEL 5
REMARK VINA RESULT:    -9.577      2.610      3.907
REMARK INTER + INTRA:         -16.049
REMARK INTER:                 -15.538
REMARK INTRA:                  -0.510
REMARK UNBOUND:                -0.873
REMARK SMILES O=C(C[n+]1ccccc1)NN=Cc1ccc(/C=N/NC(=O)C[n+]2ccccc2)cc1
REMARK SMILES IDX 13 1 14 2 15 3 16 4 29 5 30 6 12 7 11 8 10 9 2 10 1 12 3 13
REMARK SMILES IDX 4 14 5 15 9 16 6 17 8 18 7 19 17 20 18 21 19 22 20 23 21 25
REMARK SMILES IDX 22 26 23 27 24 28 28 29 25 30 27 31 26 32
REMARK H PARENT 10 11 19 24
ROOT
ATOM      1  C   UNL     1      10.984 -55.323 -22.578  1.00  0.00    -0.005 A 
ATOM      2  C   UNL     1      11.361 -54.458 -23.608  1.00  0.00     0.010 A 
ATOM      3  C   UNL     1      11.423 -53.081 -23.373  1.00  0.00     0.010 A 
ATOM      4  C   UNL     1      11.091 -52.573 -22.113  1.00  0.00    -0.005 A 
ATOM      5  C   UNL     1      10.705 -53.442 -21.085  1.00  0.00     0.010 A 
ATOM      6  C   UNL     1      10.645 -54.820 -21.318  1.00  0.00     0.010 A 
ENDROOT
BRANCH   1   7
ATOM      7  C   UNL     1      10.837 -56.754 -22.895  1.00  0.00     0.141 C 
BRANCH   7   8
ATOM      8  N   UNL     1      11.715 -57.587 -23.367  1.00  0.00    -0.181 NA
BRANCH   8   9
ATOM      9  N   UNL     1      11.386 -58.479 -24.340  1.00  0.00    -0.242 N 
ATOM     10  C   UNL     1      12.161 -59.630 -24.441  1.00  0.00     0.305 C 
ATOM     11  H   UNL     1      10.484 -58.374 -24.794  1.00  0.00     0.193 HD
ATOM     12  O   UNL     1      13.207 -59.835 -23.827  1.00  0.00    -0.266 OA
BRANCH  10  13
ATOM     13  C   UNL     1      11.621 -60.657 -25.409  1.00  0.00     0.458 C 
BRANCH  13  14
ATOM     14  N   UNL     1      10.652 -61.547 -24.727  1.00  0.00    -0.196 N 
ATOM     15  C   UNL     1       9.516 -61.918 -25.368  1.00  0.00     0.308 A 
ATOM     16  C   UNL     1      10.930 -62.026 -23.491  1.00  0.00     0.308 A 
ATOM     17  C   UNL     1       8.599 -62.762 -24.752  1.00  0.00     0.071 A 
ATOM     18  C   UNL     1      10.039 -62.872 -22.841  1.00  0.00     0.071 A 
ATOM     19  C   UNL     1       8.860 -63.239 -23.475  1.00  0.00     0.012 A 
ENDBRANCH  13  14
ENDBRANCH  10  13
ENDBRANCH   8   9
ENDBRANCH   7   8
ENDBRANCH   1   7
BRANCH   4  20
ATOM     20  C   UNL     1      11.112 -51.107 -21.912  1.00  0.00     0.141 C 
BRANCH  20  21
ATOM     21  N   UNL     1      12.095 -50.374 -22.338  1.00  0.00    -0.181 NA
BRANCH  21  22
ATOM     22  N   UNL     1      12.311 -49.155 -21.745  1.00  0.00    -0.242 N 
ATOM     23  C   UNL     1      13.355 -48.296 -22.092  1.00  0.00     0.305 C 
ATOM     24  H   UNL     1      11.444 -48.759 -21.383  1.00  0.00     0.193 HD
ATOM     25  O   UNL     1      14.301 -48.577 -22.824  1.00  0.00    -0.266 OA
BRANCH  23  26
ATOM     26  C   UNL     1      13.225 -46.918 -21.470  1.00  0.00     0.458 C 
BRANCH  26  27
ATOM     27  N   UNL     1      12.373 -46.040 -22.306  1.00  0.00    -0.196 N 
ATOM     28  C   UNL     1      12.916 -45.373 -23.352  1.00  0.00     0.308 A 
ATOM     29  C   UNL     1      11.050 -45.933 -22.034  1.00  0.00     0.308 A 
ATOM     30  C   UNL     1      12.133 -44.546 -24.149  1.00  0.00     0.071 A 
ATOM     31  C   UNL     1      10.231 -45.118 -22.805  1.00  0.00     0.071 A 
ATOM     32  C   UNL     1      10.778 -44.414 -23.870  1.00  0.00     0.012 A 
ENDBRANCH  26  27
ENDBRANCH  23  26
ENDBRANCH  21  22
ENDBRANCH  20  21
ENDBRANCH   4  20
TORSDOF 10
ENDMDL
MODEL 6
REMARK VINA RESULT:    -9.564      2.757      4.079
REMARK INTER + INTRA:         -16.028
REMARK INTER:                 -15.451
REMARK INTRA:                  -0.577
REMARK UNBOUND:                -0.873
REMARK SMILES O=C(C[n+]1ccccc1)NN=Cc1ccc(/C=N/NC(=O)C[n+]2ccccc2)cc1
REMARK SMILES IDX 13 1 14 2 15 3 16 4 29 5 30 6 12 7 11 8 10 9 2 10 1 12 3 13
REMARK SMILES IDX 4 14 5 15 9 16 6 17 8 18 7 19 17 20 18 21 19 22 20 23 21 25
REMARK SMILES IDX 22 26 23 27 24 28 28 29 25 30 27 31 26 32
REMARK H PARENT 10 11 19 24
ROOT
ATOM      1  C   UNL     1      11.025 -55.125 -22.582  1.00  0.00    -0.005 A 
ATOM      2  C   UNL     1      10.656 -54.578 -21.350  1.00  0.00     0.010 A 
ATOM      3  C   UNL     1      10.634 -53.191 -21.182  1.00  0.00     0.010 A 
ATOM      4  C   UNL     1      10.997 -52.355 -22.243  1.00  0.00    -0.005 A 
ATOM      5  C   UNL     1      11.375 -52.906 -23.475  1.00  0.00     0.010 A 
ATOM      6  C   UNL     1      11.395 -54.294 -23.644  1.00  0.00     0.010 A 
ENDROOT
BRANCH   1   7
ATOM      7  C   UNL     1      11.129 -56.591 -22.685  1.00  0.00     0.141 C 
BRANCH   7   8
ATOM      8  N   UNL     1      10.869 -57.366 -23.695  1.00  0.00    -0.181 NA
BRANCH   8   9
ATOM      9  N   UNL     1      11.089 -58.706 -23.628  1.00  0.00    -0.242 N 
ATOM     10  C   UNL     1      11.724 -59.306 -24.710  1.00  0.00     0.305 C 
ATOM     11  H   UNL     1      10.982 -59.160 -22.725  1.00  0.00     0.193 HD
ATOM     12  O   UNL     1      11.962 -58.755 -25.784  1.00  0.00    -0.266 OA
BRANCH  10  13
ATOM     13  C   UNL     1      12.106 -60.750 -24.483  1.00  0.00     0.458 C 
BRANCH  13  14
ATOM     14  N   UNL     1      10.892 -61.586 -24.333  1.00  0.00    -0.196 N 
ATOM     15  C   UNL     1      10.709 -62.305 -23.198  1.00  0.00     0.308 A 
ATOM     16  C   UNL     1       9.948 -61.586 -25.304  1.00  0.00     0.308 A 
ATOM     17  C   UNL     1       9.572 -63.087 -23.030  1.00  0.00     0.071 A 
ATOM     18  C   UNL     1       8.797 -62.354 -25.176  1.00  0.00     0.071 A 
ATOM     19  C   UNL     1       8.610 -63.116 -24.030  1.00  0.00     0.012 A 
ENDBRANCH  13  14
ENDBRANCH  10  13
ENDBRANCH   8   9
ENDBRANCH   7   8
ENDBRANCH   1   7
BRANCH   4  20
ATOM     20  C   UNL     1      11.017 -50.892 -22.018  1.00  0.00     0.141 C 
BRANCH  20  21
ATOM     21  N   UNL     1      10.020 -50.135 -22.361  1.00  0.00    -0.181 NA
BRANCH  21  22
ATOM     22  N   UNL     1      10.056 -48.806 -22.018  1.00  0.00    -0.242 N 
ATOM     23  C   UNL     1      10.736 -47.833 -22.753  1.00  0.00     0.305 C 
ATOM     24  H   UNL     1       9.229 -48.537 -21.486  1.00  0.00     0.193 HD
ATOM     25  O   UNL     1      11.519 -48.047 -23.674  1.00  0.00    -0.266 OA
BRANCH  23  26
ATOM     26  C   UNL     1      10.414 -46.418 -22.307  1.00  0.00     0.458 C 
BRANCH  26  27
ATOM     27  N   UNL     1      11.650 -45.612 -22.175  1.00  0.00    -0.196 N 
ATOM     28  C   UNL     1      12.616 -45.997 -21.308  1.00  0.00     0.308 A 
ATOM     29  C   UNL     1      11.817 -44.510 -22.946  1.00  0.00     0.308 A 
ATOM     30  C   UNL     1      13.784 -45.255 -21.172  1.00  0.00     0.071 A 
ATOM     31  C   UNL     1      12.969 -43.740 -22.841  1.00  0.00     0.071 A 
ATOM     32  C   UNL     1      13.960 -44.114 -21.944  1.00  0.00     0.012 A 
ENDBRANCH  26  27
ENDBRANCH  23  26
ENDBRANCH  21  22
ENDBRANCH  20  21
ENDBRANCH   4  20
TORSDOF 10
ENDMDL
MODEL 7
REMARK VINA RESULT:    -9.334      3.422      4.673
REMARK INTER + INTRA:         -15.664
REMARK INTER:                 -14.999
REMARK INTRA:                  -0.665
REMARK UNBOUND:                -0.873
REMARK SMILES O=C(C[n+]1ccccc1)NN=Cc1ccc(/C=N/NC(=O)C[n+]2ccccc2)cc1
REMARK SMILES IDX 13 1 14 2 15 3 16 4 29 5 30 6 12 7 11 8 10 9 2 10 1 12 3 13
REMARK SMILES IDX 4 14 5 15 9 16 6 17 8 18 7 19 17 20 18 21 19 22 20 23 21 25
REMARK SMILES IDX 22 26 23 27 24 28 28 29 25 30 27 31 26 32
REMARK H PARENT 10 11 19 24
ROOT
ATOM      1  C   UNL     1      10.650 -54.499 -22.887  1.00  0.00    -0.005 A 
ATOM      2  C   UNL     1      10.305 -53.524 -21.946  1.00  0.00     0.010 A 
ATOM      3  C   UNL     1      10.826 -52.232 -22.061  1.00  0.00     0.010 A 
ATOM      4  C   UNL     1      11.705 -51.924 -23.105  1.00  0.00    -0.005 A 
ATOM      5  C   UNL     1      12.055 -52.906 -24.040  1.00  0.00     0.010 A 
ATOM      6  C   UNL     1      11.532 -54.198 -23.929  1.00  0.00     0.010 A 
ENDROOT
BRANCH   1   7
ATOM      7  C   UNL     1      10.156 -55.870 -22.674  1.00  0.00     0.141 C 
BRANCH   7   8
ATOM      8  N   UNL     1       9.530 -56.658 -23.496  1.00  0.00    -0.181 NA
BRANCH   8   9
ATOM      9  N   UNL     1       8.583 -57.526 -23.054  1.00  0.00    -0.242 N 
ATOM     10  C   UNL     1       8.324 -58.646 -23.838  1.00  0.00     0.305 C 
ATOM     11  H   UNL     1       8.269 -57.438 -22.092  1.00  0.00     0.193 HD
ATOM     12  O   UNL     1       8.770 -58.835 -24.969  1.00  0.00    -0.266 OA
BRANCH  10  13
ATOM     13  C   UNL     1       7.407 -59.657 -23.191  1.00  0.00     0.458 C 
BRANCH  13  14
ATOM     14  N   UNL     1       8.059 -60.987 -23.143  1.00  0.00    -0.196 N 
ATOM     15  C   UNL     1       7.475 -62.043 -23.761  1.00  0.00     0.308 A 
ATOM     16  C   UNL     1       9.258 -61.128 -22.530  1.00  0.00     0.308 A 
ATOM     17  C   UNL     1       8.075 -63.297 -23.739  1.00  0.00     0.071 A 
ATOM     18  C   UNL     1       9.891 -62.365 -22.485  1.00  0.00     0.071 A 
ATOM     19  C   UNL     1       9.291 -63.461 -23.091  1.00  0.00     0.012 A 
ENDBRANCH  13  14
ENDBRANCH  10  13
ENDBRANCH   8   9
ENDBRANCH   7   8
ENDBRANCH   1   7
BRANCH   4  20
ATOM     20  C   UNL     1      12.283 -50.563 -23.166  1.00  0.00     0.141 C 
BRANCH  20  21
ATOM     21  N   UNL     1      11.690 -49.544 -22.623  1.00  0.00    -0.181 NA
BRANCH  21  22
ATOM     22  N   UNL     1      11.471 -48.427 -23.390  1.00  0.00    -0.242 N 
ATOM     23  C   UNL     1      10.810 -47.286 -22.930  1.00  0.00     0.305 C 
ATOM     24  H   UNL     1      12.182 -48.328 -24.115  1.00  0.00     0.193 HD
ATOM     25  O   UNL     1      10.192 -47.194 -21.873  1.00  0.00    -0.266 OA
BRANCH  23  26
ATOM     26  C   UNL     1      10.921 -46.110 -23.882  1.00  0.00     0.458 C 
BRANCH  26  27
ATOM     27  N   UNL     1      11.486 -44.925 -23.194  1.00  0.00    -0.196 N 
ATOM     28  C   UNL     1      12.741 -44.975 -22.689  1.00  0.00     0.308 A 
ATOM     29  C   UNL     1      10.750 -43.791 -23.100  1.00  0.00     0.308 A 
ATOM     30  C   UNL     1      13.289 -43.873 -22.041  1.00  0.00     0.071 A 
ATOM     31  C   UNL     1      11.260 -42.667 -22.461  1.00  0.00     0.071 A 
ATOM     32  C   UNL     1      12.540 -42.709 -21.923  1.00  0.00     0.012 A 
ENDBRANCH  26  27
ENDBRANCH  23  26
ENDBRANCH  21  22
ENDBRANCH  20  21
ENDBRANCH   4  20
TORSDOF 10
ENDMDL
MODEL 8
REMARK VINA RESULT:    -9.319      2.599      9.896
REMARK INTER + INTRA:         -15.639
REMARK INTER:                 -15.107
REMARK INTRA:                  -0.532
REMARK UNBOUND:                -0.873
REMARK SMILES O=C(C[n+]1ccccc1)NN=Cc1ccc(/C=N/NC(=O)C[n+]2ccccc2)cc1
REMARK SMILES IDX 13 1 14 2 15 3 16 4 29 5 30 6 12 7 11 8 10 9 2 10 1 12 3 13
REMARK SMILES IDX 4 14 5 15 9 16 6 17 8 18 7 19 17 20 18 21 19 22 20 23 21 25
REMARK SMILES IDX 22 26 23 27 24 28 28 29 25 30 27 31 26 32
REMARK H PARENT 10 11 19 24
ROOT
ATOM      1  C   UNL     1       9.955 -57.880 -22.820  1.00  0.00    -0.005 A 
ATOM      2  C   UNL     1       9.940 -59.149 -22.234  1.00  0.00     0.010 A 
ATOM      3  C   UNL     1       8.808 -59.959 -22.357  1.00  0.00     0.010 A 
ATOM      4  C   UNL     1       7.687 -59.490 -23.050  1.00  0.00    -0.005 A 
ATOM      5  C   UNL     1       7.701 -58.214 -23.628  1.00  0.00     0.010 A 
ATOM      6  C   UNL     1       8.835 -57.404 -23.508  1.00  0.00     0.010 A 
ENDROOT
BRANCH   1   7
ATOM      7  C   UNL     1      11.129 -57.022 -22.583  1.00  0.00     0.141 C 
BRANCH   7   8
ATOM      8  N   UNL     1      11.203 -55.875 -21.978  1.00  0.00    -0.181 NA
BRANCH   8   9
ATOM      9  N   UNL     1      10.617 -54.765 -22.502  1.00  0.00    -0.242 N 
ATOM     10  C   UNL     1      10.408 -53.687 -21.648  1.00  0.00     0.305 C 
ATOM     11  H   UNL     1      10.558 -54.692 -23.513  1.00  0.00     0.193 HD
ATOM     12  O   UNL     1      10.568 -53.711 -20.428  1.00  0.00    -0.266 OA
BRANCH  10  13
ATOM     13  C   UNL     1       9.936 -52.430 -22.340  1.00  0.00     0.458 C 
BRANCH  13  14
ATOM     14  N   UNL     1      11.093 -51.582 -22.713  1.00  0.00    -0.196 N 
ATOM     15  C   UNL     1      11.136 -50.290 -22.304  1.00  0.00     0.308 A 
ATOM     16  C   UNL     1      12.122 -52.116 -23.412  1.00  0.00     0.308 A 
ATOM     17  C   UNL     1      12.217 -49.480 -22.632  1.00  0.00     0.071 A 
ATOM     18  C   UNL     1      13.221 -51.340 -23.760  1.00  0.00     0.071 A 
ATOM     19  C   UNL     1      13.267 -50.008 -23.371  1.00  0.00     0.012 A 
ENDBRANCH  13  14
ENDBRANCH  10  13
ENDBRANCH   8   9
ENDBRANCH   7   8
ENDBRANCH   1   7
BRANCH   4  20
ATOM     20  C   UNL     1       6.483 -60.349 -23.114  1.00  0.00     0.141 C 
BRANCH  20  21
ATOM     21  N   UNL     1       6.466 -61.448 -23.804  1.00  0.00    -0.181 NA
BRANCH  21  22
ATOM     22  N   UNL     1       7.404 -61.618 -24.792  1.00  0.00    -0.242 N 
ATOM     23  C   UNL     1       7.696 -62.849 -25.382  1.00  0.00     0.305 C 
ATOM     24  H   UNL     1       7.528 -60.766 -25.338  1.00  0.00     0.193 HD
ATOM     25  O   UNL     1       7.300 -63.944 -24.990  1.00  0.00    -0.266 OA
BRANCH  23  26
ATOM     26  C   UNL     1       8.581 -62.726 -26.609  1.00  0.00     0.458 C 
BRANCH  26  27
ATOM     27  N   UNL     1       9.637 -61.708 -26.398  1.00  0.00    -0.196 N 
ATOM     28  C   UNL     1      10.296 -61.656 -25.216  1.00  0.00     0.308 A 
ATOM     29  C   UNL     1       9.955 -60.854 -27.402  1.00  0.00     0.308 A 
ATOM     30  C   UNL     1      11.291 -60.709 -25.001  1.00  0.00     0.071 A 
ATOM     31  C   UNL     1      10.943 -59.893 -27.228  1.00  0.00     0.071 A 
ATOM     32  C   UNL     1      11.615 -59.817 -26.015  1.00  0.00     0.012 A 
ENDBRANCH  26  27
ENDBRANCH  23  26
ENDBRANCH  21  22
ENDBRANCH  20  21
ENDBRANCH   4  20
TORSDOF 10
ENDMDL
MODEL 9
REMARK VINA RESULT:    -9.159      2.482      3.887
REMARK INTER + INTRA:         -15.386
REMARK INTER:                 -14.900
REMARK INTRA:                  -0.486
REMARK UNBOUND:                -0.873
REMARK SMILES O=C(C[n+]1ccccc1)NN=Cc1ccc(/C=N/NC(=O)C[n+]2ccccc2)cc1
REMARK SMILES IDX 13 1 14 2 15 3 16 4 29 5 30 6 12 7 11 8 10 9 2 10 1 12 3 13
REMARK SMILES IDX 4 14 5 15 9 16 6 17 8 18 7 19 17 20 18 21 19 22 20 23 21 25
REMARK SMILES IDX 22 26 23 27 24 28 28 29 25 30 27 31 26 32
REMARK H PARENT 10 11 19 24
ROOT
ATOM      1  C   UNL     1      10.438 -55.182 -22.803  1.00  0.00    -0.005 A 
ATOM      2  C   UNL     1      10.165 -54.364 -21.702  1.00  0.00     0.010 A 
ATOM      3  C   UNL     1      10.680 -53.065 -21.656  1.00  0.00     0.010 A 
ATOM      4  C   UNL     1      11.480 -52.595 -22.703  1.00  0.00    -0.005 A 
ATOM      5  C   UNL     1      11.759 -53.420 -23.800  1.00  0.00     0.010 A 
ATOM      6  C   UNL     1      11.242 -54.719 -23.848  1.00  0.00     0.010 A 
ENDROOT
BRANCH   1   7
ATOM      7  C   UNL     1       9.958 -56.574 -22.765  1.00  0.00     0.141 C 
BRANCH   7   8
ATOM      8  N   UNL     1       9.085 -57.165 -23.525  1.00  0.00    -0.181 NA
BRANCH   8   9
ATOM      9  N   UNL     1       9.355 -58.367 -24.102  1.00  0.00    -0.242 N 
ATOM     10  C   UNL     1       8.273 -59.137 -24.515  1.00  0.00     0.305 C 
ATOM     11  H   UNL     1      10.310 -58.548 -24.396  1.00  0.00     0.193 HD
ATOM     12  O   UNL     1       7.094 -58.891 -24.264  1.00  0.00    -0.266 OA
BRANCH  10  13
ATOM     13  C   UNL     1       8.652 -60.360 -25.316  1.00  0.00     0.458 C 
BRANCH  13  14
ATOM     14  N   UNL     1       8.675 -61.559 -24.445  1.00  0.00    -0.196 N 
ATOM     15  C   UNL     1       9.785 -61.837 -23.718  1.00  0.00     0.308 A 
ATOM     16  C   UNL     1       7.572 -62.337 -24.339  1.00  0.00     0.308 A 
ATOM     17  C   UNL     1       9.825 -62.949 -22.884  1.00  0.00     0.071 A 
ATOM     18  C   UNL     1       7.571 -63.458 -23.518  1.00  0.00     0.071 A 
ATOM     19  C   UNL     1       8.710 -63.770 -22.787  1.00  0.00     0.012 A 
ENDBRANCH  13  14
ENDBRANCH  10  13
ENDBRANCH   8   9
ENDBRANCH   7   8
ENDBRANCH   1   7
BRANCH   4  20
ATOM     20  C   UNL     1      12.056 -51.236 -22.598  1.00  0.00     0.141 C 
BRANCH  20  21
ATOM     21  N   UNL     1      13.268 -50.977 -22.986  1.00  0.00    -0.181 NA
BRANCH  21  22
ATOM     22  N   UNL     1      13.761 -49.710 -22.794  1.00  0.00    -0.242 N 
ATOM     23  C   UNL     1      13.743 -48.713 -23.772  1.00  0.00     0.305 C 
ATOM     24  H   UNL     1      13.722 -49.440 -21.812  1.00  0.00     0.193 HD
ATOM     25  O   UNL     1      13.460 -48.876 -24.956  1.00  0.00    -0.266 OA
BRANCH  23  26
ATOM     26  C   UNL     1      14.115 -47.344 -23.234  1.00  0.00     0.458 C 
BRANCH  26  27
ATOM     27  N   UNL     1      12.902 -46.558 -22.907  1.00  0.00    -0.196 N 
ATOM     28  C   UNL     1      11.731 -47.195 -22.669  1.00  0.00     0.308 A 
ATOM     29  C   UNL     1      12.981 -45.208 -22.821  1.00  0.00     0.308 A 
ATOM     30  C   UNL     1      10.583 -46.475 -22.359  1.00  0.00     0.071 A 
ATOM     31  C   UNL     1      11.858 -44.451 -22.514  1.00  0.00     0.071 A 
ATOM     32  C   UNL     1      10.646 -45.089 -22.284  1.00  0.00     0.012 A 
ENDBRANCH  26  27
ENDBRANCH  23  26
ENDBRANCH  21  22
ENDBRANCH  20  21
ENDBRANCH   4  20
TORSDOF 10
ENDMDL
