MODEL 1
REMARK VINA RESULT:   -12.832      0.000      0.000
REMARK INTER + INTRA:         -19.286
REMARK INTER:                 -18.459
REMARK INTRA:                  -0.828
REMARK UNBOUND:                -0.828
REMARK SMILES Cc1cc(O)nc2c1C(=O)C(NCCCCNc1c3c(nc4cc(Cl)ccc14)CCCC3)=CC2=O
REMARK SMILES IDX 14 1 13 2 12 3 11 5 4 6 3 7 6 8 2 9 7 10 8 11 34 12 9 13
REMARK SMILES IDX 33 14 1 15 35 16 10 17 5 18 15 20 16 21 17 22 18 24 19 25
REMARK SMILES IDX 28 26 20 27 32 28 27 29 22 30 21 31 29 32 31 33 26 34 23 35
REMARK SMILES IDX 30 36 24 37 25 38
REMARK H PARENT 12 4 5 19 17 23
ROOT
ATOM      1  C   UNL     1      11.271 -58.168 -22.245  1.00  0.00     0.023 C 
ENDROOT
BRANCH   1   2
ATOM      2  C   UNL     1      10.052 -57.773 -23.081  1.00  0.00     0.113 C 
BRANCH   2   3
ATOM      3  N   UNL     1      10.348 -56.562 -23.830  1.00  0.00    -0.382 N 
ATOM      4  H   UNL     1      10.839 -56.714 -24.719  1.00  0.00     0.160 HD
BRANCH   3   5
ATOM      5  C   UNL     1      10.708 -55.334 -23.285  1.00  0.00     0.087 C 
ATOM      6  C   UNL     1      12.563 -50.634 -22.724  1.00  0.00     0.211 A 
ATOM      7  C   UNL     1      13.016 -50.964 -23.988  1.00  0.00     0.072 A 
ATOM      8  N   UNL     1      11.844 -51.457 -21.954  1.00  0.00    -0.209 NA
ATOM      9  C   UNL     1      12.714 -52.233 -24.507  1.00  0.00    -0.032 A 
ATOM     10  C   UNL     1      11.554 -52.685 -22.459  1.00  0.00     0.126 A 
ATOM     11  C   UNL     1      11.961 -53.124 -23.713  1.00  0.00     0.057 A 
ATOM     12  C   UNL     1      10.750 -53.558 -21.569  1.00  0.00     0.207 C 
ATOM     13  C   UNL     1      11.605 -54.491 -24.153  1.00  0.00     0.211 C 
ATOM     14  C   UNL     1      10.335 -54.870 -22.090  1.00  0.00     0.084 C 
ATOM     15  C   UNL     1      13.214 -52.576 -25.885  1.00  0.00     0.045 C 
ATOM     16  O   UNL     1      10.415 -53.240 -20.434  1.00  0.00    -0.287 OA
ATOM     17  O   UNL     1      12.030 -54.968 -25.203  1.00  0.00    -0.287 OA
BRANCH   6  18
ATOM     18  O   UNL     1      12.826 -49.419 -22.172  1.00  0.00    -0.493 OA
ATOM     19  H   UNL     1      12.248 -48.758 -22.579  1.00  0.00     0.295 HD
ENDBRANCH   6  18
ENDBRANCH   3   5
ENDBRANCH   2   3
ENDBRANCH   1   2
BRANCH   1  20
ATOM     20  C   UNL     1      11.009 -59.365 -21.324  1.00  0.00     0.023 C 
BRANCH  20  21
ATOM     21  C   UNL     1      10.263 -60.526 -21.986  1.00  0.00     0.113 C 
BRANCH  21  22
ATOM     22  N   UNL     1      11.149 -61.209 -22.938  1.00  0.00    -0.384 N 
ATOM     23  H   UNL     1      11.491 -62.079 -22.537  1.00  0.00     0.160 HD
BRANCH  22  24
ATOM     24  C   UNL     1      10.495 -61.464 -24.181  1.00  0.00     0.049 A 
ATOM     25  C   UNL     1       9.385 -62.330 -24.254  1.00  0.00    -0.003 A 
ATOM     26  C   UNL     1      10.906 -60.748 -25.339  1.00  0.00     0.024 A 
ATOM     27  C   UNL     1       8.709 -62.408 -25.476  1.00  0.00     0.046 A 
ATOM     28  C   UNL     1       8.888 -63.100 -23.053  1.00  0.00     0.039 C 
ATOM     29  C   UNL     1      12.038 -59.898 -25.370  1.00  0.00     0.014 A 
ATOM     30  C   UNL     1      10.155 -60.918 -26.517  1.00  0.00     0.074 A 
ATOM     31  N   UNL     1       9.086 -61.721 -26.581  1.00  0.00    -0.252 NA
ATOM     32  C   UNL     1       7.520 -63.314 -25.672  1.00  0.00     0.056 C 
ATOM     33  C   UNL     1       7.899 -64.218 -23.386  1.00  0.00     0.005 C 
ATOM     34  C   UNL     1      12.397 -59.215 -26.530  1.00  0.00     0.021 A 
ATOM     35  C   UNL     1      10.526 -60.231 -27.663  1.00  0.00     0.049 A 
ATOM     36  C   UNL     1       6.849 -63.723 -24.368  1.00  0.00     0.007 C 
ATOM     37  C   UNL     1      11.633 -59.387 -27.675  1.00  0.00     0.043 A 
ATOM     38  Cl  UNL     1      12.063 -58.556 -29.120  1.00  0.00    -0.084 Cl
ENDBRANCH  22  24
ENDBRANCH  21  22
ENDBRANCH  20  21
ENDBRANCH   1  20
TORSDOF 8
ENDMDL
MODEL 2
REMARK VINA RESULT:   -12.489      1.387      2.285
REMARK INTER + INTRA:         -18.792
REMARK INTER:                 -17.801
REMARK INTRA:                  -0.992
REMARK UNBOUND:                -0.828
REMARK SMILES Cc1cc(O)nc2c1C(=O)C(NCCCCNc1c3c(nc4cc(Cl)ccc14)CCCC3)=CC2=O
REMARK SMILES IDX 14 1 13 2 12 3 11 5 4 6 3 7 6 8 2 9 7 10 8 11 34 12 9 13
REMARK SMILES IDX 33 14 1 15 35 16 10 17 5 18 15 20 16 21 17 22 18 24 19 25
REMARK SMILES IDX 28 26 20 27 32 28 27 29 22 30 21 31 29 32 31 33 26 34 23 35
REMARK SMILES IDX 30 36 24 37 25 38
REMARK H PARENT 12 4 5 19 17 23
ROOT
ATOM      1  C   UNL     1      11.374 -58.042 -21.960  1.00  0.00     0.023 C 
ENDROOT
BRANCH   1   2
ATOM      2  C   UNL     1      10.204 -57.190 -22.454  1.00  0.00     0.113 C 
BRANCH   2   3
ATOM      3  N   UNL     1      10.566 -55.783 -22.392  1.00  0.00    -0.382 N 
ATOM      4  H   UNL     1       9.873 -55.179 -21.934  1.00  0.00     0.160 HD
BRANCH   3   5
ATOM      5  C   UNL     1      11.250 -55.074 -23.374  1.00  0.00     0.087 C 
ATOM      6  C   UNL     1      13.640 -51.366 -25.900  1.00  0.00     0.211 A 
ATOM      7  C   UNL     1      13.162 -50.687 -24.795  1.00  0.00     0.072 A 
ATOM      8  N   UNL     1      13.430 -52.667 -26.122  1.00  0.00    -0.209 NA
ATOM      9  C   UNL     1      12.408 -51.389 -23.842  1.00  0.00    -0.032 A 
ATOM     10  C   UNL     1      12.699 -53.344 -25.197  1.00  0.00     0.126 A 
ATOM     11  C   UNL     1      12.166 -52.764 -24.053  1.00  0.00     0.057 A 
ATOM     12  C   UNL     1      12.498 -54.786 -25.485  1.00  0.00     0.207 C 
ATOM     13  C   UNL     1      11.367 -53.593 -23.124  1.00  0.00     0.211 C 
ATOM     14  C   UNL     1      11.784 -55.592 -24.482  1.00  0.00     0.084 C 
ATOM     15  C   UNL     1      11.894 -50.636 -22.644  1.00  0.00     0.045 C 
ATOM     16  O   UNL     1      12.899 -55.332 -26.506  1.00  0.00    -0.287 OA
ATOM     17  O   UNL     1      10.783 -53.108 -22.157  1.00  0.00    -0.287 OA
BRANCH   6  18
ATOM     18  O   UNL     1      14.376 -50.735 -26.855  1.00  0.00    -0.493 OA
ATOM     19  H   UNL     1      14.156 -51.110 -27.719  1.00  0.00     0.295 HD
ENDBRANCH   6  18
ENDBRANCH   3   5
ENDBRANCH   2   3
ENDBRANCH   1   2
BRANCH   1  20
ATOM     20  C   UNL     1      10.929 -59.303 -21.210  1.00  0.00     0.023 C 
BRANCH  20  21
ATOM     21  C   UNL     1      10.110 -60.287 -22.049  1.00  0.00     0.113 C 
BRANCH  21  22
ATOM     22  N   UNL     1      11.007 -61.089 -22.891  1.00  0.00    -0.384 N 
ATOM     23  H   UNL     1      11.260 -61.950 -22.413  1.00  0.00     0.160 HD
BRANCH  22  24
ATOM     24  C   UNL     1      10.418 -61.386 -24.158  1.00  0.00     0.049 A 
ATOM     25  C   UNL     1       9.341 -62.289 -24.266  1.00  0.00    -0.003 A 
ATOM     26  C   UNL     1      10.858 -60.676 -25.308  1.00  0.00     0.024 A 
ATOM     27  C   UNL     1       8.725 -62.410 -25.515  1.00  0.00     0.046 A 
ATOM     28  C   UNL     1       8.815 -63.056 -23.074  1.00  0.00     0.039 C 
ATOM     29  C   UNL     1      11.962 -59.789 -25.303  1.00  0.00     0.014 A 
ATOM     30  C   UNL     1      10.168 -60.889 -26.516  1.00  0.00     0.074 A 
ATOM     31  N   UNL     1       9.129 -61.729 -26.614  1.00  0.00    -0.252 NA
ATOM     32  C   UNL     1       7.576 -63.358 -25.749  1.00  0.00     0.056 C 
ATOM     33  C   UNL     1       7.880 -64.211 -23.432  1.00  0.00     0.005 C 
ATOM     34  C   UNL     1      12.351 -59.114 -26.458  1.00  0.00     0.021 A 
ATOM     35  C   UNL     1      10.568 -60.209 -27.657  1.00  0.00     0.049 A 
ATOM     36  C   UNL     1       6.860 -63.768 -24.469  1.00  0.00     0.007 C 
ATOM     37  C   UNL     1      11.646 -59.329 -27.633  1.00  0.00     0.043 A 
ATOM     38  Cl  UNL     1      12.115 -58.508 -29.072  1.00  0.00    -0.084 Cl
ENDBRANCH  22  24
ENDBRANCH  21  22
ENDBRANCH  20  21
ENDBRANCH   1  20
TORSDOF 8
ENDMDL
MODEL 3
REMARK VINA RESULT:   -11.639      2.216      4.220
REMARK INTER + INTRA:         -17.569
REMARK INTER:                 -16.663
REMARK INTRA:                  -0.906
REMARK UNBOUND:                -0.828
REMARK SMILES Cc1cc(O)nc2c1C(=O)C(NCCCCNc1c3c(nc4cc(Cl)ccc14)CCCC3)=CC2=O
REMARK SMILES IDX 14 1 13 2 12 3 11 5 4 6 3 7 6 8 2 9 7 10 8 11 34 12 9 13
REMARK SMILES IDX 33 14 1 15 35 16 10 17 5 18 15 20 16 21 17 22 18 24 19 25
REMARK SMILES IDX 28 26 20 27 32 28 27 29 22 30 21 31 29 32 31 33 26 34 23 35
REMARK SMILES IDX 30 36 24 37 25 38
REMARK H PARENT 12 4 5 19 17 23
ROOT
ATOM      1  C   UNL     1      11.385 -57.618 -21.731  1.00  0.00     0.023 C 
ENDROOT
BRANCH   1   2
ATOM      2  C   UNL     1      10.203 -56.926 -22.411  1.00  0.00     0.113 C 
BRANCH   2   3
ATOM      3  N   UNL     1      10.441 -55.492 -22.459  1.00  0.00    -0.382 N 
ATOM      4  H   UNL     1       9.648 -54.913 -22.159  1.00  0.00     0.160 HD
BRANCH   3   5
ATOM      5  C   UNL     1      11.190 -54.822 -23.421  1.00  0.00     0.087 C 
ATOM      6  C   UNL     1      13.802 -51.234 -25.901  1.00  0.00     0.211 A 
ATOM      7  C   UNL     1      13.294 -50.521 -24.831  1.00  0.00     0.072 A 
ATOM      8  N   UNL     1      13.564 -52.533 -26.108  1.00  0.00    -0.209 NA
ATOM      9  C   UNL     1      12.476 -51.182 -23.901  1.00  0.00    -0.032 A 
ATOM     10  C   UNL     1      12.771 -53.171 -25.206  1.00  0.00     0.126 A 
ATOM     11  C   UNL     1      12.204 -52.553 -24.099  1.00  0.00     0.057 A 
ATOM     12  C   UNL     1      12.542 -54.612 -25.477  1.00  0.00     0.207 C 
ATOM     13  C   UNL     1      11.339 -53.341 -23.193  1.00  0.00     0.211 C 
ATOM     14  C   UNL     1      11.759 -55.377 -24.494  1.00  0.00     0.084 C 
ATOM     15  C   UNL     1      11.931 -50.391 -22.742  1.00  0.00     0.045 C 
ATOM     16  O   UNL     1      12.973 -55.189 -26.468  1.00  0.00    -0.287 OA
ATOM     17  O   UNL     1      10.726 -52.821 -22.263  1.00  0.00    -0.287 OA
BRANCH   6  18
ATOM     18  O   UNL     1      14.600 -50.644 -26.831  1.00  0.00    -0.493 OA
ATOM     19  H   UNL     1      14.777 -49.732 -26.559  1.00  0.00     0.295 HD
ENDBRANCH   6  18
ENDBRANCH   3   5
ENDBRANCH   2   3
ENDBRANCH   1   2
BRANCH   1  20
ATOM     20  C   UNL     1      11.346 -59.145 -21.857  1.00  0.00     0.023 C 
BRANCH  20  21
ATOM     21  C   UNL     1      10.367 -59.671 -22.910  1.00  0.00     0.113 C 
BRANCH  21  22
ATOM     22  N   UNL     1      10.920 -60.873 -23.547  1.00  0.00    -0.384 N 
ATOM     23  H   UNL     1      10.768 -61.686 -22.955  1.00  0.00     0.160 HD
BRANCH  22  24
ATOM     24  C   UNL     1      10.355 -61.094 -24.839  1.00  0.00     0.049 A 
ATOM     25  C   UNL     1      10.910 -60.495 -25.988  1.00  0.00    -0.003 A 
ATOM     26  C   UNL     1       9.283 -62.019 -24.977  1.00  0.00     0.024 A 
ATOM     27  C   UNL     1      10.393 -60.880 -27.229  1.00  0.00     0.046 A 
ATOM     28  C   UNL     1      12.063 -59.522 -25.907  1.00  0.00     0.039 C 
ATOM     29  C   UNL     1       8.633 -62.629 -23.877  1.00  0.00     0.014 A 
ATOM     30  C   UNL     1       8.838 -62.320 -26.277  1.00  0.00     0.074 A 
ATOM     31  N   UNL     1       9.380 -61.769 -27.371  1.00  0.00    -0.252 NA
ATOM     32  C   UNL     1      10.899 -60.291 -28.521  1.00  0.00     0.056 C 
ATOM     33  C   UNL     1      12.315 -58.735 -27.194  1.00  0.00     0.005 C 
ATOM     34  C   UNL     1       7.589 -63.532 -24.065  1.00  0.00     0.021 A 
ATOM     35  C   UNL     1       7.797 -63.221 -26.447  1.00  0.00     0.049 A 
ATOM     36  C   UNL     1      12.281 -59.662 -28.399  1.00  0.00     0.007 C 
ATOM     37  C   UNL     1       7.177 -63.824 -25.357  1.00  0.00     0.043 A 
ATOM     38  Cl  UNL     1       5.886 -64.933 -25.610  1.00  0.00    -0.084 Cl
ENDBRANCH  22  24
ENDBRANCH  21  22
ENDBRANCH  20  21
ENDBRANCH   1  20
TORSDOF 8
ENDMDL
MODEL 4
REMARK VINA RESULT:   -11.503      1.857      2.439
REMARK INTER + INTRA:         -17.374
REMARK INTER:                 -16.888
REMARK INTRA:                  -0.486
REMARK UNBOUND:                -0.828
REMARK SMILES Cc1cc(O)nc2c1C(=O)C(NCCCCNc1c3c(nc4cc(Cl)ccc14)CCCC3)=CC2=O
REMARK SMILES IDX 14 1 13 2 12 3 11 5 4 6 3 7 6 8 2 9 7 10 8 11 34 12 9 13
REMARK SMILES IDX 33 14 1 15 35 16 10 17 5 18 15 20 16 21 17 22 18 24 19 25
REMARK SMILES IDX 28 26 20 27 32 28 27 29 22 30 21 31 29 32 31 33 26 34 23 35
REMARK SMILES IDX 30 36 24 37 25 38
REMARK H PARENT 12 4 5 19 17 23
ROOT
ATOM      1  C   UNL     1      10.998 -56.173 -22.255  1.00  0.00     0.023 C 
ENDROOT
BRANCH   1   2
ATOM      2  C   UNL     1      10.486 -54.960 -23.032  1.00  0.00     0.113 C 
BRANCH   2   3
ATOM      3  N   UNL     1      11.438 -53.868 -22.914  1.00  0.00    -0.382 N 
ATOM      4  H   UNL     1      12.299 -54.099 -22.405  1.00  0.00     0.160 HD
BRANCH   3   5
ATOM      5  C   UNL     1      11.119 -52.525 -22.735  1.00  0.00     0.087 C 
ATOM      6  C   UNL     1      11.137 -47.452 -23.065  1.00  0.00     0.211 A 
ATOM      7  C   UNL     1      12.285 -47.781 -23.760  1.00  0.00     0.072 A 
ATOM      8  N   UNL     1      10.334 -48.352 -22.489  1.00  0.00    -0.209 NA
ATOM      9  C   UNL     1      12.645 -49.133 -23.876  1.00  0.00    -0.032 A 
ATOM     10  C   UNL     1      10.685 -49.660 -22.601  1.00  0.00     0.126 A 
ATOM     11  C   UNL     1      11.817 -50.104 -23.272  1.00  0.00     0.057 A 
ATOM     12  C   UNL     1       9.759 -50.619 -21.950  1.00  0.00     0.207 C 
ATOM     13  C   UNL     1      12.113 -51.553 -23.315  1.00  0.00     0.211 C 
ATOM     14  C   UNL     1      10.040 -52.055 -22.106  1.00  0.00     0.084 C 
ATOM     15  C   UNL     1      13.898 -49.474 -24.637  1.00  0.00     0.045 C 
ATOM     16  O   UNL     1       8.779 -50.276 -21.300  1.00  0.00    -0.287 OA
ATOM     17  O   UNL     1      13.155 -51.990 -23.799  1.00  0.00    -0.287 OA
BRANCH   6  18
ATOM     18  O   UNL     1      10.742 -46.158 -22.922  1.00  0.00    -0.493 OA
ATOM     19  H   UNL     1      10.206 -46.080 -22.120  1.00  0.00     0.295 HD
ENDBRANCH   6  18
ENDBRANCH   3   5
ENDBRANCH   2   3
ENDBRANCH   1   2
BRANCH   1  20
ATOM     20  C   UNL     1      11.374 -57.354 -23.157  1.00  0.00     0.023 C 
BRANCH  20  21
ATOM     21  C   UNL     1      10.965 -58.726 -22.612  1.00  0.00     0.113 C 
BRANCH  21  22
ATOM     22  N   UNL     1      11.813 -59.769 -23.203  1.00  0.00    -0.384 N 
ATOM     23  H   UNL     1      12.170 -60.385 -22.476  1.00  0.00     0.160 HD
BRANCH  22  24
ATOM     24  C   UNL     1      11.110 -60.528 -24.187  1.00  0.00     0.049 A 
ATOM     25  C   UNL     1      10.175 -61.514 -23.814  1.00  0.00    -0.003 A 
ATOM     26  C   UNL     1      11.280 -60.204 -25.561  1.00  0.00     0.024 A 
ATOM     27  C   UNL     1       9.422 -62.105 -24.833  1.00  0.00     0.046 A 
ATOM     28  C   UNL     1       9.935 -61.886 -22.369  1.00  0.00     0.039 C 
ATOM     29  C   UNL     1      12.230 -59.264 -26.030  1.00  0.00     0.014 A 
ATOM     30  C   UNL     1      10.473 -60.874 -26.499  1.00  0.00     0.074 A 
ATOM     31  N   UNL     1       9.567 -61.794 -26.143  1.00  0.00    -0.252 NA
ATOM     32  C   UNL     1       8.406 -63.183 -24.550  1.00  0.00     0.056 C 
ATOM     33  C   UNL     1       9.143 -63.179 -22.174  1.00  0.00     0.005 C 
ATOM     34  C   UNL     1      12.355 -58.979 -27.388  1.00  0.00     0.021 A 
ATOM     35  C   UNL     1      10.610 -60.579 -27.847  1.00  0.00     0.049 A 
ATOM     36  C   UNL     1       7.937 -63.208 -23.101  1.00  0.00     0.007 C 
ATOM     37  C   UNL     1      11.538 -59.641 -28.292  1.00  0.00     0.043 A 
ATOM     38  Cl  UNL     1      11.681 -59.308 -29.974  1.00  0.00    -0.084 Cl
ENDBRANCH  22  24
ENDBRANCH  21  22
ENDBRANCH  20  21
ENDBRANCH   1  20
TORSDOF 8
ENDMDL
MODEL 5
REMARK VINA RESULT:   -11.442      1.818      3.604
REMARK INTER + INTRA:         -17.286
REMARK INTER:                 -16.790
REMARK INTRA:                  -0.496
REMARK UNBOUND:                -0.828
REMARK SMILES Cc1cc(O)nc2c1C(=O)C(NCCCCNc1c3c(nc4cc(Cl)ccc14)CCCC3)=CC2=O
REMARK SMILES IDX 14 1 13 2 12 3 11 5 4 6 3 7 6 8 2 9 7 10 8 11 34 12 9 13
REMARK SMILES IDX 33 14 1 15 35 16 10 17 5 18 15 20 16 21 17 22 18 24 19 25
REMARK SMILES IDX 28 26 20 27 32 28 27 29 22 30 21 31 29 32 31 33 26 34 23 35
REMARK SMILES IDX 30 36 24 37 25 38
REMARK H PARENT 12 4 5 19 17 23
ROOT
ATOM      1  C   UNL     1       9.678 -57.822 -23.056  1.00  0.00     0.023 C 
ENDROOT
BRANCH   1   2
ATOM      2  C   UNL     1      11.067 -57.185 -23.004  1.00  0.00     0.113 C 
BRANCH   2   3
ATOM      3  N   UNL     1      11.101 -56.019 -23.871  1.00  0.00    -0.382 N 
ATOM      4  H   UNL     1      11.574 -56.163 -24.770  1.00  0.00     0.160 HD
BRANCH   3   5
ATOM      5  C   UNL     1      11.247 -54.699 -23.456  1.00  0.00     0.087 C 
ATOM      6  C   UNL     1      12.422 -49.754 -23.340  1.00  0.00     0.211 A 
ATOM      7  C   UNL     1      13.030 -50.158 -24.514  1.00  0.00     0.072 A 
ATOM      8  N   UNL     1      11.746 -50.577 -22.532  1.00  0.00    -0.209 NA
ATOM      9  C   UNL     1      12.944 -51.507 -24.894  1.00  0.00    -0.032 A 
ATOM     10  C   UNL     1      11.665 -51.882 -22.902  1.00  0.00     0.126 A 
ATOM     11  C   UNL     1      12.240 -52.399 -24.056  1.00  0.00     0.057 A 
ATOM     12  C   UNL     1      10.899 -52.753 -21.976  1.00  0.00     0.207 C 
ATOM     13  C   UNL     1      12.105 -53.843 -24.350  1.00  0.00     0.211 C 
ATOM     14  C   UNL     1      10.707 -54.160 -22.361  1.00  0.00     0.084 C 
ATOM     15  C   UNL     1      13.611 -51.930 -26.175  1.00  0.00     0.045 C 
ATOM     16  O   UNL     1      10.421 -52.358 -20.919  1.00  0.00    -0.287 OA
ATOM     17  O   UNL     1      12.685 -54.371 -25.296  1.00  0.00    -0.287 OA
BRANCH   6  18
ATOM     18  O   UNL     1      12.474 -48.460 -22.925  1.00  0.00    -0.493 OA
ATOM     19  H   UNL     1      11.581 -48.168 -22.694  1.00  0.00     0.295 HD
ENDBRANCH   6  18
ENDBRANCH   3   5
ENDBRANCH   2   3
ENDBRANCH   1   2
BRANCH   1  20
ATOM     20  C   UNL     1       9.702 -59.343 -22.866  1.00  0.00     0.023 C 
BRANCH  20  21
ATOM     21  C   UNL     1      11.103 -59.942 -22.713  1.00  0.00     0.113 C 
BRANCH  21  22
ATOM     22  N   UNL     1      11.132 -61.292 -23.291  1.00  0.00    -0.384 N 
ATOM     23  H   UNL     1      10.697 -61.956 -22.655  1.00  0.00     0.160 HD
BRANCH  22  24
ATOM     24  C   UNL     1      10.487 -61.336 -24.564  1.00  0.00     0.049 A 
ATOM     25  C   UNL     1      11.002 -60.623 -25.665  1.00  0.00    -0.003 A 
ATOM     26  C   UNL     1       9.372 -62.200 -24.745  1.00  0.00     0.024 A 
ATOM     27  C   UNL     1      10.401 -60.839 -26.910  1.00  0.00     0.046 A 
ATOM     28  C   UNL     1      12.198 -59.708 -25.540  1.00  0.00     0.039 C 
ATOM     29  C   UNL     1       8.759 -62.915 -23.687  1.00  0.00     0.014 A 
ATOM     30  C   UNL     1       8.843 -62.327 -26.043  1.00  0.00     0.074 A 
ATOM     31  N   UNL     1       9.347 -61.668 -27.094  1.00  0.00    -0.252 NA
ATOM     32  C   UNL     1      10.859 -60.116 -28.152  1.00  0.00     0.056 C 
ATOM     33  C   UNL     1      12.410 -58.781 -26.737  1.00  0.00     0.005 C 
ATOM     34  C   UNL     1       7.669 -63.752 -23.918  1.00  0.00     0.021 A 
ATOM     35  C   UNL     1       7.758 -63.165 -26.255  1.00  0.00     0.049 A 
ATOM     36  C   UNL     1      12.270 -59.555 -28.039  1.00  0.00     0.007 C 
ATOM     37  C   UNL     1       7.175 -63.873 -25.208  1.00  0.00     0.043 A 
ATOM     38  Cl  UNL     1       5.826 -64.898 -25.512  1.00  0.00    -0.084 Cl
ENDBRANCH  22  24
ENDBRANCH  21  22
ENDBRANCH  20  21
ENDBRANCH   1  20
TORSDOF 8
ENDMDL
MODEL 6
REMARK VINA RESULT:   -11.338      4.082     10.850
REMARK INTER + INTRA:         -17.137
REMARK INTER:                 -16.558
REMARK INTRA:                  -0.579
REMARK UNBOUND:                -0.828
REMARK SMILES Cc1cc(O)nc2c1C(=O)C(NCCCCNc1c3c(nc4cc(Cl)ccc14)CCCC3)=CC2=O
REMARK SMILES IDX 14 1 13 2 12 3 11 5 4 6 3 7 6 8 2 9 7 10 8 11 34 12 9 13
REMARK SMILES IDX 33 14 1 15 35 16 10 17 5 18 15 20 16 21 17 22 18 24 19 25
REMARK SMILES IDX 28 26 20 27 32 28 27 29 22 30 21 31 29 32 31 33 26 34 23 35
REMARK SMILES IDX 30 36 24 37 25 38
REMARK H PARENT 12 4 5 19 17 23
ROOT
ATOM      1  C   UNL     1      10.568 -53.539 -22.777  1.00  0.00     0.023 C 
ENDROOT
BRANCH   1   2
ATOM      2  C   UNL     1      10.109 -54.914 -22.292  1.00  0.00     0.113 C 
BRANCH   2   3
ATOM      3  N   UNL     1      10.084 -55.842 -23.412  1.00  0.00    -0.382 N 
ATOM      4  H   UNL     1       9.828 -55.423 -24.313  1.00  0.00     0.160 HD
BRANCH   3   5
ATOM      5  C   UNL     1       9.668 -57.168 -23.361  1.00  0.00     0.087 C 
ATOM      6  C   UNL     1       9.672 -62.252 -23.272  1.00  0.00     0.211 A 
ATOM      7  C   UNL     1      11.000 -61.976 -23.541  1.00  0.00     0.072 A 
ATOM      8  N   UNL     1       8.734 -61.312 -23.119  1.00  0.00    -0.209 NA
ATOM      9  C   UNL     1      11.403 -60.637 -23.665  1.00  0.00    -0.032 A 
ATOM     10  C   UNL     1       9.128 -60.016 -23.240  1.00  0.00     0.126 A 
ATOM     11  C   UNL     1      10.432 -59.624 -23.513  1.00  0.00     0.057 A 
ATOM     12  C   UNL     1       8.052 -59.011 -23.056  1.00  0.00     0.207 C 
ATOM     13  C   UNL     1      10.744 -58.184 -23.645  1.00  0.00     0.211 C 
ATOM     14  C   UNL     1       8.429 -57.590 -23.095  1.00  0.00     0.084 C 
ATOM     15  C   UNL     1      12.852 -60.354 -23.957  1.00  0.00     0.045 C 
ATOM     16  O   UNL     1       6.877 -59.306 -22.870  1.00  0.00    -0.287 OA
ATOM     17  O   UNL     1      11.854 -57.787 -23.992  1.00  0.00    -0.287 OA
BRANCH   6  18
ATOM     18  O   UNL     1       9.227 -63.530 -23.142  1.00  0.00    -0.493 OA
ATOM     19  H   UNL     1       8.616 -63.575 -22.393  1.00  0.00     0.295 HD
ENDBRANCH   6  18
ENDBRANCH   3   5
ENDBRANCH   2   3
ENDBRANCH   1   2
BRANCH   1  20
ATOM     20  C   UNL     1      10.609 -52.487 -21.663  1.00  0.00     0.023 C 
BRANCH  20  21
ATOM     21  C   UNL     1      10.410 -51.046 -22.140  1.00  0.00     0.113 C 
BRANCH  21  22
ATOM     22  N   UNL     1      11.581 -50.236 -21.780  1.00  0.00    -0.384 N 
ATOM     23  H   UNL     1      12.314 -50.829 -21.399  1.00  0.00     0.160 HD
BRANCH  22  24
ATOM     24  C   UNL     1      12.076 -49.496 -22.895  1.00  0.00     0.049 A 
ATOM     25  C   UNL     1      12.881 -50.110 -23.876  1.00  0.00    -0.003 A 
ATOM     26  C   UNL     1      11.659 -48.148 -23.071  1.00  0.00     0.024 A 
ATOM     27  C   UNL     1      13.199 -49.358 -25.011  1.00  0.00     0.046 A 
ATOM     28  C   UNL     1      13.337 -51.546 -23.755  1.00  0.00     0.039 C 
ATOM     29  C   UNL     1      10.893 -47.437 -22.116  1.00  0.00     0.014 A 
ATOM     30  C   UNL     1      12.052 -47.487 -24.250  1.00  0.00     0.074 A 
ATOM     31  N   UNL     1      12.796 -48.078 -25.194  1.00  0.00    -0.252 NA
ATOM     32  C   UNL     1      14.067 -49.909 -26.114  1.00  0.00     0.056 C 
ATOM     33  C   UNL     1      14.452 -51.936 -24.725  1.00  0.00     0.005 C 
ATOM     34  C   UNL     1      10.507 -46.116 -22.338  1.00  0.00     0.021 A 
ATOM     35  C   UNL     1      11.658 -46.173 -24.456  1.00  0.00     0.049 A 
ATOM     36  C   UNL     1      14.140 -51.430 -26.125  1.00  0.00     0.007 C 
ATOM     37  C   UNL     1      10.893 -45.491 -23.514  1.00  0.00     0.043 A 
ATOM     38  Cl  UNL     1      10.430 -43.859 -23.804  1.00  0.00    -0.084 Cl
ENDBRANCH  22  24
ENDBRANCH  21  22
ENDBRANCH  20  21
ENDBRANCH   1  20
TORSDOF 8
ENDMDL
MODEL 7
REMARK VINA RESULT:   -11.044      3.792     10.192
REMARK INTER + INTRA:         -16.714
REMARK INTER:                 -16.584
REMARK INTRA:                  -0.130
REMARK UNBOUND:                -0.828
REMARK SMILES Cc1cc(O)nc2c1C(=O)C(NCCCCNc1c3c(nc4cc(Cl)ccc14)CCCC3)=CC2=O
REMARK SMILES IDX 14 1 13 2 12 3 11 5 4 6 3 7 6 8 2 9 7 10 8 11 34 12 9 13
REMARK SMILES IDX 33 14 1 15 35 16 10 17 5 18 15 20 16 21 17 22 18 24 19 25
REMARK SMILES IDX 28 26 20 27 32 28 27 29 22 30 21 31 29 32 31 33 26 34 23 35
REMARK SMILES IDX 30 36 24 37 25 38
REMARK H PARENT 12 4 5 19 17 23
ROOT
ATOM      1  C   UNL     1      12.332 -57.186 -25.384  1.00  0.00     0.023 C 
ENDROOT
BRANCH   1   2
ATOM      2  C   UNL     1      12.519 -58.603 -25.928  1.00  0.00     0.113 C 
BRANCH   2   3
ATOM      3  N   UNL     1      11.848 -59.552 -25.055  1.00  0.00    -0.382 N 
ATOM      4  H   UNL     1      12.451 -59.989 -24.348  1.00  0.00     0.160 HD
BRANCH   3   5
ATOM      5  C   UNL     1      10.833 -60.427 -25.429  1.00  0.00     0.087 C 
ATOM      6  C   UNL     1       7.138 -63.916 -25.281  1.00  0.00     0.211 A 
ATOM      7  C   UNL     1       7.623 -63.968 -23.988  1.00  0.00     0.072 A 
ATOM      8  N   UNL     1       7.632 -63.112 -26.228  1.00  0.00    -0.209 NA
ATOM      9  C   UNL     1       8.698 -63.137 -23.632  1.00  0.00    -0.032 A 
ATOM     10  C   UNL     1       8.672 -62.309 -25.881  1.00  0.00     0.126 A 
ATOM     11  C   UNL     1       9.242 -62.282 -24.614  1.00  0.00     0.057 A 
ATOM     12  C   UNL     1       9.180 -61.432 -26.965  1.00  0.00     0.207 C 
ATOM     13  C   UNL     1      10.386 -61.381 -24.353  1.00  0.00     0.211 C 
ATOM     14  C   UNL     1      10.252 -60.482 -26.630  1.00  0.00     0.084 C 
ATOM     15  C   UNL     1       9.214 -63.206 -22.220  1.00  0.00     0.045 C 
ATOM     16  O   UNL     1       8.750 -61.459 -28.112  1.00  0.00    -0.287 OA
ATOM     17  O   UNL     1      10.996 -61.397 -23.286  1.00  0.00    -0.287 OA
BRANCH   6  18
ATOM     18  O   UNL     1       6.100 -64.699 -25.679  1.00  0.00    -0.493 OA
ATOM     19  H   UNL     1       6.413 -65.316 -26.356  1.00  0.00     0.295 HD
ENDBRANCH   6  18
ENDBRANCH   3   5
ENDBRANCH   2   3
ENDBRANCH   1   2
BRANCH   1  20
ATOM     20  C   UNL     1      12.734 -56.096 -26.384  1.00  0.00     0.023 C 
BRANCH  20  21
ATOM     21  C   UNL     1      12.160 -54.710 -26.079  1.00  0.00     0.113 C 
BRANCH  21  22
ATOM     22  N   UNL     1      13.204 -53.855 -25.498  1.00  0.00    -0.384 N 
ATOM     23  H   UNL     1      13.781 -53.456 -26.234  1.00  0.00     0.160 HD
BRANCH  22  24
ATOM     24  C   UNL     1      12.649 -52.817 -24.691  1.00  0.00     0.049 A 
ATOM     25  C   UNL     1      11.834 -53.115 -23.580  1.00  0.00    -0.003 A 
ATOM     26  C   UNL     1      13.015 -51.468 -24.951  1.00  0.00     0.024 A 
ATOM     27  C   UNL     1      11.455 -52.052 -22.755  1.00  0.00     0.046 A 
ATOM     28  C   UNL     1      11.429 -54.531 -23.240  1.00  0.00     0.039 C 
ATOM     29  C   UNL     1      13.787 -51.071 -26.070  1.00  0.00     0.014 A 
ATOM     30  C   UNL     1      12.564 -50.480 -24.057  1.00  0.00     0.074 A 
ATOM     31  N   UNL     1      11.809 -50.765 -22.988  1.00  0.00    -0.252 NA
ATOM     32  C   UNL     1      10.571 -52.253 -21.550  1.00  0.00     0.056 C 
ATOM     33  C   UNL     1      10.298 -54.634 -22.217  1.00  0.00     0.005 C 
ATOM     34  C   UNL     1      14.123 -49.735 -26.279  1.00  0.00     0.021 A 
ATOM     35  C   UNL     1      12.907 -49.154 -24.279  1.00  0.00     0.049 A 
ATOM     36  C   UNL     1      10.548 -53.692 -21.050  1.00  0.00     0.007 C 
ATOM     37  C   UNL     1      13.679 -48.781 -25.376  1.00  0.00     0.043 A 
ATOM     38  Cl  UNL     1      14.078 -47.124 -25.619  1.00  0.00    -0.084 Cl
ENDBRANCH  22  24
ENDBRANCH  21  22
ENDBRANCH  20  21
ENDBRANCH   1  20
TORSDOF 8
ENDMDL
MODEL 8
REMARK VINA RESULT:   -10.853      3.617     10.535
REMARK INTER + INTRA:         -16.439
REMARK INTER:                 -16.127
REMARK INTRA:                  -0.313
REMARK UNBOUND:                -0.828
REMARK SMILES Cc1cc(O)nc2c1C(=O)C(NCCCCNc1c3c(nc4cc(Cl)ccc14)CCCC3)=CC2=O
REMARK SMILES IDX 14 1 13 2 12 3 11 5 4 6 3 7 6 8 2 9 7 10 8 11 34 12 9 13
REMARK SMILES IDX 33 14 1 15 35 16 10 17 5 18 15 20 16 21 17 22 18 24 19 25
REMARK SMILES IDX 28 26 20 27 32 28 27 29 22 30 21 31 29 32 31 33 26 34 23 35
REMARK SMILES IDX 30 36 24 37 25 38
REMARK H PARENT 12 4 5 19 17 23
ROOT
ATOM      1  C   UNL     1      10.945 -55.177 -23.020  1.00  0.00     0.023 C 
ENDROOT
BRANCH   1   2
ATOM      2  C   UNL     1       9.943 -56.198 -22.478  1.00  0.00     0.113 C 
BRANCH   2   3
ATOM      3  N   UNL     1       9.164 -56.747 -23.576  1.00  0.00    -0.382 N 
ATOM      4  H   UNL     1       8.594 -56.062 -24.085  1.00  0.00     0.160 HD
BRANCH   3   5
ATOM      5  C   UNL     1       8.550 -57.995 -23.595  1.00  0.00     0.087 C 
ATOM      6  C   UNL     1       7.771 -63.018 -23.527  1.00  0.00     0.211 A 
ATOM      7  C   UNL     1       9.150 -62.950 -23.589  1.00  0.00     0.072 A 
ATOM      8  N   UNL     1       6.974 -61.946 -23.515  1.00  0.00    -0.209 NA
ATOM      9  C   UNL     1       9.766 -61.690 -23.645  1.00  0.00    -0.032 A 
ATOM     10  C   UNL     1       7.573 -60.726 -23.570  1.00  0.00     0.126 A 
ATOM     11  C   UNL     1       8.948 -60.540 -23.639  1.00  0.00     0.057 A 
ATOM     12  C   UNL     1       6.646 -59.568 -23.548  1.00  0.00     0.207 C 
ATOM     13  C   UNL     1       9.490 -59.165 -23.715  1.00  0.00     0.211 C 
ATOM     14  C   UNL     1       7.236 -58.220 -23.523  1.00  0.00     0.084 C 
ATOM     15  C   UNL     1      11.269 -61.633 -23.711  1.00  0.00     0.045 C 
ATOM     16  O   UNL     1       5.426 -59.680 -23.545  1.00  0.00    -0.287 OA
ATOM     17  O   UNL     1      10.687 -58.947 -23.887  1.00  0.00    -0.287 OA
BRANCH   6  18
ATOM     18  O   UNL     1       7.123 -64.213 -23.472  1.00  0.00    -0.493 OA
ATOM     19  H   UNL     1       6.429 -64.163 -22.799  1.00  0.00     0.295 HD
ENDBRANCH   6  18
ENDBRANCH   3   5
ENDBRANCH   2   3
ENDBRANCH   1   2
BRANCH   1  20
ATOM     20  C   UNL     1      10.563 -53.728 -22.702  1.00  0.00     0.023 C 
BRANCH  20  21
ATOM     21  C   UNL     1      11.740 -52.749 -22.684  1.00  0.00     0.113 C 
BRANCH  21  22
ATOM     22  N   UNL     1      11.880 -52.114 -24.001  1.00  0.00    -0.384 N 
ATOM     23  H   UNL     1      10.991 -51.716 -24.295  1.00  0.00     0.160 HD
BRANCH  22  24
ATOM     24  C   UNL     1      12.892 -51.107 -23.998  1.00  0.00     0.049 A 
ATOM     25  C   UNL     1      12.642 -49.826 -23.467  1.00  0.00    -0.003 A 
ATOM     26  C   UNL     1      14.201 -51.442 -24.440  1.00  0.00     0.024 A 
ATOM     27  C   UNL     1      13.726 -48.949 -23.364  1.00  0.00     0.046 A 
ATOM     28  C   UNL     1      11.276 -49.420 -22.962  1.00  0.00     0.039 C 
ATOM     29  C   UNL     1      14.532 -52.685 -25.032  1.00  0.00     0.014 A 
ATOM     30  C   UNL     1      15.211 -50.471 -24.298  1.00  0.00     0.074 A 
ATOM     31  N   UNL     1      14.979 -49.262 -23.771  1.00  0.00    -0.252 NA
ATOM     32  C   UNL     1      13.569 -47.548 -22.827  1.00  0.00     0.056 C 
ATOM     33  C   UNL     1      11.111 -47.918 -22.731  1.00  0.00     0.005 C 
ATOM     34  C   UNL     1      15.833 -52.965 -25.446  1.00  0.00     0.021 A 
ATOM     35  C   UNL     1      16.501 -50.766 -24.714  1.00  0.00     0.049 A 
ATOM     36  C   UNL     1      12.314 -47.359 -21.986  1.00  0.00     0.007 C 
ATOM     37  C   UNL     1      16.814 -51.998 -25.281  1.00  0.00     0.043 A 
ATOM     38  Cl  UNL     1      18.425 -52.323 -25.791  1.00  0.00    -0.084 Cl
ENDBRANCH  22  24
ENDBRANCH  21  22
ENDBRANCH  20  21
ENDBRANCH   1  20
TORSDOF 8
ENDMDL
MODEL 9
REMARK VINA RESULT:   -10.726      3.990     10.868
REMARK INTER + INTRA:         -16.257
REMARK INTER:                 -15.713
REMARK INTRA:                  -0.543
REMARK UNBOUND:                -0.828
REMARK SMILES Cc1cc(O)nc2c1C(=O)C(NCCCCNc1c3c(nc4cc(Cl)ccc14)CCCC3)=CC2=O
REMARK SMILES IDX 14 1 13 2 12 3 11 5 4 6 3 7 6 8 2 9 7 10 8 11 34 12 9 13
REMARK SMILES IDX 33 14 1 15 35 16 10 17 5 18 15 20 16 21 17 22 18 24 19 25
REMARK SMILES IDX 28 26 20 27 32 28 27 29 22 30 21 31 29 32 31 33 26 34 23 35
REMARK SMILES IDX 30 36 24 37 25 38
REMARK H PARENT 12 4 5 19 17 23
ROOT
ATOM      1  C   UNL     1      10.715 -54.451 -22.037  1.00  0.00     0.023 C 
ENDROOT
BRANCH   1   2
ATOM      2  C   UNL     1      10.582 -55.371 -23.251  1.00  0.00     0.113 C 
BRANCH   2   3
ATOM      3  N   UNL     1      10.575 -56.757 -22.813  1.00  0.00    -0.382 N 
ATOM      4  H   UNL     1      11.501 -57.194 -22.747  1.00  0.00     0.160 HD
BRANCH   3   5
ATOM      5  C   UNL     1       9.615 -57.710 -23.140  1.00  0.00     0.087 C 
ATOM      6  C   UNL     1       7.308 -62.135 -24.110  1.00  0.00     0.211 A 
ATOM      7  C   UNL     1       8.627 -62.529 -23.988  1.00  0.00     0.072 A 
ATOM      8  N   UNL     1       6.897 -60.869 -23.995  1.00  0.00    -0.209 NA
ATOM      9  C   UNL     1       9.605 -61.555 -23.731  1.00  0.00    -0.032 A 
ATOM     10  C   UNL     1       7.846 -59.928 -23.747  1.00  0.00     0.126 A 
ATOM     11  C   UNL     1       9.200 -60.209 -23.610  1.00  0.00     0.057 A 
ATOM     12  C   UNL     1       7.339 -58.539 -23.622  1.00  0.00     0.207 C 
ATOM     13  C   UNL     1      10.148 -59.101 -23.361  1.00  0.00     0.211 C 
ATOM     14  C   UNL     1       8.305 -57.486 -23.274  1.00  0.00     0.084 C 
ATOM     15  C   UNL     1      11.037 -62.000 -23.601  1.00  0.00     0.045 C 
ATOM     16  O   UNL     1       6.165 -58.232 -23.790  1.00  0.00    -0.287 OA
ATOM     17  O   UNL     1      11.365 -59.278 -23.341  1.00  0.00    -0.287 OA
BRANCH   6  18
ATOM     18  O   UNL     1       6.320 -63.037 -24.359  1.00  0.00    -0.493 OA
ATOM     19  H   UNL     1       6.553 -63.880 -23.945  1.00  0.00     0.295 HD
ENDBRANCH   6  18
ENDBRANCH   3   5
ENDBRANCH   2   3
ENDBRANCH   1   2
BRANCH   1  20
ATOM     20  C   UNL     1      10.581 -52.965 -22.386  1.00  0.00     0.023 C 
BRANCH  20  21
ATOM     21  C   UNL     1      11.739 -52.399 -23.214  1.00  0.00     0.113 C 
BRANCH  21  22
ATOM     22  N   UNL     1      12.574 -51.531 -22.373  1.00  0.00    -0.384 N 
ATOM     23  H   UNL     1      13.291 -52.081 -21.904  1.00  0.00     0.160 HD
BRANCH  22  24
ATOM     24  C   UNL     1      13.177 -50.482 -23.130  1.00  0.00     0.049 A 
ATOM     25  C   UNL     1      14.389 -50.686 -23.819  1.00  0.00    -0.003 A 
ATOM     26  C   UNL     1      12.484 -49.249 -23.277  1.00  0.00     0.024 A 
ATOM     27  C   UNL     1      14.834 -49.659 -24.658  1.00  0.00     0.046 A 
ATOM     28  C   UNL     1      15.160 -51.983 -23.720  1.00  0.00     0.039 C 
ATOM     29  C   UNL     1      11.288 -48.939 -22.585  1.00  0.00     0.014 A 
ATOM     30  C   UNL     1      13.036 -48.284 -24.140  1.00  0.00     0.074 A 
ATOM     31  N   UNL     1      14.175 -48.486 -24.813  1.00  0.00    -0.252 NA
ATOM     32  C   UNL     1      16.126 -49.763 -25.429  1.00  0.00     0.056 C 
ATOM     33  C   UNL     1      16.588 -51.910 -24.260  1.00  0.00     0.005 C 
ATOM     34  C   UNL     1      10.645 -47.716 -22.766  1.00  0.00     0.021 A 
ATOM     35  C   UNL     1      12.383 -47.072 -24.309  1.00  0.00     0.049 A 
ATOM     36  C   UNL     1      16.614 -51.195 -25.602  1.00  0.00     0.007 C 
ATOM     37  C   UNL     1      11.200 -46.786 -23.633  1.00  0.00     0.043 A 
ATOM     38  Cl  UNL     1      10.424 -45.268 -23.866  1.00  0.00    -0.084 Cl
ENDBRANCH  22  24
ENDBRANCH  21  22
ENDBRANCH  20  21
ENDBRANCH   1  20
TORSDOF 8
ENDMDL
