MODEL 1
REMARK VINA RESULT:    -8.291      0.000      0.000
REMARK INTER + INTRA:         -10.154
REMARK INTER:                  -9.746
REMARK INTRA:                  -0.408
REMARK UNBOUND:                -0.408
REMARK SMILES O=C(c1cnn(C2CCCC2)c1)C(F)(F)F
REMARK SMILES IDX 1 1 2 2 3 3 4 4 12 5 5 6 6 7 7 8 8 9 11 10 9 11 10 12 13 13
REMARK SMILES IDX 14 14 15 15 16 16
REMARK H PARENT
ROOT
ATOM      1  O   UNL     1      11.574 -58.275 -20.350  1.00  0.00    -0.284 OA
ATOM      2  C   UNL     1      11.340 -58.227 -21.560  1.00  0.00     0.269 C 
ENDROOT
BRANCH   2   3
ATOM      3  C   UNL     1      11.359 -59.447 -22.361  1.00  0.00     0.065 A 
ATOM      4  C   UNL     1      12.320 -59.915 -23.284  1.00  0.00     0.147 A 
ATOM      5  C   UNL     1      10.388 -60.430 -22.369  1.00  0.00     0.121 A 
ATOM      6  N   UNL     1      11.985 -61.088 -23.824  1.00  0.00    -0.180 NA
ATOM      7  N   UNL     1      10.801 -61.384 -23.255  1.00  0.00    -0.269 N 
BRANCH   7   8
ATOM      8  C   UNL     1      10.125 -62.621 -23.611  1.00  0.00     0.107 C 
ATOM      9  C   UNL     1       9.415 -63.275 -22.414  1.00  0.00     0.027 C 
ATOM     10  C   UNL     1       9.054 -62.449 -24.703  1.00  0.00     0.027 C 
ATOM     11  C   UNL     1       8.088 -63.774 -22.967  1.00  0.00     0.002 C 
ATOM     12  C   UNL     1       7.726 -62.731 -24.010  1.00  0.00     0.002 C 
ENDBRANCH   7   8
ENDBRANCH   2   3
BRANCH   2  13
ATOM     13  C   UNL     1      11.023 -56.921 -22.284  1.00  0.00     0.454 C 
ATOM     14  F   UNL     1      11.801 -56.704 -23.380  1.00  0.00    -0.163 F 
ATOM     15  F   UNL     1      11.186 -55.831 -21.480  1.00  0.00    -0.163 F 
ATOM     16  F   UNL     1       9.731 -56.873 -22.720  1.00  0.00    -0.163 F 
ENDBRANCH   2  13
TORSDOF 3
ENDMDL
MODEL 2
REMARK VINA RESULT:    -8.050      3.507      6.665
REMARK INTER + INTRA:          -9.871
REMARK INTER:                  -9.460
REMARK INTRA:                  -0.411
REMARK UNBOUND:                -0.408
REMARK SMILES O=C(c1cnn(C2CCCC2)c1)C(F)(F)F
REMARK SMILES IDX 1 1 2 2 3 3 4 4 12 5 5 6 6 7 7 8 8 9 11 10 9 11 10 12 13 13
REMARK SMILES IDX 14 14 15 15 16 16
REMARK H PARENT
ROOT
ATOM      1  O   UNL     1      11.707 -58.184 -20.097  1.00  0.00    -0.284 OA
ATOM      2  C   UNL     1      11.199 -58.369 -21.206  1.00  0.00     0.269 C 
ENDROOT
BRANCH   2   3
ATOM      3  C   UNL     1      11.293 -57.341 -22.237  1.00  0.00     0.065 A 
ATOM      4  C   UNL     1      11.750 -57.428 -23.571  1.00  0.00     0.147 A 
ATOM      5  C   UNL     1      10.934 -56.013 -22.099  1.00  0.00     0.121 A 
ATOM      6  N   UNL     1      11.683 -56.261 -24.214  1.00  0.00    -0.180 NA
ATOM      7  N   UNL     1      11.185 -55.410 -23.298  1.00  0.00    -0.269 N 
BRANCH   7   8
ATOM      8  C   UNL     1      10.968 -54.018 -23.657  1.00  0.00     0.107 C 
ATOM      9  C   UNL     1      10.798 -53.108 -22.430  1.00  0.00     0.027 C 
ATOM     10  C   UNL     1      12.111 -53.408 -24.488  1.00  0.00     0.027 C 
ATOM     11  C   UNL     1      11.576 -51.844 -22.765  1.00  0.00     0.002 C 
ATOM     12  C   UNL     1      12.746 -52.357 -23.585  1.00  0.00     0.002 C 
ENDBRANCH   7   8
ENDBRANCH   2   3
BRANCH   2  13
ATOM     13  C   UNL     1      10.456 -59.652 -21.566  1.00  0.00     0.454 C 
ATOM     14  F   UNL     1       9.324 -59.441 -22.293  1.00  0.00    -0.163 F 
ATOM     15  F   UNL     1      10.072 -60.355 -20.461  1.00  0.00    -0.163 F 
ATOM     16  F   UNL     1      11.225 -60.506 -22.302  1.00  0.00    -0.163 F 
ENDBRANCH   2  13
TORSDOF 3
ENDMDL
MODEL 3
REMARK VINA RESULT:    -7.937      2.184      3.041
REMARK INTER + INTRA:          -9.737
REMARK INTER:                  -9.323
REMARK INTRA:                  -0.415
REMARK UNBOUND:                -0.408
REMARK SMILES O=C(c1cnn(C2CCCC2)c1)C(F)(F)F
REMARK SMILES IDX 1 1 2 2 3 3 4 4 12 5 5 6 6 7 7 8 8 9 11 10 9 11 10 12 13 13
REMARK SMILES IDX 14 14 15 15 16 16
REMARK H PARENT
ROOT
ATOM      1  O   UNL     1      11.392 -55.145 -24.164  1.00  0.00    -0.284 OA
ATOM      2  C   UNL     1      10.892 -55.549 -23.111  1.00  0.00     0.269 C 
ENDROOT
BRANCH   2   3
ATOM      3  C   UNL     1      10.478 -56.943 -22.983  1.00  0.00     0.065 A 
ATOM      4  C   UNL     1       9.209 -57.536 -23.165  1.00  0.00     0.147 A 
ATOM      5  C   UNL     1      11.293 -58.006 -22.641  1.00  0.00     0.121 A 
ATOM      6  N   UNL     1       9.224 -58.854 -22.958  1.00  0.00    -0.180 NA
ATOM      7  N   UNL     1      10.504 -59.121 -22.636  1.00  0.00    -0.269 N 
BRANCH   7   8
ATOM      8  C   UNL     1      10.898 -60.489 -22.343  1.00  0.00     0.107 C 
ATOM      9  C   UNL     1       9.769 -61.304 -21.690  1.00  0.00     0.027 C 
ATOM     10  C   UNL     1      11.338 -61.286 -23.584  1.00  0.00     0.027 C 
ATOM     11  C   UNL     1       9.841 -62.675 -22.347  1.00  0.00     0.002 C 
ATOM     12  C   UNL     1      10.275 -62.361 -23.769  1.00  0.00     0.002 C 
ENDBRANCH   7   8
ENDBRANCH   2   3
BRANCH   2  13
ATOM     13  C   UNL     1      10.678 -54.644 -21.902  1.00  0.00     0.454 C 
ATOM     14  F   UNL     1       9.367 -54.394 -21.634  1.00  0.00    -0.163 F 
ATOM     15  F   UNL     1      11.273 -53.425 -22.056  1.00  0.00    -0.163 F 
ATOM     16  F   UNL     1      11.205 -55.173 -20.760  1.00  0.00    -0.163 F 
ENDBRANCH   2  13
TORSDOF 3
ENDMDL
MODEL 4
REMARK VINA RESULT:    -7.934      3.960      5.973
REMARK INTER + INTRA:          -9.734
REMARK INTER:                  -9.307
REMARK INTRA:                  -0.427
REMARK UNBOUND:                -0.408
REMARK SMILES O=C(c1cnn(C2CCCC2)c1)C(F)(F)F
REMARK SMILES IDX 1 1 2 2 3 3 4 4 12 5 5 6 6 7 7 8 8 9 11 10 9 11 10 12 13 13
REMARK SMILES IDX 14 14 15 15 16 16
REMARK H PARENT
ROOT
ATOM      1  O   UNL     1       6.269 -61.502 -23.932  1.00  0.00    -0.284 OA
ATOM      2  C   UNL     1       7.437 -61.895 -24.007  1.00  0.00     0.269 C 
ENDROOT
BRANCH   2   3
ATOM      3  C   UNL     1       8.513 -60.949 -24.282  1.00  0.00     0.065 A 
ATOM      4  C   UNL     1       9.103 -60.574 -25.510  1.00  0.00     0.147 A 
ATOM      5  C   UNL     1       9.198 -60.199 -23.345  1.00  0.00     0.121 A 
ATOM      6  N   UNL     1      10.071 -59.668 -25.358  1.00  0.00    -0.180 NA
ATOM      7  N   UNL     1      10.116 -59.455 -24.030  1.00  0.00    -0.269 N 
BRANCH   7   8
ATOM      8  C   UNL     1      11.072 -58.503 -23.489  1.00  0.00     0.107 C 
ATOM      9  C   UNL     1      10.400 -57.227 -22.953  1.00  0.00     0.027 C 
ATOM     10  C   UNL     1      11.915 -59.062 -22.329  1.00  0.00     0.027 C 
ATOM     11  C   UNL     1      11.139 -56.905 -21.662  1.00  0.00     0.002 C 
ATOM     12  C   UNL     1      11.480 -58.274 -21.100  1.00  0.00     0.002 C 
ENDBRANCH   7   8
ENDBRANCH   2   3
BRANCH   2  13
ATOM     13  C   UNL     1       7.825 -63.359 -23.821  1.00  0.00     0.454 C 
ATOM     14  F   UNL     1       7.330 -64.181 -24.787  1.00  0.00    -0.163 F 
ATOM     15  F   UNL     1       7.385 -63.864 -22.631  1.00  0.00    -0.163 F 
ATOM     16  F   UNL     1       9.177 -63.540 -23.824  1.00  0.00    -0.163 F 
ENDBRANCH   2  13
TORSDOF 3
ENDMDL
MODEL 5
REMARK VINA RESULT:    -7.892      3.334      6.093
REMARK INTER + INTRA:          -9.684
REMARK INTER:                  -9.275
REMARK INTRA:                  -0.409
REMARK UNBOUND:                -0.408
REMARK SMILES O=C(c1cnn(C2CCCC2)c1)C(F)(F)F
REMARK SMILES IDX 1 1 2 2 3 3 4 4 12 5 5 6 6 7 7 8 8 9 11 10 9 11 10 12 13 13
REMARK SMILES IDX 14 14 15 15 16 16
REMARK H PARENT
ROOT
ATOM      1  O   UNL     1       9.865 -61.178 -21.213  1.00  0.00    -0.284 OA
ATOM      2  C   UNL     1      10.224 -60.777 -22.323  1.00  0.00     0.269 C 
ENDROOT
BRANCH   2   3
ATOM      3  C   UNL     1      10.179 -59.353 -22.638  1.00  0.00     0.065 A 
ATOM      4  C   UNL     1       9.234 -58.615 -23.386  1.00  0.00     0.147 A 
ATOM      5  C   UNL     1      11.101 -58.401 -22.244  1.00  0.00     0.121 A 
ATOM      6  N   UNL     1       9.534 -57.317 -23.455  1.00  0.00    -0.180 NA
ATOM      7  N   UNL     1      10.678 -57.207 -22.755  1.00  0.00    -0.269 N 
BRANCH   7   8
ATOM      8  C   UNL     1      11.307 -55.904 -22.611  1.00  0.00     0.107 C 
ATOM      9  C   UNL     1      10.967 -54.950 -23.768  1.00  0.00     0.027 C 
ATOM     10  C   UNL     1      10.913 -55.167 -21.318  1.00  0.00     0.027 C 
ATOM     11  C   UNL     1      10.735 -53.598 -23.109  1.00  0.00     0.002 C 
ATOM     12  C   UNL     1      10.104 -53.959 -21.775  1.00  0.00     0.002 C 
ENDBRANCH   7   8
ENDBRANCH   2   3
BRANCH   2  13
ATOM     13  C   UNL     1      10.727 -61.717 -23.414  1.00  0.00     0.454 C 
ATOM     14  F   UNL     1      11.990 -61.434 -23.838  1.00  0.00    -0.163 F 
ATOM     15  F   UNL     1       9.938 -61.687 -24.527  1.00  0.00    -0.163 F 
ATOM     16  F   UNL     1      10.746 -63.019 -23.006  1.00  0.00    -0.163 F 
ENDBRANCH   2  13
TORSDOF 3
ENDMDL
MODEL 6
REMARK VINA RESULT:    -7.432      3.300      4.508
REMARK INTER + INTRA:          -9.143
REMARK INTER:                  -8.738
REMARK INTRA:                  -0.405
REMARK UNBOUND:                -0.408
REMARK SMILES O=C(c1cnn(C2CCCC2)c1)C(F)(F)F
REMARK SMILES IDX 1 1 2 2 3 3 4 4 12 5 5 6 6 7 7 8 8 9 11 10 9 11 10 12 13 13
REMARK SMILES IDX 14 14 15 15 16 16
REMARK H PARENT
ROOT
ATOM      1  O   UNL     1      11.923 -53.327 -24.003  1.00  0.00    -0.284 OA
ATOM      2  C   UNL     1      11.162 -53.701 -23.106  1.00  0.00     0.269 C 
ENDROOT
BRANCH   2   3
ATOM      3  C   UNL     1      10.651 -55.068 -23.101  1.00  0.00     0.065 A 
ATOM      4  C   UNL     1       9.345 -55.553 -23.336  1.00  0.00     0.147 A 
ATOM      5  C   UNL     1      11.387 -56.212 -22.854  1.00  0.00     0.121 A 
ATOM      6  N   UNL     1       9.266 -56.882 -23.245  1.00  0.00    -0.180 NA
ATOM      7  N   UNL     1      10.522 -57.265 -22.947  1.00  0.00    -0.269 N 
BRANCH   7   8
ATOM      8  C   UNL     1      10.818 -58.678 -22.775  1.00  0.00     0.107 C 
ATOM      9  C   UNL     1      10.858 -59.100 -21.297  1.00  0.00     0.027 C 
ATOM     10  C   UNL     1       9.802 -59.610 -23.459  1.00  0.00     0.027 C 
ATOM     11  C   UNL     1      10.160 -60.451 -21.253  1.00  0.00     0.002 C 
ATOM     12  C   UNL     1       9.087 -60.328 -22.321  1.00  0.00     0.002 C 
ENDBRANCH   7   8
ENDBRANCH   2   3
BRANCH   2  13
ATOM     13  C   UNL     1      10.715 -52.785 -21.971  1.00  0.00     0.454 C 
ATOM     14  F   UNL     1       9.436 -52.338 -22.103  1.00  0.00    -0.163 F 
ATOM     15  F   UNL     1      11.498 -51.672 -21.867  1.00  0.00    -0.163 F 
ATOM     16  F   UNL     1      10.780 -53.400 -20.755  1.00  0.00    -0.163 F 
ENDBRANCH   2  13
TORSDOF 3
ENDMDL
MODEL 7
REMARK VINA RESULT:    -7.378      4.153      4.732
REMARK INTER + INTRA:          -9.081
REMARK INTER:                  -8.743
REMARK INTRA:                  -0.338
REMARK UNBOUND:                -0.408
REMARK SMILES O=C(c1cnn(C2CCCC2)c1)C(F)(F)F
REMARK SMILES IDX 1 1 2 2 3 3 4 4 12 5 5 6 6 7 7 8 8 9 11 10 9 11 10 12 13 13
REMARK SMILES IDX 14 14 15 15 16 16
REMARK H PARENT
ROOT
ATOM      1  O   UNL     1      12.207 -57.858 -27.097  1.00  0.00    -0.284 OA
ATOM      2  C   UNL     1      11.900 -59.045 -27.229  1.00  0.00     0.269 C 
ENDROOT
BRANCH   2   3
ATOM      3  C   UNL     1      11.530 -59.842 -26.063  1.00  0.00     0.065 A 
ATOM      4  C   UNL     1      12.345 -60.479 -25.101  1.00  0.00     0.147 A 
ATOM      5  C   UNL     1      10.244 -60.140 -25.655  1.00  0.00     0.121 A 
ATOM      6  N   UNL     1      11.635 -61.120 -24.171  1.00  0.00    -0.180 NA
ATOM      7  N   UNL     1      10.355 -60.904 -24.529  1.00  0.00    -0.269 N 
BRANCH   7   8
ATOM      8  C   UNL     1       9.282 -61.462 -23.722  1.00  0.00     0.107 C 
ATOM      9  C   UNL     1       8.611 -62.676 -24.386  1.00  0.00     0.027 C 
ATOM     10  C   UNL     1       9.736 -61.933 -22.329  1.00  0.00     0.027 C 
ATOM     11  C   UNL     1       8.383 -63.668 -23.255  1.00  0.00     0.002 C 
ATOM     12  C   UNL     1       9.580 -63.449 -22.347  1.00  0.00     0.002 C 
ENDBRANCH   7   8
ENDBRANCH   2   3
BRANCH   2  13
ATOM     13  C   UNL     1      11.886 -59.745 -28.585  1.00  0.00     0.454 C 
ATOM     14  F   UNL     1      11.852 -58.886 -29.641  1.00  0.00    -0.163 F 
ATOM     15  F   UNL     1      10.808 -60.569 -28.731  1.00  0.00    -0.163 F 
ATOM     16  F   UNL     1      12.985 -60.533 -28.771  1.00  0.00    -0.163 F 
ENDBRANCH   2  13
TORSDOF 3
ENDMDL
MODEL 8
REMARK VINA RESULT:    -7.319      2.268      2.947
REMARK INTER + INTRA:          -9.012
REMARK INTER:                  -8.594
REMARK INTRA:                  -0.418
REMARK UNBOUND:                -0.408
REMARK SMILES O=C(c1cnn(C2CCCC2)c1)C(F)(F)F
REMARK SMILES IDX 1 1 2 2 3 3 4 4 12 5 5 6 6 7 7 8 8 9 11 10 9 11 10 12 13 13
REMARK SMILES IDX 14 14 15 15 16 16
REMARK H PARENT
ROOT
ATOM      1  O   UNL     1      11.124 -55.507 -21.049  1.00  0.00    -0.284 OA
ATOM      2  C   UNL     1      10.964 -55.543 -22.272  1.00  0.00     0.269 C 
ENDROOT
BRANCH   2   3
ATOM      3  C   UNL     1      11.028 -56.815 -22.984  1.00  0.00     0.065 A 
ATOM      4  C   UNL     1      11.914 -57.250 -23.995  1.00  0.00     0.147 A 
ATOM      5  C   UNL     1      10.189 -57.897 -22.795  1.00  0.00     0.121 A 
ATOM      6  N   UNL     1      11.657 -58.493 -24.404  1.00  0.00    -0.180 NA
ATOM      7  N   UNL     1      10.598 -58.870 -23.662  1.00  0.00    -0.269 N 
BRANCH   7   8
ATOM      8  C   UNL     1      10.036 -60.199 -23.839  1.00  0.00     0.107 C 
ATOM      9  C   UNL     1      11.112 -61.297 -23.878  1.00  0.00     0.027 C 
ATOM     10  C   UNL     1       9.049 -60.606 -22.730  1.00  0.00     0.027 C 
ATOM     11  C   UNL     1      10.532 -62.447 -23.067  1.00  0.00     0.002 C 
ATOM     12  C   UNL     1       9.732 -61.745 -21.984  1.00  0.00     0.002 C 
ENDBRANCH   7   8
ENDBRANCH   2   3
BRANCH   2  13
ATOM     13  C   UNL     1      10.695 -54.291 -23.102  1.00  0.00     0.454 C 
ATOM     14  F   UNL     1      10.246 -53.236 -22.368  1.00  0.00    -0.163 F 
ATOM     15  F   UNL     1       9.758 -54.506 -24.071  1.00  0.00    -0.163 F 
ATOM     16  F   UNL     1      11.811 -53.854 -23.754  1.00  0.00    -0.163 F 
ENDBRANCH   2  13
TORSDOF 3
ENDMDL
MODEL 9
REMARK VINA RESULT:    -7.110      3.548      6.390
REMARK INTER + INTRA:          -8.765
REMARK INTER:                  -8.528
REMARK INTRA:                  -0.237
REMARK UNBOUND:                -0.408
REMARK SMILES O=C(c1cnn(C2CCCC2)c1)C(F)(F)F
REMARK SMILES IDX 1 1 2 2 3 3 4 4 12 5 5 6 6 7 7 8 8 9 11 10 9 11 10 12 13 13
REMARK SMILES IDX 14 14 15 15 16 16
REMARK H PARENT
ROOT
ATOM      1  O   UNL     1       9.990 -61.036 -22.289  1.00  0.00    -0.284 OA
ATOM      2  C   UNL     1       9.124 -60.316 -22.793  1.00  0.00     0.269 C 
ENDROOT
BRANCH   2   3
ATOM      3  C   UNL     1       9.346 -58.878 -22.915  1.00  0.00     0.065 A 
ATOM      4  C   UNL     1       8.501 -57.868 -23.425  1.00  0.00     0.147 A 
ATOM      5  C   UNL     1      10.484 -58.194 -22.534  1.00  0.00     0.121 A 
ATOM      6  N   UNL     1       9.057 -56.656 -23.369  1.00  0.00    -0.180 NA
ATOM      7  N   UNL     1      10.269 -56.877 -22.825  1.00  0.00    -0.269 N 
BRANCH   7   8
ATOM      8  C   UNL     1      11.169 -55.758 -22.605  1.00  0.00     0.107 C 
ATOM      9  C   UNL     1      11.341 -54.880 -23.855  1.00  0.00     0.027 C 
ATOM     10  C   UNL     1      10.717 -54.813 -21.477  1.00  0.00     0.027 C 
ATOM     11  C   UNL     1      11.335 -53.449 -23.337  1.00  0.00     0.002 C 
ATOM     12  C   UNL     1      10.365 -53.501 -22.169  1.00  0.00     0.002 C 
ENDBRANCH   7   8
ENDBRANCH   2   3
BRANCH   2  13
ATOM     13  C   UNL     1       7.797 -60.864 -23.309  1.00  0.00     0.454 C 
ATOM     14  F   UNL     1       7.639 -62.199 -23.094  1.00  0.00    -0.163 F 
ATOM     15  F   UNL     1       7.648 -60.676 -24.653  1.00  0.00    -0.163 F 
ATOM     16  F   UNL     1       6.725 -60.255 -22.726  1.00  0.00    -0.163 F 
ENDBRANCH   2  13
TORSDOF 3
ENDMDL
