MODEL 1
REMARK VINA RESULT:    -9.818      0.000      0.000
REMARK INTER + INTRA:         -10.105
REMARK INTER:                 -10.105
REMARK INTRA:                   0.000
REMARK UNBOUND:                 0.000
REMARK SMILES CC1=C[C@@H]2Cc3[nH]c4cc(Cl)ccc4c(=N)c3[C@H](C1)C2
REMARK SMILES IDX 7 1 6 2 17 3 15 4 14 5 13 6 12 7 10 8 11 9 9 10 8 11 18 12
REMARK SMILES IDX 19 13 2 14 1 15 3 16 4 17 5 18 20 19 16 21
REMARK H PARENT 7 20 16 22
ROOT
ATOM      1  N   UNL     1      10.949 -57.088 -21.991  1.00  0.00    -0.358 N 
ATOM      2  C   UNL     1      11.301 -58.233 -22.674  1.00  0.00     0.021 A 
ATOM      3  C   UNL     1      11.858 -58.220 -23.908  1.00  0.00     0.000 A 
ATOM      4  C   UNL     1      12.079 -56.887 -24.577  1.00  0.00     0.068 A 
ATOM      5  C   UNL     1      11.657 -55.667 -23.826  1.00  0.00     0.023 A 
ATOM      6  C   UNL     1      11.824 -54.393 -24.385  1.00  0.00     0.014 A 
ATOM      7  C   UNL     1      11.426 -53.261 -23.673  1.00  0.00     0.021 A 
ATOM      8  C   UNL     1      10.868 -53.408 -22.404  1.00  0.00     0.043 A 
ATOM      9  Cl  UNL     1      10.386 -52.013 -21.520  1.00  0.00    -0.084 Cl
ATOM     10  C   UNL     1      10.700 -54.675 -21.842  1.00  0.00     0.047 A 
ATOM     11  C   UNL     1      11.082 -55.815 -22.556  1.00  0.00     0.049 A 
ATOM     12  C   UNL     1      12.274 -59.493 -24.628  1.00  0.00     0.028 C 
ATOM     13  C   UNL     1      11.196 -59.930 -25.648  1.00  0.00     0.039 C 
ATOM     14  C   UNL     1      10.016 -60.647 -25.019  1.00  0.00    -0.076 C 
ATOM     15  C   UNL     1       8.840 -60.894 -25.917  1.00  0.00     0.039 C 
ATOM     16  C   UNL     1      10.027 -61.023 -23.726  1.00  0.00    -0.024 C 
ATOM     17  C   UNL     1      11.215 -60.801 -22.813  1.00  0.00     0.018 C 
ATOM     18  C   UNL     1      11.013 -59.542 -21.949  1.00  0.00     0.062 C 
ATOM     19  C   UNL     1      12.500 -60.636 -23.628  1.00  0.00     0.017 C 
ATOM     20  H   UNL     1      10.421 -57.185 -21.133  1.00  0.00     0.166 HD
ENDROOT
BRANCH   4  21
ATOM     21  N   UNL     1      12.600 -56.740 -25.754  1.00  0.00    -0.300 NA
ATOM     22  H   UNL     1      12.958 -57.617 -26.135  1.00  0.00     0.188 HD
ENDBRANCH   4  21
TORSDOF 1
ENDMDL
MODEL 2
REMARK VINA RESULT:    -9.209      1.580      2.124
REMARK INTER + INTRA:          -9.478
REMARK INTER:                  -9.478
REMARK INTRA:                   0.000
REMARK UNBOUND:                 0.000
REMARK SMILES CC1=C[C@@H]2Cc3[nH]c4cc(Cl)ccc4c(=N)c3[C@H](C1)C2
REMARK SMILES IDX 7 1 6 2 17 3 15 4 14 5 13 6 12 7 10 8 11 9 9 10 8 11 18 12
REMARK SMILES IDX 19 13 2 14 1 15 3 16 4 17 5 18 20 19 16 21
REMARK H PARENT 7 20 16 22
ROOT
ATOM      1  N   UNL     1       8.978 -58.243 -22.741  1.00  0.00    -0.358 N 
ATOM      2  C   UNL     1       9.388 -59.521 -23.055  1.00  0.00     0.021 A 
ATOM      3  C   UNL     1      10.592 -59.800 -23.607  1.00  0.00     0.000 A 
ATOM      4  C   UNL     1      11.518 -58.651 -23.917  1.00  0.00     0.068 A 
ATOM      5  C   UNL     1      11.032 -57.276 -23.596  1.00  0.00     0.023 A 
ATOM      6  C   UNL     1      11.833 -56.158 -23.862  1.00  0.00     0.014 A 
ATOM      7  C   UNL     1      11.368 -54.878 -23.556  1.00  0.00     0.021 A 
ATOM      8  C   UNL     1      10.107 -54.724 -22.983  1.00  0.00     0.043 A 
ATOM      9  Cl  UNL     1       9.534 -53.147 -22.597  1.00  0.00    -0.084 Cl
ATOM     10  C   UNL     1       9.305 -55.835 -22.717  1.00  0.00     0.047 A 
ATOM     11  C   UNL     1       9.757 -57.119 -23.033  1.00  0.00     0.049 A 
ATOM     12  C   UNL     1      11.040 -61.221 -23.911  1.00  0.00     0.028 C 
ATOM     13  C   UNL     1      10.819 -61.565 -25.403  1.00  0.00     0.039 C 
ATOM     14  C   UNL     1       9.383 -61.924 -25.740  1.00  0.00    -0.076 C 
ATOM     15  C   UNL     1       9.059 -62.047 -27.200  1.00  0.00     0.039 C 
ATOM     16  C   UNL     1       8.458 -62.106 -24.778  1.00  0.00    -0.024 C 
ATOM     17  C   UNL     1       8.775 -62.008 -23.300  1.00  0.00     0.018 C 
ATOM     18  C   UNL     1       8.383 -60.625 -22.747  1.00  0.00     0.062 C 
ATOM     19  C   UNL     1      10.268 -62.232 -23.051  1.00  0.00     0.017 C 
ATOM     20  H   UNL     1       8.017 -58.105 -22.453  1.00  0.00     0.166 HD
ENDROOT
BRANCH   4  21
ATOM     21  N   UNL     1      12.693 -58.785 -24.446  1.00  0.00    -0.300 NA
ATOM     22  H   UNL     1      12.727 -58.454 -25.411  1.00  0.00     0.188 HD
ENDBRANCH   4  21
TORSDOF 1
ENDMDL
MODEL 3
REMARK VINA RESULT:    -8.949      4.369      8.683
REMARK INTER + INTRA:          -9.211
REMARK INTER:                  -9.211
REMARK INTRA:                   0.000
REMARK UNBOUND:                 0.000
REMARK SMILES CC1=C[C@@H]2Cc3[nH]c4cc(Cl)ccc4c(=N)c3[C@H](C1)C2
REMARK SMILES IDX 7 1 6 2 17 3 15 4 14 5 13 6 12 7 10 8 11 9 9 10 8 11 18 12
REMARK SMILES IDX 19 13 2 14 1 15 3 16 4 17 5 18 20 19 16 21
REMARK H PARENT 7 20 16 22
ROOT
ATOM      1  N   UNL     1      12.497 -52.524 -24.539  1.00  0.00    -0.358 N 
ATOM      2  C   UNL     1      13.084 -51.307 -24.263  1.00  0.00     0.021 A 
ATOM      3  C   UNL     1      12.937 -50.662 -23.082  1.00  0.00     0.000 A 
ATOM      4  C   UNL     1      12.066 -51.297 -22.027  1.00  0.00     0.068 A 
ATOM      5  C   UNL     1      11.417 -52.598 -22.368  1.00  0.00     0.023 A 
ATOM      6  C   UNL     1      10.589 -53.245 -21.441  1.00  0.00     0.014 A 
ATOM      7  C   UNL     1       9.990 -54.461 -21.771  1.00  0.00     0.021 A 
ATOM      8  C   UNL     1      10.226 -55.026 -23.024  1.00  0.00     0.043 A 
ATOM      9  Cl  UNL     1       9.495 -56.530 -23.430  1.00  0.00    -0.084 Cl
ATOM     10  C   UNL     1      11.050 -54.385 -23.950  1.00  0.00     0.047 A 
ATOM     11  C   UNL     1      11.643 -53.159 -23.633  1.00  0.00     0.049 A 
ATOM     12  C   UNL     1      13.624 -49.338 -22.784  1.00  0.00     0.028 C 
ATOM     13  C   UNL     1      12.656 -48.152 -23.000  1.00  0.00     0.039 C 
ATOM     14  C   UNL     1      12.486 -47.759 -24.456  1.00  0.00    -0.076 C 
ATOM     15  C   UNL     1      11.397 -46.771 -24.751  1.00  0.00     0.039 C 
ATOM     16  C   UNL     1      13.264 -48.285 -25.423  1.00  0.00    -0.024 C 
ATOM     17  C   UNL     1      14.383 -49.265 -25.139  1.00  0.00     0.018 C 
ATOM     18  C   UNL     1      13.918 -50.712 -25.391  1.00  0.00     0.062 C 
ATOM     19  C   UNL     1      14.851 -49.147 -23.687  1.00  0.00     0.017 C 
ATOM     20  H   UNL     1      12.548 -52.877 -25.487  1.00  0.00     0.166 HD
ENDROOT
BRANCH   4  21
ATOM     21  N   UNL     1      11.844 -50.781 -20.859  1.00  0.00    -0.300 NA
ATOM     22  H   UNL     1      12.580 -50.135 -20.572  1.00  0.00     0.188 HD
ENDBRANCH   4  21
TORSDOF 1
ENDMDL
MODEL 4
REMARK VINA RESULT:    -8.385      1.813      2.780
REMARK INTER + INTRA:          -8.630
REMARK INTER:                  -8.630
REMARK INTRA:                   0.000
REMARK UNBOUND:                 0.000
REMARK SMILES CC1=C[C@@H]2Cc3[nH]c4cc(Cl)ccc4c(=N)c3[C@H](C1)C2
REMARK SMILES IDX 7 1 6 2 17 3 15 4 14 5 13 6 12 7 10 8 11 9 9 10 8 11 18 12
REMARK SMILES IDX 19 13 2 14 1 15 3 16 4 17 5 18 20 19 16 21
REMARK H PARENT 7 20 16 22
ROOT
ATOM      1  N   UNL     1       9.135 -56.935 -23.627  1.00  0.00    -0.358 N 
ATOM      2  C   UNL     1       9.482 -58.264 -23.514  1.00  0.00     0.021 A 
ATOM      3  C   UNL     1      10.343 -58.731 -22.580  1.00  0.00     0.000 A 
ATOM      4  C   UNL     1      10.972 -57.741 -21.632  1.00  0.00     0.068 A 
ATOM      5  C   UNL     1      10.602 -56.303 -21.800  1.00  0.00     0.023 A 
ATOM      6  C   UNL     1      11.151 -55.324 -20.962  1.00  0.00     0.014 A 
ATOM      7  C   UNL     1      10.796 -53.985 -21.129  1.00  0.00     0.021 A 
ATOM      8  C   UNL     1       9.892 -53.633 -22.129  1.00  0.00     0.043 A 
ATOM      9  Cl  UNL     1       9.446 -51.983 -22.331  1.00  0.00    -0.084 Cl
ATOM     10  C   UNL     1       9.342 -54.605 -22.967  1.00  0.00     0.047 A 
ATOM     11  C   UNL     1       9.704 -55.947 -22.816  1.00  0.00     0.049 A 
ATOM     12  C   UNL     1      10.684 -60.207 -22.448  1.00  0.00     0.028 C 
ATOM     13  C   UNL     1      12.025 -60.531 -23.147  1.00  0.00     0.039 C 
ATOM     14  C   UNL     1      11.911 -60.670 -24.653  1.00  0.00    -0.076 C 
ATOM     15  C   UNL     1      13.205 -60.759 -25.408  1.00  0.00     0.039 C 
ATOM     16  C   UNL     1      10.713 -60.697 -25.270  1.00  0.00    -0.024 C 
ATOM     17  C   UNL     1       9.398 -60.631 -24.521  1.00  0.00     0.018 C 
ATOM     18  C   UNL     1       8.835 -59.198 -24.530  1.00  0.00     0.062 C 
ATOM     19  C   UNL     1       9.581 -61.078 -23.068  1.00  0.00     0.017 C 
ATOM     20  H   UNL     1       8.590 -56.648 -24.430  1.00  0.00     0.166 HD
ENDROOT
BRANCH   4  21
ATOM     21  N   UNL     1      11.811 -58.059 -20.697  1.00  0.00    -0.300 NA
ATOM     22  H   UNL     1      11.370 -58.117 -19.779  1.00  0.00     0.188 HD
ENDBRANCH   4  21
TORSDOF 1
ENDMDL
MODEL 5
REMARK VINA RESULT:    -8.351      6.209     10.902
REMARK INTER + INTRA:          -8.595
REMARK INTER:                  -8.595
REMARK INTRA:                   0.000
REMARK UNBOUND:                 0.000
REMARK SMILES CC1=C[C@@H]2Cc3[nH]c4cc(Cl)ccc4c(=N)c3[C@H](C1)C2
REMARK SMILES IDX 7 1 6 2 17 3 15 4 14 5 13 6 12 7 10 8 11 9 9 10 8 11 18 12
REMARK SMILES IDX 19 13 2 14 1 15 3 16 4 17 5 18 20 19 16 21
REMARK H PARENT 7 20 16 22
ROOT
ATOM      1  N   UNL     1      10.325 -48.813 -22.190  1.00  0.00    -0.358 N 
ATOM      2  C   UNL     1      10.878 -47.670 -22.726  1.00  0.00     0.021 A 
ATOM      3  C   UNL     1      11.920 -47.683 -23.591  1.00  0.00     0.000 A 
ATOM      4  C   UNL     1      12.519 -49.015 -23.965  1.00  0.00     0.068 A 
ATOM      5  C   UNL     1      11.920 -50.233 -23.342  1.00  0.00     0.023 A 
ATOM      6  C   UNL     1      12.428 -51.506 -23.635  1.00  0.00     0.014 A 
ATOM      7  C   UNL     1      11.858 -52.636 -23.047  1.00  0.00     0.021 A 
ATOM      8  C   UNL     1      10.782 -52.488 -22.174  1.00  0.00     0.043 A 
ATOM      9  Cl  UNL     1      10.071 -53.882 -21.456  1.00  0.00    -0.084 Cl
ATOM     10  C   UNL     1      10.272 -51.223 -21.879  1.00  0.00     0.047 A 
ATOM     11  C   UNL     1      10.847 -50.084 -22.452  1.00  0.00     0.049 A 
ATOM     12  C   UNL     1      12.491 -46.412 -24.200  1.00  0.00     0.028 C 
ATOM     13  C   UNL     1      13.756 -45.952 -23.438  1.00  0.00     0.039 C 
ATOM     14  C   UNL     1      13.456 -45.221 -22.143  1.00  0.00    -0.076 C 
ATOM     15  C   UNL     1      14.632 -44.950 -21.251  1.00  0.00     0.039 C 
ATOM     16  C   UNL     1      12.203 -44.854 -21.815  1.00  0.00    -0.024 C 
ATOM     17  C   UNL     1      11.009 -45.099 -22.714  1.00  0.00     0.018 C 
ATOM     18  C   UNL     1      10.243 -46.361 -22.273  1.00  0.00     0.062 C 
ATOM     19  C   UNL     1      11.455 -45.279 -24.167  1.00  0.00     0.017 C 
ATOM     20  H   UNL     1       9.637 -48.713 -21.454  1.00  0.00     0.166 HD
ENDROOT
BRANCH   4  21
ATOM     21  N   UNL     1      13.517 -49.162 -24.778  1.00  0.00    -0.300 NA
ATOM     22  H   UNL     1      13.283 -49.745 -25.582  1.00  0.00     0.188 HD
ENDBRANCH   4  21
TORSDOF 1
ENDMDL
MODEL 6
REMARK VINA RESULT:    -8.317      4.587      9.022
REMARK INTER + INTRA:          -8.560
REMARK INTER:                  -8.560
REMARK INTRA:                   0.000
REMARK UNBOUND:                 0.000
REMARK SMILES CC1=C[C@@H]2Cc3[nH]c4cc(Cl)ccc4c(=N)c3[C@H](C1)C2
REMARK SMILES IDX 7 1 6 2 17 3 15 4 14 5 13 6 12 7 10 8 11 9 9 10 8 11 18 12
REMARK SMILES IDX 19 13 2 14 1 15 3 16 4 17 5 18 20 19 16 21
REMARK H PARENT 7 20 16 22
ROOT
ATOM      1  N   UNL     1      11.721 -51.036 -22.872  1.00  0.00    -0.358 N 
ATOM      2  C   UNL     1      12.401 -49.976 -23.432  1.00  0.00     0.021 A 
ATOM      3  C   UNL     1      13.123 -50.075 -24.574  1.00  0.00     0.000 A 
ATOM      4  C   UNL     1      13.206 -51.421 -25.250  1.00  0.00     0.068 A 
ATOM      5  C   UNL     1      12.486 -52.557 -24.601  1.00  0.00     0.023 A 
ATOM      6  C   UNL     1      12.523 -53.839 -25.166  1.00  0.00     0.014 A 
ATOM      7  C   UNL     1      11.846 -54.892 -24.551  1.00  0.00     0.021 A 
ATOM      8  C   UNL     1      11.132 -54.658 -23.377  1.00  0.00     0.043 A 
ATOM      9  Cl  UNL     1      10.288 -55.954 -22.622  1.00  0.00    -0.084 Cl
ATOM     10  C   UNL     1      11.092 -53.383 -22.810  1.00  0.00     0.047 A 
ATOM     11  C   UNL     1      11.780 -52.325 -23.412  1.00  0.00     0.049 A 
ATOM     12  C   UNL     1      13.834 -48.884 -25.196  1.00  0.00     0.028 C 
ATOM     13  C   UNL     1      15.334 -48.877 -24.820  1.00  0.00     0.039 C 
ATOM     14  C   UNL     1      15.612 -48.342 -23.427  1.00  0.00    -0.076 C 
ATOM     15  C   UNL     1      17.014 -48.518 -22.920  1.00  0.00     0.039 C 
ATOM     16  C   UNL     1      14.647 -47.759 -22.691  1.00  0.00    -0.024 C 
ATOM     17  C   UNL     1      13.235 -47.553 -23.197  1.00  0.00     0.018 C 
ATOM     18  C   UNL     1      12.300 -48.659 -22.673  1.00  0.00     0.062 C 
ATOM     19  C   UNL     1      13.201 -47.566 -24.727  1.00  0.00     0.017 C 
ATOM     20  H   UNL     1      11.315 -50.914 -21.953  1.00  0.00     0.166 HD
ENDROOT
BRANCH   4  21
ATOM     21  N   UNL     1      13.864 -51.647 -26.343  1.00  0.00    -0.300 NA
ATOM     22  H   UNL     1      14.103 -50.788 -26.839  1.00  0.00     0.188 HD
ENDBRANCH   4  21
TORSDOF 1
ENDMDL
MODEL 7
REMARK VINA RESULT:    -8.210      7.508      9.568
REMARK INTER + INTRA:          -8.450
REMARK INTER:                  -8.450
REMARK INTRA:                   0.000
REMARK UNBOUND:                 0.000
REMARK SMILES CC1=C[C@@H]2Cc3[nH]c4cc(Cl)ccc4c(=N)c3[C@H](C1)C2
REMARK SMILES IDX 7 1 6 2 17 3 15 4 14 5 13 6 12 7 10 8 11 9 9 10 8 11 18 12
REMARK SMILES IDX 19 13 2 14 1 15 3 16 4 17 5 18 20 19 16 21
REMARK H PARENT 7 20 16 22
ROOT
ATOM      1  N   UNL     1      12.949 -47.478 -25.163  1.00  0.00    -0.358 N 
ATOM      2  C   UNL     1      13.214 -48.830 -25.133  1.00  0.00     0.021 A 
ATOM      3  C   UNL     1      12.665 -49.675 -24.228  1.00  0.00     0.000 A 
ATOM      4  C   UNL     1      11.737 -49.101 -23.187  1.00  0.00     0.068 A 
ATOM      5  C   UNL     1      11.496 -47.627 -23.226  1.00  0.00     0.023 A 
ATOM      6  C   UNL     1      10.651 -47.020 -22.287  1.00  0.00     0.014 A 
ATOM      7  C   UNL     1      10.433 -45.642 -22.334  1.00  0.00     0.021 A 
ATOM      8  C   UNL     1      11.056 -44.881 -23.322  1.00  0.00     0.043 A 
ATOM      9  Cl  UNL     1      10.781 -43.183 -23.387  1.00  0.00    -0.084 Cl
ATOM     10  C   UNL     1      11.898 -45.481 -24.259  1.00  0.00     0.047 A 
ATOM     11  C   UNL     1      12.134 -46.859 -24.210  1.00  0.00     0.049 A 
ATOM     12  C   UNL     1      12.941 -51.171 -24.236  1.00  0.00     0.028 C 
ATOM     13  C   UNL     1      14.027 -51.538 -23.198  1.00  0.00     0.039 C 
ATOM     14  C   UNL     1      15.441 -51.254 -23.667  1.00  0.00    -0.076 C 
ATOM     15  C   UNL     1      16.518 -51.376 -22.629  1.00  0.00     0.039 C 
ATOM     16  C   UNL     1      15.704 -50.899 -24.940  1.00  0.00    -0.024 C 
ATOM     17  C   UNL     1      14.631 -50.794 -26.004  1.00  0.00     0.018 C 
ATOM     18  C   UNL     1      14.189 -49.330 -26.192  1.00  0.00     0.062 C 
ATOM     19  C   UNL     1      13.408 -51.631 -25.624  1.00  0.00     0.017 C 
ATOM     20  H   UNL     1      13.497 -46.896 -25.784  1.00  0.00     0.166 HD
ENDROOT
BRANCH   4  21
ATOM     21  N   UNL     1      11.150 -49.801 -22.268  1.00  0.00    -0.300 NA
ATOM     22  H   UNL     1      10.202 -50.071 -22.529  1.00  0.00     0.188 HD
ENDBRANCH   4  21
TORSDOF 1
ENDMDL
MODEL 8
REMARK VINA RESULT:    -7.299      6.305     10.793
REMARK INTER + INTRA:          -7.513
REMARK INTER:                  -7.513
REMARK INTRA:                   0.000
REMARK UNBOUND:                 0.000
REMARK SMILES CC1=C[C@@H]2Cc3[nH]c4cc(Cl)ccc4c(=N)c3[C@H](C1)C2
REMARK SMILES IDX 7 1 6 2 17 3 15 4 14 5 13 6 12 7 10 8 11 9 9 10 8 11 18 12
REMARK SMILES IDX 19 13 2 14 1 15 3 16 4 17 5 18 20 19 16 21
REMARK H PARENT 7 20 16 22
ROOT
ATOM      1  N   UNL     1      13.557 -49.902 -22.739  1.00  0.00    -0.358 N 
ATOM      2  C   UNL     1      13.714 -48.536 -22.650  1.00  0.00     0.021 A 
ATOM      3  C   UNL     1      12.694 -47.687 -22.379  1.00  0.00     0.000 A 
ATOM      4  C   UNL     1      11.314 -48.266 -22.192  1.00  0.00     0.068 A 
ATOM      5  C   UNL     1      11.171 -49.747 -22.327  1.00  0.00     0.023 A 
ATOM      6  C   UNL     1       9.919 -50.357 -22.174  1.00  0.00     0.014 A 
ATOM      7  C   UNL     1       9.798 -51.741 -22.301  1.00  0.00     0.021 A 
ATOM      8  C   UNL     1      10.929 -52.508 -22.577  1.00  0.00     0.043 A 
ATOM      9  Cl  UNL     1      10.784 -54.216 -22.726  1.00  0.00    -0.084 Cl
ATOM     10  C   UNL     1      12.179 -51.904 -22.732  1.00  0.00     0.047 A 
ATOM     11  C   UNL     1      12.306 -50.516 -22.619  1.00  0.00     0.049 A 
ATOM     12  C   UNL     1      12.896 -46.185 -22.247  1.00  0.00     0.028 C 
ATOM     13  C   UNL     1      12.513 -45.458 -23.558  1.00  0.00     0.039 C 
ATOM     14  C   UNL     1      13.583 -45.529 -24.631  1.00  0.00    -0.076 C 
ATOM     15  C   UNL     1      13.186 -45.042 -25.993  1.00  0.00     0.039 C 
ATOM     16  C   UNL     1      14.812 -46.016 -24.369  1.00  0.00    -0.024 C 
ATOM     17  C   UNL     1      15.236 -46.489 -22.994  1.00  0.00     0.018 C 
ATOM     18  C   UNL     1      15.128 -48.022 -22.887  1.00  0.00     0.062 C 
ATOM     19  C   UNL     1      14.358 -45.859 -21.911  1.00  0.00     0.017 C 
ATOM     20  H   UNL     1      14.338 -50.454 -23.072  1.00  0.00     0.166 HD
ENDROOT
BRANCH   4  21
ATOM     21  N   UNL     1      10.258 -47.562 -21.931  1.00  0.00    -0.300 NA
ATOM     22  H   UNL     1       9.449 -47.855 -22.479  1.00  0.00     0.188 HD
ENDBRANCH   4  21
TORSDOF 1
ENDMDL
MODEL 9
REMARK VINA RESULT:    -6.956      8.438     13.070
REMARK INTER + INTRA:          -7.159
REMARK INTER:                  -7.159
REMARK INTRA:                   0.000
REMARK UNBOUND:                 0.000
REMARK SMILES CC1=C[C@@H]2Cc3[nH]c4cc(Cl)ccc4c(=N)c3[C@H](C1)C2
REMARK SMILES IDX 7 1 6 2 17 3 15 4 14 5 13 6 12 7 10 8 11 9 9 10 8 11 18 12
REMARK SMILES IDX 19 13 2 14 1 15 3 16 4 17 5 18 20 19 16 21
REMARK H PARENT 7 20 16 22
ROOT
ATOM      1  N   UNL     1      13.597 -46.922 -22.897  1.00  0.00    -0.358 N 
ATOM      2  C   UNL     1      13.323 -45.588 -22.686  1.00  0.00     0.021 A 
ATOM      3  C   UNL     1      12.094 -45.126 -22.353  1.00  0.00     0.000 A 
ATOM      4  C   UNL     1      10.967 -46.120 -22.232  1.00  0.00     0.068 A 
ATOM      5  C   UNL     1      11.289 -47.554 -22.498  1.00  0.00     0.023 A 
ATOM      6  C   UNL     1      10.293 -48.535 -22.412  1.00  0.00     0.014 A 
ATOM      7  C   UNL     1      10.606 -49.871 -22.662  1.00  0.00     0.021 A 
ATOM      8  C   UNL     1      11.915 -50.220 -22.993  1.00  0.00     0.043 A 
ATOM      9  Cl  UNL     1      12.306 -51.869 -23.293  1.00  0.00    -0.084 Cl
ATOM     10  C   UNL     1      12.911 -49.246 -23.080  1.00  0.00     0.047 A 
ATOM     11  C   UNL     1      12.602 -47.903 -22.845  1.00  0.00     0.049 A 
ATOM     12  C   UNL     1      11.821 -43.653 -22.088  1.00  0.00     0.028 C 
ATOM     13  C   UNL     1      11.208 -42.971 -23.333  1.00  0.00     0.039 C 
ATOM     14  C   UNL     1      12.229 -42.611 -24.397  1.00  0.00    -0.076 C 
ATOM     15  C   UNL     1      11.676 -42.156 -25.715  1.00  0.00     0.039 C 
ATOM     16  C   UNL     1      13.552 -42.712 -24.166  1.00  0.00    -0.024 C 
ATOM     17  C   UNL     1      14.126 -43.147 -22.833  1.00  0.00     0.018 C 
ATOM     18  C   UNL     1      14.503 -44.640 -22.863  1.00  0.00     0.062 C 
ATOM     19  C   UNL     1      13.114 -42.919 -21.708  1.00  0.00     0.017 C 
ATOM     20  H   UNL     1      14.505 -47.171 -23.269  1.00  0.00     0.166 HD
ENDROOT
BRANCH   4  21
ATOM     21  N   UNL     1       9.749 -45.806 -21.922  1.00  0.00    -0.300 NA
ATOM     22  H   UNL     1       9.453 -46.215 -21.036  1.00  0.00     0.188 HD
ENDBRANCH   4  21
TORSDOF 1
ENDMDL
