MODEL 1
REMARK VINA RESULT:   -12.994      0.000      0.000
REMARK INTER + INTRA:         -16.546
REMARK INTER:                 -16.033
REMARK INTRA:                  -0.514
REMARK UNBOUND:                -0.514
REMARK SMILES O=C(Nc1ccc2c(c1)CN(C(=O)c1ccccc1)C(=O)C2)c1cccc(Cl)c1
REMARK SMILES IDX 4 1 5 2 6 3 7 4 8 5 9 6 10 7 11 8 20 9 21 10 22 11 3 12 2 13
REMARK SMILES IDX 1 14 23 16 24 17 29 18 25 19 27 20 26 21 28 22 12 23 13 24
REMARK SMILES IDX 14 25 15 26 19 27 16 28 18 29 17 30
REMARK H PARENT 3 15
ROOT
ATOM      1  C   UNL     1      10.551 -56.752 -22.294  1.00  0.00     0.041 A 
ATOM      2  C   UNL     1      11.372 -57.418 -21.381  1.00  0.00     0.026 A 
ATOM      3  C   UNL     1      11.377 -58.815 -21.317  1.00  0.00     0.007 A 
ATOM      4  C   UNL     1      10.556 -59.566 -22.168  1.00  0.00    -0.033 A 
ATOM      5  C   UNL     1       9.748 -58.916 -23.098  1.00  0.00    -0.022 A 
ATOM      6  C   UNL     1       9.754 -57.507 -23.158  1.00  0.00     0.032 A 
ATOM      7  C   UNL     1       8.871 -59.693 -24.043  1.00  0.00     0.164 C 
ATOM      8  N   UNL     1       8.794 -61.137 -23.836  1.00  0.00    -0.274 N 
ATOM      9  C   UNL     1       9.356 -61.734 -22.713  1.00  0.00     0.234 C 
ATOM     10  O   UNL     1       8.965 -62.798 -22.230  1.00  0.00    -0.274 OA
ATOM     11  C   UNL     1      10.579 -61.062 -22.123  1.00  0.00     0.136 C 
ENDROOT
BRANCH   1  12
ATOM     12  N   UNL     1      10.591 -55.340 -22.287  1.00  0.00    -0.322 N 
ATOM     13  C   UNL     1      11.049 -54.510 -23.294  1.00  0.00     0.255 C 
ATOM     14  O   UNL     1      11.466 -54.848 -24.396  1.00  0.00    -0.269 OA
ATOM     15  H   UNL     1      10.159 -54.892 -21.487  1.00  0.00     0.170 HD
BRANCH  13  16
ATOM     16  C   UNL     1      10.981 -53.054 -22.989  1.00  0.00     0.041 A 
ATOM     17  C   UNL     1       9.885 -52.492 -22.316  1.00  0.00     0.014 A 
ATOM     18  C   UNL     1      12.064 -52.246 -23.363  1.00  0.00     0.034 A 
ATOM     19  C   UNL     1       9.869 -51.123 -22.035  1.00  0.00     0.002 A 
ATOM     20  C   UNL     1      12.036 -50.881 -23.081  1.00  0.00     0.041 A 
ATOM     21  C   UNL     1      10.944 -50.316 -22.420  1.00  0.00     0.020 A 
ATOM     22  Cl  UNL     1      13.356 -49.879 -23.545  1.00  0.00    -0.084 Cl
ENDBRANCH  13  16
ENDBRANCH   1  12
BRANCH   8  23
ATOM     23  C   UNL     1       7.856 -61.779 -24.659  1.00  0.00     0.260 C 
ATOM     24  O   UNL     1       6.688 -61.978 -24.312  1.00  0.00    -0.269 OA
BRANCH  23  25
ATOM     25  C   UNL     1       8.256 -62.236 -26.016  1.00  0.00     0.040 A 
ATOM     26  C   UNL     1       9.176 -61.501 -26.780  1.00  0.00     0.014 A 
ATOM     27  C   UNL     1       7.627 -63.367 -26.558  1.00  0.00     0.014 A 
ATOM     28  C   UNL     1       9.494 -61.927 -28.074  1.00  0.00     0.001 A 
ATOM     29  C   UNL     1       7.954 -63.790 -27.848  1.00  0.00     0.001 A 
ATOM     30  C   UNL     1       8.889 -63.074 -28.600  1.00  0.00     0.000 A 
ENDBRANCH  23  25
ENDBRANCH   8  23
TORSDOF 4
ENDMDL
MODEL 2
REMARK VINA RESULT:   -11.471      3.741     10.104
REMARK INTER + INTRA:         -14.667
REMARK INTER:                 -13.810
REMARK INTRA:                  -0.857
REMARK UNBOUND:                -0.514
REMARK SMILES O=C(Nc1ccc2c(c1)CN(C(=O)c1ccccc1)C(=O)C2)c1cccc(Cl)c1
REMARK SMILES IDX 4 1 5 2 6 3 7 4 8 5 9 6 10 7 11 8 20 9 21 10 22 11 3 12 2 13
REMARK SMILES IDX 1 14 23 16 24 17 29 18 25 19 27 20 26 21 28 22 12 23 13 24
REMARK SMILES IDX 14 25 15 26 19 27 16 28 18 29 17 30
REMARK H PARENT 3 15
ROOT
ATOM      1  C   UNL     1      10.470 -55.624 -23.036  1.00  0.00     0.041 A 
ATOM      2  C   UNL     1       9.603 -55.049 -22.104  1.00  0.00     0.026 A 
ATOM      3  C   UNL     1       9.636 -53.674 -21.855  1.00  0.00     0.007 A 
ATOM      4  C   UNL     1      10.544 -52.853 -22.537  1.00  0.00    -0.033 A 
ATOM      5  C   UNL     1      11.400 -53.409 -23.485  1.00  0.00    -0.022 A 
ATOM      6  C   UNL     1      11.355 -54.796 -23.732  1.00  0.00     0.032 A 
ATOM      7  C   UNL     1      12.371 -52.552 -24.252  1.00  0.00     0.164 C 
ATOM      8  N   UNL     1      12.477 -51.152 -23.849  1.00  0.00    -0.274 N 
ATOM      9  C   UNL     1      11.849 -50.684 -22.701  1.00  0.00     0.234 C 
ATOM     10  O   UNL     1      12.234 -49.709 -22.053  1.00  0.00    -0.274 OA
ATOM     11  C   UNL     1      10.564 -51.376 -22.295  1.00  0.00     0.136 C 
ENDROOT
BRANCH   1  12
ATOM     12  N   UNL     1      10.386 -57.023 -23.220  1.00  0.00    -0.322 N 
ATOM     13  C   UNL     1      10.859 -58.008 -22.372  1.00  0.00     0.255 C 
ATOM     14  O   UNL     1      11.403 -57.848 -21.286  1.00  0.00    -0.269 OA
ATOM     15  H   UNL     1       9.844 -57.329 -24.019  1.00  0.00     0.170 HD
BRANCH  13  16
ATOM     16  C   UNL     1      10.636 -59.403 -22.844  1.00  0.00     0.041 A 
ATOM     17  C   UNL     1      10.521 -60.475 -21.946  1.00  0.00     0.014 A 
ATOM     18  C   UNL     1      10.509 -59.625 -24.222  1.00  0.00     0.034 A 
ATOM     19  C   UNL     1      10.296 -61.767 -22.430  1.00  0.00     0.002 A 
ATOM     20  C   UNL     1      10.288 -60.919 -24.695  1.00  0.00     0.041 A 
ATOM     21  C   UNL     1      10.183 -61.989 -23.806  1.00  0.00     0.020 A 
ATOM     22  Cl  UNL     1      10.142 -61.203 -26.386  1.00  0.00    -0.084 Cl
ENDBRANCH  13  16
ENDBRANCH   1  12
BRANCH   8  23
ATOM     23  C   UNL     1      13.495 -50.447 -24.509  1.00  0.00     0.260 C 
ATOM     24  O   UNL     1      13.280 -49.434 -25.182  1.00  0.00    -0.269 OA
BRANCH  23  25
ATOM     25  C   UNL     1      14.905 -50.909 -24.398  1.00  0.00     0.040 A 
ATOM     26  C   UNL     1      15.632 -51.279 -25.540  1.00  0.00     0.014 A 
ATOM     27  C   UNL     1      15.465 -51.056 -23.120  1.00  0.00     0.014 A 
ATOM     28  C   UNL     1      16.938 -51.759 -25.400  1.00  0.00     0.001 A 
ATOM     29  C   UNL     1      16.772 -51.529 -22.989  1.00  0.00     0.001 A 
ATOM     30  C   UNL     1      17.507 -51.874 -24.126  1.00  0.00     0.000 A 
ENDBRANCH  23  25
ENDBRANCH   8  23
TORSDOF 4
ENDMDL
MODEL 3
REMARK VINA RESULT:   -11.208      4.401     11.847
REMARK INTER + INTRA:         -14.342
REMARK INTER:                 -13.825
REMARK INTRA:                  -0.517
REMARK UNBOUND:                -0.514
REMARK SMILES O=C(Nc1ccc2c(c1)CN(C(=O)c1ccccc1)C(=O)C2)c1cccc(Cl)c1
REMARK SMILES IDX 4 1 5 2 6 3 7 4 8 5 9 6 10 7 11 8 20 9 21 10 22 11 3 12 2 13
REMARK SMILES IDX 1 14 23 16 24 17 29 18 25 19 27 20 26 21 28 22 12 23 13 24
REMARK SMILES IDX 14 25 15 26 19 27 16 28 18 29 17 30
REMARK H PARENT 3 15
ROOT
ATOM      1  C   UNL     1      11.824 -53.732 -23.935  1.00  0.00     0.041 A 
ATOM      2  C   UNL     1      12.657 -53.581 -25.047  1.00  0.00     0.026 A 
ATOM      3  C   UNL     1      13.160 -52.323 -25.394  1.00  0.00     0.007 A 
ATOM      4  C   UNL     1      12.832 -51.196 -24.631  1.00  0.00    -0.033 A 
ATOM      5  C   UNL     1      12.021 -51.334 -23.507  1.00  0.00    -0.022 A 
ATOM      6  C   UNL     1      11.523 -52.607 -23.163  1.00  0.00     0.032 A 
ATOM      7  C   UNL     1      11.669 -50.147 -22.652  1.00  0.00     0.164 C 
ATOM      8  N   UNL     1      12.089 -48.834 -23.139  1.00  0.00    -0.274 N 
ATOM      9  C   UNL     1      12.623 -48.677 -24.413  1.00  0.00     0.234 C 
ATOM     10  O   UNL     1      12.568 -47.628 -25.058  1.00  0.00    -0.274 OA
ATOM     11  C   UNL     1      13.391 -49.852 -24.981  1.00  0.00     0.136 C 
ENDROOT
BRANCH   1  12
ATOM     12  N   UNL     1      11.344 -55.032 -23.660  1.00  0.00    -0.322 N 
ATOM     13  C   UNL     1      11.027 -55.562 -22.422  1.00  0.00     0.255 C 
ATOM     14  O   UNL     1      11.065 -54.987 -21.342  1.00  0.00    -0.269 OA
ATOM     15  H   UNL     1      11.134 -55.603 -24.470  1.00  0.00     0.170 HD
BRANCH  13  16
ATOM     16  C   UNL     1      10.558 -56.976 -22.446  1.00  0.00     0.041 A 
ATOM     17  C   UNL     1      11.220 -57.984 -21.729  1.00  0.00     0.014 A 
ATOM     18  C   UNL     1       9.407 -57.281 -23.185  1.00  0.00     0.034 A 
ATOM     19  C   UNL     1      10.737 -59.295 -21.766  1.00  0.00     0.002 A 
ATOM     20  C   UNL     1       8.936 -58.594 -23.218  1.00  0.00     0.041 A 
ATOM     21  C   UNL     1       9.596 -59.601 -22.513  1.00  0.00     0.020 A 
ATOM     22  Cl  UNL     1       7.529 -58.980 -24.131  1.00  0.00    -0.084 Cl
ENDBRANCH  13  16
ENDBRANCH   1  12
BRANCH   8  23
ATOM     23  C   UNL     1      11.610 -47.763 -22.369  1.00  0.00     0.260 C 
ATOM     24  O   UNL     1      10.412 -47.604 -22.116  1.00  0.00    -0.269 OA
BRANCH  23  25
ATOM     25  C   UNL     1      12.567 -46.772 -21.808  1.00  0.00     0.040 A 
ATOM     26  C   UNL     1      12.418 -45.401 -22.070  1.00  0.00     0.014 A 
ATOM     27  C   UNL     1      13.675 -47.240 -21.087  1.00  0.00     0.014 A 
ATOM     28  C   UNL     1      13.361 -44.497 -21.573  1.00  0.00     0.001 A 
ATOM     29  C   UNL     1      14.610 -46.331 -20.587  1.00  0.00     0.001 A 
ATOM     30  C   UNL     1      14.449 -44.964 -20.826  1.00  0.00     0.000 A 
ENDBRANCH  23  25
ENDBRANCH   8  23
TORSDOF 4
ENDMDL
MODEL 4
REMARK VINA RESULT:   -11.045      4.203     10.736
REMARK INTER + INTRA:         -14.141
REMARK INTER:                 -13.319
REMARK INTRA:                  -0.821
REMARK UNBOUND:                -0.514
REMARK SMILES O=C(Nc1ccc2c(c1)CN(C(=O)c1ccccc1)C(=O)C2)c1cccc(Cl)c1
REMARK SMILES IDX 4 1 5 2 6 3 7 4 8 5 9 6 10 7 11 8 20 9 21 10 22 11 3 12 2 13
REMARK SMILES IDX 1 14 23 16 24 17 29 18 25 19 27 20 26 21 28 22 12 23 13 24
REMARK SMILES IDX 14 25 15 26 19 27 16 28 18 29 17 30
REMARK H PARENT 3 15
ROOT
ATOM      1  C   UNL     1      10.591 -54.204 -23.291  1.00  0.00     0.041 A 
ATOM      2  C   UNL     1       9.932 -53.349 -22.404  1.00  0.00     0.026 A 
ATOM      3  C   UNL     1      10.371 -52.033 -22.227  1.00  0.00     0.007 A 
ATOM      4  C   UNL     1      11.481 -51.556 -22.935  1.00  0.00    -0.033 A 
ATOM      5  C   UNL     1      12.134 -52.391 -23.839  1.00  0.00    -0.022 A 
ATOM      6  C   UNL     1      11.682 -53.714 -24.014  1.00  0.00     0.032 A 
ATOM      7  C   UNL     1      13.316 -51.902 -24.633  1.00  0.00     0.164 C 
ATOM      8  N   UNL     1      13.832 -50.575 -24.302  1.00  0.00    -0.274 N 
ATOM      9  C   UNL     1      13.369 -49.881 -23.190  1.00  0.00     0.234 C 
ATOM     10  O   UNL     1      14.026 -49.029 -22.587  1.00  0.00    -0.274 OA
ATOM     11  C   UNL     1      11.937 -50.140 -22.771  1.00  0.00     0.136 C 
ENDROOT
BRANCH   1  12
ATOM     12  N   UNL     1      10.097 -55.523 -23.402  1.00  0.00    -0.322 N 
ATOM     13  C   UNL     1      10.499 -56.632 -22.679  1.00  0.00     0.255 C 
ATOM     14  O   UNL     1      11.330 -56.664 -21.780  1.00  0.00    -0.269 OA
ATOM     15  H   UNL     1       9.304 -55.644 -24.022  1.00  0.00     0.170 HD
BRANCH  13  16
ATOM     16  C   UNL     1       9.801 -57.899 -23.033  1.00  0.00     0.041 A 
ATOM     17  C   UNL     1       8.447 -57.918 -23.400  1.00  0.00     0.014 A 
ATOM     18  C   UNL     1      10.542 -59.089 -23.023  1.00  0.00     0.034 A 
ATOM     19  C   UNL     1       7.835 -59.127 -23.740  1.00  0.00     0.002 A 
ATOM     20  C   UNL     1       9.921 -60.291 -23.360  1.00  0.00     0.041 A 
ATOM     21  C   UNL     1       8.572 -60.316 -23.717  1.00  0.00     0.020 A 
ATOM     22  Cl  UNL     1      10.819 -61.759 -23.341  1.00  0.00    -0.084 Cl
ENDBRANCH  13  16
ENDBRANCH   1  12
BRANCH   8  23
ATOM     23  C   UNL     1      15.013 -50.240 -24.980  1.00  0.00     0.260 C 
ATOM     24  O   UNL     1      16.120 -50.681 -24.655  1.00  0.00    -0.269 OA
BRANCH  23  25
ATOM     25  C   UNL     1      14.957 -49.329 -26.154  1.00  0.00     0.040 A 
ATOM     26  C   UNL     1      15.133 -49.823 -27.457  1.00  0.00     0.014 A 
ATOM     27  C   UNL     1      14.817 -47.951 -25.931  1.00  0.00     0.014 A 
ATOM     28  C   UNL     1      15.127 -48.936 -28.538  1.00  0.00     0.001 A 
ATOM     29  C   UNL     1      14.804 -47.072 -27.015  1.00  0.00     0.001 A 
ATOM     30  C   UNL     1      14.954 -47.564 -28.314  1.00  0.00     0.000 A 
ENDBRANCH  23  25
ENDBRANCH   8  23
TORSDOF 4
ENDMDL
MODEL 5
REMARK VINA RESULT:   -10.954      4.821     12.515
REMARK INTER + INTRA:         -14.029
REMARK INTER:                 -13.985
REMARK INTRA:                  -0.044
REMARK UNBOUND:                -0.514
REMARK SMILES O=C(Nc1ccc2c(c1)CN(C(=O)c1ccccc1)C(=O)C2)c1cccc(Cl)c1
REMARK SMILES IDX 4 1 5 2 6 3 7 4 8 5 9 6 10 7 11 8 20 9 21 10 22 11 3 12 2 13
REMARK SMILES IDX 1 14 23 16 24 17 29 18 25 19 27 20 26 21 28 22 12 23 13 24
REMARK SMILES IDX 14 25 15 26 19 27 16 28 18 29 17 30
REMARK H PARENT 3 15
ROOT
ATOM      1  C   UNL     1      11.965 -52.578 -23.750  1.00  0.00     0.041 A 
ATOM      2  C   UNL     1      12.918 -52.380 -24.753  1.00  0.00     0.026 A 
ATOM      3  C   UNL     1      13.372 -51.093 -25.059  1.00  0.00     0.007 A 
ATOM      4  C   UNL     1      12.873 -49.984 -24.366  1.00  0.00    -0.033 A 
ATOM      5  C   UNL     1      11.939 -50.167 -23.349  1.00  0.00    -0.022 A 
ATOM      6  C   UNL     1      11.491 -51.469 -23.045  1.00  0.00     0.032 A 
ATOM      7  C   UNL     1      11.400 -48.998 -22.568  1.00  0.00     0.164 C 
ATOM      8  N   UNL     1      11.785 -47.665 -23.025  1.00  0.00    -0.274 N 
ATOM      9  C   UNL     1      12.463 -47.484 -24.226  1.00  0.00     0.234 C 
ATOM     10  O   UNL     1      12.417 -46.449 -24.894  1.00  0.00    -0.274 OA
ATOM     11  C   UNL     1      13.377 -48.607 -24.670  1.00  0.00     0.136 C 
ENDROOT
BRANCH   1  12
ATOM     12  N   UNL     1      11.546 -53.905 -23.511  1.00  0.00    -0.322 N 
ATOM     13  C   UNL     1      10.838 -54.376 -22.419  1.00  0.00     0.255 C 
ATOM     14  O   UNL     1      10.410 -53.718 -21.479  1.00  0.00    -0.269 OA
ATOM     15  H   UNL     1      11.713 -54.561 -24.265  1.00  0.00     0.170 HD
BRANCH  13  16
ATOM     16  C   UNL     1      10.554 -55.838 -22.438  1.00  0.00     0.041 A 
ATOM     17  C   UNL     1      11.380 -56.758 -21.776  1.00  0.00     0.014 A 
ATOM     18  C   UNL     1       9.409 -56.282 -23.113  1.00  0.00     0.034 A 
ATOM     19  C   UNL     1      11.068 -58.120 -21.805  1.00  0.00     0.002 A 
ATOM     20  C   UNL     1       9.108 -57.644 -23.139  1.00  0.00     0.041 A 
ATOM     21  C   UNL     1       9.932 -58.564 -22.490  1.00  0.00     0.020 A 
ATOM     22  Cl  UNL     1       7.710 -58.201 -23.975  1.00  0.00    -0.084 Cl
ENDBRANCH  13  16
ENDBRANCH   1  12
BRANCH   8  23
ATOM     23  C   UNL     1      11.141 -46.622 -22.343  1.00  0.00     0.260 C 
ATOM     24  O   UNL     1      10.019 -46.744 -21.841  1.00  0.00    -0.269 OA
BRANCH  23  25
ATOM     25  C   UNL     1      11.821 -45.309 -22.189  1.00  0.00     0.040 A 
ATOM     26  C   UNL     1      13.093 -45.222 -21.602  1.00  0.00     0.014 A 
ATOM     27  C   UNL     1      11.129 -44.145 -22.558  1.00  0.00     0.014 A 
ATOM     28  C   UNL     1      13.687 -43.969 -21.424  1.00  0.00     0.001 A 
ATOM     29  C   UNL     1      11.731 -42.898 -22.384  1.00  0.00     0.001 A 
ATOM     30  C   UNL     1      13.008 -42.811 -21.823  1.00  0.00     0.000 A 
ENDBRANCH  23  25
ENDBRANCH   8  23
TORSDOF 4
ENDMDL
MODEL 6
REMARK VINA RESULT:   -10.940      4.505     11.284
REMARK INTER + INTRA:         -14.012
REMARK INTER:                 -13.354
REMARK INTRA:                  -0.658
REMARK UNBOUND:                -0.514
REMARK SMILES O=C(Nc1ccc2c(c1)CN(C(=O)c1ccccc1)C(=O)C2)c1cccc(Cl)c1
REMARK SMILES IDX 4 1 5 2 6 3 7 4 8 5 9 6 10 7 11 8 20 9 21 10 22 11 3 12 2 13
REMARK SMILES IDX 1 14 23 16 24 17 29 18 25 19 27 20 26 21 28 22 12 23 13 24
REMARK SMILES IDX 14 25 15 26 19 27 16 28 18 29 17 30
REMARK H PARENT 3 15
ROOT
ATOM      1  C   UNL     1      11.247 -52.927 -22.546  1.00  0.00     0.041 A 
ATOM      2  C   UNL     1      10.248 -52.117 -21.999  1.00  0.00     0.026 A 
ATOM      3  C   UNL     1      10.307 -50.726 -22.133  1.00  0.00     0.007 A 
ATOM      4  C   UNL     1      11.373 -50.126 -22.816  1.00  0.00    -0.033 A 
ATOM      5  C   UNL     1      12.364 -50.922 -23.385  1.00  0.00    -0.022 A 
ATOM      6  C   UNL     1      12.293 -52.323 -23.249  1.00  0.00     0.032 A 
ATOM      7  C   UNL     1      13.510 -50.310 -24.146  1.00  0.00     0.164 C 
ATOM      8  N   UNL     1      13.613 -48.852 -24.127  1.00  0.00    -0.274 N 
ATOM      9  C   UNL     1      12.801 -48.085 -23.299  1.00  0.00     0.234 C 
ATOM     10  O   UNL     1      13.106 -46.968 -22.878  1.00  0.00    -0.274 OA
ATOM     11  C   UNL     1      11.426 -48.640 -22.987  1.00  0.00     0.136 C 
ENDROOT
BRANCH   1  12
ATOM     12  N   UNL     1      11.123 -54.321 -22.355  1.00  0.00    -0.322 N 
ATOM     13  C   UNL     1      10.345 -55.200 -23.086  1.00  0.00     0.255 C 
ATOM     14  O   UNL     1       9.652 -54.936 -24.061  1.00  0.00    -0.269 OA
ATOM     15  H   UNL     1      11.738 -54.725 -21.659  1.00  0.00     0.170 HD
BRANCH  13  16
ATOM     16  C   UNL     1      10.408 -56.618 -22.636  1.00  0.00     0.041 A 
ATOM     17  C   UNL     1      11.328 -57.044 -21.665  1.00  0.00     0.014 A 
ATOM     18  C   UNL     1       9.495 -57.529 -23.184  1.00  0.00     0.034 A 
ATOM     19  C   UNL     1      11.342 -58.381 -21.260  1.00  0.00     0.002 A 
ATOM     20  C   UNL     1       9.520 -58.863 -22.774  1.00  0.00     0.041 A 
ATOM     21  C   UNL     1      10.439 -59.292 -21.816  1.00  0.00     0.020 A 
ATOM     22  Cl  UNL     1       8.410 -59.991 -23.450  1.00  0.00    -0.084 Cl
ENDBRANCH  13  16
ENDBRANCH   1  12
BRANCH   8  23
ATOM     23  C   UNL     1      14.775 -48.357 -24.736  1.00  0.00     0.260 C 
ATOM     24  O   UNL     1      15.803 -48.097 -24.103  1.00  0.00    -0.269 OA
BRANCH  23  25
ATOM     25  C   UNL     1      14.804 -48.141 -26.207  1.00  0.00     0.040 A 
ATOM     26  C   UNL     1      14.996 -49.218 -27.088  1.00  0.00     0.014 A 
ATOM     27  C   UNL     1      14.728 -46.829 -26.696  1.00  0.00     0.014 A 
ATOM     28  C   UNL     1      15.069 -48.979 -28.463  1.00  0.00     0.001 A 
ATOM     29  C   UNL     1      14.795 -46.598 -28.072  1.00  0.00     0.001 A 
ATOM     30  C   UNL     1      14.961 -47.671 -28.952  1.00  0.00     0.000 A 
ENDBRANCH  23  25
ENDBRANCH   8  23
TORSDOF 4
ENDMDL
MODEL 7
REMARK VINA RESULT:   -10.543      4.270     11.256
REMARK INTER + INTRA:         -13.522
REMARK INTER:                 -13.236
REMARK INTRA:                  -0.286
REMARK UNBOUND:                -0.514
REMARK SMILES O=C(Nc1ccc2c(c1)CN(C(=O)c1ccccc1)C(=O)C2)c1cccc(Cl)c1
REMARK SMILES IDX 4 1 5 2 6 3 7 4 8 5 9 6 10 7 11 8 20 9 21 10 22 11 3 12 2 13
REMARK SMILES IDX 1 14 23 16 24 17 29 18 25 19 27 20 26 21 28 22 12 23 13 24
REMARK SMILES IDX 14 25 15 26 19 27 16 28 18 29 17 30
REMARK H PARENT 3 15
ROOT
ATOM      1  C   UNL     1      11.328 -54.492 -24.118  1.00  0.00     0.041 A 
ATOM      2  C   UNL     1      12.116 -54.549 -25.271  1.00  0.00     0.026 A 
ATOM      3  C   UNL     1      12.930 -53.471 -25.631  1.00  0.00     0.007 A 
ATOM      4  C   UNL     1      12.964 -52.316 -24.840  1.00  0.00    -0.033 A 
ATOM      5  C   UNL     1      12.202 -52.253 -23.675  1.00  0.00    -0.022 A 
ATOM      6  C   UNL     1      11.388 -53.348 -23.319  1.00  0.00     0.032 A 
ATOM      7  C   UNL     1      12.234 -51.036 -22.790  1.00  0.00     0.164 C 
ATOM      8  N   UNL     1      12.976 -49.879 -23.285  1.00  0.00    -0.274 N 
ATOM      9  C   UNL     1      13.470 -49.843 -24.584  1.00  0.00     0.234 C 
ATOM     10  O   UNL     1      13.677 -48.804 -25.214  1.00  0.00    -0.274 OA
ATOM     11  C   UNL     1      13.855 -51.170 -25.205  1.00  0.00     0.136 C 
ENDROOT
BRANCH   1  12
ATOM     12  N   UNL     1      10.522 -55.616 -23.832  1.00  0.00    -0.322 N 
ATOM     13  C   UNL     1      10.815 -56.659 -22.971  1.00  0.00     0.255 C 
ATOM     14  O   UNL     1      11.811 -56.777 -22.269  1.00  0.00    -0.269 OA
ATOM     15  H   UNL     1       9.595 -55.607 -24.240  1.00  0.00     0.170 HD
BRANCH  13  16
ATOM     16  C   UNL     1       9.770 -57.717 -22.887  1.00  0.00     0.041 A 
ATOM     17  C   UNL     1       8.456 -57.491 -23.326  1.00  0.00     0.014 A 
ATOM     18  C   UNL     1      10.135 -58.972 -22.384  1.00  0.00     0.034 A 
ATOM     19  C   UNL     1       7.510 -58.517 -23.244  1.00  0.00     0.002 A 
ATOM     20  C   UNL     1       9.182 -59.988 -22.303  1.00  0.00     0.041 A 
ATOM     21  C   UNL     1       7.873 -59.765 -22.729  1.00  0.00     0.020 A 
ATOM     22  Cl  UNL     1       9.619 -61.530 -21.676  1.00  0.00    -0.084 Cl
ENDBRANCH  13  16
ENDBRANCH   1  12
BRANCH   8  23
ATOM     23  C   UNL     1      12.851 -48.737 -22.479  1.00  0.00     0.260 C 
ATOM     24  O   UNL     1      13.170 -48.721 -21.286  1.00  0.00    -0.269 OA
BRANCH  23  25
ATOM     25  C   UNL     1      12.328 -47.474 -23.065  1.00  0.00     0.040 A 
ATOM     26  C   UNL     1      13.124 -46.319 -23.111  1.00  0.00     0.014 A 
ATOM     27  C   UNL     1      10.991 -47.431 -23.487  1.00  0.00     0.014 A 
ATOM     28  C   UNL     1      12.589 -45.132 -23.620  1.00  0.00     0.001 A 
ATOM     29  C   UNL     1      10.465 -46.244 -24.001  1.00  0.00     0.001 A 
ATOM     30  C   UNL     1      11.264 -45.100 -24.071  1.00  0.00     0.000 A 
ENDBRANCH  23  25
ENDBRANCH   8  23
TORSDOF 4
ENDMDL
MODEL 8
REMARK VINA RESULT:   -10.532      2.532      3.457
REMARK INTER + INTRA:         -13.509
REMARK INTER:                 -12.982
REMARK INTRA:                  -0.527
REMARK UNBOUND:                -0.514
REMARK SMILES O=C(Nc1ccc2c(c1)CN(C(=O)c1ccccc1)C(=O)C2)c1cccc(Cl)c1
REMARK SMILES IDX 4 1 5 2 6 3 7 4 8 5 9 6 10 7 11 8 20 9 21 10 22 11 3 12 2 13
REMARK SMILES IDX 1 14 23 16 24 17 29 18 25 19 27 20 26 21 28 22 12 23 13 24
REMARK SMILES IDX 14 25 15 26 19 27 16 28 18 29 17 30
REMARK H PARENT 3 15
ROOT
ATOM      1  C   UNL     1      11.428 -54.703 -23.856  1.00  0.00     0.041 A 
ATOM      2  C   UNL     1      12.290 -55.080 -24.890  1.00  0.00     0.026 A 
ATOM      3  C   UNL     1      12.520 -56.431 -25.168  1.00  0.00     0.007 A 
ATOM      4  C   UNL     1      11.889 -57.426 -24.411  1.00  0.00    -0.033 A 
ATOM      5  C   UNL     1      11.010 -57.065 -23.392  1.00  0.00    -0.022 A 
ATOM      6  C   UNL     1      10.782 -55.701 -23.123  1.00  0.00     0.032 A 
ATOM      7  C   UNL     1      10.297 -58.110 -22.575  1.00  0.00     0.164 C 
ATOM      8  N   UNL     1      10.684 -59.501 -22.798  1.00  0.00    -0.274 N 
ATOM      9  C   UNL     1      11.780 -59.824 -23.590  1.00  0.00     0.234 C 
ATOM     10  O   UNL     1      12.438 -60.859 -23.468  1.00  0.00    -0.274 OA
ATOM     11  C   UNL     1      12.108 -58.873 -24.723  1.00  0.00     0.136 C 
ENDROOT
BRANCH   1  12
ATOM     12  N   UNL     1      11.261 -53.319 -23.628  1.00  0.00    -0.322 N 
ATOM     13  C   UNL     1      10.857 -52.707 -22.455  1.00  0.00     0.255 C 
ATOM     14  O   UNL     1      10.609 -53.252 -21.387  1.00  0.00    -0.269 OA
ATOM     15  H   UNL     1      11.552 -52.711 -24.384  1.00  0.00     0.170 HD
BRANCH  13  16
ATOM     16  C   UNL     1      10.756 -51.223 -22.523  1.00  0.00     0.041 A 
ATOM     17  C   UNL     1       9.633 -50.537 -22.036  1.00  0.00     0.014 A 
ATOM     18  C   UNL     1      11.835 -50.509 -23.062  1.00  0.00     0.034 A 
ATOM     19  C   UNL     1       9.587 -49.142 -22.105  1.00  0.00     0.002 A 
ATOM     20  C   UNL     1      11.777 -49.117 -23.130  1.00  0.00     0.041 A 
ATOM     21  C   UNL     1      10.658 -48.431 -22.655  1.00  0.00     0.020 A 
ATOM     22  Cl  UNL     1      13.092 -48.232 -23.800  1.00  0.00    -0.084 Cl
ENDBRANCH  13  16
ENDBRANCH   1  12
BRANCH   8  23
ATOM     23  C   UNL     1      10.084 -60.407 -21.911  1.00  0.00     0.260 C 
ATOM     24  O   UNL     1      10.231 -60.341 -20.686  1.00  0.00    -0.269 OA
BRANCH  23  25
ATOM     25  C   UNL     1       9.218 -61.494 -22.439  1.00  0.00     0.040 A 
ATOM     26  C   UNL     1       9.541 -62.842 -22.219  1.00  0.00     0.014 A 
ATOM     27  C   UNL     1       8.119 -61.149 -23.240  1.00  0.00     0.014 A 
ATOM     28  C   UNL     1       8.736 -63.843 -22.771  1.00  0.00     0.001 A 
ATOM     29  C   UNL     1       7.316 -62.154 -23.783  1.00  0.00     0.001 A 
ATOM     30  C   UNL     1       7.622 -63.496 -23.544  1.00  0.00     0.000 A 
ENDBRANCH  23  25
ENDBRANCH   8  23
TORSDOF 4
ENDMDL
MODEL 9
REMARK VINA RESULT:   -10.482      3.462      5.876
REMARK INTER + INTRA:         -13.447
REMARK INTER:                 -12.824
REMARK INTRA:                  -0.623
REMARK UNBOUND:                -0.514
REMARK SMILES O=C(Nc1ccc2c(c1)CN(C(=O)c1ccccc1)C(=O)C2)c1cccc(Cl)c1
REMARK SMILES IDX 4 1 5 2 6 3 7 4 8 5 9 6 10 7 11 8 20 9 21 10 22 11 3 12 2 13
REMARK SMILES IDX 1 14 23 16 24 17 29 18 25 19 27 20 26 21 28 22 12 23 13 24
REMARK SMILES IDX 14 25 15 26 19 27 16 28 18 29 17 30
REMARK H PARENT 3 15
ROOT
ATOM      1  C   UNL     1      12.361 -51.540 -23.890  1.00  0.00     0.041 A 
ATOM      2  C   UNL     1      12.939 -51.828 -25.129  1.00  0.00     0.026 A 
ATOM      3  C   UNL     1      12.925 -53.132 -25.635  1.00  0.00     0.007 A 
ATOM      4  C   UNL     1      12.333 -54.168 -24.902  1.00  0.00    -0.033 A 
ATOM      5  C   UNL     1      11.735 -53.892 -23.675  1.00  0.00    -0.022 A 
ATOM      6  C   UNL     1      11.750 -52.574 -23.176  1.00  0.00     0.032 A 
ATOM      7  C   UNL     1      11.070 -54.978 -22.873  1.00  0.00     0.164 C 
ATOM      8  N   UNL     1      11.215 -56.346 -23.365  1.00  0.00    -0.274 N 
ATOM      9  C   UNL     1      12.075 -56.645 -24.416  1.00  0.00     0.234 C 
ATOM     10  O   UNL     1      12.600 -57.747 -24.585  1.00  0.00    -0.274 OA
ATOM     11  C   UNL     1      12.290 -55.560 -25.451  1.00  0.00     0.136 C 
ENDROOT
BRANCH   1  12
ATOM     12  N   UNL     1      12.430 -50.202 -23.442  1.00  0.00    -0.322 N 
ATOM     13  C   UNL     1      11.423 -49.468 -22.840  1.00  0.00     0.255 C 
ATOM     14  O   UNL     1      10.300 -49.859 -22.549  1.00  0.00    -0.269 OA
ATOM     15  H   UNL     1      13.343 -49.767 -23.495  1.00  0.00     0.170 HD
BRANCH  13  16
ATOM     16  C   UNL     1      11.790 -48.067 -22.491  1.00  0.00     0.041 A 
ATOM     17  C   UNL     1      12.930 -47.772 -21.728  1.00  0.00     0.014 A 
ATOM     18  C   UNL     1      10.980 -47.030 -22.972  1.00  0.00     0.034 A 
ATOM     19  C   UNL     1      13.246 -46.442 -21.437  1.00  0.00     0.002 A 
ATOM     20  C   UNL     1      11.302 -45.707 -22.671  1.00  0.00     0.041 A 
ATOM     21  C   UNL     1      12.430 -45.409 -21.906  1.00  0.00     0.020 A 
ATOM     22  Cl  UNL     1      10.307 -44.426 -23.248  1.00  0.00    -0.084 Cl
ENDBRANCH  13  16
ENDBRANCH   1  12
BRANCH   8  23
ATOM     23  C   UNL     1      10.692 -57.320 -22.500  1.00  0.00     0.260 C 
ATOM     24  O   UNL     1      11.174 -57.556 -21.389  1.00  0.00    -0.269 OA
BRANCH  23  25
ATOM     25  C   UNL     1       9.496 -58.104 -22.909  1.00  0.00     0.040 A 
ATOM     26  C   UNL     1       9.464 -59.499 -22.751  1.00  0.00     0.014 A 
ATOM     27  C   UNL     1       8.437 -57.437 -23.540  1.00  0.00     0.014 A 
ATOM     28  C   UNL     1       8.347 -60.217 -23.191  1.00  0.00     0.001 A 
ATOM     29  C   UNL     1       7.322 -58.159 -23.971  1.00  0.00     0.001 A 
ATOM     30  C   UNL     1       7.277 -59.544 -23.792  1.00  0.00     0.000 A 
ENDBRANCH  23  25
ENDBRANCH   8  23
TORSDOF 4
ENDMDL
