MODEL 1
REMARK VINA RESULT:   -10.920      0.000      0.000
REMARK INTER + INTRA:         -14.132
REMARK INTER:                 -14.112
REMARK INTRA:                  -0.020
REMARK UNBOUND:                -0.020
REMARK SMILES COc1ccc(NC(=O)C2CCN(C(=O)c3ccccc3)CC2)cc1OC
REMARK SMILES IDX 3 1 4 2 5 3 6 4 24 5 25 6 2 7 1 8 26 9 27 10 7 11 8 12 9 14
REMARK SMILES IDX 10 15 11 16 23 17 12 18 22 19 13 20 14 21 15 22 16 23 17 24
REMARK SMILES IDX 21 25 18 26 20 27 19 28
REMARK H PARENT 7 13
ROOT
ATOM      1  C   UNL     1      11.165 -53.226 -22.744  1.00  0.00     0.160 A 
ATOM      2  C   UNL     1      10.602 -53.960 -21.698  1.00  0.00     0.052 A 
ATOM      3  C   UNL     1      10.565 -55.358 -21.756  1.00  0.00     0.030 A 
ATOM      4  C   UNL     1      11.086 -56.043 -22.858  1.00  0.00     0.045 A 
ATOM      5  C   UNL     1      11.649 -55.309 -23.906  1.00  0.00     0.076 A 
ATOM      6  C   UNL     1      11.694 -53.906 -23.858  1.00  0.00     0.162 A 
ENDROOT
BRANCH   1   7
ATOM      7  O   UNL     1      11.247 -51.857 -22.775  1.00  0.00    -0.493 OA
ATOM      8  C   UNL     1      10.300 -51.121 -22.014  1.00  0.00     0.278 C 
ENDBRANCH   1   7
BRANCH   6   9
ATOM      9  O   UNL     1      12.228 -53.115 -24.846  1.00  0.00    -0.493 OA
ATOM     10  C   UNL     1      13.230 -53.684 -25.678  1.00  0.00     0.278 C 
ENDBRANCH   6   9
BRANCH   4  11
ATOM     11  N   UNL     1      11.002 -57.452 -22.832  1.00  0.00    -0.326 N 
ATOM     12  C   UNL     1      11.283 -58.298 -21.776  1.00  0.00     0.227 C 
ATOM     13  H   UNL     1      10.683 -57.881 -23.691  1.00  0.00     0.169 HD
ATOM     14  O   UNL     1      11.662 -57.963 -20.657  1.00  0.00    -0.274 OA
BRANCH  12  15
ATOM     15  C   UNL     1      11.103 -59.780 -22.096  1.00  0.00     0.082 C 
ATOM     16  C   UNL     1      11.268 -60.050 -23.601  1.00  0.00     0.035 C 
ATOM     17  C   UNL     1       9.773 -60.330 -21.554  1.00  0.00     0.035 C 
ATOM     18  C   UNL     1      11.034 -61.527 -23.921  1.00  0.00     0.120 C 
ATOM     19  C   UNL     1       9.591 -61.790 -21.958  1.00  0.00     0.120 C 
ATOM     20  N   UNL     1       9.728 -61.938 -23.403  1.00  0.00    -0.339 N 
ATOM     21  C   UNL     1       8.563 -61.833 -24.173  1.00  0.00     0.253 C 
ATOM     22  O   UNL     1       7.472 -61.522 -23.701  1.00  0.00    -0.269 OA
BRANCH  21  23
ATOM     23  C   UNL     1       8.639 -62.117 -25.626  1.00  0.00     0.040 A 
ATOM     24  C   UNL     1       9.450 -61.343 -26.466  1.00  0.00     0.014 A 
ATOM     25  C   UNL     1       7.940 -63.214 -26.141  1.00  0.00     0.014 A 
ATOM     26  C   UNL     1       9.525 -61.643 -27.827  1.00  0.00     0.001 A 
ATOM     27  C   UNL     1       8.019 -63.510 -27.502  1.00  0.00     0.001 A 
ATOM     28  C   UNL     1       8.807 -62.722 -28.343  1.00  0.00     0.000 A 
ENDBRANCH  21  23
ENDBRANCH  12  15
ENDBRANCH   4  11
TORSDOF 5
ENDMDL
MODEL 2
REMARK VINA RESULT:   -10.060      0.790      2.018
REMARK INTER + INTRA:         -13.020
REMARK INTER:                 -13.134
REMARK INTRA:                   0.113
REMARK UNBOUND:                -0.020
REMARK SMILES COc1ccc(NC(=O)C2CCN(C(=O)c3ccccc3)CC2)cc1OC
REMARK SMILES IDX 3 1 4 2 5 3 6 4 24 5 25 6 2 7 1 8 26 9 27 10 7 11 8 12 9 14
REMARK SMILES IDX 10 15 11 16 23 17 12 18 22 19 13 20 14 21 15 22 16 23 17 24
REMARK SMILES IDX 21 25 18 26 20 27 19 28
REMARK H PARENT 7 13
ROOT
ATOM      1  C   UNL     1      11.584 -53.519 -23.542  1.00  0.00     0.160 A 
ATOM      2  C   UNL     1      12.106 -54.437 -24.456  1.00  0.00     0.052 A 
ATOM      3  C   UNL     1      11.906 -55.809 -24.270  1.00  0.00     0.030 A 
ATOM      4  C   UNL     1      11.184 -56.286 -23.172  1.00  0.00     0.045 A 
ATOM      5  C   UNL     1      10.662 -55.368 -22.257  1.00  0.00     0.076 A 
ATOM      6  C   UNL     1      10.855 -53.989 -22.432  1.00  0.00     0.162 A 
ENDROOT
BRANCH   1   7
ATOM      7  O   UNL     1      11.728 -52.158 -23.640  1.00  0.00    -0.493 OA
ATOM      8  C   UNL     1      12.756 -51.662 -24.485  1.00  0.00     0.278 C 
ENDBRANCH   1   7
BRANCH   6   9
ATOM      9  O   UNL     1      10.375 -53.025 -21.579  1.00  0.00    -0.493 OA
ATOM     10  C   UNL     1       9.235 -52.284 -21.994  1.00  0.00     0.278 C 
ENDBRANCH   6   9
BRANCH   4  11
ATOM     11  N   UNL     1      11.036 -57.686 -23.065  1.00  0.00    -0.326 N 
ATOM     12  C   UNL     1      11.309 -58.486 -21.972  1.00  0.00     0.227 C 
ATOM     13  H   UNL     1      10.670 -58.145 -23.890  1.00  0.00     0.169 HD
ATOM     14  O   UNL     1      11.738 -58.109 -20.885  1.00  0.00    -0.274 OA
BRANCH  12  15
ATOM     15  C   UNL     1      11.051 -59.973 -22.203  1.00  0.00     0.082 C 
ATOM     16  C   UNL     1      11.205 -60.341 -23.689  1.00  0.00     0.035 C 
ATOM     17  C   UNL     1       9.691 -60.416 -21.638  1.00  0.00     0.035 C 
ATOM     18  C   UNL     1      10.893 -61.820 -23.921  1.00  0.00     0.120 C 
ATOM     19  C   UNL     1       9.432 -61.887 -21.955  1.00  0.00     0.120 C 
ATOM     20  N   UNL     1       9.565 -62.129 -23.388  1.00  0.00    -0.339 N 
ATOM     21  C   UNL     1       8.410 -62.008 -24.170  1.00  0.00     0.253 C 
ATOM     22  O   UNL     1       7.336 -61.611 -23.724  1.00  0.00    -0.269 OA
BRANCH  21  23
ATOM     23  C   UNL     1       8.476 -62.383 -25.603  1.00  0.00     0.040 A 
ATOM     24  C   UNL     1       7.701 -63.436 -26.105  1.00  0.00     0.014 A 
ATOM     25  C   UNL     1       9.274 -61.625 -26.466  1.00  0.00     0.014 A 
ATOM     26  C   UNL     1       7.761 -63.755 -27.462  1.00  0.00     0.001 A 
ATOM     27  C   UNL     1       9.331 -61.948 -27.822  1.00  0.00     0.001 A 
ATOM     28  C   UNL     1       8.578 -63.015 -28.317  1.00  0.00     0.000 A 
ENDBRANCH  21  23
ENDBRANCH  12  15
ENDBRANCH   4  11
TORSDOF 5
ENDMDL
MODEL 3
REMARK VINA RESULT:    -9.634      3.112      9.523
REMARK INTER + INTRA:         -12.471
REMARK INTER:                 -11.837
REMARK INTRA:                  -0.634
REMARK UNBOUND:                -0.020
REMARK SMILES COc1ccc(NC(=O)C2CCN(C(=O)c3ccccc3)CC2)cc1OC
REMARK SMILES IDX 3 1 4 2 5 3 6 4 24 5 25 6 2 7 1 8 26 9 27 10 7 11 8 12 9 14
REMARK SMILES IDX 10 15 11 16 23 17 12 18 22 19 13 20 14 21 15 22 16 23 17 24
REMARK SMILES IDX 21 25 18 26 20 27 19 28
REMARK H PARENT 7 13
ROOT
ATOM      1  C   UNL     1       9.916 -59.532 -22.105  1.00  0.00     0.160 A 
ATOM      2  C   UNL     1      11.139 -58.928 -21.807  1.00  0.00     0.052 A 
ATOM      3  C   UNL     1      11.418 -57.637 -22.266  1.00  0.00     0.030 A 
ATOM      4  C   UNL     1      10.485 -56.930 -23.030  1.00  0.00     0.045 A 
ATOM      5  C   UNL     1       9.261 -57.535 -23.330  1.00  0.00     0.076 A 
ATOM      6  C   UNL     1       8.968 -58.829 -22.874  1.00  0.00     0.162 A 
ENDROOT
BRANCH   1   7
ATOM      7  O   UNL     1       9.553 -60.791 -21.699  1.00  0.00    -0.493 OA
ATOM      8  C   UNL     1      10.027 -61.893 -22.459  1.00  0.00     0.278 C 
ENDBRANCH   1   7
BRANCH   6   9
ATOM      9  O   UNL     1       7.791 -59.491 -23.126  1.00  0.00    -0.493 OA
ATOM     10  C   UNL     1       6.577 -58.774 -22.940  1.00  0.00     0.278 C 
ENDBRANCH   6   9
BRANCH   4  11
ATOM     11  N   UNL     1      10.855 -55.635 -23.453  1.00  0.00    -0.326 N 
ATOM     12  C   UNL     1      10.970 -54.492 -22.683  1.00  0.00     0.227 C 
ATOM     13  H   UNL     1      11.074 -55.548 -24.438  1.00  0.00     0.169 HD
ATOM     14  O   UNL     1      10.766 -54.407 -21.476  1.00  0.00    -0.274 OA
BRANCH  12  15
ATOM     15  C   UNL     1      11.377 -53.247 -23.467  1.00  0.00     0.082 C 
ATOM     16  C   UNL     1      12.527 -53.552 -24.442  1.00  0.00     0.035 C 
ATOM     17  C   UNL     1      11.705 -52.064 -22.541  1.00  0.00     0.035 C 
ATOM     18  C   UNL     1      12.964 -52.289 -25.184  1.00  0.00     0.120 C 
ATOM     19  C   UNL     1      12.182 -50.863 -23.352  1.00  0.00     0.120 C 
ATOM     20  N   UNL     1      13.295 -51.242 -24.216  1.00  0.00    -0.339 N 
ATOM     21  C   UNL     1      14.588 -51.098 -23.698  1.00  0.00     0.253 C 
ATOM     22  O   UNL     1      14.812 -50.773 -22.534  1.00  0.00    -0.269 OA
BRANCH  21  23
ATOM     23  C   UNL     1      15.746 -51.339 -24.592  1.00  0.00     0.040 A 
ATOM     24  C   UNL     1      16.272 -50.306 -25.377  1.00  0.00     0.014 A 
ATOM     25  C   UNL     1      16.352 -52.599 -24.591  1.00  0.00     0.014 A 
ATOM     26  C   UNL     1      17.377 -50.549 -26.194  1.00  0.00     0.001 A 
ATOM     27  C   UNL     1      17.457 -52.838 -25.408  1.00  0.00     0.001 A 
ATOM     28  C   UNL     1      17.965 -51.815 -26.212  1.00  0.00     0.000 A 
ENDBRANCH  21  23
ENDBRANCH  12  15
ENDBRANCH   4  11
TORSDOF 5
ENDMDL
MODEL 4
REMARK VINA RESULT:    -9.099      3.359      9.700
REMARK INTER + INTRA:         -11.779
REMARK INTER:                 -11.004
REMARK INTRA:                  -0.775
REMARK UNBOUND:                -0.020
REMARK SMILES COc1ccc(NC(=O)C2CCN(C(=O)c3ccccc3)CC2)cc1OC
REMARK SMILES IDX 3 1 4 2 5 3 6 4 24 5 25 6 2 7 1 8 26 9 27 10 7 11 8 12 9 14
REMARK SMILES IDX 10 15 11 16 23 17 12 18 22 19 13 20 14 21 15 22 16 23 17 24
REMARK SMILES IDX 21 25 18 26 20 27 19 28
REMARK H PARENT 7 13
ROOT
ATOM      1  C   UNL     1       9.568 -58.698 -22.768  1.00  0.00     0.160 A 
ATOM      2  C   UNL     1       8.736 -57.604 -23.015  1.00  0.00     0.052 A 
ATOM      3  C   UNL     1       9.286 -56.357 -23.332  1.00  0.00     0.030 A 
ATOM      4  C   UNL     1      10.671 -56.182 -23.406  1.00  0.00     0.045 A 
ATOM      5  C   UNL     1      11.504 -57.276 -23.158  1.00  0.00     0.076 A 
ATOM      6  C   UNL     1      10.965 -58.533 -22.840  1.00  0.00     0.162 A 
ENDROOT
BRANCH   1   7
ATOM      7  O   UNL     1       9.123 -59.956 -22.451  1.00  0.00    -0.493 OA
ATOM      8  C   UNL     1       7.979 -60.445 -23.136  1.00  0.00     0.278 C 
ENDBRANCH   1   7
BRANCH   6   9
ATOM      9  O   UNL     1      11.716 -59.655 -22.583  1.00  0.00    -0.493 OA
ATOM     10  C   UNL     1      12.480 -60.197 -23.652  1.00  0.00     0.278 C 
ENDBRANCH   6   9
BRANCH   4  11
ATOM     11  N   UNL     1      11.134 -54.889 -23.729  1.00  0.00    -0.326 N 
ATOM     12  C   UNL     1      11.200 -53.781 -22.905  1.00  0.00     0.227 C 
ATOM     13  H   UNL     1      11.470 -54.774 -24.677  1.00  0.00     0.169 HD
ATOM     14  O   UNL     1      10.860 -53.732 -21.726  1.00  0.00    -0.274 OA
BRANCH  12  15
ATOM     15  C   UNL     1      11.741 -52.525 -23.584  1.00  0.00     0.082 C 
ATOM     16  C   UNL     1      12.811 -52.875 -24.632  1.00  0.00     0.035 C 
ATOM     17  C   UNL     1      12.249 -51.492 -22.565  1.00  0.00     0.035 C 
ATOM     18  C   UNL     1      13.385 -51.609 -25.271  1.00  0.00     0.120 C 
ATOM     19  C   UNL     1      12.852 -50.285 -23.279  1.00  0.00     0.120 C 
ATOM     20  N   UNL     1      13.879 -50.714 -24.223  1.00  0.00    -0.339 N 
ATOM     21  C   UNL     1      15.195 -50.787 -23.751  1.00  0.00     0.253 C 
ATOM     22  O   UNL     1      15.497 -50.611 -22.572  1.00  0.00    -0.269 OA
BRANCH  21  23
ATOM     23  C   UNL     1      16.284 -51.082 -24.713  1.00  0.00     0.040 A 
ATOM     24  C   UNL     1      16.850 -52.361 -24.784  1.00  0.00     0.014 A 
ATOM     25  C   UNL     1      16.695 -50.082 -25.601  1.00  0.00     0.014 A 
ATOM     26  C   UNL     1      17.858 -52.622 -25.714  1.00  0.00     0.001 A 
ATOM     27  C   UNL     1      17.701 -50.348 -26.529  1.00  0.00     0.001 A 
ATOM     28  C   UNL     1      18.284 -51.616 -26.581  1.00  0.00     0.000 A 
ENDBRANCH  21  23
ENDBRANCH  12  15
ENDBRANCH   4  11
TORSDOF 5
ENDMDL
MODEL 5
REMARK VINA RESULT:    -8.897      2.492      9.509
REMARK INTER + INTRA:         -11.517
REMARK INTER:                 -11.377
REMARK INTRA:                  -0.141
REMARK UNBOUND:                -0.020
REMARK SMILES COc1ccc(NC(=O)C2CCN(C(=O)c3ccccc3)CC2)cc1OC
REMARK SMILES IDX 3 1 4 2 5 3 6 4 24 5 25 6 2 7 1 8 26 9 27 10 7 11 8 12 9 14
REMARK SMILES IDX 10 15 11 16 23 17 12 18 22 19 13 20 14 21 15 22 16 23 17 24
REMARK SMILES IDX 21 25 18 26 20 27 19 28
REMARK H PARENT 7 13
ROOT
ATOM      1  C   UNL     1      10.150 -61.577 -22.877  1.00  0.00     0.160 A 
ATOM      2  C   UNL     1      10.137 -60.681 -21.806  1.00  0.00     0.052 A 
ATOM      3  C   UNL     1      10.082 -59.303 -22.040  1.00  0.00     0.030 A 
ATOM      4  C   UNL     1      10.041 -58.798 -23.343  1.00  0.00     0.045 A 
ATOM      5  C   UNL     1      10.055 -59.694 -24.415  1.00  0.00     0.076 A 
ATOM      6  C   UNL     1      10.109 -61.079 -24.194  1.00  0.00     0.162 A 
ENDROOT
BRANCH   1   7
ATOM      7  O   UNL     1      10.203 -62.942 -22.747  1.00  0.00    -0.493 OA
ATOM      8  C   UNL     1       9.009 -63.617 -22.376  1.00  0.00     0.278 C 
ENDBRANCH   1   7
BRANCH   6   9
ATOM      9  O   UNL     1      10.127 -62.023 -25.192  1.00  0.00    -0.493 OA
ATOM     10  C   UNL     1       8.996 -62.098 -26.050  1.00  0.00     0.278 C 
ENDBRANCH   6   9
BRANCH   4  11
ATOM     11  N   UNL     1       9.990 -57.394 -23.483  1.00  0.00    -0.326 N 
ATOM     12  C   UNL     1      10.643 -56.442 -22.723  1.00  0.00     0.227 C 
ATOM     13  H   UNL     1       9.413 -57.057 -24.243  1.00  0.00     0.169 HD
ATOM     14  O   UNL     1      11.395 -56.659 -21.776  1.00  0.00    -0.274 OA
BRANCH  12  15
ATOM     15  C   UNL     1      10.350 -55.002 -23.135  1.00  0.00     0.082 C 
ATOM     16  C   UNL     1      11.567 -54.361 -23.824  1.00  0.00     0.035 C 
ATOM     17  C   UNL     1       9.845 -54.155 -21.955  1.00  0.00     0.035 C 
ATOM     18  C   UNL     1      11.285 -52.903 -24.187  1.00  0.00     0.120 C 
ATOM     19  C   UNL     1       9.637 -52.705 -22.384  1.00  0.00     0.120 C 
ATOM     20  N   UNL     1      10.854 -52.176 -22.991  1.00  0.00    -0.339 N 
ATOM     21  C   UNL     1      11.769 -51.540 -22.145  1.00  0.00     0.253 C 
ATOM     22  O   UNL     1      11.642 -51.504 -20.923  1.00  0.00    -0.269 OA
BRANCH  21  23
ATOM     23  C   UNL     1      12.947 -50.867 -22.743  1.00  0.00     0.040 A 
ATOM     24  C   UNL     1      14.072 -51.604 -23.132  1.00  0.00     0.014 A 
ATOM     25  C   UNL     1      12.895 -49.489 -22.978  1.00  0.00     0.014 A 
ATOM     26  C   UNL     1      15.161 -50.953 -23.715  1.00  0.00     0.001 A 
ATOM     27  C   UNL     1      13.984 -48.842 -23.562  1.00  0.00     0.001 A 
ATOM     28  C   UNL     1      15.117 -49.574 -23.925  1.00  0.00     0.000 A 
ENDBRANCH  21  23
ENDBRANCH  12  15
ENDBRANCH   4  11
TORSDOF 5
ENDMDL
MODEL 6
REMARK VINA RESULT:    -8.355      5.973     13.338
REMARK INTER + INTRA:         -10.818
REMARK INTER:                 -10.155
REMARK INTRA:                  -0.663
REMARK UNBOUND:                -0.020
REMARK SMILES COc1ccc(NC(=O)C2CCN(C(=O)c3ccccc3)CC2)cc1OC
REMARK SMILES IDX 3 1 4 2 5 3 6 4 24 5 25 6 2 7 1 8 26 9 27 10 7 11 8 12 9 14
REMARK SMILES IDX 10 15 11 16 23 17 12 18 22 19 13 20 14 21 15 22 16 23 17 24
REMARK SMILES IDX 21 25 18 26 20 27 19 28
REMARK H PARENT 7 13
ROOT
ATOM      1  C   UNL     1      10.555 -54.459 -23.141  1.00  0.00     0.160 A 
ATOM      2  C   UNL     1      10.327 -53.710 -21.985  1.00  0.00     0.052 A 
ATOM      3  C   UNL     1      10.987 -52.491 -21.792  1.00  0.00     0.030 A 
ATOM      4  C   UNL     1      11.884 -52.003 -22.747  1.00  0.00     0.045 A 
ATOM      5  C   UNL     1      12.113 -52.753 -23.904  1.00  0.00     0.076 A 
ATOM      6  C   UNL     1      11.456 -53.976 -24.110  1.00  0.00     0.162 A 
ENDROOT
BRANCH   1   7
ATOM      7  O   UNL     1       9.955 -55.662 -23.417  1.00  0.00    -0.493 OA
ATOM      8  C   UNL     1      10.452 -56.815 -22.755  1.00  0.00     0.278 C 
ENDBRANCH   1   7
BRANCH   6   9
ATOM      9  O   UNL     1      11.627 -54.771 -25.218  1.00  0.00    -0.493 OA
ATOM     10  C   UNL     1      12.865 -54.677 -25.910  1.00  0.00     0.278 C 
ENDBRANCH   6   9
BRANCH   4  11
ATOM     11  N   UNL     1      12.505 -50.767 -22.466  1.00  0.00    -0.326 N 
ATOM     12  C   UNL     1      11.939 -49.507 -22.499  1.00  0.00     0.227 C 
ATOM     13  H   UNL     1      13.479 -50.825 -22.195  1.00  0.00     0.169 HD
ATOM     14  O   UNL     1      10.775 -49.241 -22.785  1.00  0.00    -0.274 OA
BRANCH  12  15
ATOM     15  C   UNL     1      12.906 -48.376 -22.156  1.00  0.00     0.082 C 
ATOM     16  C   UNL     1      12.160 -47.162 -21.577  1.00  0.00     0.035 C 
ATOM     17  C   UNL     1      13.792 -47.991 -23.352  1.00  0.00     0.035 C 
ATOM     18  C   UNL     1      13.128 -46.014 -21.284  1.00  0.00     0.120 C 
ATOM     19  C   UNL     1      14.689 -46.809 -22.997  1.00  0.00     0.120 C 
ATOM     20  N   UNL     1      13.890 -45.697 -22.493  1.00  0.00    -0.339 N 
ATOM     21  C   UNL     1      13.434 -44.758 -23.427  1.00  0.00     0.253 C 
ATOM     22  O   UNL     1      13.588 -44.889 -24.640  1.00  0.00    -0.269 OA
BRANCH  21  23
ATOM     23  C   UNL     1      12.740 -43.543 -22.938  1.00  0.00     0.040 A 
ATOM     24  C   UNL     1      13.447 -42.530 -22.279  1.00  0.00     0.014 A 
ATOM     25  C   UNL     1      11.375 -43.389 -23.203  1.00  0.00     0.014 A 
ATOM     26  C   UNL     1      12.777 -41.384 -21.848  1.00  0.00     0.001 A 
ATOM     27  C   UNL     1      10.710 -42.242 -22.771  1.00  0.00     0.001 A 
ATOM     28  C   UNL     1      11.411 -41.243 -22.090  1.00  0.00     0.000 A 
ENDBRANCH  21  23
ENDBRANCH  12  15
ENDBRANCH   4  11
TORSDOF 5
ENDMDL
MODEL 7
REMARK VINA RESULT:    -8.038      6.268     12.063
REMARK INTER + INTRA:         -10.408
REMARK INTER:                  -9.806
REMARK INTRA:                  -0.602
REMARK UNBOUND:                -0.020
REMARK SMILES COc1ccc(NC(=O)C2CCN(C(=O)c3ccccc3)CC2)cc1OC
REMARK SMILES IDX 3 1 4 2 5 3 6 4 24 5 25 6 2 7 1 8 26 9 27 10 7 11 8 12 9 14
REMARK SMILES IDX 10 15 11 16 23 17 12 18 22 19 13 20 14 21 15 22 16 23 17 24
REMARK SMILES IDX 21 25 18 26 20 27 19 28
REMARK H PARENT 7 13
ROOT
ATOM      1  C   UNL     1      11.628 -54.092 -24.238  1.00  0.00     0.160 A 
ATOM      2  C   UNL     1      12.373 -54.302 -25.400  1.00  0.00     0.052 A 
ATOM      3  C   UNL     1      13.273 -53.328 -25.847  1.00  0.00     0.030 A 
ATOM      4  C   UNL     1      13.443 -52.132 -25.143  1.00  0.00     0.045 A 
ATOM      5  C   UNL     1      12.697 -51.922 -23.980  1.00  0.00     0.076 A 
ATOM      6  C   UNL     1      11.791 -52.891 -23.521  1.00  0.00     0.162 A 
ENDROOT
BRANCH   1   7
ATOM      7  O   UNL     1      10.724 -54.987 -23.724  1.00  0.00    -0.493 OA
ATOM      8  C   UNL     1      11.233 -56.136 -23.063  1.00  0.00     0.278 C 
ENDBRANCH   1   7
BRANCH   6   9
ATOM      9  O   UNL     1      11.022 -52.759 -22.390  1.00  0.00    -0.493 OA
ATOM     10  C   UNL     1      10.367 -51.515 -22.180  1.00  0.00     0.278 C 
ENDBRANCH   6   9
BRANCH   4  11
ATOM     11  N   UNL     1      14.370 -51.208 -25.669  1.00  0.00    -0.326 N 
ATOM     12  C   UNL     1      14.223 -49.839 -25.798  1.00  0.00     0.227 C 
ATOM     13  H   UNL     1      15.251 -51.604 -25.972  1.00  0.00     0.169 HD
ATOM     14  O   UNL     1      13.239 -49.181 -25.471  1.00  0.00    -0.274 OA
BRANCH  12  15
ATOM     15  C   UNL     1      15.422 -49.136 -26.430  1.00  0.00     0.082 C 
ATOM     16  C   UNL     1      15.041 -48.476 -27.766  1.00  0.00     0.035 C 
ATOM     17  C   UNL     1      16.630 -50.076 -26.575  1.00  0.00     0.035 C 
ATOM     18  C   UNL     1      16.258 -47.820 -28.418  1.00  0.00     0.120 C 
ATOM     19  C   UNL     1      17.782 -49.364 -27.280  1.00  0.00     0.120 C 
ATOM     20  N   UNL     1      17.333 -48.805 -28.550  1.00  0.00    -0.339 N 
ATOM     21  C   UNL     1      17.458 -49.613 -29.687  1.00  0.00     0.253 C 
ATOM     22  O   UNL     1      17.823 -50.786 -29.641  1.00  0.00    -0.269 OA
BRANCH  21  23
ATOM     23  C   UNL     1      17.144 -49.031 -31.015  1.00  0.00     0.040 A 
ATOM     24  C   UNL     1      15.917 -49.288 -31.638  1.00  0.00     0.014 A 
ATOM     25  C   UNL     1      18.066 -48.163 -31.610  1.00  0.00     0.014 A 
ATOM     26  C   UNL     1      15.634 -48.711 -32.877  1.00  0.00     0.001 A 
ATOM     27  C   UNL     1      17.778 -47.588 -32.848  1.00  0.00     0.001 A 
ATOM     28  C   UNL     1      16.565 -47.866 -33.481  1.00  0.00     0.000 A 
ENDBRANCH  21  23
ENDBRANCH  12  15
ENDBRANCH   4  11
TORSDOF 5
ENDMDL
