MODEL 1
REMARK VINA RESULT:   -12.738      0.000      0.000
REMARK INTER + INTRA:         -15.702
REMARK INTER:                 -15.717
REMARK INTRA:                   0.014
REMARK UNBOUND:                 0.014
REMARK SMILES O=C(Nc1ccc2c(c1)CN(C(=O)c1cccc(Cl)c1)C(=O)C2)c1cccc(Cl)c1
REMARK SMILES IDX 4 1 5 2 6 3 7 4 8 5 9 6 10 7 11 8 21 9 22 10 23 11 3 12 2 13
REMARK SMILES IDX 1 14 24 16 25 17 30 18 26 19 28 20 27 21 29 22 12 23 13 24
REMARK SMILES IDX 14 25 15 26 20 27 16 28 18 29 17 30 19 31
REMARK H PARENT 3 15
ROOT
ATOM      1  C   UNL     1      11.114 -57.018 -22.176  1.00  0.00     0.041 A 
ATOM      2  C   UNL     1      11.387 -57.646 -20.961  1.00  0.00     0.026 A 
ATOM      3  C   UNL     1      11.101 -59.003 -20.778  1.00  0.00     0.007 A 
ATOM      4  C   UNL     1      10.518 -59.744 -21.808  1.00  0.00    -0.033 A 
ATOM      5  C   UNL     1      10.237 -59.126 -23.028  1.00  0.00    -0.022 A 
ATOM      6  C   UNL     1      10.539 -57.770 -23.211  1.00  0.00     0.032 A 
ATOM      7  C   UNL     1       9.662 -59.970 -24.129  1.00  0.00     0.164 C 
ATOM      8  N   UNL     1       8.718 -60.951 -23.618  1.00  0.00    -0.274 N 
ATOM      9  C   UNL     1       9.124 -61.751 -22.548  1.00  0.00     0.234 C 
ATOM     10  O   UNL     1       8.630 -62.852 -22.293  1.00  0.00    -0.274 OA
ATOM     11  C   UNL     1      10.239 -61.214 -21.657  1.00  0.00     0.136 C 
ENDROOT
BRANCH   1  12
ATOM     12  N   UNL     1      11.374 -55.656 -22.437  1.00  0.00    -0.322 N 
ATOM     13  C   UNL     1      10.542 -54.581 -22.176  1.00  0.00     0.255 C 
ATOM     14  O   UNL     1       9.458 -54.607 -21.607  1.00  0.00    -0.269 OA
ATOM     15  H   UNL     1      12.297 -55.445 -22.792  1.00  0.00     0.170 HD
BRANCH  13  16
ATOM     16  C   UNL     1      11.073 -53.259 -22.612  1.00  0.00     0.041 A 
ATOM     17  C   UNL     1      10.823 -52.090 -21.880  1.00  0.00     0.014 A 
ATOM     18  C   UNL     1      11.866 -53.208 -23.764  1.00  0.00     0.034 A 
ATOM     19  C   UNL     1      11.342 -50.869 -22.317  1.00  0.00     0.002 A 
ATOM     20  C   UNL     1      12.378 -51.986 -24.192  1.00  0.00     0.041 A 
ATOM     21  C   UNL     1      12.116 -50.817 -23.478  1.00  0.00     0.020 A 
ATOM     22  Cl  UNL     1      13.341 -51.914 -25.616  1.00  0.00    -0.084 Cl
ENDBRANCH  13  16
ENDBRANCH   1  12
BRANCH   8  23
ATOM     23  C   UNL     1       7.794 -61.421 -24.554  1.00  0.00     0.260 C 
ATOM     24  O   UNL     1       6.593 -61.530 -24.305  1.00  0.00    -0.269 OA
BRANCH  23  25
ATOM     25  C   UNL     1       8.280 -61.830 -25.901  1.00  0.00     0.041 A 
ATOM     26  C   UNL     1       7.820 -63.037 -26.444  1.00  0.00     0.014 A 
ATOM     27  C   UNL     1       9.231 -61.070 -26.592  1.00  0.00     0.034 A 
ATOM     28  C   UNL     1       8.281 -63.467 -27.688  1.00  0.00     0.002 A 
ATOM     29  C   UNL     1       9.685 -61.509 -27.835  1.00  0.00     0.041 A 
ATOM     30  C   UNL     1       9.212 -62.699 -28.387  1.00  0.00     0.020 A 
ATOM     31  Cl  UNL     1      10.849 -60.575 -28.692  1.00  0.00    -0.084 Cl
ENDBRANCH  23  25
ENDBRANCH   8  23
TORSDOF 4
ENDMDL
MODEL 2
REMARK VINA RESULT:   -12.058      3.399      9.948
REMARK INTER + INTRA:         -14.864
REMARK INTER:                 -13.965
REMARK INTRA:                  -0.899
REMARK UNBOUND:                 0.014
REMARK SMILES O=C(Nc1ccc2c(c1)CN(C(=O)c1cccc(Cl)c1)C(=O)C2)c1cccc(Cl)c1
REMARK SMILES IDX 4 1 5 2 6 3 7 4 8 5 9 6 10 7 11 8 21 9 22 10 23 11 3 12 2 13
REMARK SMILES IDX 1 14 24 16 25 17 30 18 26 19 28 20 27 21 29 22 12 23 13 24
REMARK SMILES IDX 14 25 15 26 20 27 16 28 18 29 17 30 19 31
REMARK H PARENT 3 15
ROOT
ATOM      1  C   UNL     1      10.951 -55.589 -22.586  1.00  0.00     0.041 A 
ATOM      2  C   UNL     1      10.626 -54.773 -21.503  1.00  0.00     0.026 A 
ATOM      3  C   UNL     1      10.835 -53.391 -21.563  1.00  0.00     0.007 A 
ATOM      4  C   UNL     1      11.390 -52.812 -22.706  1.00  0.00    -0.033 A 
ATOM      5  C   UNL     1      11.721 -53.619 -23.796  1.00  0.00    -0.022 A 
ATOM      6  C   UNL     1      11.497 -55.001 -23.736  1.00  0.00     0.032 A 
ATOM      7  C   UNL     1      12.262 -52.952 -25.027  1.00  0.00     0.164 C 
ATOM      8  N   UNL     1      13.144 -51.844 -24.696  1.00  0.00    -0.274 N 
ATOM      9  C   UNL     1      12.680 -50.892 -23.786  1.00  0.00     0.234 C 
ATOM     10  O   UNL     1      13.107 -49.736 -23.729  1.00  0.00    -0.274 OA
ATOM     11  C   UNL     1      11.584 -51.325 -22.818  1.00  0.00     0.136 C 
ENDROOT
BRANCH   1  12
ATOM     12  N   UNL     1      10.771 -56.989 -22.602  1.00  0.00    -0.322 N 
ATOM     13  C   UNL     1       9.696 -57.688 -23.120  1.00  0.00     0.255 C 
ATOM     14  O   UNL     1       8.736 -57.225 -23.725  1.00  0.00    -0.269 OA
ATOM     15  H   UNL     1      11.548 -57.536 -22.253  1.00  0.00     0.170 HD
BRANCH  13  16
ATOM     16  C   UNL     1       9.766 -59.166 -22.943  1.00  0.00     0.041 A 
ATOM     17  C   UNL     1      10.138 -59.742 -21.721  1.00  0.00     0.014 A 
ATOM     18  C   UNL     1       9.416 -59.982 -24.025  1.00  0.00     0.034 A 
ATOM     19  C   UNL     1      10.187 -61.132 -21.592  1.00  0.00     0.002 A 
ATOM     20  C   UNL     1       9.469 -61.367 -23.887  1.00  0.00     0.041 A 
ATOM     21  C   UNL     1       9.858 -61.945 -22.678  1.00  0.00     0.020 A 
ATOM     22  Cl  UNL     1       9.054 -62.375 -25.217  1.00  0.00    -0.084 Cl
ENDBRANCH  13  16
ENDBRANCH   1  12
BRANCH   8  23
ATOM     23  C   UNL     1      14.052 -51.495 -25.697  1.00  0.00     0.260 C 
ATOM     24  O   UNL     1      13.698 -51.134 -26.820  1.00  0.00    -0.269 OA
BRANCH  23  25
ATOM     25  C   UNL     1      15.510 -51.586 -25.409  1.00  0.00     0.041 A 
ATOM     26  C   UNL     1      16.097 -52.854 -25.301  1.00  0.00     0.014 A 
ATOM     27  C   UNL     1      16.277 -50.438 -25.177  1.00  0.00     0.034 A 
ATOM     28  C   UNL     1      17.453 -52.975 -24.997  1.00  0.00     0.002 A 
ATOM     29  C   UNL     1      17.631 -50.570 -24.874  1.00  0.00     0.041 A 
ATOM     30  C   UNL     1      18.223 -51.831 -24.787  1.00  0.00     0.020 A 
ATOM     31  Cl  UNL     1      18.581 -49.162 -24.594  1.00  0.00    -0.084 Cl
ENDBRANCH  23  25
ENDBRANCH   8  23
TORSDOF 4
ENDMDL
MODEL 3
REMARK VINA RESULT:   -12.005      3.535     10.011
REMARK INTER + INTRA:         -14.797
REMARK INTER:                 -14.368
REMARK INTRA:                  -0.430
REMARK UNBOUND:                 0.014
REMARK SMILES O=C(Nc1ccc2c(c1)CN(C(=O)c1cccc(Cl)c1)C(=O)C2)c1cccc(Cl)c1
REMARK SMILES IDX 4 1 5 2 6 3 7 4 8 5 9 6 10 7 11 8 21 9 22 10 23 11 3 12 2 13
REMARK SMILES IDX 1 14 24 16 25 17 30 18 26 19 28 20 27 21 29 22 12 23 13 24
REMARK SMILES IDX 14 25 15 26 20 27 16 28 18 29 17 30 19 31
REMARK H PARENT 3 15
ROOT
ATOM      1  C   UNL     1      11.037 -55.610 -22.668  1.00  0.00     0.041 A 
ATOM      2  C   UNL     1      10.575 -55.025 -21.489  1.00  0.00     0.026 A 
ATOM      3  C   UNL     1      10.638 -53.640 -21.307  1.00  0.00     0.007 A 
ATOM      4  C   UNL     1      11.185 -52.823 -22.299  1.00  0.00    -0.033 A 
ATOM      5  C   UNL     1      11.653 -53.397 -23.482  1.00  0.00    -0.022 A 
ATOM      6  C   UNL     1      11.574 -54.784 -23.666  1.00  0.00     0.032 A 
ATOM      7  C   UNL     1      12.181 -52.481 -24.548  1.00  0.00     0.164 C 
ATOM      8  N   UNL     1      12.923 -51.366 -23.981  1.00  0.00    -0.274 N 
ATOM      9  C   UNL     1      12.316 -50.632 -22.959  1.00  0.00     0.234 C 
ATOM     10  O   UNL     1      12.616 -49.468 -22.684  1.00  0.00    -0.274 OA
ATOM     11  C   UNL     1      11.226 -51.328 -22.151  1.00  0.00     0.136 C 
ENDROOT
BRANCH   1  12
ATOM     12  N   UNL     1      11.007 -56.997 -22.926  1.00  0.00    -0.322 N 
ATOM     13  C   UNL     1      11.241 -58.020 -22.025  1.00  0.00     0.255 C 
ATOM     14  O   UNL     1      11.448 -57.913 -20.823  1.00  0.00    -0.269 OA
ATOM     15  H   UNL     1      10.716 -57.264 -23.858  1.00  0.00     0.170 HD
BRANCH  13  16
ATOM     16  C   UNL     1      11.188 -59.391 -22.607  1.00  0.00     0.041 A 
ATOM     17  C   UNL     1      12.019 -59.770 -23.671  1.00  0.00     0.014 A 
ATOM     18  C   UNL     1      10.303 -60.318 -22.044  1.00  0.00     0.034 A 
ATOM     19  C   UNL     1      11.943 -61.066 -24.186  1.00  0.00     0.002 A 
ATOM     20  C   UNL     1      10.234 -61.607 -22.566  1.00  0.00     0.041 A 
ATOM     21  C   UNL     1      11.046 -61.983 -23.637  1.00  0.00     0.020 A 
ATOM     22  Cl  UNL     1       9.139 -62.746 -21.888  1.00  0.00    -0.084 Cl
ENDBRANCH  13  16
ENDBRANCH   1  12
BRANCH   8  23
ATOM     23  C   UNL     1      13.838 -50.766 -24.848  1.00  0.00     0.260 C 
ATOM     24  O   UNL     1      13.525 -49.860 -25.621  1.00  0.00    -0.269 OA
BRANCH  23  25
ATOM     25  C   UNL     1      15.244 -51.255 -24.860  1.00  0.00     0.041 A 
ATOM     26  C   UNL     1      15.500 -52.558 -25.309  1.00  0.00     0.014 A 
ATOM     27  C   UNL     1      16.291 -50.467 -24.370  1.00  0.00     0.034 A 
ATOM     28  C   UNL     1      16.801 -53.060 -25.300  1.00  0.00     0.002 A 
ATOM     29  C   UNL     1      17.589 -50.977 -24.366  1.00  0.00     0.041 A 
ATOM     30  C   UNL     1      17.848 -52.266 -24.832  1.00  0.00     0.020 A 
ATOM     31  Cl  UNL     1      18.881 -50.010 -23.770  1.00  0.00    -0.084 Cl
ENDBRANCH  23  25
ENDBRANCH   8  23
TORSDOF 4
ENDMDL
MODEL 4
REMARK VINA RESULT:   -11.787      4.021     11.424
REMARK INTER + INTRA:         -14.529
REMARK INTER:                 -14.698
REMARK INTRA:                   0.168
REMARK UNBOUND:                 0.014
REMARK SMILES O=C(Nc1ccc2c(c1)CN(C(=O)c1cccc(Cl)c1)C(=O)C2)c1cccc(Cl)c1
REMARK SMILES IDX 4 1 5 2 6 3 7 4 8 5 9 6 10 7 11 8 21 9 22 10 23 11 3 12 2 13
REMARK SMILES IDX 1 14 24 16 25 17 30 18 26 19 28 20 27 21 29 22 12 23 13 24
REMARK SMILES IDX 14 25 15 26 20 27 16 28 18 29 17 30 19 31
REMARK H PARENT 3 15
ROOT
ATOM      1  C   UNL     1      11.762 -54.548 -24.211  1.00  0.00     0.041 A 
ATOM      2  C   UNL     1      12.488 -54.357 -25.387  1.00  0.00     0.026 A 
ATOM      3  C   UNL     1      13.037 -53.107 -25.692  1.00  0.00     0.007 A 
ATOM      4  C   UNL     1      12.848 -52.025 -24.828  1.00  0.00    -0.033 A 
ATOM      5  C   UNL     1      12.121 -52.204 -23.650  1.00  0.00    -0.022 A 
ATOM      6  C   UNL     1      11.585 -53.462 -23.342  1.00  0.00     0.032 A 
ATOM      7  C   UNL     1      11.989 -51.032 -22.720  1.00  0.00     0.164 C 
ATOM      8  N   UNL     1      11.828 -49.783 -23.448  1.00  0.00    -0.274 N 
ATOM      9  C   UNL     1      12.741 -49.501 -24.467  1.00  0.00     0.234 C 
ATOM     10  O   UNL     1      12.986 -48.360 -24.867  1.00  0.00    -0.274 OA
ATOM     11  C   UNL     1      13.462 -50.682 -25.106  1.00  0.00     0.136 C 
ENDROOT
BRANCH   1  12
ATOM     12  N   UNL     1      11.179 -55.777 -23.834  1.00  0.00    -0.322 N 
ATOM     13  C   UNL     1      11.052 -56.284 -22.554  1.00  0.00     0.255 C 
ATOM     14  O   UNL     1      11.358 -55.729 -21.506  1.00  0.00    -0.269 OA
ATOM     15  H   UNL     1      10.751 -56.307 -24.582  1.00  0.00     0.170 HD
BRANCH  13  16
ATOM     16  C   UNL     1      10.434 -57.637 -22.475  1.00  0.00     0.041 A 
ATOM     17  C   UNL     1      11.021 -58.671 -21.732  1.00  0.00     0.014 A 
ATOM     18  C   UNL     1       9.221 -57.854 -23.138  1.00  0.00     0.034 A 
ATOM     19  C   UNL     1      10.409 -59.925 -21.678  1.00  0.00     0.002 A 
ATOM     20  C   UNL     1       8.619 -59.108 -23.080  1.00  0.00     0.041 A 
ATOM     21  C   UNL     1       9.209 -60.145 -22.357  1.00  0.00     0.020 A 
ATOM     22  Cl  UNL     1       7.135 -59.384 -23.905  1.00  0.00    -0.084 Cl
ENDBRANCH  13  16
ENDBRANCH   1  12
BRANCH   8  23
ATOM     23  C   UNL     1      11.220 -48.755 -22.725  1.00  0.00     0.260 C 
ATOM     24  O   UNL     1      10.011 -48.730 -22.495  1.00  0.00    -0.269 OA
BRANCH  23  25
ATOM     25  C   UNL     1      12.059 -47.629 -22.231  1.00  0.00     0.041 A 
ATOM     26  C   UNL     1      13.222 -47.925 -21.506  1.00  0.00     0.014 A 
ATOM     27  C   UNL     1      11.671 -46.298 -22.416  1.00  0.00     0.034 A 
ATOM     28  C   UNL     1      14.013 -46.894 -20.998  1.00  0.00     0.002 A 
ATOM     29  C   UNL     1      12.469 -45.275 -21.906  1.00  0.00     0.041 A 
ATOM     30  C   UNL     1      13.637 -45.566 -21.202  1.00  0.00     0.020 A 
ATOM     31  Cl  UNL     1      11.999 -43.635 -22.136  1.00  0.00    -0.084 Cl
ENDBRANCH  23  25
ENDBRANCH   8  23
TORSDOF 4
ENDMDL
MODEL 5
REMARK VINA RESULT:   -11.676      2.348      3.429
REMARK INTER + INTRA:         -14.392
REMARK INTER:                 -13.606
REMARK INTRA:                  -0.786
REMARK UNBOUND:                 0.014
REMARK SMILES O=C(Nc1ccc2c(c1)CN(C(=O)c1cccc(Cl)c1)C(=O)C2)c1cccc(Cl)c1
REMARK SMILES IDX 4 1 5 2 6 3 7 4 8 5 9 6 10 7 11 8 21 9 22 10 23 11 3 12 2 13
REMARK SMILES IDX 1 14 24 16 25 17 30 18 26 19 28 20 27 21 29 22 12 23 13 24
REMARK SMILES IDX 14 25 15 26 20 27 16 28 18 29 17 30 19 31
REMARK H PARENT 3 15
ROOT
ATOM      1  C   UNL     1      11.375 -54.412 -23.796  1.00  0.00     0.041 A 
ATOM      2  C   UNL     1      10.225 -54.347 -23.010  1.00  0.00     0.026 A 
ATOM      3  C   UNL     1       9.661 -55.508 -22.472  1.00  0.00     0.007 A 
ATOM      4  C   UNL     1      10.235 -56.755 -22.732  1.00  0.00    -0.033 A 
ATOM      5  C   UNL     1      11.385 -56.833 -23.520  1.00  0.00    -0.022 A 
ATOM      6  C   UNL     1      11.954 -55.665 -24.045  1.00  0.00     0.032 A 
ATOM      7  C   UNL     1      12.005 -58.185 -23.729  1.00  0.00     0.164 C 
ATOM      8  N   UNL     1      10.996 -59.222 -23.875  1.00  0.00    -0.274 N 
ATOM      9  C   UNL     1       9.986 -59.289 -22.914  1.00  0.00     0.234 C 
ATOM     10  O   UNL     1       9.340 -60.311 -22.671  1.00  0.00    -0.274 OA
ATOM     11  C   UNL     1       9.679 -58.016 -22.132  1.00  0.00     0.136 C 
ENDROOT
BRANCH   1  12
ATOM     12  N   UNL     1      12.002 -53.286 -24.373  1.00  0.00    -0.322 N 
ATOM     13  C   UNL     1      12.340 -52.103 -23.743  1.00  0.00     0.255 C 
ATOM     14  O   UNL     1      12.222 -51.840 -22.552  1.00  0.00    -0.269 OA
ATOM     15  H   UNL     1      12.291 -53.391 -25.337  1.00  0.00     0.170 HD
BRANCH  13  16
ATOM     16  C   UNL     1      12.949 -51.072 -24.630  1.00  0.00     0.041 A 
ATOM     17  C   UNL     1      13.614 -51.423 -25.813  1.00  0.00     0.014 A 
ATOM     18  C   UNL     1      12.815 -49.726 -24.274  1.00  0.00     0.034 A 
ATOM     19  C   UNL     1      14.168 -50.428 -26.622  1.00  0.00     0.002 A 
ATOM     20  C   UNL     1      13.372 -48.741 -25.087  1.00  0.00     0.041 A 
ATOM     21  C   UNL     1      14.052 -49.086 -26.255  1.00  0.00     0.020 A 
ATOM     22  Cl  UNL     1      13.223 -47.085 -24.647  1.00  0.00    -0.084 Cl
ENDBRANCH  13  16
ENDBRANCH   1  12
BRANCH   8  23
ATOM     23  C   UNL     1      11.425 -60.369 -24.545  1.00  0.00     0.260 C 
ATOM     24  O   UNL     1      12.245 -61.152 -24.063  1.00  0.00    -0.269 OA
BRANCH  23  25
ATOM     25  C   UNL     1      10.891 -60.650 -25.906  1.00  0.00     0.041 A 
ATOM     26  C   UNL     1       9.807 -61.529 -26.035  1.00  0.00     0.014 A 
ATOM     27  C   UNL     1      11.494 -60.111 -27.048  1.00  0.00     0.034 A 
ATOM     28  C   UNL     1       9.305 -61.841 -27.299  1.00  0.00     0.002 A 
ATOM     29  C   UNL     1      10.984 -60.429 -28.306  1.00  0.00     0.041 A 
ATOM     30  C   UNL     1       9.892 -61.287 -28.436  1.00  0.00     0.020 A 
ATOM     31  Cl  UNL     1      11.718 -59.764 -29.714  1.00  0.00    -0.084 Cl
ENDBRANCH  23  25
ENDBRANCH   8  23
TORSDOF 4
ENDMDL
MODEL 6
REMARK VINA RESULT:   -11.668      3.490     10.523
REMARK INTER + INTRA:         -14.382
REMARK INTER:                 -13.772
REMARK INTRA:                  -0.610
REMARK UNBOUND:                 0.014
REMARK SMILES O=C(Nc1ccc2c(c1)CN(C(=O)c1cccc(Cl)c1)C(=O)C2)c1cccc(Cl)c1
REMARK SMILES IDX 4 1 5 2 6 3 7 4 8 5 9 6 10 7 11 8 21 9 22 10 23 11 3 12 2 13
REMARK SMILES IDX 1 14 24 16 25 17 30 18 26 19 28 20 27 21 29 22 12 23 13 24
REMARK SMILES IDX 14 25 15 26 20 27 16 28 18 29 17 30 19 31
REMARK H PARENT 3 15
ROOT
ATOM      1  C   UNL     1      10.796 -55.070 -23.029  1.00  0.00     0.041 A 
ATOM      2  C   UNL     1       9.863 -54.477 -22.179  1.00  0.00     0.026 A 
ATOM      3  C   UNL     1       9.855 -53.091 -21.985  1.00  0.00     0.007 A 
ATOM      4  C   UNL     1      10.796 -52.284 -22.628  1.00  0.00    -0.033 A 
ATOM      5  C   UNL     1      11.736 -52.868 -23.479  1.00  0.00    -0.022 A 
ATOM      6  C   UNL     1      11.732 -54.254 -23.681  1.00  0.00     0.032 A 
ATOM      7  C   UNL     1      12.695 -51.961 -24.196  1.00  0.00     0.164 C 
ATOM      8  N   UNL     1      13.119 -50.853 -23.355  1.00  0.00    -0.274 N 
ATOM      9  C   UNL     1      12.129 -50.108 -22.710  1.00  0.00     0.234 C 
ATOM     10  O   UNL     1      12.287 -48.947 -22.328  1.00  0.00    -0.274 OA
ATOM     11  C   UNL     1      10.784 -50.789 -22.474  1.00  0.00     0.136 C 
ENDROOT
BRANCH   1  12
ATOM     12  N   UNL     1      10.868 -56.458 -23.276  1.00  0.00    -0.322 N 
ATOM     13  C   UNL     1      11.187 -57.453 -22.369  1.00  0.00     0.255 C 
ATOM     14  O   UNL     1      11.396 -57.320 -21.170  1.00  0.00    -0.269 OA
ATOM     15  H   UNL     1      10.591 -56.754 -24.203  1.00  0.00     0.170 HD
BRANCH  13  16
ATOM     16  C   UNL     1      11.232 -58.829 -22.940  1.00  0.00     0.041 A 
ATOM     17  C   UNL     1      11.983 -59.124 -24.086  1.00  0.00     0.014 A 
ATOM     18  C   UNL     1      10.528 -59.844 -22.283  1.00  0.00     0.034 A 
ATOM     19  C   UNL     1      12.004 -60.427 -24.589  1.00  0.00     0.002 A 
ATOM     20  C   UNL     1      10.555 -61.140 -22.792  1.00  0.00     0.041 A 
ATOM     21  C   UNL     1      11.285 -61.435 -23.944  1.00  0.00     0.020 A 
ATOM     22  Cl  UNL     1       9.679 -62.389 -21.997  1.00  0.00    -0.084 Cl
ENDBRANCH  13  16
ENDBRANCH   1  12
BRANCH   8  23
ATOM     23  C   UNL     1      14.331 -50.266 -23.722  1.00  0.00     0.260 C 
ATOM     24  O   UNL     1      15.339 -50.327 -23.017  1.00  0.00    -0.269 OA
BRANCH  23  25
ATOM     25  C   UNL     1      14.408 -49.515 -25.005  1.00  0.00     0.041 A 
ATOM     26  C   UNL     1      14.737 -50.214 -26.175  1.00  0.00     0.014 A 
ATOM     27  C   UNL     1      14.228 -48.128 -25.046  1.00  0.00     0.034 A 
ATOM     28  C   UNL     1      14.851 -49.535 -27.388  1.00  0.00     0.002 A 
ATOM     29  C   UNL     1      14.345 -47.459 -26.264  1.00  0.00     0.041 A 
ATOM     30  C   UNL     1      14.651 -48.156 -27.433  1.00  0.00     0.020 A 
ATOM     31  Cl  UNL     1      14.119 -45.754 -26.323  1.00  0.00    -0.084 Cl
ENDBRANCH  23  25
ENDBRANCH   8  23
TORSDOF 4
ENDMDL
MODEL 7
REMARK VINA RESULT:   -11.438      3.729     10.320
REMARK INTER + INTRA:         -14.099
REMARK INTER:                 -13.686
REMARK INTRA:                  -0.413
REMARK UNBOUND:                 0.014
REMARK SMILES O=C(Nc1ccc2c(c1)CN(C(=O)c1cccc(Cl)c1)C(=O)C2)c1cccc(Cl)c1
REMARK SMILES IDX 4 1 5 2 6 3 7 4 8 5 9 6 10 7 11 8 21 9 22 10 23 11 3 12 2 13
REMARK SMILES IDX 1 14 24 16 25 17 30 18 26 19 28 20 27 21 29 22 12 23 13 24
REMARK SMILES IDX 14 25 15 26 20 27 16 28 18 29 17 30 19 31
REMARK H PARENT 3 15
ROOT
ATOM      1  C   UNL     1      10.485 -54.728 -23.152  1.00  0.00     0.041 A 
ATOM      2  C   UNL     1      10.111 -53.836 -22.147  1.00  0.00     0.026 A 
ATOM      3  C   UNL     1      10.703 -52.571 -22.059  1.00  0.00     0.007 A 
ATOM      4  C   UNL     1      11.693 -52.192 -22.969  1.00  0.00    -0.033 A 
ATOM      5  C   UNL     1      12.077 -53.078 -23.977  1.00  0.00    -0.022 A 
ATOM      6  C   UNL     1      11.471 -54.339 -24.069  1.00  0.00     0.032 A 
ATOM      7  C   UNL     1      13.104 -52.613 -24.969  1.00  0.00     0.164 C 
ATOM      8  N   UNL     1      14.129 -51.796 -24.340  1.00  0.00    -0.274 N 
ATOM      9  C   UNL     1      13.713 -50.737 -23.531  1.00  0.00     0.234 C 
ATOM     10  O   UNL     1      14.411 -49.750 -23.285  1.00  0.00    -0.274 OA
ATOM     11  C   UNL     1      12.316 -50.825 -22.927  1.00  0.00     0.136 C 
ENDROOT
BRANCH   1  12
ATOM     12  N   UNL     1       9.935 -56.019 -23.306  1.00  0.00    -0.322 N 
ATOM     13  C   UNL     1      10.395 -57.196 -22.743  1.00  0.00     0.255 C 
ATOM     14  O   UNL     1      11.321 -57.324 -21.953  1.00  0.00    -0.269 OA
ATOM     15  H   UNL     1       9.073 -56.069 -23.832  1.00  0.00     0.170 HD
BRANCH  13  16
ATOM     16  C   UNL     1       9.632 -58.415 -23.132  1.00  0.00     0.041 A 
ATOM     17  C   UNL     1       8.285 -58.348 -23.515  1.00  0.00     0.014 A 
ATOM     18  C   UNL     1      10.301 -59.644 -23.141  1.00  0.00     0.034 A 
ATOM     19  C   UNL     1       7.604 -59.512 -23.877  1.00  0.00     0.002 A 
ATOM     20  C   UNL     1       9.613 -60.800 -23.502  1.00  0.00     0.041 A 
ATOM     21  C   UNL     1       8.268 -60.740 -23.865  1.00  0.00     0.020 A 
ATOM     22  Cl  UNL     1      10.427 -62.315 -23.501  1.00  0.00    -0.084 Cl
ENDBRANCH  13  16
ENDBRANCH   1  12
BRANCH   8  23
ATOM     23  C   UNL     1      15.341 -51.738 -25.031  1.00  0.00     0.260 C 
ATOM     24  O   UNL     1      16.232 -52.575 -24.884  1.00  0.00    -0.269 OA
BRANCH  23  25
ATOM     25  C   UNL     1      15.580 -50.605 -25.968  1.00  0.00     0.041 A 
ATOM     26  C   UNL     1      14.554 -50.232 -26.848  1.00  0.00     0.014 A 
ATOM     27  C   UNL     1      16.822 -49.964 -26.030  1.00  0.00     0.034 A 
ATOM     28  C   UNL     1      14.757 -49.199 -27.763  1.00  0.00     0.002 A 
ATOM     29  C   UNL     1      17.014 -48.932 -26.948  1.00  0.00     0.041 A 
ATOM     30  C   UNL     1      15.988 -48.545 -27.810  1.00  0.00     0.020 A 
ATOM     31  Cl  UNL     1      18.537 -48.134 -27.024  1.00  0.00    -0.084 Cl
ENDBRANCH  23  25
ENDBRANCH   8  23
TORSDOF 4
ENDMDL
MODEL 8
REMARK VINA RESULT:   -11.266      4.045     10.694
REMARK INTER + INTRA:         -13.886
REMARK INTER:                 -13.001
REMARK INTRA:                  -0.885
REMARK UNBOUND:                 0.014
REMARK SMILES O=C(Nc1ccc2c(c1)CN(C(=O)c1cccc(Cl)c1)C(=O)C2)c1cccc(Cl)c1
REMARK SMILES IDX 4 1 5 2 6 3 7 4 8 5 9 6 10 7 11 8 21 9 22 10 23 11 3 12 2 13
REMARK SMILES IDX 1 14 24 16 25 17 30 18 26 19 28 20 27 21 29 22 12 23 13 24
REMARK SMILES IDX 14 25 15 26 20 27 16 28 18 29 17 30 19 31
REMARK H PARENT 3 15
ROOT
ATOM      1  C   UNL     1      11.269 -53.503 -22.423  1.00  0.00     0.041 A 
ATOM      2  C   UNL     1      10.756 -52.555 -21.538  1.00  0.00     0.026 A 
ATOM      3  C   UNL     1      10.942 -51.188 -21.770  1.00  0.00     0.007 A 
ATOM      4  C   UNL     1      11.663 -50.755 -22.884  1.00  0.00    -0.033 A 
ATOM      5  C   UNL     1      12.183 -51.695 -23.776  1.00  0.00    -0.022 A 
ATOM      6  C   UNL     1      11.982 -53.063 -23.547  1.00  0.00     0.032 A 
ATOM      7  C   UNL     1      12.903 -51.188 -24.992  1.00  0.00     0.164 C 
ATOM      8  N   UNL     1      13.696 -50.005 -24.695  1.00  0.00    -0.274 N 
ATOM      9  C   UNL     1      13.071 -48.954 -24.021  1.00  0.00     0.234 C 
ATOM     10  O   UNL     1      13.459 -47.785 -24.070  1.00  0.00    -0.274 OA
ATOM     11  C   UNL     1      11.842 -49.292 -23.184  1.00  0.00     0.136 C 
ENDROOT
BRANCH   1  12
ATOM     12  N   UNL     1      11.123 -54.898 -22.258  1.00  0.00    -0.322 N 
ATOM     13  C   UNL     1      10.266 -55.736 -22.948  1.00  0.00     0.255 C 
ATOM     14  O   UNL     1       9.528 -55.435 -23.878  1.00  0.00    -0.269 OA
ATOM     15  H   UNL     1      11.765 -55.332 -21.609  1.00  0.00     0.170 HD
BRANCH  13  16
ATOM     16  C   UNL     1      10.301 -57.161 -22.515  1.00  0.00     0.041 A 
ATOM     17  C   UNL     1      11.262 -57.630 -21.609  1.00  0.00     0.014 A 
ATOM     18  C   UNL     1       9.323 -58.031 -23.011  1.00  0.00     0.034 A 
ATOM     19  C   UNL     1      11.260 -58.972 -21.223  1.00  0.00     0.002 A 
ATOM     20  C   UNL     1       9.330 -59.368 -22.621  1.00  0.00     0.041 A 
ATOM     21  C   UNL     1      10.296 -59.843 -21.734  1.00  0.00     0.020 A 
ATOM     22  Cl  UNL     1       8.139 -60.444 -23.238  1.00  0.00    -0.084 Cl
ENDBRANCH  13  16
ENDBRANCH   1  12
BRANCH   8  23
ATOM     23  C   UNL     1      14.747 -49.764 -25.581  1.00  0.00     0.260 C 
ATOM     24  O   UNL     1      14.579 -49.249 -26.687  1.00  0.00    -0.269 OA
BRANCH  23  25
ATOM     25  C   UNL     1      16.126 -50.166 -25.188  1.00  0.00     0.041 A 
ATOM     26  C   UNL     1      16.318 -50.785 -23.945  1.00  0.00     0.014 A 
ATOM     27  C   UNL     1      17.227 -49.873 -26.000  1.00  0.00     0.034 A 
ATOM     28  C   UNL     1      17.601 -51.142 -23.530  1.00  0.00     0.002 A 
ATOM     29  C   UNL     1      18.505 -50.235 -25.577  1.00  0.00     0.041 A 
ATOM     30  C   UNL     1      18.696 -50.870 -24.349  1.00  0.00     0.020 A 
ATOM     31  Cl  UNL     1      19.863 -49.883 -26.574  1.00  0.00    -0.084 Cl
ENDBRANCH  23  25
ENDBRANCH   8  23
TORSDOF 4
ENDMDL
MODEL 9
REMARK VINA RESULT:   -11.138      4.366     11.677
REMARK INTER + INTRA:         -13.729
REMARK INTER:                 -12.806
REMARK INTRA:                  -0.922
REMARK UNBOUND:                 0.014
REMARK SMILES O=C(Nc1ccc2c(c1)CN(C(=O)c1cccc(Cl)c1)C(=O)C2)c1cccc(Cl)c1
REMARK SMILES IDX 4 1 5 2 6 3 7 4 8 5 9 6 10 7 11 8 21 9 22 10 23 11 3 12 2 13
REMARK SMILES IDX 1 14 24 16 25 17 30 18 26 19 28 20 27 21 29 22 12 23 13 24
REMARK SMILES IDX 14 25 15 26 20 27 16 28 18 29 17 30 19 31
REMARK H PARENT 3 15
ROOT
ATOM      1  C   UNL     1      10.978 -52.767 -22.377  1.00  0.00     0.041 A 
ATOM      2  C   UNL     1       9.949 -51.909 -21.991  1.00  0.00     0.026 A 
ATOM      3  C   UNL     1      10.065 -50.527 -22.174  1.00  0.00     0.007 A 
ATOM      4  C   UNL     1      11.226 -49.986 -22.730  1.00  0.00    -0.033 A 
ATOM      5  C   UNL     1      12.264 -50.835 -23.118  1.00  0.00    -0.022 A 
ATOM      6  C   UNL     1      12.137 -52.220 -22.946  1.00  0.00     0.032 A 
ATOM      7  C   UNL     1      13.472 -50.220 -23.765  1.00  0.00     0.164 C 
ATOM      8  N   UNL     1      13.815 -48.942 -23.160  1.00  0.00    -0.274 N 
ATOM      9  C   UNL     1      12.799 -47.995 -23.019  1.00  0.00     0.234 C 
ATOM     10  O   UNL     1      13.003 -46.783 -22.924  1.00  0.00    -0.274 OA
ATOM     11  C   UNL     1      11.364 -48.510 -22.980  1.00  0.00     0.136 C 
ENDROOT
BRANCH   1  12
ATOM     12  N   UNL     1      10.935 -54.170 -22.226  1.00  0.00    -0.322 N 
ATOM     13  C   UNL     1      10.382 -55.089 -23.100  1.00  0.00     0.255 C 
ATOM     14  O   UNL     1       9.892 -54.860 -24.198  1.00  0.00    -0.269 OA
ATOM     15  H   UNL     1      11.422 -54.539 -21.420  1.00  0.00     0.170 HD
BRANCH  13  16
ATOM     16  C   UNL     1      10.444 -56.505 -22.641  1.00  0.00     0.041 A 
ATOM     17  C   UNL     1      11.369 -56.924 -21.674  1.00  0.00     0.014 A 
ATOM     18  C   UNL     1       9.528 -57.417 -23.175  1.00  0.00     0.034 A 
ATOM     19  C   UNL     1      11.394 -58.259 -21.265  1.00  0.00     0.002 A 
ATOM     20  C   UNL     1       9.562 -58.747 -22.763  1.00  0.00     0.041 A 
ATOM     21  C   UNL     1      10.492 -59.173 -21.815  1.00  0.00     0.020 A 
ATOM     22  Cl  UNL     1       8.448 -59.877 -23.427  1.00  0.00    -0.084 Cl
ENDBRANCH  13  16
ENDBRANCH   1  12
BRANCH   8  23
ATOM     23  C   UNL     1      15.143 -48.548 -23.331  1.00  0.00     0.260 C 
ATOM     24  O   UNL     1      15.595 -48.189 -24.418  1.00  0.00    -0.269 OA
BRANCH  23  25
ATOM     25  C   UNL     1      16.061 -48.586 -22.159  1.00  0.00     0.041 A 
ATOM     26  C   UNL     1      16.168 -47.444 -21.352  1.00  0.00     0.014 A 
ATOM     27  C   UNL     1      16.859 -49.705 -21.897  1.00  0.00     0.034 A 
ATOM     28  C   UNL     1      17.045 -47.433 -20.267  1.00  0.00     0.002 A 
ATOM     29  C   UNL     1      17.731 -49.683 -20.809  1.00  0.00     0.041 A 
ATOM     30  C   UNL     1      17.825 -48.556 -19.992  1.00  0.00     0.020 A 
ATOM     31  Cl  UNL     1      18.711 -51.059 -20.478  1.00  0.00    -0.084 Cl
ENDBRANCH  23  25
ENDBRANCH   8  23
TORSDOF 4
ENDMDL
