MODEL 1
REMARK VINA RESULT:    -9.413      0.000      0.000
REMARK INTER + INTRA:         -14.146
REMARK INTER:                 -12.990
REMARK INTRA:                  -1.155
REMARK UNBOUND:                -1.155
REMARK SMILES COc1ccc([C@H]2C=C(c3cc(F)ccc3F)NN2c2ccc(S(N)(=O)=O)cc2)c(OC)c1
REMARK SMILES IDX 20 1 21 2 22 3 23 4 28 5 29 6 19 7 18 8 9 9 8 10 7 11 10 13
REMARK SMILES IDX 11 14 16 15 12 16 15 17 14 18 17 19 13 20 6 21 5 22 30 23
REMARK SMILES IDX 4 24 33 25 3 26 31 27 32 28 2 29 1 30 24 31 26 32 27 33
REMARK SMILES IDX 25 34
REMARK H PARENT 18 12 25 35 25 36
ROOT
ATOM      1  C   UNL     1      13.223 -48.548 -24.646  1.00  0.00     0.058 A 
ATOM      2  C   UNL     1      14.177 -47.757 -25.307  1.00  0.00     0.029 A 
ATOM      3  C   UNL     1      14.011 -46.374 -25.456  1.00  0.00     0.024 A 
ATOM      4  C   UNL     1      12.874 -45.756 -24.937  1.00  0.00     0.082 A 
ATOM      5  C   UNL     1      11.920 -46.503 -24.251  1.00  0.00     0.024 A 
ATOM      6  C   UNL     1      12.101 -47.883 -24.112  1.00  0.00     0.029 A 
ENDROOT
BRANCH   1   7
ATOM      7  N   UNL     1      13.373 -49.932 -24.472  1.00  0.00    -0.276 N 
ATOM      8  N   UNL     1      12.471 -50.701 -23.737  1.00  0.00    -0.297 N 
ATOM      9  C   UNL     1      12.499 -52.022 -24.170  1.00  0.00     0.063 C 
ATOM     10  C   UNL     1      13.322 -52.140 -25.224  1.00  0.00     0.033 C 
ATOM     11  C   UNL     1      13.973 -50.803 -25.529  1.00  0.00     0.164 C 
ATOM     12  H   UNL     1      12.618 -50.639 -22.727  1.00  0.00     0.188 HD
BRANCH   9  13
ATOM     13  C   UNL     1      11.722 -53.068 -23.501  1.00  0.00     0.038 A 
ATOM     14  C   UNL     1      11.361 -52.915 -22.154  1.00  0.00     0.052 A 
ATOM     15  C   UNL     1      11.332 -54.247 -24.156  1.00  0.00     0.132 A 
ATOM     16  C   UNL     1      10.631 -53.907 -21.504  1.00  0.00     0.124 A 
ATOM     17  C   UNL     1      10.601 -55.240 -23.500  1.00  0.00     0.043 A 
ATOM     18  C   UNL     1      10.247 -55.068 -22.165  1.00  0.00     0.042 A 
ATOM     19  F   UNL     1      11.671 -54.465 -25.436  1.00  0.00    -0.206 F 
ATOM     20  F   UNL     1      10.292 -53.740 -20.220  1.00  0.00    -0.207 F 
ENDBRANCH   9  13
BRANCH  11  21
ATOM     21  C   UNL     1      15.490 -50.878 -25.501  1.00  0.00     0.023 A 
ATOM     22  C   UNL     1      16.106 -51.422 -24.358  1.00  0.00     0.014 A 
ATOM     23  C   UNL     1      16.324 -50.406 -26.527  1.00  0.00     0.128 A 
ATOM     24  C   UNL     1      17.497 -51.529 -24.269  1.00  0.00     0.047 A 
ATOM     25  C   UNL     1      17.720 -50.542 -26.447  1.00  0.00     0.093 A 
ATOM     26  C   UNL     1      18.310 -51.102 -25.317  1.00  0.00     0.122 A 
BRANCH  23  27
ATOM     27  O   UNL     1      15.774 -49.852 -27.655  1.00  0.00    -0.496 OA
ATOM     28  C   UNL     1      16.762 -49.210 -28.461  1.00  0.00     0.278 C 
ENDBRANCH  23  27
BRANCH  26  29
ATOM     29  O   UNL     1      19.650 -51.282 -25.111  1.00  0.00    -0.497 OA
ATOM     30  C   UNL     1      20.418 -51.727 -26.222  1.00  0.00     0.278 C 
ENDBRANCH  26  29
ENDBRANCH  11  21
ENDBRANCH   1   7
BRANCH   4  31
ATOM     31  S   UNL     1      12.664 -44.009 -25.126  1.00  0.00     0.238 S 
ATOM     32  O   UNL     1      13.398 -43.339 -24.077  1.00  0.00    -0.207 OA
ATOM     33  O   UNL     1      12.820 -43.672 -26.521  1.00  0.00    -0.207 OA
BRANCH  31  34
ATOM     34  N   UNL     1      11.037 -43.825 -24.728  1.00  0.00    -0.225 NA
ATOM     35  H   UNL     1      10.421 -44.417 -25.282  1.00  0.00     0.137 HD
ATOM     36  H   UNL     1      10.925 -43.990 -23.726  1.00  0.00     0.137 HD
ENDBRANCH  31  34
ENDBRANCH   4  31
TORSDOF 7
ENDMDL
MODEL 2
REMARK VINA RESULT:    -9.361      1.076      1.865
REMARK INTER + INTRA:         -14.073
REMARK INTER:                 -13.026
REMARK INTRA:                  -1.047
REMARK UNBOUND:                -1.155
REMARK SMILES COc1ccc([C@H]2C=C(c3cc(F)ccc3F)NN2c2ccc(S(N)(=O)=O)cc2)c(OC)c1
REMARK SMILES IDX 20 1 21 2 22 3 23 4 28 5 29 6 19 7 18 8 9 9 8 10 7 11 10 13
REMARK SMILES IDX 11 14 16 15 12 16 15 17 14 18 17 19 13 20 6 21 5 22 30 23
REMARK SMILES IDX 4 24 33 25 3 26 31 27 32 28 2 29 1 30 24 31 26 32 27 33
REMARK SMILES IDX 25 34
REMARK H PARENT 18 12 25 35 25 36
ROOT
ATOM      1  C   UNL     1      12.774 -48.043 -24.329  1.00  0.00     0.058 A 
ATOM      2  C   UNL     1      11.517 -47.451 -24.122  1.00  0.00     0.029 A 
ATOM      3  C   UNL     1      11.322 -46.071 -24.255  1.00  0.00     0.024 A 
ATOM      4  C   UNL     1      12.396 -45.253 -24.605  1.00  0.00     0.082 A 
ATOM      5  C   UNL     1      13.650 -45.807 -24.846  1.00  0.00     0.024 A 
ATOM      6  C   UNL     1      13.828 -47.187 -24.708  1.00  0.00     0.029 A 
ENDROOT
BRANCH   1   7
ATOM      7  N   UNL     1      12.991 -49.424 -24.216  1.00  0.00    -0.276 N 
ATOM      8  N   UNL     1      12.264 -50.231 -23.341  1.00  0.00    -0.297 N 
ATOM      9  C   UNL     1      12.245 -51.544 -23.801  1.00  0.00     0.063 C 
ATOM     10  C   UNL     1      12.858 -51.621 -24.992  1.00  0.00     0.033 C 
ATOM     11  C   UNL     1      13.404 -50.259 -25.385  1.00  0.00     0.164 C 
ATOM     12  H   UNL     1      12.596 -50.182 -22.375  1.00  0.00     0.188 HD
BRANCH   9  13
ATOM     13  C   UNL     1      11.637 -52.624 -23.020  1.00  0.00     0.038 A 
ATOM     14  C   UNL     1      11.464 -53.891 -23.599  1.00  0.00     0.052 A 
ATOM     15  C   UNL     1      11.195 -52.439 -21.701  1.00  0.00     0.132 A 
ATOM     16  C   UNL     1      10.878 -54.923 -22.870  1.00  0.00     0.124 A 
ATOM     17  C   UNL     1      10.607 -53.476 -20.975  1.00  0.00     0.043 A 
ATOM     18  C   UNL     1      10.449 -54.728 -21.563  1.00  0.00     0.042 A 
ATOM     19  F   UNL     1      11.307 -51.244 -21.102  1.00  0.00    -0.206 F 
ATOM     20  F   UNL     1      10.727 -56.126 -23.438  1.00  0.00    -0.207 F 
ENDBRANCH   9  13
BRANCH  11  21
ATOM     21  C   UNL     1      14.901 -50.290 -25.643  1.00  0.00     0.023 A 
ATOM     22  C   UNL     1      15.726 -50.926 -24.697  1.00  0.00     0.014 A 
ATOM     23  C   UNL     1      15.525 -49.690 -26.750  1.00  0.00     0.128 A 
ATOM     24  C   UNL     1      17.109 -50.998 -24.876  1.00  0.00     0.047 A 
ATOM     25  C   UNL     1      16.912 -49.790 -26.942  1.00  0.00     0.093 A 
ATOM     26  C   UNL     1      17.709 -50.442 -26.004  1.00  0.00     0.122 A 
BRANCH  23  27
ATOM     27  O   UNL     1      14.768 -49.042 -27.693  1.00  0.00    -0.496 OA
ATOM     28  C   UNL     1      15.480 -48.885 -28.920  1.00  0.00     0.278 C 
ENDBRANCH  23  27
BRANCH  26  29
ATOM     29  O   UNL     1      19.066 -50.599 -26.068  1.00  0.00    -0.497 OA
ATOM     30  C   UNL     1      19.561 -51.932 -26.053  1.00  0.00     0.278 C 
ENDBRANCH  26  29
ENDBRANCH  11  21
ENDBRANCH   1   7
BRANCH   4  31
ATOM     31  S   UNL     1      12.150 -43.508 -24.773  1.00  0.00     0.238 S 
ATOM     32  O   UNL     1      12.679 -42.851 -23.600  1.00  0.00    -0.207 OA
ATOM     33  O   UNL     1      12.515 -43.117 -26.114  1.00  0.00    -0.207 OA
BRANCH  31  34
ATOM     34  N   UNL     1      10.474 -43.393 -24.639  1.00  0.00    -0.225 NA
ATOM     35  H   UNL     1       9.996 -44.271 -24.838  1.00  0.00     0.137 HD
ATOM     36  H   UNL     1      10.245 -43.037 -23.709  1.00  0.00     0.137 HD
ENDBRANCH  31  34
ENDBRANCH   4  31
TORSDOF 7
ENDMDL
MODEL 3
REMARK VINA RESULT:    -9.114      4.336      7.214
REMARK INTER + INTRA:         -13.733
REMARK INTER:                 -12.273
REMARK INTRA:                  -1.460
REMARK UNBOUND:                -1.155
REMARK SMILES COc1ccc([C@H]2C=C(c3cc(F)ccc3F)NN2c2ccc(S(N)(=O)=O)cc2)c(OC)c1
REMARK SMILES IDX 20 1 21 2 22 3 23 4 28 5 29 6 19 7 18 8 9 9 8 10 7 11 10 13
REMARK SMILES IDX 11 14 16 15 12 16 15 17 14 18 17 19 13 20 6 21 5 22 30 23
REMARK SMILES IDX 4 24 33 25 3 26 31 27 32 28 2 29 1 30 24 31 26 32 27 33
REMARK SMILES IDX 25 34
REMARK H PARENT 18 12 25 35 25 36
ROOT
ATOM      1  C   UNL     1      12.125 -52.226 -23.508  1.00  0.00     0.058 A 
ATOM      2  C   UNL     1      11.483 -52.630 -22.326  1.00  0.00     0.029 A 
ATOM      3  C   UNL     1      10.997 -53.933 -22.160  1.00  0.00     0.024 A 
ATOM      4  C   UNL     1      11.151 -54.862 -23.187  1.00  0.00     0.082 A 
ATOM      5  C   UNL     1      11.807 -54.507 -24.363  1.00  0.00     0.024 A 
ATOM      6  C   UNL     1      12.286 -53.201 -24.512  1.00  0.00     0.029 A 
ENDROOT
BRANCH   1   7
ATOM      7  N   UNL     1      12.633 -50.931 -23.692  1.00  0.00    -0.276 N 
ATOM      8  N   UNL     1      11.816 -49.802 -23.741  1.00  0.00    -0.297 N 
ATOM      9  C   UNL     1      12.533 -48.672 -23.361  1.00  0.00     0.063 C 
ATOM     10  C   UNL     1      13.771 -49.023 -22.978  1.00  0.00     0.033 C 
ATOM     11  C   UNL     1      13.965 -50.519 -23.152  1.00  0.00     0.164 C 
ATOM     12  H   UNL     1      11.367 -49.668 -24.650  1.00  0.00     0.188 HD
BRANCH   9  13
ATOM     13  C   UNL     1      11.946 -47.332 -23.421  1.00  0.00     0.038 A 
ATOM     14  C   UNL     1      12.560 -46.335 -24.195  1.00  0.00     0.052 A 
ATOM     15  C   UNL     1      10.784 -46.990 -22.711  1.00  0.00     0.132 A 
ATOM     16  C   UNL     1      12.016 -45.054 -24.251  1.00  0.00     0.124 A 
ATOM     17  C   UNL     1      10.243 -45.704 -22.770  1.00  0.00     0.043 A 
ATOM     18  C   UNL     1      10.863 -44.729 -23.547  1.00  0.00     0.042 A 
ATOM     19  F   UNL     1      10.167 -47.891 -21.932  1.00  0.00    -0.206 F 
ATOM     20  F   UNL     1      12.614 -44.118 -24.999  1.00  0.00    -0.207 F 
ENDBRANCH   9  13
BRANCH  11  21
ATOM     21  C   UNL     1      15.142 -50.849 -24.054  1.00  0.00     0.023 A 
ATOM     22  C   UNL     1      16.262 -51.478 -23.479  1.00  0.00     0.014 A 
ATOM     23  C   UNL     1      15.204 -50.533 -25.421  1.00  0.00     0.128 A 
ATOM     24  C   UNL     1      17.377 -51.817 -24.252  1.00  0.00     0.047 A 
ATOM     25  C   UNL     1      16.313 -50.901 -26.201  1.00  0.00     0.093 A 
ATOM     26  C   UNL     1      17.403 -51.542 -25.617  1.00  0.00     0.122 A 
BRANCH  23  27
ATOM     27  O   UNL     1      14.146 -49.904 -26.026  1.00  0.00    -0.496 OA
ATOM     28  C   UNL     1      14.534 -48.657 -26.601  1.00  0.00     0.278 C 
ENDBRANCH  23  27
BRANCH  26  29
ATOM     29  O   UNL     1      18.542 -51.943 -26.260  1.00  0.00    -0.497 OA
ATOM     30  C   UNL     1      19.765 -51.805 -25.548  1.00  0.00     0.278 C 
ENDBRANCH  26  29
ENDBRANCH  11  21
ENDBRANCH   1   7
BRANCH   4  31
ATOM     31  S   UNL     1      10.536 -56.509 -22.979  1.00  0.00     0.238 S 
ATOM     32  O   UNL     1      10.913 -56.980 -21.665  1.00  0.00    -0.207 OA
ATOM     33  O   UNL     1       9.177 -56.560 -23.463  1.00  0.00    -0.207 OA
BRANCH  31  34
ATOM     34  N   UNL     1      11.503 -57.365 -24.060  1.00  0.00    -0.225 NA
ATOM     35  H   UNL     1      10.972 -57.805 -24.810  1.00  0.00     0.137 HD
ATOM     36  H   UNL     1      12.224 -56.737 -24.422  1.00  0.00     0.137 HD
ENDBRANCH  31  34
ENDBRANCH   4  31
TORSDOF 7
ENDMDL
MODEL 4
REMARK VINA RESULT:    -8.993      4.263      7.349
REMARK INTER + INTRA:         -13.566
REMARK INTER:                 -12.008
REMARK INTRA:                  -1.558
REMARK UNBOUND:                -1.155
REMARK SMILES COc1ccc([C@H]2C=C(c3cc(F)ccc3F)NN2c2ccc(S(N)(=O)=O)cc2)c(OC)c1
REMARK SMILES IDX 20 1 21 2 22 3 23 4 28 5 29 6 19 7 18 8 9 9 8 10 7 11 10 13
REMARK SMILES IDX 11 14 16 15 12 16 15 17 14 18 17 19 13 20 6 21 5 22 30 23
REMARK SMILES IDX 4 24 33 25 3 26 31 27 32 28 2 29 1 30 24 31 26 32 27 33
REMARK SMILES IDX 25 34
REMARK H PARENT 18 12 25 35 25 36
ROOT
ATOM      1  C   UNL     1      12.294 -51.780 -23.722  1.00  0.00     0.058 A 
ATOM      2  C   UNL     1      11.600 -52.207 -22.577  1.00  0.00     0.029 A 
ATOM      3  C   UNL     1      11.161 -53.528 -22.433  1.00  0.00     0.024 A 
ATOM      4  C   UNL     1      11.414 -54.454 -23.443  1.00  0.00     0.082 A 
ATOM      5  C   UNL     1      12.123 -54.075 -24.580  1.00  0.00     0.024 A 
ATOM      6  C   UNL     1      12.555 -52.751 -24.709  1.00  0.00     0.029 A 
ENDROOT
BRANCH   1   7
ATOM      7  N   UNL     1      12.757 -50.465 -23.883  1.00  0.00    -0.276 N 
ATOM      8  N   UNL     1      11.908 -49.360 -23.863  1.00  0.00    -0.297 N 
ATOM      9  C   UNL     1      12.607 -48.222 -23.475  1.00  0.00     0.063 C 
ATOM     10  C   UNL     1      13.869 -48.548 -23.152  1.00  0.00     0.033 C 
ATOM     11  C   UNL     1      14.098 -50.032 -23.383  1.00  0.00     0.164 C 
ATOM     12  H   UNL     1      11.419 -49.210 -24.748  1.00  0.00     0.188 HD
BRANCH   9  13
ATOM     13  C   UNL     1      11.980 -46.899 -23.467  1.00  0.00     0.038 A 
ATOM     14  C   UNL     1      12.523 -45.865 -24.247  1.00  0.00     0.052 A 
ATOM     15  C   UNL     1      10.850 -46.608 -22.687  1.00  0.00     0.132 A 
ATOM     16  C   UNL     1      11.941 -44.600 -24.239  1.00  0.00     0.124 A 
ATOM     17  C   UNL     1      10.271 -45.338 -22.683  1.00  0.00     0.043 A 
ATOM     18  C   UNL     1      10.820 -44.326 -23.466  1.00  0.00     0.042 A 
ATOM     19  F   UNL     1      10.302 -47.546 -21.900  1.00  0.00    -0.206 F 
ATOM     20  F   UNL     1      12.471 -43.628 -24.994  1.00  0.00    -0.207 F 
ENDBRANCH   9  13
BRANCH  11  21
ATOM     21  C   UNL     1      15.247 -50.297 -24.340  1.00  0.00     0.023 A 
ATOM     22  C   UNL     1      15.156 -49.779 -25.646  1.00  0.00     0.014 A 
ATOM     23  C   UNL     1      16.382 -51.061 -24.021  1.00  0.00     0.128 A 
ATOM     24  C   UNL     1      16.180 -49.979 -26.575  1.00  0.00     0.047 A 
ATOM     25  C   UNL     1      17.423 -51.234 -24.947  1.00  0.00     0.093 A 
ATOM     26  C   UNL     1      17.324 -50.696 -26.228  1.00  0.00     0.122 A 
BRANCH  23  27
ATOM     27  O   UNL     1      16.511 -51.602 -22.767  1.00  0.00    -0.496 OA
ATOM     28  C   UNL     1      17.506 -50.924 -22.001  1.00  0.00     0.278 C 
ENDBRANCH  23  27
BRANCH  26  29
ATOM     29  O   UNL     1      18.258 -50.801 -27.222  1.00  0.00    -0.497 OA
ATOM     30  C   UNL     1      18.147 -49.890 -28.308  1.00  0.00     0.278 C 
ENDBRANCH  26  29
ENDBRANCH  11  21
ENDBRANCH   1   7
BRANCH   4  31
ATOM     31  S   UNL     1      10.858 -56.125 -23.261  1.00  0.00     0.238 S 
ATOM     32  O   UNL     1       9.416 -56.144 -23.356  1.00  0.00    -0.207 OA
ATOM     33  O   UNL     1      11.701 -56.982 -24.060  1.00  0.00    -0.207 OA
BRANCH  31  34
ATOM     34  N   UNL     1      11.209 -56.418 -21.640  1.00  0.00    -0.225 NA
ATOM     35  H   UNL     1      12.202 -56.568 -21.467  1.00  0.00     0.137 HD
ATOM     36  H   UNL     1      10.837 -55.648 -21.081  1.00  0.00     0.137 HD
ENDBRANCH  31  34
ENDBRANCH   4  31
TORSDOF 7
ENDMDL
MODEL 5
REMARK VINA RESULT:    -8.813      4.400      8.090
REMARK INTER + INTRA:         -13.317
REMARK INTER:                 -11.864
REMARK INTRA:                  -1.453
REMARK UNBOUND:                -1.155
REMARK SMILES COc1ccc([C@H]2C=C(c3cc(F)ccc3F)NN2c2ccc(S(N)(=O)=O)cc2)c(OC)c1
REMARK SMILES IDX 20 1 21 2 22 3 23 4 28 5 29 6 19 7 18 8 9 9 8 10 7 11 10 13
REMARK SMILES IDX 11 14 16 15 12 16 15 17 14 18 17 19 13 20 6 21 5 22 30 23
REMARK SMILES IDX 4 24 33 25 3 26 31 27 32 28 2 29 1 30 24 31 26 32 27 33
REMARK SMILES IDX 25 34
REMARK H PARENT 18 12 25 35 25 36
ROOT
ATOM      1  C   UNL     1      12.910 -51.548 -24.378  1.00  0.00     0.058 A 
ATOM      2  C   UNL     1      12.190 -51.444 -23.176  1.00  0.00     0.029 A 
ATOM      3  C   UNL     1      11.439 -52.514 -22.673  1.00  0.00     0.024 A 
ATOM      4  C   UNL     1      11.400 -53.718 -23.374  1.00  0.00     0.082 A 
ATOM      5  C   UNL     1      12.122 -53.868 -24.554  1.00  0.00     0.024 A 
ATOM      6  C   UNL     1      12.867 -52.789 -25.043  1.00  0.00     0.029 A 
ENDROOT
BRANCH   1   7
ATOM      7  N   UNL     1      13.681 -50.495 -24.895  1.00  0.00    -0.276 N 
ATOM      8  N   UNL     1      14.484 -50.636 -26.026  1.00  0.00    -0.297 N 
ATOM      9  C   UNL     1      14.666 -49.403 -26.644  1.00  0.00     0.063 C 
ATOM     10  C   UNL     1      13.942 -48.464 -26.013  1.00  0.00     0.033 C 
ATOM     11  C   UNL     1      13.230 -49.072 -24.818  1.00  0.00     0.164 C 
ATOM     12  H   UNL     1      15.379 -51.089 -25.832  1.00  0.00     0.188 HD
BRANCH   9  13
ATOM     13  C   UNL     1      15.553 -49.243 -27.798  1.00  0.00     0.038 A 
ATOM     14  C   UNL     1      15.021 -48.857 -29.038  1.00  0.00     0.052 A 
ATOM     15  C   UNL     1      16.934 -49.480 -27.721  1.00  0.00     0.132 A 
ATOM     16  C   UNL     1      15.854 -48.712 -30.145  1.00  0.00     0.124 A 
ATOM     17  C   UNL     1      17.764 -49.334 -28.834  1.00  0.00     0.043 A 
ATOM     18  C   UNL     1      17.220 -48.946 -30.055  1.00  0.00     0.042 A 
ATOM     19  F   UNL     1      17.498 -49.878 -26.570  1.00  0.00    -0.206 F 
ATOM     20  F   UNL     1      15.327 -48.338 -31.319  1.00  0.00    -0.207 F 
ENDBRANCH   9  13
BRANCH  11  21
ATOM     21  C   UNL     1      13.579 -48.368 -23.518  1.00  0.00     0.023 A 
ATOM     22  C   UNL     1      14.832 -48.634 -22.934  1.00  0.00     0.014 A 
ATOM     23  C   UNL     1      12.716 -47.493 -22.836  1.00  0.00     0.128 A 
ATOM     24  C   UNL     1      15.220 -48.015 -21.743  1.00  0.00     0.047 A 
ATOM     25  C   UNL     1      13.121 -46.849 -21.655  1.00  0.00     0.093 A 
ATOM     26  C   UNL     1      14.373 -47.111 -21.104  1.00  0.00     0.122 A 
BRANCH  23  27
ATOM     27  O   UNL     1      11.477 -47.213 -23.354  1.00  0.00    -0.496 OA
ATOM     28  C   UNL     1      10.623 -46.616 -22.379  1.00  0.00     0.278 C 
ENDBRANCH  23  27
BRANCH  26  29
ATOM     29  O   UNL     1      14.882 -46.560 -19.960  1.00  0.00    -0.497 OA
ATOM     30  C   UNL     1      16.298 -46.520 -19.839  1.00  0.00     0.278 C 
ENDBRANCH  26  29
ENDBRANCH  11  21
ENDBRANCH   1   7
BRANCH   4  31
ATOM     31  S   UNL     1      10.450 -55.071 -22.739  1.00  0.00     0.238 S 
ATOM     32  O   UNL     1       9.567 -55.545 -23.780  1.00  0.00    -0.207 OA
ATOM     33  O   UNL     1      11.330 -55.949 -22.006  1.00  0.00    -0.207 OA
BRANCH  31  34
ATOM     34  N   UNL     1       9.457 -54.287 -21.627  1.00  0.00    -0.225 NA
ATOM     35  H   UNL     1       8.952 -54.930 -21.019  1.00  0.00     0.137 HD
ATOM     36  H   UNL     1      10.023 -53.624 -21.093  1.00  0.00     0.137 HD
ENDBRANCH  31  34
ENDBRANCH   4  31
TORSDOF 7
ENDMDL
MODEL 6
REMARK VINA RESULT:    -8.744      4.110      6.621
REMARK INTER + INTRA:         -13.222
REMARK INTER:                 -11.661
REMARK INTRA:                  -1.561
REMARK UNBOUND:                -1.155
REMARK SMILES COc1ccc([C@H]2C=C(c3cc(F)ccc3F)NN2c2ccc(S(N)(=O)=O)cc2)c(OC)c1
REMARK SMILES IDX 20 1 21 2 22 3 23 4 28 5 29 6 19 7 18 8 9 9 8 10 7 11 10 13
REMARK SMILES IDX 11 14 16 15 12 16 15 17 14 18 17 19 13 20 6 21 5 22 30 23
REMARK SMILES IDX 4 24 33 25 3 26 31 27 32 28 2 29 1 30 24 31 26 32 27 33
REMARK SMILES IDX 25 34
REMARK H PARENT 18 12 25 35 25 36
ROOT
ATOM      1  C   UNL     1      14.974 -47.804 -21.201  1.00  0.00     0.058 A 
ATOM      2  C   UNL     1      16.358 -48.042 -21.235  1.00  0.00     0.029 A 
ATOM      3  C   UNL     1      17.222 -47.508 -20.271  1.00  0.00     0.024 A 
ATOM      4  C   UNL     1      16.706 -46.719 -19.245  1.00  0.00     0.082 A 
ATOM      5  C   UNL     1      15.336 -46.483 -19.161  1.00  0.00     0.024 A 
ATOM      6  C   UNL     1      14.488 -47.024 -20.133  1.00  0.00     0.029 A 
ENDROOT
BRANCH   1   7
ATOM      7  N   UNL     1      14.087 -48.340 -22.146  1.00  0.00    -0.276 N 
ATOM      8  N   UNL     1      13.998 -49.707 -22.404  1.00  0.00    -0.297 N 
ATOM      9  C   UNL     1      12.737 -50.022 -22.901  1.00  0.00     0.063 C 
ATOM     10  C   UNL     1      11.959 -48.929 -22.900  1.00  0.00     0.033 C 
ATOM     11  C   UNL     1      12.749 -47.727 -22.412  1.00  0.00     0.164 C 
ATOM     12  H   UNL     1      14.736 -50.050 -23.023  1.00  0.00     0.188 HD
BRANCH   9  13
ATOM     13  C   UNL     1      12.404 -51.374 -23.354  1.00  0.00     0.038 A 
ATOM     14  C   UNL     1      12.945 -51.862 -24.553  1.00  0.00     0.052 A 
ATOM     15  C   UNL     1      11.538 -52.214 -22.635  1.00  0.00     0.132 A 
ATOM     16  C   UNL     1      12.628 -53.143 -24.998  1.00  0.00     0.124 A 
ATOM     17  C   UNL     1      11.222 -53.497 -23.086  1.00  0.00     0.043 A 
ATOM     18  C   UNL     1      11.772 -53.966 -24.276  1.00  0.00     0.042 A 
ATOM     19  F   UNL     1      10.967 -51.795 -21.496  1.00  0.00    -0.206 F 
ATOM     20  F   UNL     1      13.158 -53.591 -26.144  1.00  0.00    -0.207 F 
ENDBRANCH   9  13
BRANCH  11  21
ATOM     21  C   UNL     1      12.762 -46.594 -23.424  1.00  0.00     0.023 A 
ATOM     22  C   UNL     1      13.514 -46.764 -24.601  1.00  0.00     0.014 A 
ATOM     23  C   UNL     1      12.101 -45.368 -23.246  1.00  0.00     0.128 A 
ATOM     24  C   UNL     1      13.564 -45.765 -25.577  1.00  0.00     0.047 A 
ATOM     25  C   UNL     1      12.128 -44.378 -24.242  1.00  0.00     0.093 A 
ATOM     26  C   UNL     1      12.862 -44.573 -25.410  1.00  0.00     0.122 A 
BRANCH  23  27
ATOM     27  O   UNL     1      11.367 -45.145 -22.108  1.00  0.00    -0.496 OA
ATOM     28  C   UNL     1       9.982 -45.418 -22.314  1.00  0.00     0.278 C 
ENDBRANCH  23  27
BRANCH  26  29
ATOM     29  O   UNL     1      12.977 -43.689 -26.447  1.00  0.00    -0.497 OA
ATOM     30  C   UNL     1      12.690 -42.326 -26.166  1.00  0.00     0.278 C 
ENDBRANCH  26  29
ENDBRANCH  11  21
ENDBRANCH   1   7
BRANCH   4  31
ATOM     31  S   UNL     1      17.797 -46.042 -18.026  1.00  0.00     0.238 S 
ATOM     32  O   UNL     1      18.619 -47.108 -17.499  1.00  0.00    -0.207 OA
ATOM     33  O   UNL     1      18.353 -44.812 -18.536  1.00  0.00    -0.207 OA
BRANCH  31  34
ATOM     34  N   UNL     1      16.718 -45.651 -16.793  1.00  0.00    -0.225 NA
ATOM     35  H   UNL     1      16.083 -46.413 -16.561  1.00  0.00     0.137 HD
ATOM     36  H   UNL     1      17.251 -45.339 -15.979  1.00  0.00     0.137 HD
ENDBRANCH  31  34
ENDBRANCH   4  31
TORSDOF 7
ENDMDL
MODEL 7
REMARK VINA RESULT:    -8.724      2.669      6.014
REMARK INTER + INTRA:         -13.194
REMARK INTER:                 -11.817
REMARK INTRA:                  -1.377
REMARK UNBOUND:                -1.155
REMARK SMILES COc1ccc([C@H]2C=C(c3cc(F)ccc3F)NN2c2ccc(S(N)(=O)=O)cc2)c(OC)c1
REMARK SMILES IDX 20 1 21 2 22 3 23 4 28 5 29 6 19 7 18 8 9 9 8 10 7 11 10 13
REMARK SMILES IDX 11 14 16 15 12 16 15 17 14 18 17 19 13 20 6 21 5 22 30 23
REMARK SMILES IDX 4 24 33 25 3 26 31 27 32 28 2 29 1 30 24 31 26 32 27 33
REMARK SMILES IDX 25 34
REMARK H PARENT 18 12 25 35 25 36
ROOT
ATOM      1  C   UNL     1      14.621 -49.986 -25.725  1.00  0.00     0.058 A 
ATOM      2  C   UNL     1      15.956 -50.267 -25.393  1.00  0.00     0.029 A 
ATOM      3  C   UNL     1      17.002 -50.040 -26.296  1.00  0.00     0.024 A 
ATOM      4  C   UNL     1      16.723 -49.519 -27.558  1.00  0.00     0.082 A 
ATOM      5  C   UNL     1      15.415 -49.201 -27.913  1.00  0.00     0.024 A 
ATOM      6  C   UNL     1      14.382 -49.435 -26.999  1.00  0.00     0.029 A 
ENDROOT
BRANCH   1   7
ATOM      7  N   UNL     1      13.557 -50.191 -24.833  1.00  0.00    -0.276 N 
ATOM      8  N   UNL     1      12.895 -51.413 -24.719  1.00  0.00    -0.297 N 
ATOM      9  C   UNL     1      12.326 -51.537 -23.456  1.00  0.00     0.063 C 
ATOM     10  C   UNL     1      12.661 -50.481 -22.698  1.00  0.00     0.033 C 
ATOM     11  C   UNL     1      13.491 -49.501 -23.508  1.00  0.00     0.164 C 
ATOM     12  H   UNL     1      12.201 -51.565 -25.455  1.00  0.00     0.188 HD
BRANCH   9  13
ATOM     13  C   UNL     1      11.483 -52.681 -23.100  1.00  0.00     0.038 A 
ATOM     14  C   UNL     1      11.819 -53.964 -23.559  1.00  0.00     0.052 A 
ATOM     15  C   UNL     1      10.324 -52.545 -22.320  1.00  0.00     0.132 A 
ATOM     16  C   UNL     1      11.019 -55.058 -23.236  1.00  0.00     0.124 A 
ATOM     17  C   UNL     1       9.526 -53.644 -22.000  1.00  0.00     0.043 A 
ATOM     18  C   UNL     1       9.877 -54.910 -22.459  1.00  0.00     0.042 A 
ATOM     19  F   UNL     1       9.935 -51.340 -21.875  1.00  0.00    -0.206 F 
ATOM     20  F   UNL     1      11.360 -56.275 -23.680  1.00  0.00    -0.207 F 
ENDBRANCH   9  13
BRANCH  11  21
ATOM     21  C   UNL     1      12.873 -48.114 -23.547  1.00  0.00     0.023 A 
ATOM     22  C   UNL     1      11.633 -47.958 -24.196  1.00  0.00     0.014 A 
ATOM     23  C   UNL     1      13.475 -46.964 -23.010  1.00  0.00     0.128 A 
ATOM     24  C   UNL     1      11.005 -46.712 -24.262  1.00  0.00     0.047 A 
ATOM     25  C   UNL     1      12.826 -45.719 -23.052  1.00  0.00     0.093 A 
ATOM     26  C   UNL     1      11.590 -45.589 -23.681  1.00  0.00     0.122 A 
BRANCH  23  27
ATOM     27  O   UNL     1      14.691 -47.059 -22.382  1.00  0.00    -0.496 OA
ATOM     28  C   UNL     1      15.767 -46.769 -23.273  1.00  0.00     0.278 C 
ENDBRANCH  23  27
BRANCH  26  29
ATOM     29  O   UNL     1      10.862 -44.437 -23.798  1.00  0.00    -0.497 OA
ATOM     30  C   UNL     1      10.990 -43.485 -22.750  1.00  0.00     0.278 C 
ENDBRANCH  26  29
ENDBRANCH  11  21
ENDBRANCH   1   7
BRANCH   4  31
ATOM     31  S   UNL     1      18.045 -49.233 -28.701  1.00  0.00     0.238 S 
ATOM     32  O   UNL     1      17.596 -48.290 -29.700  1.00  0.00    -0.207 OA
ATOM     33  O   UNL     1      19.268 -49.053 -27.955  1.00  0.00    -0.207 OA
BRANCH  31  34
ATOM     34  N   UNL     1      18.133 -50.719 -29.488  1.00  0.00    -0.225 NA
ATOM     35  H   UNL     1      18.938 -50.796 -30.108  1.00  0.00     0.137 HD
ATOM     36  H   UNL     1      18.119 -51.462 -28.787  1.00  0.00     0.137 HD
ENDBRANCH  31  34
ENDBRANCH   4  31
TORSDOF 7
ENDMDL
MODEL 8
REMARK VINA RESULT:    -8.684      4.022      6.207
REMARK INTER + INTRA:         -13.139
REMARK INTER:                 -11.599
REMARK INTRA:                  -1.540
REMARK UNBOUND:                -1.155
REMARK SMILES COc1ccc([C@H]2C=C(c3cc(F)ccc3F)NN2c2ccc(S(N)(=O)=O)cc2)c(OC)c1
REMARK SMILES IDX 20 1 21 2 22 3 23 4 28 5 29 6 19 7 18 8 9 9 8 10 7 11 10 13
REMARK SMILES IDX 11 14 16 15 12 16 15 17 14 18 17 19 13 20 6 21 5 22 30 23
REMARK SMILES IDX 4 24 33 25 3 26 31 27 32 28 2 29 1 30 24 31 26 32 27 33
REMARK SMILES IDX 25 34
REMARK H PARENT 18 12 25 35 25 36
ROOT
ATOM      1  C   UNL     1      14.906 -47.765 -21.272  1.00  0.00     0.058 A 
ATOM      2  C   UNL     1      16.287 -48.016 -21.250  1.00  0.00     0.029 A 
ATOM      3  C   UNL     1      17.125 -47.443 -20.284  1.00  0.00     0.024 A 
ATOM      4  C   UNL     1      16.583 -46.602 -19.314  1.00  0.00     0.082 A 
ATOM      5  C   UNL     1      15.214 -46.351 -19.287  1.00  0.00     0.024 A 
ATOM      6  C   UNL     1      14.392 -46.931 -20.259  1.00  0.00     0.029 A 
ENDROOT
BRANCH   1   7
ATOM      7  N   UNL     1      14.044 -48.338 -22.220  1.00  0.00    -0.276 N 
ATOM      8  N   UNL     1      13.922 -49.717 -22.389  1.00  0.00    -0.297 N 
ATOM      9  C   UNL     1      12.676 -50.028 -22.922  1.00  0.00     0.063 C 
ATOM     10  C   UNL     1      11.933 -48.915 -23.030  1.00  0.00     0.033 C 
ATOM     11  C   UNL     1      12.740 -47.707 -22.588  1.00  0.00     0.164 C 
ATOM     12  H   UNL     1      14.676 -50.123 -22.948  1.00  0.00     0.188 HD
BRANCH   9  13
ATOM     13  C   UNL     1      12.319 -51.398 -23.297  1.00  0.00     0.038 A 
ATOM     14  C   UNL     1      12.802 -51.941 -24.499  1.00  0.00     0.052 A 
ATOM     15  C   UNL     1      11.487 -52.201 -22.502  1.00  0.00     0.132 A 
ATOM     16  C   UNL     1      12.462 -53.239 -24.871  1.00  0.00     0.124 A 
ATOM     17  C   UNL     1      11.148 -53.502 -22.880  1.00  0.00     0.043 A 
ATOM     18  C   UNL     1      11.641 -54.025 -24.073  1.00  0.00     0.042 A 
ATOM     19  F   UNL     1      10.971 -51.731 -21.356  1.00  0.00    -0.206 F 
ATOM     20  F   UNL     1      12.937 -53.739 -26.018  1.00  0.00    -0.207 F 
ENDBRANCH   9  13
BRANCH  11  21
ATOM     21  C   UNL     1      12.834 -46.646 -23.672  1.00  0.00     0.023 A 
ATOM     22  C   UNL     1      11.984 -45.528 -23.582  1.00  0.00     0.014 A 
ATOM     23  C   UNL     1      13.691 -46.725 -24.783  1.00  0.00     0.128 A 
ATOM     24  C   UNL     1      12.024 -44.512 -24.540  1.00  0.00     0.047 A 
ATOM     25  C   UNL     1      13.750 -45.687 -25.727  1.00  0.00     0.093 A 
ATOM     26  C   UNL     1      12.914 -44.579 -25.610  1.00  0.00     0.122 A 
BRANCH  23  27
ATOM     27  O   UNL     1      14.528 -47.802 -24.926  1.00  0.00    -0.496 OA
ATOM     28  C   UNL     1      14.184 -48.587 -26.068  1.00  0.00     0.278 C 
ENDBRANCH  23  27
BRANCH  26  29
ATOM     29  O   UNL     1      12.866 -43.510 -26.463  1.00  0.00    -0.497 OA
ATOM     30  C   UNL     1      12.385 -42.283 -25.930  1.00  0.00     0.278 C 
ENDBRANCH  26  29
ENDBRANCH  11  21
ENDBRANCH   1   7
BRANCH   4  31
ATOM     31  S   UNL     1      17.641 -45.877 -18.094  1.00  0.00     0.238 S 
ATOM     32  O   UNL     1      18.647 -46.845 -17.720  1.00  0.00    -0.207 OA
ATOM     33  O   UNL     1      17.971 -44.533 -18.507  1.00  0.00    -0.207 OA
BRANCH  31  34
ATOM     34  N   UNL     1      16.602 -45.771 -16.773  1.00  0.00    -0.225 NA
ATOM     35  H   UNL     1      17.038 -45.352 -15.953  1.00  0.00     0.137 HD
ATOM     36  H   UNL     1      15.762 -45.264 -17.057  1.00  0.00     0.137 HD
ENDBRANCH  31  34
ENDBRANCH   4  31
TORSDOF 7
ENDMDL
MODEL 9
REMARK VINA RESULT:    -8.605      3.557      4.909
REMARK INTER + INTRA:         -13.030
REMARK INTER:                 -11.318
REMARK INTRA:                  -1.711
REMARK UNBOUND:                -1.155
REMARK SMILES COc1ccc([C@H]2C=C(c3cc(F)ccc3F)NN2c2ccc(S(N)(=O)=O)cc2)c(OC)c1
REMARK SMILES IDX 20 1 21 2 22 3 23 4 28 5 29 6 19 7 18 8 9 9 8 10 7 11 10 13
REMARK SMILES IDX 11 14 16 15 12 16 15 17 14 18 17 19 13 20 6 21 5 22 30 23
REMARK SMILES IDX 4 24 33 25 3 26 31 27 32 28 2 29 1 30 24 31 26 32 27 33
REMARK SMILES IDX 25 34
REMARK H PARENT 18 12 25 35 25 36
ROOT
ATOM      1  C   UNL     1      14.696 -48.124 -21.858  1.00  0.00     0.058 A 
ATOM      2  C   UNL     1      14.018 -47.334 -20.916  1.00  0.00     0.029 A 
ATOM      3  C   UNL     1      14.704 -46.501 -20.023  1.00  0.00     0.024 A 
ATOM      4  C   UNL     1      16.095 -46.445 -20.063  1.00  0.00     0.082 A 
ATOM      5  C   UNL     1      16.801 -47.192 -21.002  1.00  0.00     0.024 A 
ATOM      6  C   UNL     1      16.101 -48.019 -21.886  1.00  0.00     0.029 A 
ENDROOT
BRANCH   1   7
ATOM      7  N   UNL     1      14.031 -48.955 -22.773  1.00  0.00    -0.276 N 
ATOM      8  N   UNL     1      13.642 -50.257 -22.462  1.00  0.00    -0.297 N 
ATOM      9  C   UNL     1      12.563 -50.640 -23.251  1.00  0.00     0.063 C 
ATOM     10  C   UNL     1      12.165 -49.608 -24.012  1.00  0.00     0.033 C 
ATOM     11  C   UNL     1      13.072 -48.412 -23.783  1.00  0.00     0.164 C 
ATOM     12  H   UNL     1      14.407 -50.933 -22.528  1.00  0.00     0.188 HD
BRANCH   9  13
ATOM     13  C   UNL     1      12.017 -51.998 -23.204  1.00  0.00     0.038 A 
ATOM     14  C   UNL     1      11.350 -52.442 -22.051  1.00  0.00     0.052 A 
ATOM     15  C   UNL     1      12.149 -52.897 -24.274  1.00  0.00     0.132 A 
ATOM     16  C   UNL     1      10.836 -53.735 -21.991  1.00  0.00     0.124 A 
ATOM     17  C   UNL     1      11.632 -54.192 -24.208  1.00  0.00     0.043 A 
ATOM     18  C   UNL     1      10.969 -54.614 -23.059  1.00  0.00     0.042 A 
ATOM     19  F   UNL     1      12.799 -52.541 -25.392  1.00  0.00    -0.206 F 
ATOM     20  F   UNL     1      10.199 -54.138 -20.884  1.00  0.00    -0.207 F 
ENDBRANCH   9  13
BRANCH  11  21
ATOM     21  C   UNL     1      13.717 -47.921 -25.068  1.00  0.00     0.023 A 
ATOM     22  C   UNL     1      14.203 -48.881 -25.976  1.00  0.00     0.014 A 
ATOM     23  C   UNL     1      13.896 -46.567 -25.395  1.00  0.00     0.128 A 
ATOM     24  C   UNL     1      14.800 -48.499 -27.180  1.00  0.00     0.047 A 
ATOM     25  C   UNL     1      14.470 -46.187 -26.620  1.00  0.00     0.093 A 
ATOM     26  C   UNL     1      14.926 -47.152 -27.514  1.00  0.00     0.122 A 
BRANCH  23  27
ATOM     27  O   UNL     1      13.456 -45.592 -24.537  1.00  0.00    -0.496 OA
ATOM     28  C   UNL     1      14.539 -44.980 -23.836  1.00  0.00     0.278 C 
ENDBRANCH  23  27
BRANCH  26  29
ATOM     29  O   UNL     1      15.509 -46.916 -28.729  1.00  0.00    -0.497 OA
ATOM     30  C   UNL     1      14.640 -46.605 -29.810  1.00  0.00     0.278 C 
ENDBRANCH  26  29
ENDBRANCH  11  21
ENDBRANCH   1   7
BRANCH   4  31
ATOM     31  S   UNL     1      16.963 -45.393 -18.934  1.00  0.00     0.238 S 
ATOM     32  O   UNL     1      18.359 -45.768 -18.933  1.00  0.00    -0.207 OA
ATOM     33  O   UNL     1      16.523 -44.034 -19.138  1.00  0.00    -0.207 OA
BRANCH  31  34
ATOM     34  N   UNL     1      16.353 -45.918 -17.454  1.00  0.00    -0.225 NA
ATOM     35  H   UNL     1      16.912 -46.657 -17.031  1.00  0.00     0.137 HD
ATOM     36  H   UNL     1      16.257 -45.111 -16.835  1.00  0.00     0.137 HD
ENDBRANCH  31  34
ENDBRANCH   4  31
TORSDOF 7
ENDMDL
