MODEL 1
REMARK VINA RESULT:   -10.141      0.000      0.000
REMARK INTER + INTRA:         -11.113
REMARK INTER:                 -11.031
REMARK INTRA:                  -0.082
REMARK UNBOUND:                -0.082
REMARK SMILES CCC1=C[C@H]2Cc3[nH]c4cc(Cl)ccc4c(=N)c3[C@@H](C1)C2
REMARK SMILES IDX 8 1 7 2 18 3 16 4 15 5 14 6 13 7 11 8 12 9 10 10 9 11 19 12
REMARK SMILES IDX 20 13 3 14 4 15 5 16 6 17 21 18 17 20 2 22 1 23
REMARK H PARENT 8 19 17 21
ROOT
ATOM      1  N   UNL     1      11.790 -56.751 -24.502  1.00  0.00    -0.358 N 
ATOM      2  C   UNL     1      11.848 -58.118 -24.348  1.00  0.00     0.021 A 
ATOM      3  C   UNL     1      11.668 -58.731 -23.159  1.00  0.00     0.000 A 
ATOM      4  C   UNL     1      11.378 -57.891 -21.948  1.00  0.00     0.068 A 
ATOM      5  C   UNL     1      11.233 -56.414 -22.153  1.00  0.00     0.023 A 
ATOM      6  C   UNL     1      10.899 -55.543 -21.104  1.00  0.00     0.014 A 
ATOM      7  C   UNL     1      10.783 -54.170 -21.341  1.00  0.00     0.021 A 
ATOM      8  C   UNL     1      11.001 -53.666 -22.620  1.00  0.00     0.043 A 
ATOM      9  Cl  UNL     1      10.868 -51.974 -22.906  1.00  0.00    -0.084 Cl
ATOM     10  C   UNL     1      11.328 -54.521 -23.671  1.00  0.00     0.047 A 
ATOM     11  C   UNL     1      11.430 -55.900 -23.449  1.00  0.00     0.049 A 
ATOM     12  C   UNL     1      11.764 -60.237 -22.976  1.00  0.00     0.028 C 
ATOM     13  C   UNL     1      10.359 -60.884 -22.980  1.00  0.00     0.039 C 
ATOM     14  C   UNL     1       9.756 -61.060 -24.370  1.00  0.00    -0.074 C 
ATOM     15  C   UNL     1      10.497 -60.840 -25.475  1.00  0.00    -0.024 C 
ATOM     16  C   UNL     1      11.961 -60.447 -25.432  1.00  0.00     0.018 C 
ATOM     17  C   UNL     1      12.121 -58.924 -25.610  1.00  0.00     0.062 C 
ATOM     18  C   UNL     1      12.596 -60.862 -24.103  1.00  0.00     0.017 C 
ATOM     19  H   UNL     1      11.775 -56.385 -25.446  1.00  0.00     0.166 HD
ENDROOT
BRANCH   4  20
ATOM     20  N   UNL     1      11.263 -58.473 -20.792  1.00  0.00    -0.300 NA
ATOM     21  H   UNL     1      11.963 -59.195 -20.634  1.00  0.00     0.188 HD
ENDBRANCH   4  20
BRANCH  14  22
ATOM     22  C   UNL     1       8.299 -61.478 -24.365  1.00  0.00     0.027 C 
ATOM     23  C   UNL     1       7.923 -62.689 -25.210  1.00  0.00     0.008 C 
ENDBRANCH  14  22
TORSDOF 2
ENDMDL
MODEL 2
REMARK VINA RESULT:    -9.584      4.074      5.814
REMARK INTER + INTRA:         -10.506
REMARK INTER:                 -10.425
REMARK INTRA:                  -0.082
REMARK UNBOUND:                -0.082
REMARK SMILES CCC1=C[C@H]2Cc3[nH]c4cc(Cl)ccc4c(=N)c3[C@@H](C1)C2
REMARK SMILES IDX 8 1 7 2 18 3 16 4 15 5 14 6 13 7 11 8 12 9 10 10 9 11 19 12
REMARK SMILES IDX 20 13 3 14 4 15 5 16 6 17 21 18 17 20 2 22 1 23
REMARK H PARENT 8 19 17 21
ROOT
ATOM      1  N   UNL     1       9.630 -61.534 -26.880  1.00  0.00    -0.358 N 
ATOM      2  C   UNL     1       9.356 -61.541 -25.531  1.00  0.00     0.021 A 
ATOM      3  C   UNL     1      10.011 -60.760 -24.645  1.00  0.00     0.000 A 
ATOM      4  C   UNL     1      11.076 -59.829 -25.150  1.00  0.00     0.068 A 
ATOM      5  C   UNL     1      11.297 -59.774 -26.631  1.00  0.00     0.023 A 
ATOM      6  C   UNL     1      12.221 -58.895 -27.217  1.00  0.00     0.014 A 
ATOM      7  C   UNL     1      12.399 -58.884 -28.603  1.00  0.00     0.021 A 
ATOM      8  C   UNL     1      11.660 -59.750 -29.404  1.00  0.00     0.043 A 
ATOM      9  Cl  UNL     1      11.891 -59.741 -31.109  1.00  0.00    -0.084 Cl
ATOM     10  C   UNL     1      10.736 -60.624 -28.835  1.00  0.00     0.047 A 
ATOM     11  C   UNL     1      10.536 -60.632 -27.449  1.00  0.00     0.049 A 
ATOM     12  C   UNL     1       9.737 -60.787 -23.150  1.00  0.00     0.028 C 
ATOM     13  C   UNL     1       8.791 -59.634 -22.741  1.00  0.00     0.039 C 
ATOM     14  C   UNL     1       7.320 -59.894 -23.046  1.00  0.00    -0.074 C 
ATOM     15  C   UNL     1       6.906 -61.111 -23.453  1.00  0.00    -0.024 C 
ATOM     16  C   UNL     1       7.834 -62.300 -23.602  1.00  0.00     0.018 C 
ATOM     17  C   UNL     1       8.251 -62.484 -25.075  1.00  0.00     0.062 C 
ATOM     18  C   UNL     1       9.090 -62.118 -22.747  1.00  0.00     0.017 C 
ATOM     19  H   UNL     1       8.989 -62.026 -27.492  1.00  0.00     0.166 HD
ENDROOT
BRANCH   4  20
ATOM     20  N   UNL     1      11.748 -59.119 -24.294  1.00  0.00    -0.300 NA
ATOM     21  H   UNL     1      12.004 -59.637 -23.455  1.00  0.00     0.188 HD
ENDBRANCH   4  20
BRANCH  14  22
ATOM     22  C   UNL     1       6.425 -58.685 -22.860  1.00  0.00     0.027 C 
ATOM     23  C   UNL     1       5.024 -58.937 -22.317  1.00  0.00     0.008 C 
ENDBRANCH  14  22
TORSDOF 2
ENDMDL
MODEL 3
REMARK VINA RESULT:    -9.322      3.489      6.881
REMARK INTER + INTRA:         -10.221
REMARK INTER:                 -10.134
REMARK INTRA:                  -0.087
REMARK UNBOUND:                -0.082
REMARK SMILES CCC1=C[C@H]2Cc3[nH]c4cc(Cl)ccc4c(=N)c3[C@@H](C1)C2
REMARK SMILES IDX 8 1 7 2 18 3 16 4 15 5 14 6 13 7 11 8 12 9 10 10 9 11 19 12
REMARK SMILES IDX 20 13 3 14 4 15 5 16 6 17 21 18 17 20 2 22 1 23
REMARK H PARENT 8 19 17 21
ROOT
ATOM      1  N   UNL     1       9.133 -61.602 -22.941  1.00  0.00    -0.358 N 
ATOM      2  C   UNL     1      10.129 -60.665 -22.781  1.00  0.00     0.021 A 
ATOM      3  C   UNL     1      10.879 -60.208 -23.807  1.00  0.00     0.000 A 
ATOM      4  C   UNL     1      10.610 -60.732 -25.189  1.00  0.00     0.068 A 
ATOM      5  C   UNL     1       9.465 -61.685 -25.354  1.00  0.00     0.023 A 
ATOM      6  C   UNL     1       9.085 -62.187 -26.608  1.00  0.00     0.014 A 
ATOM      7  C   UNL     1       8.015 -63.080 -26.712  1.00  0.00     0.021 A 
ATOM      8  C   UNL     1       7.327 -63.475 -25.568  1.00  0.00     0.043 A 
ATOM      9  Cl  UNL     1       6.018 -64.584 -25.700  1.00  0.00    -0.084 Cl
ATOM     10  C   UNL     1       7.692 -62.981 -24.318  1.00  0.00     0.047 A 
ATOM     11  C   UNL     1       8.751 -62.071 -24.203  1.00  0.00     0.049 A 
ATOM     12  C   UNL     1      12.002 -59.199 -23.632  1.00  0.00     0.028 C 
ATOM     13  C   UNL     1      11.519 -57.771 -23.979  1.00  0.00     0.039 C 
ATOM     14  C   UNL     1      10.705 -57.102 -22.876  1.00  0.00    -0.074 C 
ATOM     15  C   UNL     1      10.609 -57.664 -21.654  1.00  0.00    -0.024 C 
ATOM     16  C   UNL     1      11.312 -58.951 -21.271  1.00  0.00     0.018 C 
ATOM     17  C   UNL     1      10.344 -60.149 -21.365  1.00  0.00     0.062 C 
ATOM     18  C   UNL     1      12.511 -59.208 -22.186  1.00  0.00     0.017 C 
ATOM     19  H   UNL     1       8.515 -61.769 -22.155  1.00  0.00     0.166 HD
ENDROOT
BRANCH   4  20
ATOM     20  N   UNL     1      11.368 -60.340 -26.168  1.00  0.00    -0.300 NA
ATOM     21  H   UNL     1      10.890 -59.724 -26.824  1.00  0.00     0.188 HD
ENDBRANCH   4  20
BRANCH  14  22
ATOM     22  C   UNL     1      10.041 -55.806 -23.295  1.00  0.00     0.027 C 
ATOM     23  C   UNL     1      10.950 -54.603 -23.518  1.00  0.00     0.008 C 
ENDBRANCH  14  22
TORSDOF 2
ENDMDL
MODEL 4
REMARK VINA RESULT:    -9.254      4.676      8.695
REMARK INTER + INTRA:         -10.148
REMARK INTER:                 -10.037
REMARK INTRA:                  -0.111
REMARK UNBOUND:                -0.082
REMARK SMILES CCC1=C[C@H]2Cc3[nH]c4cc(Cl)ccc4c(=N)c3[C@@H](C1)C2
REMARK SMILES IDX 8 1 7 2 18 3 16 4 15 5 14 6 13 7 11 8 12 9 10 10 9 11 19 12
REMARK SMILES IDX 20 13 3 14 4 15 5 16 6 17 21 18 17 20 2 22 1 23
REMARK H PARENT 8 19 17 21
ROOT
ATOM      1  N   UNL     1      12.358 -53.078 -24.900  1.00  0.00    -0.358 N 
ATOM      2  C   UNL     1      12.919 -51.820 -24.910  1.00  0.00     0.021 A 
ATOM      3  C   UNL     1      12.744 -50.930 -23.910  1.00  0.00     0.000 A 
ATOM      4  C   UNL     1      11.912 -51.328 -22.725  1.00  0.00     0.068 A 
ATOM      5  C   UNL     1      11.384 -52.730 -22.693  1.00  0.00     0.023 A 
ATOM      6  C   UNL     1      10.650 -53.228 -21.605  1.00  0.00     0.014 A 
ATOM      7  C   UNL     1      10.170 -54.540 -21.623  1.00  0.00     0.021 A 
ATOM      8  C   UNL     1      10.419 -55.354 -22.725  1.00  0.00     0.043 A 
ATOM      9  Cl  UNL     1       9.817 -56.967 -22.748  1.00  0.00    -0.084 Cl
ATOM     10  C   UNL     1      11.150 -54.874 -23.809  1.00  0.00     0.047 A 
ATOM     11  C   UNL     1      11.651 -53.566 -23.794  1.00  0.00     0.049 A 
ATOM     12  C   UNL     1      13.332 -49.528 -23.932  1.00  0.00     0.028 C 
ATOM     13  C   UNL     1      14.641 -49.468 -23.111  1.00  0.00     0.039 C 
ATOM     14  C   UNL     1      15.861 -50.023 -23.838  1.00  0.00    -0.074 C 
ATOM     15  C   UNL     1      15.795 -50.345 -25.146  1.00  0.00    -0.024 C 
ATOM     16  C   UNL     1      14.551 -50.151 -25.990  1.00  0.00     0.018 C 
ATOM     17  C   UNL     1      13.772 -51.476 -26.123  1.00  0.00     0.062 C 
ATOM     18  C   UNL     1      13.634 -49.095 -25.371  1.00  0.00     0.017 C 
ATOM     19  H   UNL     1      12.669 -53.736 -25.604  1.00  0.00     0.166 HD
ENDROOT
BRANCH   4  20
ATOM     20  N   UNL     1      11.693 -50.453 -21.789  1.00  0.00    -0.300 NA
ATOM     21  H   UNL     1      10.720 -50.158 -21.735  1.00  0.00     0.188 HD
ENDBRANCH   4  20
BRANCH  14  22
ATOM     22  C   UNL     1      17.089 -50.176 -22.963  1.00  0.00     0.027 C 
ATOM     23  C   UNL     1      17.222 -51.475 -22.178  1.00  0.00     0.008 C 
ENDBRANCH  14  22
TORSDOF 2
ENDMDL
MODEL 5
REMARK VINA RESULT:    -9.170      2.050      2.557
REMARK INTER + INTRA:         -10.056
REMARK INTER:                  -9.950
REMARK INTRA:                  -0.106
REMARK UNBOUND:                -0.082
REMARK SMILES CCC1=C[C@H]2Cc3[nH]c4cc(Cl)ccc4c(=N)c3[C@@H](C1)C2
REMARK SMILES IDX 8 1 7 2 18 3 16 4 15 5 14 6 13 7 11 8 12 9 10 10 9 11 19 12
REMARK SMILES IDX 20 13 3 14 4 15 5 16 6 17 21 18 17 20 2 22 1 23
REMARK H PARENT 8 19 17 21
ROOT
ATOM      1  N   UNL     1      12.572 -56.567 -25.214  1.00  0.00    -0.358 N 
ATOM      2  C   UNL     1      12.016 -57.570 -24.451  1.00  0.00     0.021 A 
ATOM      3  C   UNL     1      11.385 -57.336 -23.280  1.00  0.00     0.000 A 
ATOM      4  C   UNL     1      11.269 -55.921 -22.790  1.00  0.00     0.068 A 
ATOM      5  C   UNL     1      11.804 -54.838 -23.677  1.00  0.00     0.023 A 
ATOM      6  C   UNL     1      11.692 -53.479 -23.348  1.00  0.00     0.014 A 
ATOM      7  C   UNL     1      12.213 -52.504 -24.204  1.00  0.00     0.021 A 
ATOM      8  C   UNL     1      12.847 -52.884 -25.383  1.00  0.00     0.043 A 
ATOM      9  Cl  UNL     1      13.498 -51.681 -26.428  1.00  0.00    -0.084 Cl
ATOM     10  C   UNL     1      12.961 -54.230 -25.723  1.00  0.00     0.047 A 
ATOM     11  C   UNL     1      12.427 -55.215 -24.883  1.00  0.00     0.049 A 
ATOM     12  C   UNL     1      10.799 -58.441 -22.416  1.00  0.00     0.028 C 
ATOM     13  C   UNL     1       9.277 -58.581 -22.658  1.00  0.00     0.039 C 
ATOM     14  C   UNL     1       8.913 -59.340 -23.929  1.00  0.00    -0.074 C 
ATOM     15  C   UNL     1       9.861 -59.983 -24.642  1.00  0.00    -0.024 C 
ATOM     16  C   UNL     1      11.319 -60.036 -24.233  1.00  0.00     0.018 C 
ATOM     17  C   UNL     1      12.140 -58.982 -25.005  1.00  0.00     0.062 C 
ATOM     18  C   UNL     1      11.471 -59.783 -22.731  1.00  0.00     0.017 C 
ATOM     19  H   UNL     1      12.882 -56.806 -26.149  1.00  0.00     0.166 HD
ENDROOT
BRANCH   4  20
ATOM     20  N   UNL     1      10.715 -55.699 -21.636  1.00  0.00    -0.300 NA
ATOM     21  H   UNL     1      10.509 -56.551 -21.118  1.00  0.00     0.188 HD
ENDBRANCH   4  20
BRANCH  14  22
ATOM     22  C   UNL     1       7.442 -59.282 -24.287  1.00  0.00     0.027 C 
ATOM     23  C   UNL     1       6.497 -58.703 -23.240  1.00  0.00     0.008 C 
ENDBRANCH  14  22
TORSDOF 2
ENDMDL
MODEL 6
REMARK VINA RESULT:    -8.729      3.392      6.071
REMARK INTER + INTRA:          -9.576
REMARK INTER:                  -9.468
REMARK INTRA:                  -0.109
REMARK UNBOUND:                -0.082
REMARK SMILES CCC1=C[C@H]2Cc3[nH]c4cc(Cl)ccc4c(=N)c3[C@@H](C1)C2
REMARK SMILES IDX 8 1 7 2 18 3 16 4 15 5 14 6 13 7 11 8 12 9 10 10 9 11 19 12
REMARK SMILES IDX 20 13 3 14 4 15 5 16 6 17 21 18 17 20 2 22 1 23
REMARK H PARENT 8 19 17 21
ROOT
ATOM      1  N   UNL     1       9.707 -59.722 -26.382  1.00  0.00    -0.358 N 
ATOM      2  C   UNL     1       9.759 -59.611 -25.010  1.00  0.00     0.021 A 
ATOM      3  C   UNL     1      10.907 -59.718 -24.308  1.00  0.00     0.000 A 
ATOM      4  C   UNL     1      12.190 -59.956 -25.052  1.00  0.00     0.068 A 
ATOM      5  C   UNL     1      12.124 -59.986 -26.549  1.00  0.00     0.023 A 
ATOM      6  C   UNL     1      13.269 -60.137 -27.345  1.00  0.00     0.014 A 
ATOM      7  C   UNL     1      13.158 -60.168 -28.738  1.00  0.00     0.021 A 
ATOM      8  C   UNL     1      11.906 -60.051 -29.336  1.00  0.00     0.043 A 
ATOM      9  Cl  UNL     1      11.772 -60.100 -31.051  1.00  0.00    -0.084 Cl
ATOM     10  C   UNL     1      10.762 -59.896 -28.557  1.00  0.00     0.047 A 
ATOM     11  C   UNL     1      10.863 -59.846 -27.161  1.00  0.00     0.049 A 
ATOM     12  C   UNL     1      10.967 -59.630 -22.792  1.00  0.00     0.028 C 
ATOM     13  C   UNL     1      11.383 -58.212 -22.338  1.00  0.00     0.039 C 
ATOM     14  C   UNL     1      10.257 -57.185 -22.383  1.00  0.00    -0.074 C 
ATOM     15  C   UNL     1       8.985 -57.568 -22.615  1.00  0.00    -0.024 C 
ATOM     16  C   UNL     1       8.572 -59.014 -22.808  1.00  0.00     0.018 C 
ATOM     17  C   UNL     1       8.434 -59.346 -24.308  1.00  0.00     0.062 C 
ATOM     18  C   UNL     1       9.599 -59.960 -22.181  1.00  0.00     0.017 C 
ATOM     19  H   UNL     1       8.839 -59.469 -26.840  1.00  0.00     0.166 HD
ENDROOT
BRANCH   4  20
ATOM     20  N   UNL     1      13.288 -60.118 -24.376  1.00  0.00    -0.300 NA
ATOM     21  H   UNL     1      14.042 -60.524 -24.926  1.00  0.00     0.188 HD
ENDBRANCH   4  20
BRANCH  14  22
ATOM     22  C   UNL     1      10.711 -55.756 -22.161  1.00  0.00     0.027 C 
ATOM     23  C   UNL     1      10.796 -54.858 -23.388  1.00  0.00     0.008 C 
ENDBRANCH  14  22
TORSDOF 2
ENDMDL
MODEL 7
REMARK VINA RESULT:    -8.430      1.829      2.444
REMARK INTER + INTRA:          -9.251
REMARK INTER:                  -9.165
REMARK INTRA:                  -0.085
REMARK UNBOUND:                -0.082
REMARK SMILES CCC1=C[C@H]2Cc3[nH]c4cc(Cl)ccc4c(=N)c3[C@@H](C1)C2
REMARK SMILES IDX 8 1 7 2 18 3 16 4 15 5 14 6 13 7 11 8 12 9 10 10 9 11 19 12
REMARK SMILES IDX 20 13 3 14 4 15 5 16 6 17 21 18 17 20 2 22 1 23
REMARK H PARENT 8 19 17 21
ROOT
ATOM      1  N   UNL     1      11.573 -58.120 -23.056  1.00  0.00    -0.358 N 
ATOM      2  C   UNL     1      10.852 -59.293 -23.048  1.00  0.00     0.021 A 
ATOM      3  C   UNL     1       9.503 -59.326 -23.050  1.00  0.00     0.000 A 
ATOM      4  C   UNL     1       8.748 -58.028 -23.076  1.00  0.00     0.068 A 
ATOM      5  C   UNL     1       9.550 -56.765 -23.173  1.00  0.00     0.023 A 
ATOM      6  C   UNL     1       8.948 -55.502 -23.268  1.00  0.00     0.014 A 
ATOM      7  C   UNL     1       9.737 -54.351 -23.348  1.00  0.00     0.021 A 
ATOM      8  C   UNL     1      11.125 -54.460 -23.330  1.00  0.00     0.043 A 
ATOM      9  Cl  UNL     1      12.093 -53.040 -23.418  1.00  0.00    -0.084 Cl
ATOM     10  C   UNL     1      11.735 -55.709 -23.241  1.00  0.00     0.047 A 
ATOM     11  C   UNL     1      10.955 -56.870 -23.178  1.00  0.00     0.049 A 
ATOM     12  C   UNL     1       8.701 -60.617 -23.007  1.00  0.00     0.028 C 
ATOM     13  C   UNL     1       8.235 -61.024 -24.424  1.00  0.00     0.039 C 
ATOM     14  C   UNL     1       9.316 -61.688 -25.271  1.00  0.00    -0.074 C 
ATOM     15  C   UNL     1      10.496 -62.044 -24.725  1.00  0.00    -0.024 C 
ATOM     16  C   UNL     1      10.826 -61.857 -23.257  1.00  0.00     0.018 C 
ATOM     17  C   UNL     1      11.666 -60.580 -23.047  1.00  0.00     0.062 C 
ATOM     18  C   UNL     1       9.547 -61.754 -22.422  1.00  0.00     0.017 C 
ATOM     19  H   UNL     1      12.572 -58.183 -23.217  1.00  0.00     0.166 HD
ENDROOT
BRANCH   4  20
ATOM     20  N   UNL     1       7.450 -58.054 -23.018  1.00  0.00    -0.300 NA
ATOM     21  H   UNL     1       7.094 -58.520 -22.186  1.00  0.00     0.188 HD
ENDBRANCH   4  20
BRANCH  14  22
ATOM     22  C   UNL     1       8.934 -61.878 -26.725  1.00  0.00     0.027 C 
ATOM     23  C   UNL     1       8.108 -63.112 -27.068  1.00  0.00     0.008 C 
ENDBRANCH  14  22
TORSDOF 2
ENDMDL
MODEL 8
REMARK VINA RESULT:    -8.207      5.501     10.289
REMARK INTER + INTRA:          -9.009
REMARK INTER:                  -8.916
REMARK INTRA:                  -0.093
REMARK UNBOUND:                -0.082
REMARK SMILES CCC1=C[C@H]2Cc3[nH]c4cc(Cl)ccc4c(=N)c3[C@@H](C1)C2
REMARK SMILES IDX 8 1 7 2 18 3 16 4 15 5 14 6 13 7 11 8 12 9 10 10 9 11 19 12
REMARK SMILES IDX 20 13 3 14 4 15 5 16 6 17 21 18 17 20 2 22 1 23
REMARK H PARENT 8 19 17 21
ROOT
ATOM      1  N   UNL     1      12.654 -51.215 -24.221  1.00  0.00    -0.358 N 
ATOM      2  C   UNL     1      12.617 -49.843 -24.109  1.00  0.00     0.021 A 
ATOM      3  C   UNL     1      11.722 -49.193 -23.336  1.00  0.00     0.000 A 
ATOM      4  C   UNL     1      10.727 -49.997 -22.548  1.00  0.00     0.068 A 
ATOM      5  C   UNL     1      10.841 -51.491 -22.615  1.00  0.00     0.023 A 
ATOM      6  C   UNL     1      10.006 -52.338 -21.871  1.00  0.00     0.014 A 
ATOM      7  C   UNL     1      10.144 -53.725 -21.972  1.00  0.00     0.021 A 
ATOM      8  C   UNL     1      11.109 -54.267 -22.815  1.00  0.00     0.043 A 
ATOM      9  Cl  UNL     1      11.268 -55.976 -22.945  1.00  0.00    -0.084 Cl
ATOM     10  C   UNL     1      11.948 -53.436 -23.556  1.00  0.00     0.047 A 
ATOM     11  C   UNL     1      11.831 -52.045 -23.450  1.00  0.00     0.049 A 
ATOM     12  C   UNL     1      11.654 -47.678 -23.235  1.00  0.00     0.028 C 
ATOM     13  C   UNL     1      12.390 -47.176 -21.971  1.00  0.00     0.039 C 
ATOM     14  C   UNL     1      13.908 -47.129 -22.109  1.00  0.00    -0.074 C 
ATOM     15  C   UNL     1      14.497 -47.328 -23.305  1.00  0.00    -0.024 C 
ATOM     16  C   UNL     1      13.722 -47.570 -24.585  1.00  0.00     0.018 C 
ATOM     17  C   UNL     1      13.662 -49.077 -24.909  1.00  0.00     0.062 C 
ATOM     18  C   UNL     1      12.296 -47.029 -24.467  1.00  0.00     0.017 C 
ATOM     19  H   UNL     1      13.453 -51.627 -24.689  1.00  0.00     0.166 HD
ENDROOT
BRANCH   4  20
ATOM     20  N   UNL     1       9.827 -49.374 -21.849  1.00  0.00    -0.300 NA
ATOM     21  H   UNL     1       9.050 -49.970 -21.572  1.00  0.00     0.188 HD
ENDBRANCH   4  20
BRANCH  14  22
ATOM     22  C   UNL     1      14.641 -46.860 -20.809  1.00  0.00     0.027 C 
ATOM     23  C   UNL     1      15.958 -47.595 -20.592  1.00  0.00     0.008 C 
ENDBRANCH  14  22
TORSDOF 2
ENDMDL
MODEL 9
REMARK VINA RESULT:    -8.054      1.865      2.878
REMARK INTER + INTRA:          -8.842
REMARK INTER:                  -8.733
REMARK INTRA:                  -0.109
REMARK UNBOUND:                -0.082
REMARK SMILES CCC1=C[C@H]2Cc3[nH]c4cc(Cl)ccc4c(=N)c3[C@@H](C1)C2
REMARK SMILES IDX 8 1 7 2 18 3 16 4 15 5 14 6 13 7 11 8 12 9 10 10 9 11 19 12
REMARK SMILES IDX 20 13 3 14 4 15 5 16 6 17 21 18 17 20 2 22 1 23
REMARK H PARENT 8 19 17 21
ROOT
ATOM      1  N   UNL     1      11.786 -57.712 -22.605  1.00  0.00    -0.358 N 
ATOM      2  C   UNL     1      11.417 -58.852 -23.284  1.00  0.00     0.021 A 
ATOM      3  C   UNL     1      10.176 -59.040 -23.782  1.00  0.00     0.000 A 
ATOM      4  C   UNL     1       9.152 -57.955 -23.603  1.00  0.00     0.068 A 
ATOM      5  C   UNL     1       9.600 -56.688 -22.939  1.00  0.00     0.023 A 
ATOM      6  C   UNL     1       8.745 -55.587 -22.778  1.00  0.00     0.014 A 
ATOM      7  C   UNL     1       9.205 -54.429 -22.145  1.00  0.00     0.021 A 
ATOM      8  C   UNL     1      10.512 -54.369 -21.670  1.00  0.00     0.043 A 
ATOM      9  Cl  UNL     1      11.070 -52.945 -20.881  1.00  0.00    -0.084 Cl
ATOM     10  C   UNL     1      11.372 -55.454 -21.828  1.00  0.00     0.047 A 
ATOM     11  C   UNL     1      10.928 -56.614 -22.477  1.00  0.00     0.049 A 
ATOM     12  C   UNL     1       9.752 -60.310 -24.502  1.00  0.00     0.028 C 
ATOM     13  C   UNL     1       9.820 -60.122 -26.036  1.00  0.00     0.039 C 
ATOM     14  C   UNL     1      11.226 -60.226 -26.617  1.00  0.00    -0.074 C 
ATOM     15  C   UNL     1      12.258 -60.640 -25.853  1.00  0.00    -0.024 C 
ATOM     16  C   UNL     1      12.105 -61.062 -24.405  1.00  0.00     0.018 C 
ATOM     17  C   UNL     1      12.498 -59.909 -23.458  1.00  0.00     0.062 C 
ATOM     18  C   UNL     1      10.663 -61.479 -24.110  1.00  0.00     0.017 C 
ATOM     19  H   UNL     1      12.771 -57.582 -22.407  1.00  0.00     0.166 HD
ENDROOT
BRANCH   4  20
ATOM     20  N   UNL     1       7.942 -58.157 -24.029  1.00  0.00    -0.300 NA
ATOM     21  H   UNL     1       7.853 -58.989 -24.609  1.00  0.00     0.188 HD
ENDBRANCH   4  20
BRANCH  14  22
ATOM     22  C   UNL     1      11.327 -59.819 -28.073  1.00  0.00     0.027 C 
ATOM     23  C   UNL     1      11.957 -58.463 -28.371  1.00  0.00     0.008 C 
ENDBRANCH  14  22
TORSDOF 2
ENDMDL
