MODEL 1
REMARK VINA RESULT:   -12.058      0.000      0.000
REMARK INTER + INTRA:         -17.664
REMARK INTER:                 -16.640
REMARK INTRA:                  -1.025
REMARK UNBOUND:                -1.025
REMARK SMILES O=C1Cc2cc(C(O)=CC[C@H]3CC[N@@H+](Cc4ccccc4)CC3)cc3c2N1CCC3
REMARK SMILES IDX 9 1 7 2 8 3 6 5 24 6 5 7 25 8 4 9 26 10 30 11 3 12 27 13
REMARK SMILES IDX 29 14 2 15 28 16 1 17 10 18 11 19 12 20 23 21 13 22 22 23
REMARK SMILES IDX 14 24 15 26 16 27 17 28 21 29 18 30 20 31 19 32
REMARK H PARENT 8 4 14 25
ROOT
ATOM      1  C   UNL     1      11.187 -55.430 -21.232  1.00  0.00     0.020 C 
ENDROOT
BRANCH   1   2
ATOM      2  C   UNL     1      10.503 -54.418 -21.783  1.00  0.00     0.118 C 
BRANCH   2   3
ATOM      3  O   UNL     1       9.137 -54.304 -21.640  1.00  0.00    -0.508 OA
ATOM      4  H   UNL     1       8.975 -53.604 -20.978  1.00  0.00     0.293 HD
ENDBRANCH   2   3
BRANCH   2   5
ATOM      5  C   UNL     1      11.169 -53.370 -22.571  1.00  0.00     0.017 A 
ATOM      6  C   UNL     1      11.170 -52.028 -22.112  1.00  0.00     0.017 A 
ATOM      7  C   UNL     1      11.817 -53.720 -23.774  1.00  0.00     0.018 A 
ATOM      8  C   UNL     1      11.803 -51.025 -22.849  1.00  0.00    -0.023 A 
ATOM      9  C   UNL     1      12.451 -52.723 -24.489  1.00  0.00    -0.014 A 
ATOM     10  C   UNL     1      12.428 -51.422 -24.013  1.00  0.00     0.051 A 
ATOM     11  C   UNL     1      11.894 -49.584 -22.436  1.00  0.00     0.039 C 
ATOM     12  C   UNL     1      13.229 -52.754 -25.772  1.00  0.00     0.138 C 
ATOM     13  N   UNL     1      13.116 -50.577 -24.870  1.00  0.00    -0.312 N 
ATOM     14  C   UNL     1      12.155 -48.668 -23.648  1.00  0.00     0.027 C 
ATOM     15  C   UNL     1      13.672 -51.283 -25.932  1.00  0.00     0.231 C 
ATOM     16  C   UNL     1      13.303 -49.183 -24.529  1.00  0.00     0.126 C 
ATOM     17  O   UNL     1      14.379 -50.842 -26.822  1.00  0.00    -0.274 OA
ENDBRANCH   2   5
ENDBRANCH   1   2
BRANCH   1  18
ATOM     18  C   UNL     1      11.041 -56.873 -21.619  1.00  0.00     0.035 C 
BRANCH  18  19
ATOM     19  C   UNL     1      10.597 -57.068 -23.085  1.00  0.00     0.004 C 
ATOM     20  C   UNL     1       9.382 -57.998 -23.237  1.00  0.00     0.065 C 
ATOM     21  C   UNL     1      11.752 -57.612 -23.940  1.00  0.00     0.065 C 
ATOM     22  C   UNL     1       9.707 -59.449 -22.909  1.00  0.00     0.262 C 
ATOM     23  C   UNL     1      12.080 -59.071 -23.643  1.00  0.00     0.262 C 
ATOM     24  N   UNL     1      10.842 -59.918 -23.793  1.00  0.00    -0.331 N 
ATOM     25  H   UNL     1      10.517 -59.831 -24.764  1.00  0.00     0.348 HD
BRANCH  24  26
ATOM     26  C   UNL     1      11.158 -61.387 -23.592  1.00  0.00     0.299 C 
BRANCH  26  27
ATOM     27  C   UNL     1       9.948 -62.272 -23.704  1.00  0.00     0.006 A 
ATOM     28  C   UNL     1       9.178 -62.281 -24.878  1.00  0.00     0.009 A 
ATOM     29  C   UNL     1       9.558 -63.088 -22.630  1.00  0.00     0.009 A 
ATOM     30  C   UNL     1       8.040 -63.084 -24.970  1.00  0.00     0.001 A 
ATOM     31  C   UNL     1       8.420 -63.889 -22.727  1.00  0.00     0.001 A 
ATOM     32  C   UNL     1       7.661 -63.885 -23.895  1.00  0.00     0.000 A 
ENDBRANCH  26  27
ENDBRANCH  24  26
ENDBRANCH  18  19
ENDBRANCH   1  18
TORSDOF 7
ENDMDL
MODEL 2
REMARK VINA RESULT:   -11.682      1.295      2.426
REMARK INTER + INTRA:         -17.145
REMARK INTER:                 -16.292
REMARK INTRA:                  -0.853
REMARK UNBOUND:                -1.025
REMARK SMILES O=C1Cc2cc(C(O)=CC[C@H]3CC[N@@H+](Cc4ccccc4)CC3)cc3c2N1CCC3
REMARK SMILES IDX 9 1 7 2 8 3 6 5 24 6 5 7 25 8 4 9 26 10 30 11 3 12 27 13
REMARK SMILES IDX 29 14 2 15 28 16 1 17 10 18 11 19 12 20 23 21 13 22 22 23
REMARK SMILES IDX 14 24 15 26 16 27 17 28 21 29 18 30 20 31 19 32
REMARK H PARENT 8 4 14 25
ROOT
ATOM      1  C   UNL     1      10.537 -55.242 -23.242  1.00  0.00     0.020 C 
ENDROOT
BRANCH   1   2
ATOM      2  C   UNL     1      10.656 -54.111 -22.533  1.00  0.00     0.118 C 
BRANCH   2   3
ATOM      3  O   UNL     1      10.132 -53.994 -21.264  1.00  0.00    -0.508 OA
ATOM      4  H   UNL     1       9.161 -54.065 -21.347  1.00  0.00     0.293 HD
ENDBRANCH   2   3
BRANCH   2   5
ATOM      5  C   UNL     1      11.353 -52.932 -23.066  1.00  0.00     0.017 A 
ATOM      6  C   UNL     1      12.132 -53.039 -24.247  1.00  0.00     0.017 A 
ATOM      7  C   UNL     1      11.224 -51.695 -22.399  1.00  0.00     0.018 A 
ATOM      8  C   UNL     1      12.795 -51.925 -24.765  1.00  0.00    -0.023 A 
ATOM      9  C   UNL     1      11.872 -50.597 -22.928  1.00  0.00    -0.014 A 
ATOM     10  C   UNL     1      12.629 -50.739 -24.080  1.00  0.00     0.051 A 
ATOM     11  C   UNL     1      13.614 -51.922 -26.024  1.00  0.00     0.039 C 
ATOM     12  C   UNL     1      11.931 -49.163 -22.487  1.00  0.00     0.138 C 
ATOM     13  N   UNL     1      13.196 -49.528 -24.444  1.00  0.00    -0.312 N 
ATOM     14  C   UNL     1      14.616 -50.752 -26.040  1.00  0.00     0.027 C 
ATOM     15  C   UNL     1      12.805 -48.510 -23.580  1.00  0.00     0.231 C 
ATOM     16  C   UNL     1      13.955 -49.416 -25.671  1.00  0.00     0.126 C 
ATOM     17  O   UNL     1      13.084 -47.326 -23.660  1.00  0.00    -0.274 OA
ENDBRANCH   2   5
ENDBRANCH   1   2
BRANCH   1  18
ATOM     18  C   UNL     1      11.369 -56.474 -23.037  1.00  0.00     0.035 C 
BRANCH  18  19
ATOM     19  C   UNL     1      10.719 -57.495 -22.079  1.00  0.00     0.004 C 
ATOM     20  C   UNL     1      11.661 -58.642 -21.677  1.00  0.00     0.065 C 
ATOM     21  C   UNL     1       9.444 -58.090 -22.696  1.00  0.00     0.065 C 
ATOM     22  C   UNL     1      11.966 -59.585 -22.833  1.00  0.00     0.262 C 
ATOM     23  C   UNL     1       9.727 -59.055 -23.841  1.00  0.00     0.262 C 
ATOM     24  N   UNL     1      10.669 -60.138 -23.381  1.00  0.00    -0.331 N 
ATOM     25  H   UNL     1      10.213 -60.644 -22.612  1.00  0.00     0.348 HD
BRANCH  24  26
ATOM     26  C   UNL     1      10.897 -61.163 -24.474  1.00  0.00     0.299 C 
BRANCH  26  27
ATOM     27  C   UNL     1       9.694 -62.027 -24.735  1.00  0.00     0.006 A 
ATOM     28  C   UNL     1       9.117 -62.077 -26.015  1.00  0.00     0.009 A 
ATOM     29  C   UNL     1       9.118 -62.781 -23.701  1.00  0.00     0.009 A 
ATOM     30  C   UNL     1       7.985 -62.859 -26.248  1.00  0.00     0.001 A 
ATOM     31  C   UNL     1       7.986 -63.561 -23.940  1.00  0.00     0.001 A 
ATOM     32  C   UNL     1       7.419 -63.597 -25.211  1.00  0.00     0.000 A 
ENDBRANCH  26  27
ENDBRANCH  24  26
ENDBRANCH  18  19
ENDBRANCH   1  18
TORSDOF 7
ENDMDL
MODEL 3
REMARK VINA RESULT:   -11.468      1.730      2.845
REMARK INTER + INTRA:         -16.850
REMARK INTER:                 -16.208
REMARK INTRA:                  -0.642
REMARK UNBOUND:                -1.025
REMARK SMILES O=C1Cc2cc(C(O)=CC[C@H]3CC[N@@H+](Cc4ccccc4)CC3)cc3c2N1CCC3
REMARK SMILES IDX 9 1 7 2 8 3 6 5 24 6 5 7 25 8 4 9 26 10 30 11 3 12 27 13
REMARK SMILES IDX 29 14 2 15 28 16 1 17 10 18 11 19 12 20 23 21 13 22 22 23
REMARK SMILES IDX 14 24 15 26 16 27 17 28 21 29 18 30 20 31 19 32
REMARK H PARENT 8 4 14 25
ROOT
ATOM      1  C   UNL     1      11.335 -55.347 -23.662  1.00  0.00     0.020 C 
ENDROOT
BRANCH   1   2
ATOM      2  C   UNL     1      11.892 -54.627 -24.645  1.00  0.00     0.118 C 
BRANCH   2   3
ATOM      3  O   UNL     1      12.189 -55.182 -25.871  1.00  0.00    -0.508 OA
ATOM      4  H   UNL     1      11.772 -56.065 -25.894  1.00  0.00     0.293 HD
ENDBRANCH   2   3
BRANCH   2   5
ATOM      5  C   UNL     1      12.220 -53.204 -24.474  1.00  0.00     0.017 A 
ATOM      6  C   UNL     1      12.984 -52.527 -25.458  1.00  0.00     0.017 A 
ATOM      7  C   UNL     1      11.751 -52.522 -23.331  1.00  0.00     0.018 A 
ATOM      8  C   UNL     1      13.298 -51.174 -25.308  1.00  0.00    -0.023 A 
ATOM      9  C   UNL     1      12.054 -51.181 -23.200  1.00  0.00    -0.014 A 
ATOM     10  C   UNL     1      12.808 -50.552 -24.178  1.00  0.00     0.051 A 
ATOM     11  C   UNL     1      14.068 -50.357 -26.304  1.00  0.00     0.039 C 
ATOM     12  C   UNL     1      11.708 -50.177 -22.139  1.00  0.00     0.138 C 
ATOM     13  N   UNL     1      13.003 -49.218 -23.861  1.00  0.00    -0.312 N 
ATOM     14  C   UNL     1      14.696 -49.113 -25.645  1.00  0.00     0.027 C 
ATOM     15  C   UNL     1      12.348 -48.881 -22.681  1.00  0.00     0.231 C 
ATOM     16  C   UNL     1      13.686 -48.339 -24.785  1.00  0.00     0.126 C 
ATOM     17  O   UNL     1      12.278 -47.779 -22.165  1.00  0.00    -0.274 OA
ENDBRANCH   2   5
ENDBRANCH   1   2
BRANCH   1  18
ATOM     18  C   UNL     1      11.684 -56.770 -23.338  1.00  0.00     0.035 C 
BRANCH  18  19
ATOM     19  C   UNL     1      10.675 -57.441 -22.382  1.00  0.00     0.004 C 
ATOM     20  C   UNL     1      11.292 -58.563 -21.531  1.00  0.00     0.065 C 
ATOM     21  C   UNL     1       9.476 -58.008 -23.159  1.00  0.00     0.065 C 
ATOM     22  C   UNL     1      11.666 -59.788 -22.354  1.00  0.00     0.262 C 
ATOM     23  C   UNL     1       9.824 -59.248 -23.974  1.00  0.00     0.262 C 
ATOM     24  N   UNL     1      10.440 -60.295 -23.081  1.00  0.00    -0.331 N 
ATOM     25  H   UNL     1       9.749 -60.540 -22.361  1.00  0.00     0.348 HD
BRANCH  24  26
ATOM     26  C   UNL     1      10.713 -61.574 -23.847  1.00  0.00     0.299 C 
BRANCH  26  27
ATOM     27  C   UNL     1       9.477 -62.397 -24.083  1.00  0.00     0.006 A 
ATOM     28  C   UNL     1       8.978 -63.239 -23.076  1.00  0.00     0.009 A 
ATOM     29  C   UNL     1       8.814 -62.351 -25.319  1.00  0.00     0.009 A 
ATOM     30  C   UNL     1       7.846 -64.021 -23.307  1.00  0.00     0.001 A 
ATOM     31  C   UNL     1       7.682 -63.136 -25.545  1.00  0.00     0.001 A 
ATOM     32  C   UNL     1       7.201 -63.971 -24.540  1.00  0.00     0.000 A 
ENDBRANCH  26  27
ENDBRANCH  24  26
ENDBRANCH  18  19
ENDBRANCH   1  18
TORSDOF 7
ENDMDL
MODEL 4
REMARK VINA RESULT:   -11.297      1.535      2.193
REMARK INTER + INTRA:         -16.615
REMARK INTER:                 -15.955
REMARK INTRA:                  -0.660
REMARK UNBOUND:                -1.025
REMARK SMILES O=C1Cc2cc(C(O)=CC[C@H]3CC[N@@H+](Cc4ccccc4)CC3)cc3c2N1CCC3
REMARK SMILES IDX 9 1 7 2 8 3 6 5 24 6 5 7 25 8 4 9 26 10 30 11 3 12 27 13
REMARK SMILES IDX 29 14 2 15 28 16 1 17 10 18 11 19 12 20 23 21 13 22 22 23
REMARK SMILES IDX 14 24 15 26 16 27 17 28 21 29 18 30 20 31 19 32
REMARK H PARENT 8 4 14 25
ROOT
ATOM      1  C   UNL     1      11.379 -55.279 -23.634  1.00  0.00     0.020 C 
ENDROOT
BRANCH   1   2
ATOM      2  C   UNL     1      11.900 -54.591 -24.660  1.00  0.00     0.118 C 
BRANCH   2   3
ATOM      3  O   UNL     1      12.152 -55.186 -25.877  1.00  0.00    -0.508 OA
ATOM      4  H   UNL     1      11.736 -56.069 -25.856  1.00  0.00     0.293 HD
ENDBRANCH   2   3
BRANCH   2   5
ATOM      5  C   UNL     1      12.230 -53.162 -24.547  1.00  0.00     0.017 A 
ATOM      6  C   UNL     1      11.757 -52.408 -23.444  1.00  0.00     0.017 A 
ATOM      7  C   UNL     1      13.034 -52.561 -25.539  1.00  0.00     0.018 A 
ATOM      8  C   UNL     1      12.067 -51.052 -23.324  1.00  0.00    -0.023 A 
ATOM      9  C   UNL     1      13.347 -51.223 -25.404  1.00  0.00    -0.014 A 
ATOM     10  C   UNL     1      12.863 -50.515 -24.315  1.00  0.00     0.051 A 
ATOM     11  C   UNL     1      11.648 -50.173 -22.181  1.00  0.00     0.039 C 
ATOM     12  C   UNL     1      14.173 -50.299 -26.251  1.00  0.00     0.138 C 
ATOM     13  N   UNL     1      13.286 -49.196 -24.365  1.00  0.00    -0.312 N 
ATOM     14  C   UNL     1      11.669 -48.684 -22.580  1.00  0.00     0.027 C 
ATOM     15  C   UNL     1      14.112 -48.974 -25.461  1.00  0.00     0.231 C 
ATOM     16  C   UNL     1      12.977 -48.289 -23.281  1.00  0.00     0.126 C 
ATOM     17  O   UNL     1      14.688 -47.940 -25.753  1.00  0.00    -0.274 OA
ENDBRANCH   2   5
ENDBRANCH   1   2
BRANCH   1  18
ATOM     18  C   UNL     1      11.693 -56.711 -23.316  1.00  0.00     0.035 C 
BRANCH  18  19
ATOM     19  C   UNL     1      10.637 -57.378 -22.409  1.00  0.00     0.004 C 
ATOM     20  C   UNL     1      11.207 -58.503 -21.531  1.00  0.00     0.065 C 
ATOM     21  C   UNL     1       9.474 -57.938 -23.243  1.00  0.00     0.065 C 
ATOM     22  C   UNL     1      11.615 -59.730 -22.336  1.00  0.00     0.262 C 
ATOM     23  C   UNL     1       9.854 -59.180 -24.041  1.00  0.00     0.262 C 
ATOM     24  N   UNL     1      10.422 -60.230 -23.121  1.00  0.00    -0.331 N 
ATOM     25  H   UNL     1       9.696 -60.472 -22.435  1.00  0.00     0.348 HD
BRANCH  24  26
ATOM     26  C   UNL     1      10.725 -61.510 -23.874  1.00  0.00     0.299 C 
BRANCH  26  27
ATOM     27  C   UNL     1       9.504 -62.352 -24.125  1.00  0.00     0.006 A 
ATOM     28  C   UNL     1       8.979 -63.165 -23.107  1.00  0.00     0.009 A 
ATOM     29  C   UNL     1       8.883 -62.352 -25.383  1.00  0.00     0.009 A 
ATOM     30  C   UNL     1       7.861 -63.965 -23.350  1.00  0.00     0.001 A 
ATOM     31  C   UNL     1       7.766 -63.155 -25.620  1.00  0.00     0.001 A 
ATOM     32  C   UNL     1       7.258 -63.961 -24.606  1.00  0.00     0.000 A 
ENDBRANCH  26  27
ENDBRANCH  24  26
ENDBRANCH  18  19
ENDBRANCH   1  18
TORSDOF 7
ENDMDL
MODEL 5
REMARK VINA RESULT:   -11.297      3.130      9.439
REMARK INTER + INTRA:         -16.614
REMARK INTER:                 -16.246
REMARK INTRA:                  -0.368
REMARK UNBOUND:                -1.025
REMARK SMILES O=C1Cc2cc(C(O)=CC[C@H]3CC[N@@H+](Cc4ccccc4)CC3)cc3c2N1CCC3
REMARK SMILES IDX 9 1 7 2 8 3 6 5 24 6 5 7 25 8 4 9 26 10 30 11 3 12 27 13
REMARK SMILES IDX 29 14 2 15 28 16 1 17 10 18 11 19 12 20 23 21 13 22 22 23
REMARK SMILES IDX 14 24 15 26 16 27 17 28 21 29 18 30 20 31 19 32
REMARK H PARENT 8 4 14 25
ROOT
ATOM      1  C   UNL     1      10.047 -60.772 -21.494  1.00  0.00     0.020 C 
ENDROOT
BRANCH   1   2
ATOM      2  C   UNL     1       9.847 -61.854 -22.259  1.00  0.00     0.118 C 
BRANCH   2   3
ATOM      3  O   UNL     1       9.655 -63.104 -21.710  1.00  0.00    -0.508 OA
ATOM      4  H   UNL     1       9.053 -63.590 -22.306  1.00  0.00     0.293 HD
ENDBRANCH   2   3
BRANCH   2   5
ATOM      5  C   UNL     1       9.819 -61.772 -23.727  1.00  0.00     0.017 A 
ATOM      6  C   UNL     1       8.855 -62.508 -24.462  1.00  0.00     0.017 A 
ATOM      7  C   UNL     1      10.749 -60.942 -24.388  1.00  0.00     0.018 A 
ATOM      8  C   UNL     1       8.817 -62.435 -25.856  1.00  0.00    -0.023 A 
ATOM      9  C   UNL     1      10.693 -60.866 -25.765  1.00  0.00    -0.014 A 
ATOM     10  C   UNL     1       9.742 -61.603 -26.452  1.00  0.00     0.051 A 
ATOM     11  C   UNL     1       7.818 -63.143 -26.725  1.00  0.00     0.039 C 
ATOM     12  C   UNL     1      11.507 -60.086 -26.757  1.00  0.00     0.138 C 
ATOM     13  N   UNL     1       9.853 -61.391 -27.817  1.00  0.00    -0.312 N 
ATOM     14  C   UNL     1       8.340 -63.302 -28.167  1.00  0.00     0.027 C 
ATOM     15  C   UNL     1      10.851 -60.465 -28.102  1.00  0.00     0.231 C 
ATOM     16  C   UNL     1       8.901 -61.988 -28.729  1.00  0.00     0.126 C 
ATOM     17  O   UNL     1      11.157 -60.023 -29.196  1.00  0.00    -0.274 OA
ENDBRANCH   2   5
ENDBRANCH   1   2
BRANCH   1  18
ATOM     18  C   UNL     1      10.072 -59.359 -21.998  1.00  0.00     0.035 C 
BRANCH  18  19
ATOM     19  C   UNL     1      11.453 -58.685 -21.850  1.00  0.00     0.004 C 
ATOM     20  C   UNL     1      11.413 -57.381 -21.037  1.00  0.00     0.065 C 
ATOM     21  C   UNL     1      12.071 -58.395 -23.227  1.00  0.00     0.065 C 
ATOM     22  C   UNL     1      10.693 -56.255 -21.767  1.00  0.00     0.262 C 
ATOM     23  C   UNL     1      11.379 -57.256 -23.966  1.00  0.00     0.262 C 
ATOM     24  N   UNL     1      11.361 -56.019 -23.104  1.00  0.00    -0.331 N 
ATOM     25  H   UNL     1      12.335 -55.759 -22.907  1.00  0.00     0.348 HD
BRANCH  24  26
ATOM     26  C   UNL     1      10.759 -54.844 -23.849  1.00  0.00     0.299 C 
BRANCH  26  27
ATOM     27  C   UNL     1      11.777 -53.809 -24.241  1.00  0.00     0.006 A 
ATOM     28  C   UNL     1      11.921 -52.631 -23.490  1.00  0.00     0.009 A 
ATOM     29  C   UNL     1      12.584 -53.995 -25.374  1.00  0.00     0.009 A 
ATOM     30  C   UNL     1      12.848 -51.661 -23.871  1.00  0.00     0.001 A 
ATOM     31  C   UNL     1      13.509 -53.021 -25.750  1.00  0.00     0.001 A 
ATOM     32  C   UNL     1      13.639 -51.854 -25.001  1.00  0.00     0.000 A 
ENDBRANCH  26  27
ENDBRANCH  24  26
ENDBRANCH  18  19
ENDBRANCH   1  18
TORSDOF 7
ENDMDL
MODEL 6
REMARK VINA RESULT:   -11.297      1.781      3.065
REMARK INTER + INTRA:         -16.614
REMARK INTER:                 -15.830
REMARK INTRA:                  -0.784
REMARK UNBOUND:                -1.025
REMARK SMILES O=C1Cc2cc(C(O)=CC[C@H]3CC[N@@H+](Cc4ccccc4)CC3)cc3c2N1CCC3
REMARK SMILES IDX 9 1 7 2 8 3 6 5 24 6 5 7 25 8 4 9 26 10 30 11 3 12 27 13
REMARK SMILES IDX 29 14 2 15 28 16 1 17 10 18 11 19 12 20 23 21 13 22 22 23
REMARK SMILES IDX 14 24 15 26 16 27 17 28 21 29 18 30 20 31 19 32
REMARK H PARENT 8 4 14 25
ROOT
ATOM      1  C   UNL     1      10.910 -56.534 -22.079  1.00  0.00     0.020 C 
ENDROOT
BRANCH   1   2
ATOM      2  C   UNL     1      10.358 -55.622 -22.892  1.00  0.00     0.118 C 
BRANCH   2   3
ATOM      3  O   UNL     1       9.141 -55.838 -23.502  1.00  0.00    -0.508 OA
ATOM      4  H   UNL     1       8.546 -56.218 -22.827  1.00  0.00     0.293 HD
ENDBRANCH   2   3
BRANCH   2   5
ATOM      5  C   UNL     1      11.017 -54.339 -23.180  1.00  0.00     0.017 A 
ATOM      6  C   UNL     1      11.820 -54.197 -24.340  1.00  0.00     0.017 A 
ATOM      7  C   UNL     1      10.827 -53.254 -22.298  1.00  0.00     0.018 A 
ATOM      8  C   UNL     1      12.447 -52.982 -24.626  1.00  0.00    -0.023 A 
ATOM      9  C   UNL     1      11.440 -52.054 -22.597  1.00  0.00    -0.014 A 
ATOM     10  C   UNL     1      12.222 -51.952 -23.737  1.00  0.00     0.051 A 
ATOM     11  C   UNL     1      13.286 -52.715 -25.842  1.00  0.00     0.039 C 
ATOM     12  C   UNL     1      11.435 -50.727 -21.896  1.00  0.00     0.138 C 
ATOM     13  N   UNL     1      12.746 -50.675 -23.855  1.00  0.00    -0.312 N 
ATOM     14  C   UNL     1      14.242 -51.527 -25.616  1.00  0.00     0.027 C 
ATOM     15  C   UNL     1      12.301 -49.851 -22.827  1.00  0.00     0.231 C 
ATOM     16  C   UNL     1      13.522 -50.308 -25.021  1.00  0.00     0.126 C 
ATOM     17  O   UNL     1      12.534 -48.663 -22.679  1.00  0.00    -0.274 OA
ENDBRANCH   2   5
ENDBRANCH   1   2
BRANCH   1  18
ATOM     18  C   UNL     1      11.659 -57.750 -22.540  1.00  0.00     0.035 C 
BRANCH  18  19
ATOM     19  C   UNL     1      10.914 -59.069 -22.248  1.00  0.00     0.004 C 
ATOM     20  C   UNL     1      11.642 -60.314 -22.782  1.00  0.00     0.065 C 
ATOM     21  C   UNL     1       9.492 -59.036 -22.830  1.00  0.00     0.065 C 
ATOM     22  C   UNL     1      11.640 -60.389 -24.303  1.00  0.00     0.262 C 
ATOM     23  C   UNL     1       9.466 -59.132 -24.351  1.00  0.00     0.262 C 
ATOM     24  N   UNL     1      10.212 -60.362 -24.802  1.00  0.00    -0.331 N 
ATOM     25  H   UNL     1       9.741 -61.181 -24.399  1.00  0.00     0.348 HD
BRANCH  24  26
ATOM     26  C   UNL     1      10.125 -60.532 -26.306  1.00  0.00     0.299 C 
BRANCH  26  27
ATOM     27  C   UNL     1       9.242 -61.676 -26.721  1.00  0.00     0.006 A 
ATOM     28  C   UNL     1       8.436 -62.333 -25.777  1.00  0.00     0.009 A 
ATOM     29  C   UNL     1       9.224 -62.117 -28.053  1.00  0.00     0.009 A 
ATOM     30  C   UNL     1       7.637 -63.411 -26.159  1.00  0.00     0.001 A 
ATOM     31  C   UNL     1       8.423 -63.196 -28.430  1.00  0.00     0.001 A 
ATOM     32  C   UNL     1       7.633 -63.843 -27.484  1.00  0.00     0.000 A 
ENDBRANCH  26  27
ENDBRANCH  24  26
ENDBRANCH  18  19
ENDBRANCH   1  18
TORSDOF 7
ENDMDL
MODEL 7
REMARK VINA RESULT:   -10.953      2.988     10.113
REMARK INTER + INTRA:         -16.140
REMARK INTER:                 -15.601
REMARK INTRA:                  -0.538
REMARK UNBOUND:                -1.025
REMARK SMILES O=C1Cc2cc(C(O)=CC[C@H]3CC[N@@H+](Cc4ccccc4)CC3)cc3c2N1CCC3
REMARK SMILES IDX 9 1 7 2 8 3 6 5 24 6 5 7 25 8 4 9 26 10 30 11 3 12 27 13
REMARK SMILES IDX 29 14 2 15 28 16 1 17 10 18 11 19 12 20 23 21 13 22 22 23
REMARK SMILES IDX 14 24 15 26 16 27 17 28 21 29 18 30 20 31 19 32
REMARK H PARENT 8 4 14 25
ROOT
ATOM      1  C   UNL     1      12.537 -58.936 -24.365  1.00  0.00     0.020 C 
ENDROOT
BRANCH   1   2
ATOM      2  C   UNL     1      12.138 -59.779 -25.328  1.00  0.00     0.118 C 
BRANCH   2   3
ATOM      3  O   UNL     1      12.715 -59.776 -26.579  1.00  0.00    -0.508 OA
ATOM      4  H   UNL     1      12.795 -58.842 -26.855  1.00  0.00     0.293 HD
ENDBRANCH   2   3
BRANCH   2   5
ATOM      5  C   UNL     1      11.062 -60.757 -25.104  1.00  0.00     0.017 A 
ATOM      6  C   UNL     1      10.843 -61.289 -23.808  1.00  0.00     0.017 A 
ATOM      7  C   UNL     1      10.246 -61.143 -26.189  1.00  0.00     0.018 A 
ATOM      8  C   UNL     1       9.823 -62.215 -23.583  1.00  0.00    -0.023 A 
ATOM      9  C   UNL     1       9.231 -62.049 -25.953  1.00  0.00    -0.014 A 
ATOM     10  C   UNL     1       9.049 -62.553 -24.675  1.00  0.00     0.051 A 
ATOM     11  C   UNL     1       9.484 -62.812 -22.247  1.00  0.00     0.039 C 
ATOM     12  C   UNL     1       8.195 -62.647 -26.859  1.00  0.00     0.138 C 
ATOM     13  N   UNL     1       7.987 -63.442 -24.648  1.00  0.00    -0.312 N 
ATOM     14  C   UNL     1       8.717 -64.140 -22.402  1.00  0.00     0.027 C 
ATOM     15  C   UNL     1       7.379 -63.537 -25.895  1.00  0.00     0.231 C 
ATOM     16  C   UNL     1       7.552 -64.025 -23.397  1.00  0.00     0.126 C 
ATOM     17  O   UNL     1       6.390 -64.187 -26.187  1.00  0.00    -0.274 OA
ENDBRANCH   2   5
ENDBRANCH   1   2
BRANCH   1  18
ATOM     18  C   UNL     1      11.853 -57.647 -24.017  1.00  0.00     0.035 C 
BRANCH  18  19
ATOM     19  C   UNL     1      10.825 -57.793 -22.875  1.00  0.00     0.004 C 
ATOM     20  C   UNL     1       9.429 -57.261 -23.236  1.00  0.00     0.065 C 
ATOM     21  C   UNL     1      11.315 -57.083 -21.603  1.00  0.00     0.065 C 
ATOM     22  C   UNL     1       9.394 -55.745 -23.373  1.00  0.00     0.262 C 
ATOM     23  C   UNL     1      11.269 -55.563 -21.711  1.00  0.00     0.262 C 
ATOM     24  N   UNL     1       9.879 -55.116 -22.085  1.00  0.00    -0.331 N 
ATOM     25  H   UNL     1       9.238 -55.427 -21.344  1.00  0.00     0.348 HD
BRANCH  24  26
ATOM     26  C   UNL     1       9.780 -53.604 -22.111  1.00  0.00     0.299 C 
BRANCH  26  27
ATOM     27  C   UNL     1      10.917 -52.950 -22.846  1.00  0.00     0.006 A 
ATOM     28  C   UNL     1      11.494 -53.573 -23.965  1.00  0.00     0.009 A 
ATOM     29  C   UNL     1      11.433 -51.718 -22.414  1.00  0.00     0.009 A 
ATOM     30  C   UNL     1      12.566 -52.976 -24.630  1.00  0.00     0.001 A 
ATOM     31  C   UNL     1      12.506 -51.127 -23.083  1.00  0.00     0.001 A 
ATOM     32  C   UNL     1      13.072 -51.757 -24.187  1.00  0.00     0.000 A 
ENDBRANCH  26  27
ENDBRANCH  24  26
ENDBRANCH  18  19
ENDBRANCH   1  18
TORSDOF 7
ENDMDL
MODEL 8
REMARK VINA RESULT:   -10.899      2.873     10.587
REMARK INTER + INTRA:         -16.065
REMARK INTER:                 -15.288
REMARK INTRA:                  -0.777
REMARK UNBOUND:                -1.025
REMARK SMILES O=C1Cc2cc(C(O)=CC[C@H]3CC[N@@H+](Cc4ccccc4)CC3)cc3c2N1CCC3
REMARK SMILES IDX 9 1 7 2 8 3 6 5 24 6 5 7 25 8 4 9 26 10 30 11 3 12 27 13
REMARK SMILES IDX 29 14 2 15 28 16 1 17 10 18 11 19 12 20 23 21 13 22 22 23
REMARK SMILES IDX 14 24 15 26 16 27 17 28 21 29 18 30 20 31 19 32
REMARK H PARENT 8 4 14 25
ROOT
ATOM      1  C   UNL     1      10.883 -57.880 -22.713  1.00  0.00     0.020 C 
ENDROOT
BRANCH   1   2
ATOM      2  C   UNL     1      11.296 -58.597 -23.767  1.00  0.00     0.118 C 
BRANCH   2   3
ATOM      3  O   UNL     1      12.502 -58.348 -24.386  1.00  0.00    -0.508 OA
ATOM      4  H   UNL     1      12.484 -58.809 -25.246  1.00  0.00     0.293 HD
ENDBRANCH   2   3
BRANCH   2   5
ATOM      5  C   UNL     1      10.488 -59.692 -24.324  1.00  0.00     0.017 A 
ATOM      6  C   UNL     1       9.657 -60.467 -23.475  1.00  0.00     0.017 A 
ATOM      7  C   UNL     1      10.539 -59.949 -25.711  1.00  0.00     0.018 A 
ATOM      8  C   UNL     1       8.882 -61.506 -23.993  1.00  0.00    -0.023 A 
ATOM      9  C   UNL     1       9.758 -60.970 -26.215  1.00  0.00    -0.014 A 
ATOM     10  C   UNL     1       8.962 -61.710 -25.355  1.00  0.00     0.051 A 
ATOM     11  C   UNL     1       7.945 -62.361 -23.189  1.00  0.00     0.039 C 
ATOM     12  C   UNL     1       9.568 -61.487 -27.611  1.00  0.00     0.138 C 
ATOM     13  N   UNL     1       8.262 -62.682 -26.053  1.00  0.00    -0.312 N 
ATOM     14  C   UNL     1       7.664 -63.703 -23.894  1.00  0.00     0.027 C 
ATOM     15  C   UNL     1       8.521 -62.605 -27.417  1.00  0.00     0.231 C 
ATOM     16  C   UNL     1       7.296 -63.517 -25.373  1.00  0.00     0.126 C 
ATOM     17  O   UNL     1       8.022 -63.279 -28.302  1.00  0.00    -0.274 OA
ENDBRANCH   2   5
ENDBRANCH   1   2
BRANCH   1  18
ATOM     18  C   UNL     1      11.265 -56.454 -22.445  1.00  0.00     0.035 C 
BRANCH  18  19
ATOM     19  C   UNL     1      10.198 -55.441 -22.911  1.00  0.00     0.004 C 
ATOM     20  C   UNL     1      10.607 -54.657 -24.169  1.00  0.00     0.065 C 
ATOM     21  C   UNL     1       9.863 -54.444 -21.790  1.00  0.00     0.065 C 
ATOM     22  C   UNL     1      11.744 -53.678 -23.909  1.00  0.00     0.262 C 
ATOM     23  C   UNL     1      10.980 -53.440 -21.528  1.00  0.00     0.262 C 
ATOM     24  N   UNL     1      11.340 -52.725 -22.805  1.00  0.00    -0.331 N 
ATOM     25  H   UNL     1      10.503 -52.229 -23.134  1.00  0.00     0.348 HD
BRANCH  24  26
ATOM     26  C   UNL     1      12.386 -51.657 -22.556  1.00  0.00     0.299 C 
BRANCH  26  27
ATOM     27  C   UNL     1      11.908 -50.272 -22.894  1.00  0.00     0.006 A 
ATOM     28  C   UNL     1      10.686 -49.797 -22.390  1.00  0.00     0.009 A 
ATOM     29  C   UNL     1      12.666 -49.440 -23.733  1.00  0.00     0.009 A 
ATOM     30  C   UNL     1      10.232 -48.521 -22.726  1.00  0.00     0.001 A 
ATOM     31  C   UNL     1      12.206 -48.165 -24.067  1.00  0.00     0.001 A 
ATOM     32  C   UNL     1      10.991 -47.708 -23.565  1.00  0.00     0.000 A 
ENDBRANCH  26  27
ENDBRANCH  24  26
ENDBRANCH  18  19
ENDBRANCH   1  18
TORSDOF 7
ENDMDL
MODEL 9
REMARK VINA RESULT:   -10.682      2.356     10.867
REMARK INTER + INTRA:         -15.766
REMARK INTER:                 -15.699
REMARK INTRA:                  -0.066
REMARK UNBOUND:                -1.025
REMARK SMILES O=C1Cc2cc(C(O)=CC[C@H]3CC[N@@H+](Cc4ccccc4)CC3)cc3c2N1CCC3
REMARK SMILES IDX 9 1 7 2 8 3 6 5 24 6 5 7 25 8 4 9 26 10 30 11 3 12 27 13
REMARK SMILES IDX 29 14 2 15 28 16 1 17 10 18 11 19 12 20 23 21 13 22 22 23
REMARK SMILES IDX 14 24 15 26 16 27 17 28 21 29 18 30 20 31 19 32
REMARK H PARENT 8 4 14 25
ROOT
ATOM      1  C   UNL     1      10.889 -55.337 -21.673  1.00  0.00     0.020 C 
ENDROOT
BRANCH   1   2
ATOM      2  C   UNL     1      11.030 -56.031 -22.811  1.00  0.00     0.118 C 
BRANCH   2   3
ATOM      3  O   UNL     1      11.797 -55.561 -23.856  1.00  0.00    -0.508 OA
ATOM      4  H   UNL     1      12.438 -54.928 -23.479  1.00  0.00     0.293 HD
ENDBRANCH   2   3
BRANCH   2   5
ATOM      5  C   UNL     1      10.378 -57.334 -23.011  1.00  0.00     0.017 A 
ATOM      6  C   UNL     1      11.145 -58.526 -22.973  1.00  0.00     0.017 A 
ATOM      7  C   UNL     1       8.984 -57.380 -23.224  1.00  0.00     0.018 A 
ATOM      8  C   UNL     1      10.536 -59.769 -23.157  1.00  0.00    -0.023 A 
ATOM      9  C   UNL     1       8.390 -58.615 -23.391  1.00  0.00    -0.014 A 
ATOM     10  C   UNL     1       9.171 -59.760 -23.353  1.00  0.00     0.051 A 
ATOM     11  C   UNL     1      11.248 -61.090 -23.100  1.00  0.00     0.039 C 
ATOM     12  C   UNL     1       6.961 -59.014 -23.618  1.00  0.00     0.138 C 
ATOM     13  N   UNL     1       8.390 -60.889 -23.542  1.00  0.00    -0.312 N 
ATOM     14  C   UNL     1      10.461 -62.185 -23.847  1.00  0.00     0.027 C 
ATOM     15  C   UNL     1       7.046 -60.556 -23.667  1.00  0.00     0.231 C 
ATOM     16  C   UNL     1       8.978 -62.208 -23.450  1.00  0.00     0.126 C 
ATOM     17  O   UNL     1       6.104 -61.320 -23.787  1.00  0.00    -0.274 OA
ENDBRANCH   2   5
ENDBRANCH   1   2
BRANCH   1  18
ATOM     18  C   UNL     1      10.974 -53.843 -21.565  1.00  0.00     0.035 C 
BRANCH  18  19
ATOM     19  C   UNL     1      10.520 -53.113 -22.847  1.00  0.00     0.004 C 
ATOM     20  C   UNL     1      11.688 -52.601 -23.706  1.00  0.00     0.065 C 
ATOM     21  C   UNL     1       9.596 -51.933 -22.508  1.00  0.00     0.065 C 
ATOM     22  C   UNL     1      12.440 -51.450 -23.051  1.00  0.00     0.262 C 
ATOM     23  C   UNL     1      10.332 -50.761 -21.871  1.00  0.00     0.262 C 
ATOM     24  N   UNL     1      11.472 -50.325 -22.756  1.00  0.00    -0.331 N 
ATOM     25  H   UNL     1      11.075 -50.032 -23.657  1.00  0.00     0.348 HD
BRANCH  24  26
ATOM     26  C   UNL     1      12.167 -49.103 -22.190  1.00  0.00     0.299 C 
BRANCH  26  27
ATOM     27  C   UNL     1      11.673 -47.813 -22.787  1.00  0.00     0.006 A 
ATOM     28  C   UNL     1      10.856 -46.949 -22.040  1.00  0.00     0.009 A 
ATOM     29  C   UNL     1      12.005 -47.464 -24.105  1.00  0.00     0.009 A 
ATOM     30  C   UNL     1      10.379 -45.766 -22.605  1.00  0.00     0.001 A 
ATOM     31  C   UNL     1      11.524 -46.280 -24.665  1.00  0.00     0.001 A 
ATOM     32  C   UNL     1      10.710 -45.434 -23.916  1.00  0.00     0.000 A 
ENDBRANCH  26  27
ENDBRANCH  24  26
ENDBRANCH  18  19
ENDBRANCH   1  18
TORSDOF 7
ENDMDL
