MODEL 1
REMARK VINA RESULT:   -11.238      0.000      0.000
REMARK INTER + INTRA:         -14.708
REMARK INTER:                 -14.522
REMARK INTRA:                  -0.185
REMARK UNBOUND:                -0.185
REMARK SMILES O=C(C[NH2+]Cc1cc(F)cc(F)c1)Nc1ccc2nc3n(c(=O)c2c1)CCC3
REMARK SMILES IDX 3 1 4 2 5 5 6 6 7 7 13 8 8 9 11 10 10 11 9 12 12 13 2 14
REMARK SMILES IDX 14 15 1 16 15 18 16 19 25 20 17 21 24 22 18 23 22 24 19 25
REMARK SMILES IDX 21 26 20 27 26 28 28 29 27 30 23 31
REMARK H PARENT 4 3 4 4 14 17
ROOT
ATOM      1  C   UNL     1       9.932 -52.502 -22.170  1.00  0.00     0.362 C 
ENDROOT
BRANCH   1   2
ATOM      2  N   UNL     1      11.202 -51.760 -21.816  1.00  0.00    -0.335 N 
ATOM      3  H   UNL     1      11.175 -51.526 -20.815  1.00  0.00     0.347 HD
ATOM      4  H   UNL     1      11.963 -52.460 -21.870  1.00  0.00     0.347 HD
BRANCH   2   5
ATOM      5  C   UNL     1      11.538 -50.570 -22.631  1.00  0.00     0.297 C 
BRANCH   5   6
ATOM      6  C   UNL     1      12.363 -50.906 -23.839  1.00  0.00     0.012 A 
ATOM      7  C   UNL     1      12.949 -49.892 -24.613  1.00  0.00     0.049 A 
ATOM      8  C   UNL     1      12.546 -52.239 -24.238  1.00  0.00     0.049 A 
ATOM      9  C   UNL     1      13.689 -50.215 -25.751  1.00  0.00     0.126 A 
ATOM     10  C   UNL     1      13.291 -52.534 -25.381  1.00  0.00     0.126 A 
ATOM     11  C   UNL     1      13.865 -51.532 -26.146  1.00  0.00     0.078 A 
ATOM     12  F   UNL     1      14.230 -49.229 -26.475  1.00  0.00    -0.207 F 
ATOM     13  F   UNL     1      13.438 -53.814 -25.744  1.00  0.00    -0.207 F 
ENDBRANCH   5   6
ENDBRANCH   2   5
ENDBRANCH   1   2
BRANCH   1  14
ATOM     14  C   UNL     1      10.087 -53.969 -21.771  1.00  0.00     0.279 C 
ATOM     15  N   UNL     1       9.965 -54.868 -22.809  1.00  0.00    -0.321 N 
ATOM     16  O   UNL     1      10.303 -54.209 -20.585  1.00  0.00    -0.268 OA
ATOM     17  H   UNL     1       9.797 -54.513 -23.746  1.00  0.00     0.170 HD
BRANCH  15  18
ATOM     18  C   UNL     1      10.056 -56.277 -22.722  1.00  0.00     0.042 A 
ATOM     19  C   UNL     1      11.198 -56.805 -22.101  1.00  0.00     0.028 A 
ATOM     20  C   UNL     1       9.091 -57.156 -23.214  1.00  0.00     0.042 A 
ATOM     21  C   UNL     1      11.371 -58.188 -21.975  1.00  0.00     0.031 A 
ATOM     22  C   UNL     1       9.274 -58.541 -23.081  1.00  0.00     0.068 A 
ATOM     23  C   UNL     1      10.411 -59.073 -22.462  1.00  0.00     0.078 A 
ATOM     24  C   UNL     1       8.258 -59.486 -23.601  1.00  0.00     0.261 A 
ATOM     25  N   UNL     1      10.634 -60.454 -22.318  1.00  0.00    -0.234 NA
ATOM     26  N   UNL     1       8.540 -60.807 -23.361  1.00  0.00    -0.296 N 
ATOM     27  C   UNL     1       9.708 -61.233 -22.761  1.00  0.00     0.112 A 
ATOM     28  C   UNL     1       7.738 -61.918 -23.801  1.00  0.00     0.128 C 
ATOM     29  C   UNL     1       9.735 -62.731 -22.735  1.00  0.00     0.077 C 
ATOM     30  C   UNL     1       8.270 -63.084 -22.984  1.00  0.00     0.030 C 
ATOM     31  O   UNL     1       7.267 -59.083 -24.198  1.00  0.00    -0.269 OA
ENDBRANCH  15  18
ENDBRANCH   1  14
TORSDOF 5
ENDMDL
MODEL 2
REMARK VINA RESULT:   -11.215      0.119      1.555
REMARK INTER + INTRA:         -14.679
REMARK INTER:                 -14.585
REMARK INTRA:                  -0.093
REMARK UNBOUND:                -0.185
REMARK SMILES O=C(C[NH2+]Cc1cc(F)cc(F)c1)Nc1ccc2nc3n(c(=O)c2c1)CCC3
REMARK SMILES IDX 3 1 4 2 5 5 6 6 7 7 13 8 8 9 11 10 10 11 9 12 12 13 2 14
REMARK SMILES IDX 14 15 1 16 15 18 16 19 25 20 17 21 24 22 18 23 22 24 19 25
REMARK SMILES IDX 21 26 20 27 26 28 28 29 27 30 23 31
REMARK H PARENT 4 3 4 4 14 17
ROOT
ATOM      1  C   UNL     1      10.068 -52.497 -22.198  1.00  0.00     0.362 C 
ENDROOT
BRANCH   1   2
ATOM      2  N   UNL     1      11.318 -51.782 -21.737  1.00  0.00    -0.335 N 
ATOM      3  H   UNL     1      11.219 -51.561 -20.738  1.00  0.00     0.347 HD
ATOM      4  H   UNL     1      12.070 -52.494 -21.743  1.00  0.00     0.347 HD
BRANCH   2   5
ATOM      5  C   UNL     1      11.734 -50.587 -22.506  1.00  0.00     0.297 C 
BRANCH   5   6
ATOM      6  C   UNL     1      12.427 -50.934 -23.792  1.00  0.00     0.012 A 
ATOM      7  C   UNL     1      12.566 -52.272 -24.195  1.00  0.00     0.049 A 
ATOM      8  C   UNL     1      12.978 -49.932 -24.606  1.00  0.00     0.049 A 
ATOM      9  C   UNL     1      13.238 -52.583 -25.377  1.00  0.00     0.126 A 
ATOM     10  C   UNL     1      13.646 -50.272 -25.783  1.00  0.00     0.126 A 
ATOM     11  C   UNL     1      13.785 -51.593 -26.177  1.00  0.00     0.078 A 
ATOM     12  F   UNL     1      13.362 -53.867 -25.734  1.00  0.00    -0.207 F 
ATOM     13  F   UNL     1      14.172 -49.297 -26.533  1.00  0.00    -0.207 F 
ENDBRANCH   5   6
ENDBRANCH   2   5
ENDBRANCH   1   2
BRANCH   1  14
ATOM     14  C   UNL     1      10.161 -53.969 -21.796  1.00  0.00     0.279 C 
ATOM     15  N   UNL     1      10.043 -54.863 -22.838  1.00  0.00    -0.321 N 
ATOM     16  O   UNL     1      10.331 -54.215 -20.603  1.00  0.00    -0.268 OA
ATOM     17  H   UNL     1       9.917 -54.504 -23.778  1.00  0.00     0.170 HD
BRANCH  15  18
ATOM     18  C   UNL     1      10.085 -56.275 -22.748  1.00  0.00     0.042 A 
ATOM     19  C   UNL     1      11.212 -56.842 -22.135  1.00  0.00     0.028 A 
ATOM     20  C   UNL     1       9.086 -57.120 -23.231  1.00  0.00     0.042 A 
ATOM     21  C   UNL     1      11.337 -58.230 -22.007  1.00  0.00     0.031 A 
ATOM     22  C   UNL     1       9.220 -58.511 -23.097  1.00  0.00     0.068 A 
ATOM     23  C   UNL     1      10.343 -59.082 -22.486  1.00  0.00     0.078 A 
ATOM     24  C   UNL     1       8.168 -59.420 -23.607  1.00  0.00     0.261 A 
ATOM     25  N   UNL     1      10.517 -60.469 -22.341  1.00  0.00    -0.234 NA
ATOM     26  N   UNL     1       8.405 -60.749 -23.367  1.00  0.00    -0.296 N 
ATOM     27  C   UNL     1       9.561 -61.216 -22.776  1.00  0.00     0.112 A 
ATOM     28  C   UNL     1       7.561 -61.832 -23.799  1.00  0.00     0.128 C 
ATOM     29  C   UNL     1       9.536 -62.714 -22.746  1.00  0.00     0.077 C 
ATOM     30  C   UNL     1       8.057 -63.015 -22.984  1.00  0.00     0.030 C 
ATOM     31  O   UNL     1       7.187 -58.983 -24.197  1.00  0.00    -0.269 OA
ENDBRANCH  15  18
ENDBRANCH   1  14
TORSDOF 5
ENDMDL
MODEL 3
REMARK VINA RESULT:   -11.205      3.825      9.855
REMARK INTER + INTRA:         -14.665
REMARK INTER:                 -14.244
REMARK INTRA:                  -0.422
REMARK UNBOUND:                -0.185
REMARK SMILES O=C(C[NH2+]Cc1cc(F)cc(F)c1)Nc1ccc2nc3n(c(=O)c2c1)CCC3
REMARK SMILES IDX 3 1 4 2 5 5 6 6 7 7 13 8 8 9 11 10 10 11 9 12 12 13 2 14
REMARK SMILES IDX 14 15 1 16 15 18 16 19 25 20 17 21 24 22 18 23 22 24 19 25
REMARK SMILES IDX 21 26 20 27 26 28 28 29 27 30 23 31
REMARK H PARENT 4 3 4 4 14 17
ROOT
ATOM      1  C   UNL     1       9.997 -59.229 -22.659  1.00  0.00     0.362 C 
ENDROOT
BRANCH   1   2
ATOM      2  N   UNL     1      11.073 -60.280 -22.494  1.00  0.00    -0.335 N 
ATOM      3  H   UNL     1      11.950 -59.811 -22.230  1.00  0.00     0.347 HD
ATOM      4  H   UNL     1      10.825 -60.806 -21.638  1.00  0.00     0.347 HD
BRANCH   2   5
ATOM      5  C   UNL     1      11.288 -61.209 -23.627  1.00  0.00     0.297 C 
BRANCH   5   6
ATOM      6  C   UNL     1      10.052 -61.981 -23.989  1.00  0.00     0.012 A 
ATOM      7  C   UNL     1       9.387 -62.762 -23.032  1.00  0.00     0.049 A 
ATOM      8  C   UNL     1       9.550 -61.961 -25.299  1.00  0.00     0.049 A 
ATOM      9  C   UNL     1       8.256 -63.499 -23.388  1.00  0.00     0.126 A 
ATOM     10  C   UNL     1       8.417 -62.707 -25.629  1.00  0.00     0.126 A 
ATOM     11  C   UNL     1       7.764 -63.481 -24.683  1.00  0.00     0.078 A 
ATOM     12  F   UNL     1       7.645 -64.241 -22.457  1.00  0.00    -0.207 F 
ATOM     13  F   UNL     1       7.967 -62.679 -26.889  1.00  0.00    -0.207 F 
ENDBRANCH   5   6
ENDBRANCH   2   5
ENDBRANCH   1   2
BRANCH   1  14
ATOM     14  C   UNL     1      10.597 -57.854 -22.366  1.00  0.00     0.279 C 
ATOM     15  N   UNL     1      10.137 -56.837 -23.174  1.00  0.00    -0.321 N 
ATOM     16  O   UNL     1      11.418 -57.782 -21.453  1.00  0.00    -0.268 OA
ATOM     17  H   UNL     1       9.443 -57.052 -23.883  1.00  0.00     0.170 HD
BRANCH  15  18
ATOM     18  C   UNL     1      10.527 -55.478 -23.127  1.00  0.00     0.042 A 
ATOM     19  C   UNL     1       9.997 -54.699 -22.087  1.00  0.00     0.028 A 
ATOM     20  C   UNL     1      11.391 -54.878 -24.042  1.00  0.00     0.042 A 
ATOM     21  C   UNL     1      10.327 -53.343 -21.966  1.00  0.00     0.031 A 
ATOM     22  C   UNL     1      11.716 -53.519 -23.912  1.00  0.00     0.068 A 
ATOM     23  C   UNL     1      11.190 -52.737 -22.876  1.00  0.00     0.078 A 
ATOM     24  C   UNL     1      12.630 -52.869 -24.879  1.00  0.00     0.261 A 
ATOM     25  N   UNL     1      11.485 -51.372 -22.718  1.00  0.00    -0.234 NA
ATOM     26  N   UNL     1      12.899 -51.552 -24.605  1.00  0.00    -0.296 N 
ATOM     27  C   UNL     1      12.308 -50.861 -23.568  1.00  0.00     0.112 A 
ATOM     28  C   UNL     1      13.720 -50.689 -25.414  1.00  0.00     0.128 C 
ATOM     29  C   UNL     1      12.751 -49.430 -23.607  1.00  0.00     0.077 C 
ATOM     30  C   UNL     1      13.985 -49.500 -24.505  1.00  0.00     0.030 C 
ATOM     31  O   UNL     1      13.081 -53.488 -25.836  1.00  0.00    -0.269 OA
ENDBRANCH  15  18
ENDBRANCH   1  14
TORSDOF 5
ENDMDL
MODEL 4
REMARK VINA RESULT:   -11.003      1.879      2.611
REMARK INTER + INTRA:         -14.405
REMARK INTER:                 -13.994
REMARK INTRA:                  -0.411
REMARK UNBOUND:                -0.185
REMARK SMILES O=C(C[NH2+]Cc1cc(F)cc(F)c1)Nc1ccc2nc3n(c(=O)c2c1)CCC3
REMARK SMILES IDX 3 1 4 2 5 5 6 6 7 7 13 8 8 9 11 10 10 11 9 12 12 13 2 14
REMARK SMILES IDX 14 15 1 16 15 18 16 19 25 20 17 21 24 22 18 23 22 24 19 25
REMARK SMILES IDX 21 26 20 27 26 28 28 29 27 30 23 31
REMARK H PARENT 4 3 4 4 14 17
ROOT
ATOM      1  C   UNL     1      10.958 -53.286 -23.152  1.00  0.00     0.362 C 
ENDROOT
BRANCH   1   2
ATOM      2  N   UNL     1      12.090 -52.600 -23.885  1.00  0.00    -0.335 N 
ATOM      3  H   UNL     1      12.688 -53.321 -24.310  1.00  0.00     0.347 HD
ATOM      4  H   UNL     1      11.658 -52.143 -24.708  1.00  0.00     0.347 HD
BRANCH   2   5
ATOM      5  C   UNL     1      12.897 -51.625 -23.117  1.00  0.00     0.297 C 
BRANCH   5   6
ATOM      6  C   UNL     1      12.551 -50.200 -23.441  1.00  0.00     0.012 A 
ATOM      7  C   UNL     1      11.526 -49.535 -22.750  1.00  0.00     0.049 A 
ATOM      8  C   UNL     1      13.225 -49.510 -24.459  1.00  0.00     0.049 A 
ATOM      9  C   UNL     1      11.194 -48.221 -23.079  1.00  0.00     0.126 A 
ATOM     10  C   UNL     1      12.873 -48.195 -24.770  1.00  0.00     0.126 A 
ATOM     11  C   UNL     1      11.858 -47.542 -24.089  1.00  0.00     0.078 A 
ATOM     12  F   UNL     1      10.208 -47.613 -22.410  1.00  0.00    -0.207 F 
ATOM     13  F   UNL     1      13.524 -47.565 -25.754  1.00  0.00    -0.207 F 
ENDBRANCH   5   6
ENDBRANCH   2   5
ENDBRANCH   1   2
BRANCH   1  14
ATOM     14  C   UNL     1      11.020 -54.787 -23.435  1.00  0.00     0.279 C 
ATOM     15  N   UNL     1      10.360 -55.577 -22.519  1.00  0.00    -0.321 N 
ATOM     16  O   UNL     1      11.638 -55.144 -24.436  1.00  0.00    -0.268 OA
ATOM     17  H   UNL     1       9.880 -55.131 -21.744  1.00  0.00     0.170 HD
BRANCH  15  18
ATOM     18  C   UNL     1      10.265 -56.989 -22.534  1.00  0.00     0.042 A 
ATOM     19  C   UNL     1      11.318 -57.705 -21.944  1.00  0.00     0.028 A 
ATOM     20  C   UNL     1       9.204 -57.696 -23.097  1.00  0.00     0.042 A 
ATOM     21  C   UNL     1      11.307 -59.105 -21.918  1.00  0.00     0.031 A 
ATOM     22  C   UNL     1       9.202 -59.100 -23.065  1.00  0.00     0.068 A 
ATOM     23  C   UNL     1      10.249 -59.819 -22.477  1.00  0.00     0.078 A 
ATOM     24  C   UNL     1       8.082 -59.863 -23.661  1.00  0.00     0.261 A 
ATOM     25  N   UNL     1      10.288 -61.224 -22.433  1.00  0.00    -0.234 NA
ATOM     26  N   UNL     1       8.185 -61.224 -23.516  1.00  0.00    -0.296 N 
ATOM     27  C   UNL     1       9.276 -61.841 -22.939  1.00  0.00     0.112 A 
ATOM     28  C   UNL     1       7.253 -62.186 -24.043  1.00  0.00     0.128 C 
ATOM     29  C   UNL     1       9.108 -63.328 -23.022  1.00  0.00     0.077 C 
ATOM     30  C   UNL     1       7.614 -63.467 -23.309  1.00  0.00     0.030 C 
ATOM     31  O   UNL     1       7.162 -59.292 -24.235  1.00  0.00    -0.269 OA
ENDBRANCH  15  18
ENDBRANCH   1  14
TORSDOF 5
ENDMDL
MODEL 5
REMARK VINA RESULT:   -10.963      3.184      8.642
REMARK INTER + INTRA:         -14.353
REMARK INTER:                 -13.545
REMARK INTRA:                  -0.808
REMARK UNBOUND:                -0.185
REMARK SMILES O=C(C[NH2+]Cc1cc(F)cc(F)c1)Nc1ccc2nc3n(c(=O)c2c1)CCC3
REMARK SMILES IDX 3 1 4 2 5 5 6 6 7 7 13 8 8 9 11 10 10 11 9 12 12 13 2 14
REMARK SMILES IDX 14 15 1 16 15 18 16 19 25 20 17 21 24 22 18 23 22 24 19 25
REMARK SMILES IDX 21 26 20 27 26 28 28 29 27 30 23 31
REMARK H PARENT 4 3 4 4 14 17
ROOT
ATOM      1  C   UNL     1       8.918 -59.413 -22.707  1.00  0.00     0.362 C 
ENDROOT
BRANCH   1   2
ATOM      2  N   UNL     1      10.265 -60.086 -22.562  1.00  0.00    -0.335 N 
ATOM      3  H   UNL     1      11.000 -59.378 -22.685  1.00  0.00     0.347 HD
ATOM      4  H   UNL     1      10.350 -60.336 -21.561  1.00  0.00     0.347 HD
BRANCH   2   5
ATOM      5  C   UNL     1      10.522 -61.270 -23.413  1.00  0.00     0.297 C 
BRANCH   5   6
ATOM      6  C   UNL     1      10.569 -60.936 -24.877  1.00  0.00     0.012 A 
ATOM      7  C   UNL     1       9.680 -61.540 -25.780  1.00  0.00     0.049 A 
ATOM      8  C   UNL     1      11.521 -60.035 -25.378  1.00  0.00     0.049 A 
ATOM      9  C   UNL     1       9.754 -61.244 -27.142  1.00  0.00     0.126 A 
ATOM     10  C   UNL     1      11.573 -59.757 -26.745  1.00  0.00     0.126 A 
ATOM     11  C   UNL     1      10.697 -60.356 -27.636  1.00  0.00     0.078 A 
ATOM     12  F   UNL     1       8.900 -61.838 -27.982  1.00  0.00    -0.207 F 
ATOM     13  F   UNL     1      12.498 -58.903 -27.197  1.00  0.00    -0.207 F 
ENDBRANCH   5   6
ENDBRANCH   2   5
ENDBRANCH   1   2
BRANCH   1  14
ATOM     14  C   UNL     1       9.133 -57.960 -23.132  1.00  0.00     0.279 C 
ATOM     15  N   UNL     1      10.224 -57.343 -22.558  1.00  0.00    -0.321 N 
ATOM     16  O   UNL     1       8.329 -57.485 -23.932  1.00  0.00    -0.268 OA
ATOM     17  H   UNL     1      10.806 -57.874 -21.919  1.00  0.00     0.170 HD
BRANCH  15  18
ATOM     18  C   UNL     1      10.647 -56.009 -22.768  1.00  0.00     0.042 A 
ATOM     19  C   UNL     1      10.271 -55.063 -21.803  1.00  0.00     0.028 A 
ATOM     20  C   UNL     1      11.401 -55.589 -23.863  1.00  0.00     0.042 A 
ATOM     21  C   UNL     1      10.644 -53.720 -21.932  1.00  0.00     0.031 A 
ATOM     22  C   UNL     1      11.770 -54.241 -23.983  1.00  0.00     0.068 A 
ATOM     23  C   UNL     1      11.398 -53.292 -23.023  1.00  0.00     0.078 A 
ATOM     24  C   UNL     1      12.569 -53.781 -25.143  1.00  0.00     0.261 A 
ATOM     25  N   UNL     1      11.742 -51.932 -23.113  1.00  0.00    -0.234 NA
ATOM     26  N   UNL     1      12.900 -52.450 -25.109  1.00  0.00    -0.296 N 
ATOM     27  C   UNL     1      12.461 -51.588 -24.125  1.00  0.00     0.112 A 
ATOM     28  C   UNL     1      13.630 -51.752 -26.134  1.00  0.00     0.128 C 
ATOM     29  C   UNL     1      12.928 -50.198 -24.437  1.00  0.00     0.077 C 
ATOM     30  C   UNL     1      14.036 -50.453 -25.457  1.00  0.00     0.030 C 
ATOM     31  O   UNL     1      12.881 -54.553 -26.042  1.00  0.00    -0.269 OA
ENDBRANCH  15  18
ENDBRANCH   1  14
TORSDOF 5
ENDMDL
MODEL 6
REMARK VINA RESULT:   -10.767      3.621     10.239
REMARK INTER + INTRA:         -14.100
REMARK INTER:                 -13.895
REMARK INTRA:                  -0.205
REMARK UNBOUND:                -0.185
REMARK SMILES O=C(C[NH2+]Cc1cc(F)cc(F)c1)Nc1ccc2nc3n(c(=O)c2c1)CCC3
REMARK SMILES IDX 3 1 4 2 5 5 6 6 7 7 13 8 8 9 11 10 10 11 9 12 12 13 2 14
REMARK SMILES IDX 14 15 1 16 15 18 16 19 25 20 17 21 24 22 18 23 22 24 19 25
REMARK SMILES IDX 21 26 20 27 26 28 28 29 27 30 23 31
REMARK H PARENT 4 3 4 4 14 17
ROOT
ATOM      1  C   UNL     1      11.385 -56.269 -23.231  1.00  0.00     0.362 C 
ENDROOT
BRANCH   1   2
ATOM      2  N   UNL     1      10.678 -56.939 -22.073  1.00  0.00    -0.335 N 
ATOM      3  H   UNL     1      10.398 -56.215 -21.399  1.00  0.00     0.347 HD
ATOM      4  H   UNL     1       9.771 -57.268 -22.449  1.00  0.00     0.347 HD
BRANCH   2   5
ATOM      5  C   UNL     1      11.390 -58.047 -21.397  1.00  0.00     0.297 C 
BRANCH   5   6
ATOM      6  C   UNL     1      11.255 -59.355 -22.124  1.00  0.00     0.012 A 
ATOM      7  C   UNL     1      10.314 -60.311 -21.711  1.00  0.00     0.049 A 
ATOM      8  C   UNL     1      12.084 -59.661 -23.213  1.00  0.00     0.049 A 
ATOM      9  C   UNL     1      10.219 -61.535 -22.375  1.00  0.00     0.126 A 
ATOM     10  C   UNL     1      11.968 -60.893 -23.860  1.00  0.00     0.126 A 
ATOM     11  C   UNL     1      11.041 -61.837 -23.449  1.00  0.00     0.078 A 
ATOM     12  F   UNL     1       9.319 -62.432 -21.957  1.00  0.00    -0.207 F 
ATOM     13  F   UNL     1      12.780 -61.163 -24.888  1.00  0.00    -0.207 F 
ENDBRANCH   5   6
ENDBRANCH   2   5
ENDBRANCH   1   2
BRANCH   1  14
ATOM     14  C   UNL     1      10.843 -54.849 -23.390  1.00  0.00     0.279 C 
ATOM     15  N   UNL     1      11.472 -53.899 -22.615  1.00  0.00    -0.321 N 
ATOM     16  O   UNL     1       9.915 -54.688 -24.181  1.00  0.00    -0.268 OA
ATOM     17  H   UNL     1      12.238 -54.186 -22.015  1.00  0.00     0.170 HD
BRANCH  15  18
ATOM     18  C   UNL     1      11.168 -52.518 -22.560  1.00  0.00     0.042 A 
ATOM     19  C   UNL     1       9.894 -52.164 -22.093  1.00  0.00     0.028 A 
ATOM     20  C   UNL     1      12.049 -51.506 -22.942  1.00  0.00     0.042 A 
ATOM     21  C   UNL     1       9.508 -50.820 -22.008  1.00  0.00     0.031 A 
ATOM     22  C   UNL     1      11.653 -50.162 -22.853  1.00  0.00     0.068 A 
ATOM     23  C   UNL     1      10.383 -49.803 -22.387  1.00  0.00     0.078 A 
ATOM     24  C   UNL     1      12.578 -49.079 -23.257  1.00  0.00     0.261 A 
ATOM     25  N   UNL     1       9.947 -48.470 -22.291  1.00  0.00    -0.234 NA
ATOM     26  N   UNL     1      12.081 -47.814 -23.073  1.00  0.00    -0.296 N 
ATOM     27  C   UNL     1      10.799 -47.564 -22.628  1.00  0.00     0.112 A 
ATOM     28  C   UNL     1      12.762 -46.596 -23.426  1.00  0.00     0.128 C 
ATOM     29  C   UNL     1      10.552 -46.085 -22.626  1.00  0.00     0.077 C 
ATOM     30  C   UNL     1      11.970 -45.523 -22.698  1.00  0.00     0.030 C 
ATOM     31  O   UNL     1      13.684 -49.331 -23.721  1.00  0.00    -0.269 OA
ENDBRANCH  15  18
ENDBRANCH   1  14
TORSDOF 5
ENDMDL
MODEL 7
REMARK VINA RESULT:   -10.367      3.670     10.002
REMARK INTER + INTRA:         -13.582
REMARK INTER:                 -13.308
REMARK INTRA:                  -0.275
REMARK UNBOUND:                -0.185
REMARK SMILES O=C(C[NH2+]Cc1cc(F)cc(F)c1)Nc1ccc2nc3n(c(=O)c2c1)CCC3
REMARK SMILES IDX 3 1 4 2 5 5 6 6 7 7 13 8 8 9 11 10 10 11 9 12 12 13 2 14
REMARK SMILES IDX 14 15 1 16 15 18 16 19 25 20 17 21 24 22 18 23 22 24 19 25
REMARK SMILES IDX 21 26 20 27 26 28 28 29 27 30 23 31
REMARK H PARENT 4 3 4 4 14 17
ROOT
ATOM      1  C   UNL     1       9.948 -54.890 -21.842  1.00  0.00     0.362 C 
ENDROOT
BRANCH   1   2
ATOM      2  N   UNL     1      10.119 -55.857 -22.992  1.00  0.00    -0.335 N 
ATOM      3  H   UNL     1       9.330 -56.517 -22.985  1.00  0.00     0.347 HD
ATOM      4  H   UNL     1       9.951 -55.306 -23.853  1.00  0.00     0.347 HD
BRANCH   2   5
ATOM      5  C   UNL     1      11.411 -56.575 -23.084  1.00  0.00     0.297 C 
BRANCH   5   6
ATOM      6  C   UNL     1      11.267 -58.058 -22.898  1.00  0.00     0.012 A 
ATOM      7  C   UNL     1      11.662 -58.950 -23.908  1.00  0.00     0.049 A 
ATOM      8  C   UNL     1      10.709 -58.586 -21.724  1.00  0.00     0.049 A 
ATOM      9  C   UNL     1      11.496 -60.324 -23.737  1.00  0.00     0.126 A 
ATOM     10  C   UNL     1      10.553 -59.965 -21.578  1.00  0.00     0.126 A 
ATOM     11  C   UNL     1      10.941 -60.844 -22.577  1.00  0.00     0.078 A 
ATOM     12  F   UNL     1      11.874 -61.151 -24.717  1.00  0.00    -0.207 F 
ATOM     13  F   UNL     1      10.007 -60.440 -20.453  1.00  0.00    -0.207 F 
ENDBRANCH   5   6
ENDBRANCH   2   5
ENDBRANCH   1   2
BRANCH   1  14
ATOM     14  C   UNL     1      10.142 -53.464 -22.359  1.00  0.00     0.279 C 
ATOM     15  N   UNL     1      11.447 -53.121 -22.637  1.00  0.00    -0.321 N 
ATOM     16  O   UNL     1       9.135 -52.769 -22.478  1.00  0.00    -0.268 OA
ATOM     17  H   UNL     1      12.175 -53.815 -22.499  1.00  0.00     0.170 HD
BRANCH  15  18
ATOM     18  C   UNL     1      11.909 -51.873 -23.117  1.00  0.00     0.042 A 
ATOM     19  C   UNL     1      11.620 -50.744 -22.336  1.00  0.00     0.028 A 
ATOM     20  C   UNL     1      12.620 -51.704 -24.305  1.00  0.00     0.042 A 
ATOM     21  C   UNL     1      12.036 -49.468 -22.737  1.00  0.00     0.031 A 
ATOM     22  C   UNL     1      13.033 -50.422 -24.698  1.00  0.00     0.068 A 
ATOM     23  C   UNL     1      12.747 -49.291 -23.922  1.00  0.00     0.078 A 
ATOM     24  C   UNL     1      13.787 -50.228 -25.958  1.00  0.00     0.261 A 
ATOM     25  N   UNL     1      13.137 -47.991 -24.286  1.00  0.00    -0.234 NA
ATOM     26  N   UNL     1      14.169 -48.933 -26.194  1.00  0.00    -0.296 N 
ATOM     27  C   UNL     1      13.815 -47.879 -25.376  1.00  0.00     0.112 A 
ATOM     28  C   UNL     1      14.870 -48.476 -27.366  1.00  0.00     0.128 C 
ATOM     29  C   UNL     1      14.317 -46.598 -25.969  1.00  0.00     0.077 C 
ATOM     30  C   UNL     1      15.359 -47.093 -26.970  1.00  0.00     0.030 C 
ATOM     31  O   UNL     1      14.022 -51.171 -26.705  1.00  0.00    -0.269 OA
ENDBRANCH  15  18
ENDBRANCH   1  14
TORSDOF 5
ENDMDL
MODEL 8
REMARK VINA RESULT:   -10.208      2.800      8.353
REMARK INTER + INTRA:         -13.377
REMARK INTER:                 -12.369
REMARK INTRA:                  -1.008
REMARK UNBOUND:                -0.185
REMARK SMILES O=C(C[NH2+]Cc1cc(F)cc(F)c1)Nc1ccc2nc3n(c(=O)c2c1)CCC3
REMARK SMILES IDX 3 1 4 2 5 5 6 6 7 7 13 8 8 9 11 10 10 11 9 12 12 13 2 14
REMARK SMILES IDX 14 15 1 16 15 18 16 19 25 20 17 21 24 22 18 23 22 24 19 25
REMARK SMILES IDX 21 26 20 27 26 28 28 29 27 30 23 31
REMARK H PARENT 4 3 4 4 14 17
ROOT
ATOM      1  C   UNL     1       8.342 -59.857 -22.545  1.00  0.00     0.362 C 
ENDROOT
BRANCH   1   2
ATOM      2  N   UNL     1       9.515 -60.812 -22.553  1.00  0.00    -0.335 N 
ATOM      3  H   UNL     1      10.368 -60.284 -22.328  1.00  0.00     0.347 HD
ATOM      4  H   UNL     1       9.392 -61.417 -21.721  1.00  0.00     0.347 HD
BRANCH   2   5
ATOM      5  C   UNL     1       9.706 -61.637 -23.767  1.00  0.00     0.297 C 
BRANCH   5   6
ATOM      6  C   UNL     1      10.739 -61.072 -24.699  1.00  0.00     0.012 A 
ATOM      7  C   UNL     1      12.103 -61.118 -24.372  1.00  0.00     0.049 A 
ATOM      8  C   UNL     1      10.363 -60.460 -25.904  1.00  0.00     0.049 A 
ATOM      9  C   UNL     1      13.051 -60.562 -25.232  1.00  0.00     0.126 A 
ATOM     10  C   UNL     1      11.331 -59.912 -26.746  1.00  0.00     0.126 A 
ATOM     11  C   UNL     1      12.677 -59.955 -26.420  1.00  0.00     0.078 A 
ATOM     12  F   UNL     1      14.344 -60.613 -24.892  1.00  0.00    -0.207 F 
ATOM     13  F   UNL     1      10.943 -59.324 -27.884  1.00  0.00    -0.207 F 
ENDBRANCH   5   6
ENDBRANCH   2   5
ENDBRANCH   1   2
BRANCH   1  14
ATOM     14  C   UNL     1       8.773 -58.537 -23.185  1.00  0.00     0.279 C 
ATOM     15  N   UNL     1       9.882 -57.951 -22.614  1.00  0.00    -0.321 N 
ATOM     16  O   UNL     1       8.104 -58.128 -24.132  1.00  0.00    -0.268 OA
ATOM     17  H   UNL     1      10.338 -58.420 -21.838  1.00  0.00     0.170 HD
BRANCH  15  18
ATOM     18  C   UNL     1      10.486 -56.731 -23.000  1.00  0.00     0.042 A 
ATOM     19  C   UNL     1      11.317 -56.762 -24.130  1.00  0.00     0.028 A 
ATOM     20  C   UNL     1      10.308 -55.522 -22.329  1.00  0.00     0.042 A 
ATOM     21  C   UNL     1      11.958 -55.601 -24.580  1.00  0.00     0.031 A 
ATOM     22  C   UNL     1      10.954 -54.364 -22.789  1.00  0.00     0.068 A 
ATOM     23  C   UNL     1      11.784 -54.388 -23.916  1.00  0.00     0.078 A 
ATOM     24  C   UNL     1      10.775 -53.073 -22.085  1.00  0.00     0.261 A 
ATOM     25  N   UNL     1      12.455 -53.252 -24.402  1.00  0.00    -0.234 NA
ATOM     26  N   UNL     1      11.424 -52.016 -22.670  1.00  0.00    -0.296 N 
ATOM     27  C   UNL     1      12.244 -52.149 -23.772  1.00  0.00     0.112 A 
ATOM     28  C   UNL     1      11.445 -50.671 -22.157  1.00  0.00     0.128 C 
ATOM     29  C   UNL     1      12.862 -50.822 -24.095  1.00  0.00     0.077 C 
ATOM     30  C   UNL     1      11.963 -49.854 -23.329  1.00  0.00     0.030 C 
ATOM     31  O   UNL     1      10.102 -52.999 -21.064  1.00  0.00    -0.269 OA
ENDBRANCH  15  18
ENDBRANCH   1  14
TORSDOF 5
ENDMDL
MODEL 9
REMARK VINA RESULT:    -9.733      3.785     10.423
REMARK INTER + INTRA:         -12.763
REMARK INTER:                 -12.594
REMARK INTRA:                  -0.169
REMARK UNBOUND:                -0.185
REMARK SMILES O=C(C[NH2+]Cc1cc(F)cc(F)c1)Nc1ccc2nc3n(c(=O)c2c1)CCC3
REMARK SMILES IDX 3 1 4 2 5 5 6 6 7 7 13 8 8 9 11 10 10 11 9 12 12 13 2 14
REMARK SMILES IDX 14 15 1 16 15 18 16 19 25 20 17 21 24 22 18 23 22 24 19 25
REMARK SMILES IDX 21 26 20 27 26 28 28 29 27 30 23 31
REMARK H PARENT 4 3 4 4 14 17
ROOT
ATOM      1  C   UNL     1      10.315 -55.910 -22.471  1.00  0.00     0.362 C 
ENDROOT
BRANCH   1   2
ATOM      2  N   UNL     1      10.052 -57.032 -23.451  1.00  0.00    -0.335 N 
ATOM      3  H   UNL     1      10.158 -56.664 -24.405  1.00  0.00     0.347 HD
ATOM      4  H   UNL     1      10.856 -57.679 -23.362  1.00  0.00     0.347 HD
BRANCH   2   5
ATOM      5  C   UNL     1       8.777 -57.770 -23.305  1.00  0.00     0.297 C 
BRANCH   5   6
ATOM      6  C   UNL     1       8.949 -59.258 -23.421  1.00  0.00     0.012 A 
ATOM      7  C   UNL     1       8.773 -59.908 -24.652  1.00  0.00     0.049 A 
ATOM      8  C   UNL     1       9.262 -60.035 -22.295  1.00  0.00     0.049 A 
ATOM      9  C   UNL     1       8.906 -61.293 -24.741  1.00  0.00     0.126 A 
ATOM     10  C   UNL     1       9.389 -61.420 -22.412  1.00  0.00     0.126 A 
ATOM     11  C   UNL     1       9.212 -62.061 -23.628  1.00  0.00     0.078 A 
ATOM     12  F   UNL     1       8.726 -61.889 -25.925  1.00  0.00    -0.207 F 
ATOM     13  F   UNL     1       9.677 -62.138 -21.320  1.00  0.00    -0.207 F 
ENDBRANCH   5   6
ENDBRANCH   2   5
ENDBRANCH   1   2
BRANCH   1  14
ATOM     14  C   UNL     1      10.792 -54.679 -23.242  1.00  0.00     0.279 C 
ATOM     15  N   UNL     1      11.042 -53.569 -22.465  1.00  0.00    -0.321 N 
ATOM     16  O   UNL     1      10.910 -54.791 -24.461  1.00  0.00    -0.268 OA
ATOM     17  H   UNL     1      10.909 -53.635 -21.461  1.00  0.00     0.170 HD
BRANCH  15  18
ATOM     18  C   UNL     1      11.483 -52.303 -22.916  1.00  0.00     0.042 A 
ATOM     19  C   UNL     1      12.631 -52.279 -23.723  1.00  0.00     0.028 A 
ATOM     20  C   UNL     1      10.854 -51.098 -22.607  1.00  0.00     0.042 A 
ATOM     21  C   UNL     1      13.139 -51.069 -24.212  1.00  0.00     0.031 A 
ATOM     22  C   UNL     1      11.371 -49.890 -23.102  1.00  0.00     0.068 A 
ATOM     23  C   UNL     1      12.516 -49.860 -23.908  1.00  0.00     0.078 A 
ATOM     24  C   UNL     1      10.714 -48.603 -22.779  1.00  0.00     0.261 A 
ATOM     25  N   UNL     1      13.068 -48.671 -24.415  1.00  0.00    -0.234 NA
ATOM     26  N   UNL     1      11.295 -47.509 -23.368  1.00  0.00    -0.296 N 
ATOM     27  C   UNL     1      12.443 -47.582 -24.129  1.00  0.00     0.112 A 
ATOM     28  C   UNL     1      10.874 -46.145 -23.178  1.00  0.00     0.128 C 
ATOM     29  C   UNL     1      12.855 -46.201 -24.542  1.00  0.00     0.077 C 
ATOM     30  C   UNL     1      11.578 -45.398 -24.299  1.00  0.00     0.030 C 
ATOM     31  O   UNL     1       9.739 -48.559 -22.037  1.00  0.00    -0.269 OA
ENDBRANCH  15  18
ENDBRANCH   1  14
TORSDOF 5
ENDMDL
