MODEL 1
REMARK VINA RESULT:    -8.472      0.000      0.000
REMARK INTER + INTRA:         -15.285
REMARK INTER:                 -13.672
REMARK INTRA:                  -1.613
REMARK UNBOUND:                -1.613
REMARK SMILES CCOCC[n+]1ccc(CC=C(O)[C@H]2Cc3cc(OC)c(OC)cc3S2)cc1
REMARK SMILES IDX 9 1 8 2 7 3 6 4 28 5 27 6 10 7 11 8 12 9 13 10 14 12 15 13
REMARK SMILES IDX 26 14 16 15 25 16 17 17 24 18 18 19 21 20 19 21 20 22 22 23
REMARK SMILES IDX 23 24 5 25 4 26 3 27 2 28 1 29
REMARK H PARENT 13 11
ROOT
ATOM      1  C   UNL     1       7.669 -59.159 -23.008  1.00  0.00    -0.032 A 
ATOM      2  C   UNL     1       8.788 -59.688 -22.366  1.00  0.00     0.074 A 
ATOM      3  C   UNL     1       9.963 -58.945 -22.306  1.00  0.00     0.308 A 
ATOM      4  N   UNL     1      10.031 -57.710 -22.860  1.00  0.00    -0.203 N 
ATOM      5  C   UNL     1       8.954 -57.171 -23.475  1.00  0.00     0.308 A 
ATOM      6  C   UNL     1       7.762 -57.879 -23.560  1.00  0.00     0.074 A 
ENDROOT
BRANCH   1   7
ATOM      7  C   UNL     1       6.370 -59.926 -23.084  1.00  0.00     0.067 C 
BRANCH   7   8
ATOM      8  C   UNL     1       6.454 -61.098 -24.020  1.00  0.00     0.020 C 
BRANCH   8   9
ATOM      9  C   UNL     1       6.812 -62.342 -23.659  1.00  0.00     0.102 C 
BRANCH   9  10
ATOM     10  O   UNL     1       6.207 -62.926 -22.557  1.00  0.00    -0.511 OA
ATOM     11  H   UNL     1       5.686 -62.228 -22.110  1.00  0.00     0.293 HD
ENDBRANCH   9  10
BRANCH   9  12
ATOM     12  C   UNL     1       7.865 -63.151 -24.406  1.00  0.00     0.121 C 
ATOM     13  C   UNL     1       8.348 -62.451 -25.694  1.00  0.00     0.059 C 
ATOM     14  S   UNL     1       9.344 -63.394 -23.350  1.00  0.00    -0.114 SA
ATOM     15  C   UNL     1       9.631 -61.736 -25.380  1.00  0.00    -0.029 A 
ATOM     16  C   UNL     1      10.275 -62.166 -24.221  1.00  0.00     0.015 A 
ATOM     17  C   UNL     1      10.213 -60.759 -26.177  1.00  0.00     0.055 A 
ATOM     18  C   UNL     1      11.492 -61.626 -23.820  1.00  0.00     0.065 A 
ATOM     19  C   UNL     1      11.445 -60.221 -25.791  1.00  0.00     0.161 A 
ATOM     20  C   UNL     1      12.086 -60.630 -24.603  1.00  0.00     0.161 A 
BRANCH  19  21
ATOM     21  O   UNL     1      11.953 -59.231 -26.598  1.00  0.00    -0.493 OA
ATOM     22  C   UNL     1      12.366 -59.766 -27.857  1.00  0.00     0.278 C 
ENDBRANCH  19  21
BRANCH  20  23
ATOM     23  O   UNL     1      13.258 -59.991 -24.294  1.00  0.00    -0.493 OA
ATOM     24  C   UNL     1      14.461 -60.748 -24.369  1.00  0.00     0.278 C 
ENDBRANCH  20  23
ENDBRANCH   9  12
ENDBRANCH   8   9
ENDBRANCH   7   8
ENDBRANCH   1   7
BRANCH   4  25
ATOM     25  C   UNL     1      11.304 -56.946 -22.792  1.00  0.00     0.385 C 
BRANCH  25  26
ATOM     26  C   UNL     1      11.041 -55.544 -22.250  1.00  0.00     0.233 C 
BRANCH  26  27
ATOM     27  O   UNL     1      11.225 -54.599 -23.308  1.00  0.00    -0.375 OA
BRANCH  27  28
ATOM     28  C   UNL     1      11.213 -53.239 -22.862  1.00  0.00     0.157 C 
ATOM     29  C   UNL     1       9.813 -52.821 -22.450  1.00  0.00     0.035 C 
ENDBRANCH  27  28
ENDBRANCH  26  27
ENDBRANCH  25  26
ENDBRANCH   4  25
TORSDOF 11
ENDMDL
MODEL 2
REMARK VINA RESULT:    -8.402      3.169      5.712
REMARK INTER + INTRA:         -15.173
REMARK INTER:                 -14.434
REMARK INTRA:                  -0.739
REMARK UNBOUND:                -1.613
REMARK SMILES CCOCC[n+]1ccc(CC=C(O)[C@H]2Cc3cc(OC)c(OC)cc3S2)cc1
REMARK SMILES IDX 9 1 8 2 7 3 6 4 28 5 27 6 10 7 11 8 12 9 13 10 14 12 15 13
REMARK SMILES IDX 26 14 16 15 25 16 17 17 24 18 18 19 21 20 19 21 20 22 22 23
REMARK SMILES IDX 23 24 5 25 4 26 3 27 2 28 1 29
REMARK H PARENT 13 11
ROOT
ATOM      1  C   UNL     1      11.066 -54.104 -23.045  1.00  0.00    -0.032 A 
ATOM      2  C   UNL     1      11.740 -54.316 -24.247  1.00  0.00     0.074 A 
ATOM      3  C   UNL     1      12.444 -53.270 -24.835  1.00  0.00     0.308 A 
ATOM      4  N   UNL     1      12.487 -52.048 -24.250  1.00  0.00    -0.203 N 
ATOM      5  C   UNL     1      11.851 -51.823 -23.078  1.00  0.00     0.308 A 
ATOM      6  C   UNL     1      11.135 -52.839 -22.457  1.00  0.00     0.074 A 
ENDROOT
BRANCH   1   7
ATOM      7  C   UNL     1      10.300 -55.216 -22.367  1.00  0.00     0.067 C 
BRANCH   7   8
ATOM      8  C   UNL     1      11.047 -56.520 -22.392  1.00  0.00     0.020 C 
BRANCH   8   9
ATOM      9  C   UNL     1      10.567 -57.667 -22.901  1.00  0.00     0.102 C 
BRANCH   9  10
ATOM     10  O   UNL     1       9.230 -57.740 -23.259  1.00  0.00    -0.511 OA
ATOM     11  H   UNL     1       8.732 -57.168 -22.640  1.00  0.00     0.293 HD
ENDBRANCH   9  10
BRANCH   9  12
ATOM     12  C   UNL     1      11.428 -58.908 -23.102  1.00  0.00     0.121 C 
ATOM     13  C   UNL     1      10.757 -60.189 -22.562  1.00  0.00     0.059 C 
ATOM     14  S   UNL     1      11.733 -59.184 -24.888  1.00  0.00    -0.114 SA
ATOM     15  C   UNL     1      10.100 -60.890 -23.716  1.00  0.00    -0.029 A 
ATOM     16  C   UNL     1      10.555 -60.501 -24.975  1.00  0.00     0.015 A 
ATOM     17  C   UNL     1       9.156 -61.901 -23.600  1.00  0.00     0.055 A 
ATOM     18  C   UNL     1      10.069 -61.089 -26.139  1.00  0.00     0.065 A 
ATOM     19  C   UNL     1       8.674 -62.510 -24.763  1.00  0.00     0.161 A 
ATOM     20  C   UNL     1       9.106 -62.098 -26.041  1.00  0.00     0.161 A 
BRANCH  19  21
ATOM     21  O   UNL     1       7.712 -63.476 -24.587  1.00  0.00    -0.493 OA
ATOM     22  C   UNL     1       7.726 -63.965 -23.243  1.00  0.00     0.278 C 
ENDBRANCH  19  21
BRANCH  20  23
ATOM     23  O   UNL     1       8.520 -62.723 -27.110  1.00  0.00    -0.493 OA
ATOM     24  C   UNL     1       9.014 -62.410 -28.408  1.00  0.00     0.278 C 
ENDBRANCH  20  23
ENDBRANCH   9  12
ENDBRANCH   8   9
ENDBRANCH   7   8
ENDBRANCH   1   7
BRANCH   4  25
ATOM     25  C   UNL     1      13.235 -50.946 -24.910  1.00  0.00     0.385 C 
BRANCH  25  26
ATOM     26  C   UNL     1      13.808 -51.430 -26.240  1.00  0.00     0.233 C 
BRANCH  26  27
ATOM     27  O   UNL     1      15.213 -51.166 -26.259  1.00  0.00    -0.375 OA
BRANCH  27  28
ATOM     28  C   UNL     1      15.884 -51.581 -25.064  1.00  0.00     0.157 C 
ATOM     29  C   UNL     1      16.476 -52.968 -25.235  1.00  0.00     0.035 C 
ENDBRANCH  27  28
ENDBRANCH  26  27
ENDBRANCH  25  26
ENDBRANCH   4  25
TORSDOF 11
ENDMDL
MODEL 3
REMARK VINA RESULT:    -8.376      2.700      4.360
REMARK INTER + INTRA:         -15.131
REMARK INTER:                 -14.296
REMARK INTRA:                  -0.835
REMARK UNBOUND:                -1.613
REMARK SMILES CCOCC[n+]1ccc(CC=C(O)[C@H]2Cc3cc(OC)c(OC)cc3S2)cc1
REMARK SMILES IDX 9 1 8 2 7 3 6 4 28 5 27 6 10 7 11 8 12 9 13 10 14 12 15 13
REMARK SMILES IDX 26 14 16 15 25 16 17 17 24 18 18 19 21 20 19 21 20 22 22 23
REMARK SMILES IDX 23 24 5 25 4 26 3 27 2 28 1 29
REMARK H PARENT 13 11
ROOT
ATOM      1  C   UNL     1      11.036 -56.049 -22.100  1.00  0.00    -0.032 A 
ATOM      2  C   UNL     1      11.154 -55.598 -23.414  1.00  0.00     0.074 A 
ATOM      3  C   UNL     1      11.153 -54.232 -23.676  1.00  0.00     0.308 A 
ATOM      4  N   UNL     1      11.044 -53.333 -22.666  1.00  0.00    -0.203 N 
ATOM      5  C   UNL     1      10.942 -53.748 -21.383  1.00  0.00     0.308 A 
ATOM      6  C   UNL     1      10.937 -55.103 -21.078  1.00  0.00     0.074 A 
ENDROOT
BRANCH   1   7
ATOM      7  C   UNL     1      11.046 -57.524 -21.772  1.00  0.00     0.067 C 
BRANCH   7   8
ATOM      8  C   UNL     1      10.245 -58.332 -22.752  1.00  0.00     0.020 C 
BRANCH   8   9
ATOM      9  C   UNL     1      10.025 -59.654 -22.656  1.00  0.00     0.102 C 
BRANCH   9  10
ATOM     10  O   UNL     1       8.900 -60.106 -21.985  1.00  0.00    -0.511 OA
ATOM     11  H   UNL     1       9.003 -59.851 -21.045  1.00  0.00     0.293 HD
ENDBRANCH   9  10
BRANCH   9  12
ATOM     12  C   UNL     1      10.965 -60.695 -23.251  1.00  0.00     0.121 C 
ATOM     13  C   UNL     1      10.238 -61.688 -24.183  1.00  0.00     0.059 C 
ATOM     14  S   UNL     1      12.260 -59.877 -24.259  1.00  0.00    -0.114 SA
ATOM     15  C   UNL     1      10.430 -61.223 -25.597  1.00  0.00    -0.029 A 
ATOM     16  C   UNL     1      11.479 -60.324 -25.783  1.00  0.00     0.015 A 
ATOM     17  C   UNL     1       9.694 -61.666 -26.688  1.00  0.00     0.055 A 
ATOM     18  C   UNL     1      11.804 -59.834 -27.043  1.00  0.00     0.065 A 
ATOM     19  C   UNL     1      10.023 -61.192 -27.961  1.00  0.00     0.161 A 
ATOM     20  C   UNL     1      11.063 -60.258 -28.152  1.00  0.00     0.161 A 
BRANCH  19  21
ATOM     21  O   UNL     1       9.234 -61.635 -28.996  1.00  0.00    -0.493 OA
ATOM     22  C   UNL     1       8.575 -62.854 -28.643  1.00  0.00     0.278 C 
ENDBRANCH  19  21
BRANCH  20  23
ATOM     23  O   UNL     1      11.256 -59.817 -29.434  1.00  0.00    -0.493 OA
ATOM     24  C   UNL     1      11.945 -58.584 -29.609  1.00  0.00     0.278 C 
ENDBRANCH  20  23
ENDBRANCH   9  12
ENDBRANCH   8   9
ENDBRANCH   7   8
ENDBRANCH   1   7
BRANCH   4  25
ATOM     25  C   UNL     1      11.031 -51.880 -22.978  1.00  0.00     0.385 C 
BRANCH  25  26
ATOM     26  C   UNL     1      12.455 -51.390 -23.230  1.00  0.00     0.233 C 
BRANCH  26  27
ATOM     27  O   UNL     1      12.433 -50.444 -24.303  1.00  0.00    -0.375 OA
BRANCH  27  28
ATOM     28  C   UNL     1      13.468 -50.660 -25.268  1.00  0.00     0.157 C 
ATOM     29  C   UNL     1      13.493 -52.110 -25.715  1.00  0.00     0.035 C 
ENDBRANCH  27  28
ENDBRANCH  26  27
ENDBRANCH  25  26
ENDBRANCH   4  25
TORSDOF 11
ENDMDL
MODEL 4
REMARK VINA RESULT:    -8.364      3.115      6.146
REMARK INTER + INTRA:         -15.111
REMARK INTER:                 -14.370
REMARK INTRA:                  -0.740
REMARK UNBOUND:                -1.613
REMARK SMILES CCOCC[n+]1ccc(CC=C(O)[C@H]2Cc3cc(OC)c(OC)cc3S2)cc1
REMARK SMILES IDX 9 1 8 2 7 3 6 4 28 5 27 6 10 7 11 8 12 9 13 10 14 12 15 13
REMARK SMILES IDX 26 14 16 15 25 16 17 17 24 18 18 19 21 20 19 21 20 22 22 23
REMARK SMILES IDX 23 24 5 25 4 26 3 27 2 28 1 29
REMARK H PARENT 13 11
ROOT
ATOM      1  C   UNL     1      10.783 -53.877 -23.104  1.00  0.00    -0.032 A 
ATOM      2  C   UNL     1      10.103 -53.144 -22.132  1.00  0.00     0.074 A 
ATOM      3  C   UNL     1      10.438 -51.811 -21.916  1.00  0.00     0.308 A 
ATOM      4  N   UNL     1      11.415 -51.215 -22.643  1.00  0.00    -0.203 N 
ATOM      5  C   UNL     1      12.078 -51.903 -23.600  1.00  0.00     0.308 A 
ATOM      6  C   UNL     1      11.777 -53.236 -23.847  1.00  0.00     0.074 A 
ENDROOT
BRANCH   1   7
ATOM      7  C   UNL     1      10.441 -55.323 -23.380  1.00  0.00     0.067 C 
BRANCH   7   8
ATOM      8  C   UNL     1      11.447 -56.269 -22.788  1.00  0.00     0.020 C 
BRANCH   8   9
ATOM      9  C   UNL     1      11.863 -57.406 -23.370  1.00  0.00     0.102 C 
BRANCH   9  10
ATOM     10  O   UNL     1      12.387 -57.357 -24.652  1.00  0.00    -0.511 OA
ATOM     11  H   UNL     1      12.993 -58.120 -24.746  1.00  0.00     0.293 HD
ENDBRANCH   9  10
BRANCH   9  12
ATOM     12  C   UNL     1      11.783 -58.765 -22.684  1.00  0.00     0.121 C 
ATOM     13  C   UNL     1      10.414 -59.014 -22.019  1.00  0.00     0.059 C 
ATOM     14  S   UNL     1      12.028 -60.107 -23.909  1.00  0.00    -0.114 SA
ATOM     15  C   UNL     1       9.582 -59.836 -22.961  1.00  0.00    -0.029 A 
ATOM     16  C   UNL     1      10.302 -60.498 -23.955  1.00  0.00     0.015 A 
ATOM     17  C   UNL     1       8.209 -60.014 -22.863  1.00  0.00     0.055 A 
ATOM     18  C   UNL     1       9.676 -61.328 -24.878  1.00  0.00     0.065 A 
ATOM     19  C   UNL     1       7.572 -60.860 -23.777  1.00  0.00     0.161 A 
ATOM     20  C   UNL     1       8.291 -61.507 -24.804  1.00  0.00     0.161 A 
BRANCH  19  21
ATOM     21  O   UNL     1       6.207 -60.965 -23.655  1.00  0.00    -0.493 OA
ATOM     22  C   UNL     1       5.642 -59.728 -23.213  1.00  0.00     0.278 C 
ENDBRANCH  19  21
BRANCH  20  23
ATOM     23  O   UNL     1       7.554 -62.261 -25.678  1.00  0.00    -0.493 OA
ATOM     24  C   UNL     1       7.300 -63.617 -25.326  1.00  0.00     0.278 C 
ENDBRANCH  20  23
ENDBRANCH   9  12
ENDBRANCH   8   9
ENDBRANCH   7   8
ENDBRANCH   1   7
BRANCH   4  25
ATOM     25  C   UNL     1      11.760 -49.794 -22.379  1.00  0.00     0.385 C 
BRANCH  25  26
ATOM     26  C   UNL     1      10.557 -48.902 -22.680  1.00  0.00     0.233 C 
BRANCH  26  27
ATOM     27  O   UNL     1      10.866 -47.564 -22.280  1.00  0.00    -0.375 OA
BRANCH  27  28
ATOM     28  C   UNL     1      11.915 -46.970 -23.052  1.00  0.00     0.157 C 
ATOM     29  C   UNL     1      11.498 -46.822 -24.503  1.00  0.00     0.035 C 
ENDBRANCH  27  28
ENDBRANCH  26  27
ENDBRANCH  25  26
ENDBRANCH   4  25
TORSDOF 11
ENDMDL
MODEL 5
REMARK VINA RESULT:    -8.355      2.813      5.154
REMARK INTER + INTRA:         -15.096
REMARK INTER:                 -14.286
REMARK INTRA:                  -0.810
REMARK UNBOUND:                -1.613
REMARK SMILES CCOCC[n+]1ccc(CC=C(O)[C@H]2Cc3cc(OC)c(OC)cc3S2)cc1
REMARK SMILES IDX 9 1 8 2 7 3 6 4 28 5 27 6 10 7 11 8 12 9 13 10 14 12 15 13
REMARK SMILES IDX 26 14 16 15 25 16 17 17 24 18 18 19 21 20 19 21 20 22 22 23
REMARK SMILES IDX 23 24 5 25 4 26 3 27 2 28 1 29
REMARK H PARENT 13 11
ROOT
ATOM      1  C   UNL     1      10.620 -55.208 -22.781  1.00  0.00    -0.032 A 
ATOM      2  C   UNL     1      11.271 -54.683 -23.897  1.00  0.00     0.074 A 
ATOM      3  C   UNL     1      11.743 -53.374 -23.866  1.00  0.00     0.308 A 
ATOM      4  N   UNL     1      11.582 -52.606 -22.761  1.00  0.00    -0.203 N 
ATOM      5  C   UNL     1      10.967 -53.099 -21.662  1.00  0.00     0.308 A 
ATOM      6  C   UNL     1      10.479 -54.400 -21.651  1.00  0.00     0.074 A 
ENDROOT
BRANCH   1   7
ATOM      7  C   UNL     1      10.104 -56.628 -22.769  1.00  0.00     0.067 C 
BRANCH   7   8
ATOM      8  C   UNL     1      11.193 -57.633 -23.018  1.00  0.00     0.020 C 
BRANCH   8   9
ATOM      9  C   UNL     1      11.375 -58.757 -22.305  1.00  0.00     0.102 C 
BRANCH   9  10
ATOM     10  O   UNL     1      11.016 -58.775 -20.966  1.00  0.00    -0.511 OA
ATOM     11  H   UNL     1      10.178 -59.277 -20.898  1.00  0.00     0.293 HD
ENDBRANCH   9  10
BRANCH   9  12
ATOM     12  C   UNL     1      11.967 -60.029 -22.901  1.00  0.00     0.121 C 
ATOM     13  C   UNL     1      10.991 -61.223 -22.839  1.00  0.00     0.059 C 
ATOM     14  S   UNL     1      12.372 -59.770 -24.670  1.00  0.00    -0.114 SA
ATOM     15  C   UNL     1      10.311 -61.337 -24.173  1.00  0.00    -0.029 A 
ATOM     16  C   UNL     1      10.954 -60.676 -25.218  1.00  0.00     0.015 A 
ATOM     17  C   UNL     1       9.167 -62.083 -24.422  1.00  0.00     0.055 A 
ATOM     18  C   UNL     1      10.466 -60.722 -26.519  1.00  0.00     0.065 A 
ATOM     19  C   UNL     1       8.677 -62.149 -25.730  1.00  0.00     0.161 A 
ATOM     20  C   UNL     1       9.305 -61.455 -26.786  1.00  0.00     0.161 A 
BRANCH  19  21
ATOM     21  O   UNL     1       7.519 -62.869 -25.908  1.00  0.00    -0.493 OA
ATOM     22  C   UNL     1       7.251 -63.685 -24.765  1.00  0.00     0.278 C 
ENDBRANCH  19  21
BRANCH  20  23
ATOM     23  O   UNL     1       8.702 -61.543 -28.013  1.00  0.00    -0.493 OA
ATOM     24  C   UNL     1       9.039 -62.656 -28.834  1.00  0.00     0.278 C 
ENDBRANCH  20  23
ENDBRANCH   9  12
ENDBRANCH   8   9
ENDBRANCH   7   8
ENDBRANCH   1   7
BRANCH   4  25
ATOM     25  C   UNL     1      12.084 -51.207 -22.763  1.00  0.00     0.385 C 
BRANCH  25  26
ATOM     26  C   UNL     1      12.703 -50.878 -24.119  1.00  0.00     0.233 C 
BRANCH  26  27
ATOM     27  O   UNL     1      14.123 -50.795 -23.969  1.00  0.00    -0.375 OA
BRANCH  27  28
ATOM     28  C   UNL     1      14.837 -51.063 -25.180  1.00  0.00     0.157 C 
ATOM     29  C   UNL     1      13.988 -50.725 -26.391  1.00  0.00     0.035 C 
ENDBRANCH  27  28
ENDBRANCH  26  27
ENDBRANCH  25  26
ENDBRANCH   4  25
TORSDOF 11
ENDMDL
MODEL 6
REMARK VINA RESULT:    -8.322      2.924      5.125
REMARK INTER + INTRA:         -15.043
REMARK INTER:                 -14.362
REMARK INTRA:                  -0.681
REMARK UNBOUND:                -1.613
REMARK SMILES CCOCC[n+]1ccc(CC=C(O)[C@H]2Cc3cc(OC)c(OC)cc3S2)cc1
REMARK SMILES IDX 9 1 8 2 7 3 6 4 28 5 27 6 10 7 11 8 12 9 13 10 14 12 15 13
REMARK SMILES IDX 26 14 16 15 25 16 17 17 24 18 18 19 21 20 19 21 20 22 22 23
REMARK SMILES IDX 23 24 5 25 4 26 3 27 2 28 1 29
REMARK H PARENT 13 11
ROOT
ATOM      1  C   UNL     1      10.579 -55.286 -22.783  1.00  0.00    -0.032 A 
ATOM      2  C   UNL     1      10.367 -54.362 -21.760  1.00  0.00     0.074 A 
ATOM      3  C   UNL     1      10.888 -53.077 -21.874  1.00  0.00     0.308 A 
ATOM      4  N   UNL     1      11.595 -52.710 -22.971  1.00  0.00    -0.203 N 
ATOM      5  C   UNL     1      11.801 -53.586 -23.981  1.00  0.00     0.308 A 
ATOM      6  C   UNL     1      11.300 -54.879 -23.907  1.00  0.00     0.074 A 
ENDROOT
BRANCH   1   7
ATOM      7  C   UNL     1      10.019 -56.687 -22.705  1.00  0.00     0.067 C 
BRANCH   7   8
ATOM      8  C   UNL     1      11.026 -57.726 -23.111  1.00  0.00     0.020 C 
BRANCH   8   9
ATOM      9  C   UNL     1      11.228 -58.888 -22.468  1.00  0.00     0.102 C 
BRANCH   9  10
ATOM     10  O   UNL     1      10.828 -59.008 -21.146  1.00  0.00    -0.511 OA
ATOM     11  H   UNL     1      11.510 -58.569 -20.597  1.00  0.00     0.293 HD
ENDBRANCH   9  10
BRANCH   9  12
ATOM     12  C   UNL     1      11.888 -60.094 -23.125  1.00  0.00     0.121 C 
ATOM     13  C   UNL     1      10.997 -61.354 -23.083  1.00  0.00     0.059 C 
ATOM     14  S   UNL     1      12.227 -59.746 -24.893  1.00  0.00    -0.114 SA
ATOM     15  C   UNL     1      10.290 -61.467 -24.403  1.00  0.00    -0.029 A 
ATOM     16  C   UNL     1      10.858 -60.726 -25.438  1.00  0.00     0.015 A 
ATOM     17  C   UNL     1       9.193 -62.280 -24.650  1.00  0.00     0.055 A 
ATOM     18  C   UNL     1      10.338 -60.760 -26.728  1.00  0.00     0.065 A 
ATOM     19  C   UNL     1       8.673 -62.334 -25.947  1.00  0.00     0.161 A 
ATOM     20  C   UNL     1       9.222 -61.561 -26.992  1.00  0.00     0.161 A 
BRANCH  19  21
ATOM     21  O   UNL     1       7.561 -63.124 -26.123  1.00  0.00    -0.493 OA
ATOM     22  C   UNL     1       6.993 -63.484 -24.861  1.00  0.00     0.278 C 
ENDBRANCH  19  21
BRANCH  20  23
ATOM     23  O   UNL     1       8.594 -61.647 -28.206  1.00  0.00    -0.493 OA
ATOM     24  C   UNL     1       8.933 -62.744 -29.048  1.00  0.00     0.278 C 
ENDBRANCH  20  23
ENDBRANCH   9  12
ENDBRANCH   8   9
ENDBRANCH   7   8
ENDBRANCH   1   7
BRANCH   4  25
ATOM     25  C   UNL     1      12.151 -51.335 -23.057  1.00  0.00     0.385 C 
BRANCH  25  26
ATOM     26  C   UNL     1      11.429 -50.419 -22.072  1.00  0.00     0.233 C 
BRANCH  26  27
ATOM     27  O   UNL     1      10.855 -49.327 -22.794  1.00  0.00    -0.375 OA
BRANCH  27  28
ATOM     28  C   UNL     1      11.707 -48.178 -22.854  1.00  0.00     0.157 C 
ATOM     29  C   UNL     1      11.029 -47.044 -23.602  1.00  0.00     0.035 C 
ENDBRANCH  27  28
ENDBRANCH  26  27
ENDBRANCH  25  26
ENDBRANCH   4  25
TORSDOF 11
ENDMDL
MODEL 7
REMARK VINA RESULT:    -8.108      3.325      8.498
REMARK INTER + INTRA:         -14.698
REMARK INTER:                 -13.824
REMARK INTRA:                  -0.874
REMARK UNBOUND:                -1.613
REMARK SMILES CCOCC[n+]1ccc(CC=C(O)[C@H]2Cc3cc(OC)c(OC)cc3S2)cc1
REMARK SMILES IDX 9 1 8 2 7 3 6 4 28 5 27 6 10 7 11 8 12 9 13 10 14 12 15 13
REMARK SMILES IDX 26 14 16 15 25 16 17 17 24 18 18 19 21 20 19 21 20 22 22 23
REMARK SMILES IDX 23 24 5 25 4 26 3 27 2 28 1 29
REMARK H PARENT 13 11
ROOT
ATOM      1  C   UNL     1      10.854 -59.112 -22.065  1.00  0.00    -0.032 A 
ATOM      2  C   UNL     1      10.908 -59.318 -23.443  1.00  0.00     0.074 A 
ATOM      3  C   UNL     1      10.427 -60.507 -23.981  1.00  0.00     0.308 A 
ATOM      4  N   UNL     1       9.901 -61.467 -23.181  1.00  0.00    -0.203 N 
ATOM      5  C   UNL     1       9.826 -61.283 -21.843  1.00  0.00     0.308 A 
ATOM      6  C   UNL     1      10.297 -60.112 -21.265  1.00  0.00     0.074 A 
ENDROOT
BRANCH   1   7
ATOM      7  C   UNL     1      11.354 -57.830 -21.442  1.00  0.00     0.067 C 
BRANCH   7   8
ATOM      8  C   UNL     1      11.379 -56.692 -22.422  1.00  0.00     0.020 C 
BRANCH   8   9
ATOM      9  C   UNL     1      10.963 -55.443 -22.154  1.00  0.00     0.102 C 
BRANCH   9  10
ATOM     10  O   UNL     1      11.000 -54.982 -20.847  1.00  0.00    -0.511 OA
ATOM     11  H   UNL     1      11.546 -54.169 -20.843  1.00  0.00     0.293 HD
ENDBRANCH   9  10
BRANCH   9  12
ATOM     12  C   UNL     1      10.440 -54.496 -23.228  1.00  0.00     0.121 C 
ATOM     13  C   UNL     1      10.061 -53.111 -22.664  1.00  0.00     0.059 C 
ATOM     14  S   UNL     1      11.727 -54.213 -24.503  1.00  0.00    -0.114 SA
ATOM     15  C   UNL     1      11.214 -52.180 -22.905  1.00  0.00    -0.029 A 
ATOM     16  C   UNL     1      12.121 -52.607 -23.873  1.00  0.00     0.015 A 
ATOM     17  C   UNL     1      11.383 -50.946 -22.290  1.00  0.00     0.055 A 
ATOM     18  C   UNL     1      13.220 -51.834 -24.234  1.00  0.00     0.065 A 
ATOM     19  C   UNL     1      12.475 -50.154 -22.658  1.00  0.00     0.161 A 
ATOM     20  C   UNL     1      13.415 -50.595 -23.613  1.00  0.00     0.161 A 
BRANCH  19  21
ATOM     21  O   UNL     1      12.612 -48.962 -21.986  1.00  0.00    -0.493 OA
ATOM     22  C   UNL     1      11.984 -47.900 -22.708  1.00  0.00     0.278 C 
ENDBRANCH  19  21
BRANCH  20  23
ATOM     23  O   UNL     1      14.477 -49.763 -23.849  1.00  0.00    -0.493 OA
ATOM     24  C   UNL     1      15.177 -49.921 -25.079  1.00  0.00     0.278 C 
ENDBRANCH  20  23
ENDBRANCH   9  12
ENDBRANCH   8   9
ENDBRANCH   7   8
ENDBRANCH   1   7
BRANCH   4  25
ATOM     25  C   UNL     1       9.408 -62.733 -23.783  1.00  0.00     0.385 C 
BRANCH  25  26
ATOM     26  C   UNL     1       7.882 -62.767 -23.745  1.00  0.00     0.233 C 
BRANCH  26  27
ATOM     27  O   UNL     1       7.379 -61.591 -24.385  1.00  0.00    -0.375 OA
BRANCH  27  28
ATOM     28  C   UNL     1       6.525 -60.810 -23.543  1.00  0.00     0.157 C 
ATOM     29  C   UNL     1       6.955 -59.354 -23.545  1.00  0.00     0.035 C 
ENDBRANCH  27  28
ENDBRANCH  26  27
ENDBRANCH  25  26
ENDBRANCH   4  25
TORSDOF 11
ENDMDL
MODEL 8
REMARK VINA RESULT:    -7.628      3.281      5.537
REMARK INTER + INTRA:         -13.923
REMARK INTER:                 -13.216
REMARK INTRA:                  -0.707
REMARK UNBOUND:                -1.613
REMARK SMILES CCOCC[n+]1ccc(CC=C(O)[C@H]2Cc3cc(OC)c(OC)cc3S2)cc1
REMARK SMILES IDX 9 1 8 2 7 3 6 4 28 5 27 6 10 7 11 8 12 9 13 10 14 12 15 13
REMARK SMILES IDX 26 14 16 15 25 16 17 17 24 18 18 19 21 20 19 21 20 22 22 23
REMARK SMILES IDX 23 24 5 25 4 26 3 27 2 28 1 29
REMARK H PARENT 13 11
ROOT
ATOM      1  C   UNL     1      10.908 -53.684 -22.530  1.00  0.00    -0.032 A 
ATOM      2  C   UNL     1      11.635 -53.724 -23.719  1.00  0.00     0.074 A 
ATOM      3  C   UNL     1      12.301 -52.584 -24.157  1.00  0.00     0.308 A 
ATOM      4  N   UNL     1      12.256 -51.435 -23.438  1.00  0.00    -0.203 N 
ATOM      5  C   UNL     1      11.568 -51.378 -22.275  1.00  0.00     0.308 A 
ATOM      6  C   UNL     1      10.887 -52.492 -21.802  1.00  0.00     0.074 A 
ENDROOT
BRANCH   1   7
ATOM      7  C   UNL     1      10.181 -54.903 -22.012  1.00  0.00     0.067 C 
BRANCH   7   8
ATOM      8  C   UNL     1      10.772 -56.183 -22.531  1.00  0.00     0.020 C 
BRANCH   8   9
ATOM      9  C   UNL     1      10.058 -57.229 -22.978  1.00  0.00     0.102 C 
BRANCH   9  10
ATOM     10  O   UNL     1       8.778 -57.016 -23.465  1.00  0.00    -0.511 OA
ATOM     11  H   UNL     1       8.864 -56.475 -24.277  1.00  0.00     0.293 HD
ENDBRANCH   9  10
BRANCH   9  12
ATOM     12  C   UNL     1      10.590 -58.657 -22.973  1.00  0.00     0.121 C 
ATOM     13  C   UNL     1       9.650 -59.643 -23.698  1.00  0.00     0.059 C 
ATOM     14  S   UNL     1      12.205 -58.735 -23.837  1.00  0.00    -0.114 SA
ATOM     15  C   UNL     1      10.164 -59.833 -25.096  1.00  0.00    -0.029 A 
ATOM     16  C   UNL     1      11.491 -59.453 -25.290  1.00  0.00     0.015 A 
ATOM     17  C   UNL     1       9.444 -60.399 -26.139  1.00  0.00     0.055 A 
ATOM     18  C   UNL     1      12.121 -59.605 -26.520  1.00  0.00     0.065 A 
ATOM     19  C   UNL     1      10.073 -60.571 -27.376  1.00  0.00     0.161 A 
ATOM     20  C   UNL     1      11.405 -60.158 -27.588  1.00  0.00     0.161 A 
BRANCH  19  21
ATOM     21  O   UNL     1       9.297 -61.098 -28.382  1.00  0.00    -0.493 OA
ATOM     22  C   UNL     1       8.971 -62.463 -28.106  1.00  0.00     0.278 C 
ENDBRANCH  19  21
BRANCH  20  23
ATOM     23  O   UNL     1      11.897 -60.320 -28.856  1.00  0.00    -0.493 OA
ATOM     24  C   UNL     1      11.931 -59.175 -29.700  1.00  0.00     0.278 C 
ENDBRANCH  20  23
ENDBRANCH   9  12
ENDBRANCH   8   9
ENDBRANCH   7   8
ENDBRANCH   1   7
BRANCH   4  25
ATOM     25  C   UNL     1      12.966 -50.230 -23.939  1.00  0.00     0.385 C 
BRANCH  25  26
ATOM     26  C   UNL     1      12.064 -49.004 -23.812  1.00  0.00     0.233 C 
BRANCH  26  27
ATOM     27  O   UNL     1      12.532 -48.199 -22.726  1.00  0.00    -0.375 OA
BRANCH  27  28
ATOM     28  C   UNL     1      12.245 -46.807 -22.889  1.00  0.00     0.157 C 
ATOM     29  C   UNL     1      11.009 -46.609 -23.748  1.00  0.00     0.035 C 
ENDBRANCH  27  28
ENDBRANCH  26  27
ENDBRANCH  25  26
ENDBRANCH   4  25
TORSDOF 11
ENDMDL
MODEL 9
REMARK VINA RESULT:    -7.545      4.263      7.081
REMARK INTER + INTRA:         -13.790
REMARK INTER:                 -13.231
REMARK INTRA:                  -0.559
REMARK UNBOUND:                -1.613
REMARK SMILES CCOCC[n+]1ccc(CC=C(O)[C@H]2Cc3cc(OC)c(OC)cc3S2)cc1
REMARK SMILES IDX 9 1 8 2 7 3 6 4 28 5 27 6 10 7 11 8 12 9 13 10 14 12 15 13
REMARK SMILES IDX 26 14 16 15 25 16 17 17 24 18 18 19 21 20 19 21 20 22 22 23
REMARK SMILES IDX 23 24 5 25 4 26 3 27 2 28 1 29
REMARK H PARENT 13 11
ROOT
ATOM      1  C   UNL     1      11.107 -51.706 -22.386  1.00  0.00    -0.032 A 
ATOM      2  C   UNL     1      12.187 -51.108 -23.034  1.00  0.00     0.074 A 
ATOM      3  C   UNL     1      12.168 -49.738 -23.280  1.00  0.00     0.308 A 
ATOM      4  N   UNL     1      11.115 -48.978 -22.891  1.00  0.00    -0.203 N 
ATOM      5  C   UNL     1      10.064 -49.535 -22.249  1.00  0.00     0.308 A 
ATOM      6  C   UNL     1      10.040 -50.899 -21.985  1.00  0.00     0.074 A 
ENDROOT
BRANCH   1   7
ATOM      7  C   UNL     1      11.092 -53.188 -22.088  1.00  0.00     0.067 C 
BRANCH   7   8
ATOM      8  C   UNL     1      11.195 -54.021 -23.334  1.00  0.00     0.020 C 
BRANCH   8   9
ATOM      9  C   UNL     1      11.013 -55.351 -23.382  1.00  0.00     0.102 C 
BRANCH   9  10
ATOM     10  O   UNL     1      11.649 -56.085 -24.371  1.00  0.00    -0.511 OA
ATOM     11  H   UNL     1      12.020 -55.445 -25.013  1.00  0.00     0.293 HD
ENDBRANCH   9  10
BRANCH   9  12
ATOM     12  C   UNL     1      10.127 -56.102 -22.395  1.00  0.00     0.121 C 
ATOM     13  C   UNL     1       8.979 -56.863 -23.090  1.00  0.00     0.059 C 
ATOM     14  S   UNL     1      11.113 -57.350 -21.483  1.00  0.00    -0.114 SA
ATOM     15  C   UNL     1       9.403 -58.294 -23.254  1.00  0.00    -0.029 A 
ATOM     16  C   UNL     1      10.463 -58.690 -22.440  1.00  0.00     0.015 A 
ATOM     17  C   UNL     1       8.785 -59.217 -24.086  1.00  0.00     0.055 A 
ATOM     18  C   UNL     1      10.943 -59.995 -22.450  1.00  0.00     0.065 A 
ATOM     19  C   UNL     1       9.249 -60.537 -24.093  1.00  0.00     0.161 A 
ATOM     20  C   UNL     1      10.342 -60.935 -23.295  1.00  0.00     0.161 A 
BRANCH  19  21
ATOM     21  O   UNL     1       8.624 -61.395 -24.966  1.00  0.00    -0.493 OA
ATOM     22  C   UNL     1       9.213 -61.310 -26.266  1.00  0.00     0.278 C 
ENDBRANCH  19  21
BRANCH  20  23
ATOM     23  O   UNL     1      10.749 -62.236 -23.428  1.00  0.00    -0.493 OA
ATOM     24  C   UNL     1      10.132 -63.208 -22.591  1.00  0.00     0.278 C 
ENDBRANCH  20  23
ENDBRANCH   9  12
ENDBRANCH   8   9
ENDBRANCH   7   8
ENDBRANCH   1   7
BRANCH   4  25
ATOM     25  C   UNL     1      11.119 -47.520 -23.181  1.00  0.00     0.385 C 
BRANCH  25  26
ATOM     26  C   UNL     1      11.399 -46.737 -21.901  1.00  0.00     0.233 C 
BRANCH  26  27
ATOM     27  O   UNL     1      10.400 -45.725 -21.752  1.00  0.00    -0.375 OA
BRANCH  27  28
ATOM     28  C   UNL     1      10.262 -44.891 -22.907  1.00  0.00     0.157 C 
ATOM     29  C   UNL     1      11.091 -43.628 -22.760  1.00  0.00     0.035 C 
ENDBRANCH  27  28
ENDBRANCH  26  27
ENDBRANCH  25  26
ENDBRANCH   4  25
TORSDOF 11
ENDMDL
