MODEL 1
REMARK VINA RESULT:   -11.669      0.000      0.000
REMARK INTER + INTRA:         -16.798
REMARK INTER:                 -16.103
REMARK INTRA:                  -0.696
REMARK UNBOUND:                -0.696
REMARK SMILES COc1ccc2c(c1)CCC(Cc1cc[n+](Cc3ccccc3C)cc1C(C)=O)=C2O
REMARK SMILES IDX 13 1 14 2 15 3 16 4 25 5 26 6 12 7 11 8 30 9 6 10 10 11 5 12
REMARK SMILES IDX 7 13 9 14 4 15 8 16 3 17 31 18 2 20 1 21 27 22 28 23 29 24
REMARK SMILES IDX 17 25 18 26 19 27 23 28 20 29 22 30 21 31 24 32
REMARK H PARENT 31 19
ROOT
ATOM      1  C   UNL     1       9.890 -57.275 -22.775  1.00  0.00    -0.021 A 
ATOM      2  C   UNL     1      11.222 -57.669 -22.563  1.00  0.00     0.075 A 
ATOM      3  C   UNL     1      11.641 -58.955 -22.881  1.00  0.00     0.308 A 
ATOM      4  N   UNL     1      10.768 -59.853 -23.394  1.00  0.00    -0.200 N 
ATOM      5  C   UNL     1       9.476 -59.508 -23.596  1.00  0.00     0.320 A 
ATOM      6  C   UNL     1       9.013 -58.217 -23.319  1.00  0.00     0.085 A 
ENDROOT
BRANCH   1   7
ATOM      7  C   UNL     1       9.503 -55.869 -22.379  1.00  0.00     0.071 C 
BRANCH   7   8
ATOM      8  C   UNL     1      10.361 -54.734 -22.904  1.00  0.00    -0.023 C 
ATOM      9  C   UNL     1      10.808 -53.654 -22.231  1.00  0.00     0.122 C 
ATOM     10  C   UNL     1      11.569 -52.587 -22.927  1.00  0.00     0.020 A 
ATOM     11  C   UNL     1      10.723 -54.897 -24.374  1.00  0.00     0.040 C 
ATOM     12  C   UNL     1      11.673 -51.284 -22.420  1.00  0.00     0.016 A 
ATOM     13  C   UNL     1      12.188 -52.877 -24.155  1.00  0.00    -0.033 A 
ATOM     14  C   UNL     1      12.067 -54.258 -24.738  1.00  0.00     0.041 C 
ATOM     15  C   UNL     1      12.415 -50.303 -23.092  1.00  0.00     0.047 A 
ATOM     16  C   UNL     1      12.944 -51.896 -24.812  1.00  0.00     0.050 A 
ATOM     17  C   UNL     1      13.062 -50.609 -24.287  1.00  0.00     0.119 A 
BRANCH   9  18
ATOM     18  O   UNL     1      10.615 -53.499 -20.874  1.00  0.00    -0.507 OA
ATOM     19  H   UNL     1      11.429 -53.814 -20.437  1.00  0.00     0.293 HD
ENDBRANCH   9  18
BRANCH  17  20
ATOM     20  O   UNL     1      13.820 -49.753 -25.035  1.00  0.00    -0.497 OA
ATOM     21  C   UNL     1      14.225 -50.200 -26.322  1.00  0.00     0.278 C 
ENDBRANCH  17  20
ENDBRANCH   7   8
ENDBRANCH   1   7
BRANCH   6  22
ATOM     22  C   UNL     1       7.571 -58.022 -23.594  1.00  0.00     0.166 C 
ATOM     23  C   UNL     1       6.526 -58.437 -22.598  1.00  0.00     0.094 C 
ATOM     24  O   UNL     1       7.284 -57.449 -24.644  1.00  0.00    -0.294 OA
ENDBRANCH   6  22
BRANCH   4  25
ATOM     25  C   UNL     1      11.214 -61.239 -23.696  1.00  0.00     0.393 C 
BRANCH  25  26
ATOM     26  C   UNL     1      10.070 -62.226 -23.675  1.00  0.00     0.020 A 
ATOM     27  C   UNL     1       9.808 -62.917 -22.476  1.00  0.00     0.010 A 
ATOM     28  C   UNL     1       9.259 -62.480 -24.803  1.00  0.00    -0.042 A 
ATOM     29  C   UNL     1       8.785 -63.862 -22.401  1.00  0.00     0.001 A 
ATOM     30  C   UNL     1       8.243 -63.445 -24.711  1.00  0.00     0.004 A 
ATOM     31  C   UNL     1       8.006 -64.129 -23.520  1.00  0.00     0.000 A 
ATOM     32  C   UNL     1       9.452 -61.784 -26.124  1.00  0.00     0.045 C 
ENDBRANCH  25  26
ENDBRANCH   4  25
TORSDOF 7
ENDMDL
MODEL 2
REMARK VINA RESULT:   -11.167      1.196      2.160
REMARK INTER + INTRA:         -16.106
REMARK INTER:                 -15.889
REMARK INTRA:                  -0.217
REMARK UNBOUND:                -0.696
REMARK SMILES COc1ccc2c(c1)CCC(Cc1cc[n+](Cc3ccccc3C)cc1C(C)=O)=C2O
REMARK SMILES IDX 13 1 14 2 15 3 16 4 25 5 26 6 12 7 11 8 30 9 6 10 10 11 5 12
REMARK SMILES IDX 7 13 9 14 4 15 8 16 3 17 31 18 2 20 1 21 27 22 28 23 29 24
REMARK SMILES IDX 17 25 18 26 19 27 23 28 20 29 22 30 21 31 24 32
REMARK H PARENT 31 19
ROOT
ATOM      1  C   UNL     1      10.644 -57.703 -22.336  1.00  0.00    -0.021 A 
ATOM      2  C   UNL     1      11.850 -58.404 -22.163  1.00  0.00     0.075 A 
ATOM      3  C   UNL     1      12.040 -59.645 -22.759  1.00  0.00     0.308 A 
ATOM      4  N   UNL     1      11.063 -60.202 -23.510  1.00  0.00    -0.200 N 
ATOM      5  C   UNL     1       9.886 -59.559 -23.684  1.00  0.00     0.320 A 
ATOM      6  C   UNL     1       9.657 -58.295 -23.129  1.00  0.00     0.085 A 
ENDROOT
BRANCH   1   7
ATOM      7  C   UNL     1      10.500 -56.372 -21.635  1.00  0.00     0.071 C 
BRANCH   7   8
ATOM      8  C   UNL     1      11.019 -55.143 -22.357  1.00  0.00    -0.023 C 
ATOM      9  C   UNL     1      11.452 -55.053 -23.631  1.00  0.00     0.122 C 
ATOM     10  C   UNL     1      12.014 -53.782 -24.154  1.00  0.00     0.020 A 
ATOM     11  C   UNL     1      11.025 -53.899 -21.479  1.00  0.00     0.040 C 
ATOM     12  C   UNL     1      12.859 -53.737 -25.272  1.00  0.00     0.016 A 
ATOM     13  C   UNL     1      11.717 -52.578 -23.493  1.00  0.00    -0.033 A 
ATOM     14  C   UNL     1      10.839 -52.601 -22.272  1.00  0.00     0.041 C 
ATOM     15  C   UNL     1      13.359 -52.520 -25.753  1.00  0.00     0.047 A 
ATOM     16  C   UNL     1      12.205 -51.362 -23.990  1.00  0.00     0.050 A 
ATOM     17  C   UNL     1      13.025 -51.325 -25.118  1.00  0.00     0.119 A 
BRANCH   9  18
ATOM     18  O   UNL     1      11.370 -56.109 -24.515  1.00  0.00    -0.507 OA
ATOM     19  H   UNL     1      10.938 -56.842 -24.035  1.00  0.00     0.293 HD
ENDBRANCH   9  18
BRANCH  17  20
ATOM     20  O   UNL     1      13.434 -50.075 -25.487  1.00  0.00    -0.497 OA
ATOM     21  C   UNL     1      14.321 -49.981 -26.594  1.00  0.00     0.278 C 
ENDBRANCH  17  20
ENDBRANCH   7   8
ENDBRANCH   1   7
BRANCH   6  22
ATOM     22  C   UNL     1       8.312 -57.746 -23.416  1.00  0.00     0.166 C 
ATOM     23  C   UNL     1       7.073 -58.565 -23.190  1.00  0.00     0.094 C 
ATOM     24  O   UNL     1       8.263 -56.573 -23.784  1.00  0.00    -0.294 OA
ENDBRANCH   6  22
BRANCH   4  25
ATOM     25  C   UNL     1      11.260 -61.548 -24.112  1.00  0.00     0.393 C 
BRANCH  25  26
ATOM     26  C   UNL     1       9.954 -62.188 -24.522  1.00  0.00     0.020 A 
ATOM     27  C   UNL     1       9.504 -61.997 -25.844  1.00  0.00     0.010 A 
ATOM     28  C   UNL     1       9.172 -62.964 -23.638  1.00  0.00    -0.042 A 
ATOM     29  C   UNL     1       8.293 -62.538 -26.275  1.00  0.00     0.001 A 
ATOM     30  C   UNL     1       7.948 -63.488 -24.088  1.00  0.00     0.004 A 
ATOM     31  C   UNL     1       7.514 -63.278 -25.395  1.00  0.00     0.000 A 
ATOM     32  C   UNL     1       9.572 -63.234 -22.213  1.00  0.00     0.045 C 
ENDBRANCH  25  26
ENDBRANCH   4  25
TORSDOF 7
ENDMDL
MODEL 3
REMARK VINA RESULT:   -11.050      2.407      9.573
REMARK INTER + INTRA:         -15.944
REMARK INTER:                 -14.748
REMARK INTRA:                  -1.196
REMARK UNBOUND:                -0.696
REMARK SMILES COc1ccc2c(c1)CCC(Cc1cc[n+](Cc3ccccc3C)cc1C(C)=O)=C2O
REMARK SMILES IDX 13 1 14 2 15 3 16 4 25 5 26 6 12 7 11 8 30 9 6 10 10 11 5 12
REMARK SMILES IDX 7 13 9 14 4 15 8 16 3 17 31 18 2 20 1 21 27 22 28 23 29 24
REMARK SMILES IDX 17 25 18 26 19 27 23 28 20 29 22 30 21 31 24 32
REMARK H PARENT 31 19
ROOT
ATOM      1  C   UNL     1      11.063 -54.344 -23.244  1.00  0.00    -0.021 A 
ATOM      2  C   UNL     1      11.638 -55.045 -24.318  1.00  0.00     0.075 A 
ATOM      3  C   UNL     1      12.478 -54.401 -25.218  1.00  0.00     0.308 A 
ATOM      4  N   UNL     1      12.751 -53.084 -25.078  1.00  0.00    -0.200 N 
ATOM      5  C   UNL     1      12.202 -52.377 -24.063  1.00  0.00     0.320 A 
ATOM      6  C   UNL     1      11.373 -52.987 -23.115  1.00  0.00     0.085 A 
ENDROOT
BRANCH   1   7
ATOM      7  C   UNL     1      10.138 -55.106 -22.323  1.00  0.00     0.071 C 
BRANCH   7   8
ATOM      8  C   UNL     1      10.152 -56.619 -22.415  1.00  0.00    -0.023 C 
ATOM      9  C   UNL     1       9.304 -57.415 -23.099  1.00  0.00     0.122 C 
ATOM     10  C   UNL     1       9.409 -58.892 -23.009  1.00  0.00     0.020 A 
ATOM     11  C   UNL     1      11.284 -57.251 -21.617  1.00  0.00     0.040 C 
ATOM     12  C   UNL     1       8.337 -59.743 -23.315  1.00  0.00     0.016 A 
ATOM     13  C   UNL     1      10.615 -59.468 -22.574  1.00  0.00    -0.033 A 
ATOM     14  C   UNL     1      11.771 -58.578 -22.208  1.00  0.00     0.041 C 
ATOM     15  C   UNL     1       8.474 -61.135 -23.238  1.00  0.00     0.047 A 
ATOM     16  C   UNL     1      10.750 -60.863 -22.517  1.00  0.00     0.050 A 
ATOM     17  C   UNL     1       9.685 -61.701 -22.847  1.00  0.00     0.119 A 
BRANCH   9  18
ATOM     18  O   UNL     1       8.328 -56.908 -23.932  1.00  0.00    -0.507 OA
ATOM     19  H   UNL     1       7.575 -56.661 -23.363  1.00  0.00     0.293 HD
ENDBRANCH   9  18
BRANCH  17  20
ATOM     20  O   UNL     1       9.954 -63.036 -22.739  1.00  0.00    -0.497 OA
ATOM     21  C   UNL     1       8.844 -63.923 -22.722  1.00  0.00     0.278 C 
ENDBRANCH  17  20
ENDBRANCH   7   8
ENDBRANCH   1   7
BRANCH   6  22
ATOM     22  C   UNL     1      10.857 -52.061 -22.081  1.00  0.00     0.166 C 
ATOM     23  C   UNL     1       9.437 -51.571 -22.115  1.00  0.00     0.094 C 
ATOM     24  O   UNL     1      11.629 -51.770 -21.169  1.00  0.00    -0.294 OA
ENDBRANCH   6  22
BRANCH   4  25
ATOM     25  C   UNL     1      13.620 -52.392 -26.067  1.00  0.00     0.393 C 
BRANCH  25  26
ATOM     26  C   UNL     1      14.883 -51.850 -25.439  1.00  0.00     0.020 A 
ATOM     27  C   UNL     1      15.875 -52.768 -25.038  1.00  0.00     0.010 A 
ATOM     28  C   UNL     1      15.107 -50.470 -25.241  1.00  0.00    -0.042 A 
ATOM     29  C   UNL     1      17.050 -52.333 -24.427  1.00  0.00     0.001 A 
ATOM     30  C   UNL     1      16.292 -50.053 -24.610  1.00  0.00     0.004 A 
ATOM     31  C   UNL     1      17.255 -50.976 -24.209  1.00  0.00     0.000 A 
ATOM     32  C   UNL     1      14.115 -49.413 -25.646  1.00  0.00     0.045 C 
ENDBRANCH  25  26
ENDBRANCH   4  25
TORSDOF 7
ENDMDL
MODEL 4
REMARK VINA RESULT:   -10.728      3.018      5.852
REMARK INTER + INTRA:         -15.500
REMARK INTER:                 -15.179
REMARK INTRA:                  -0.320
REMARK UNBOUND:                -0.696
REMARK SMILES COc1ccc2c(c1)CCC(Cc1cc[n+](Cc3ccccc3C)cc1C(C)=O)=C2O
REMARK SMILES IDX 13 1 14 2 15 3 16 4 25 5 26 6 12 7 11 8 30 9 6 10 10 11 5 12
REMARK SMILES IDX 7 13 9 14 4 15 8 16 3 17 31 18 2 20 1 21 27 22 28 23 29 24
REMARK SMILES IDX 17 25 18 26 19 27 23 28 20 29 22 30 21 31 24 32
REMARK H PARENT 31 19
ROOT
ATOM      1  C   UNL     1      12.326 -52.573 -23.411  1.00  0.00    -0.021 A 
ATOM      2  C   UNL     1      11.431 -52.596 -22.327  1.00  0.00     0.075 A 
ATOM      3  C   UNL     1      10.446 -53.572 -22.241  1.00  0.00     0.308 A 
ATOM      4  N   UNL     1      10.329 -54.514 -23.204  1.00  0.00    -0.200 N 
ATOM      5  C   UNL     1      11.166 -54.511 -24.268  1.00  0.00     0.320 A 
ATOM      6  C   UNL     1      12.192 -53.566 -24.385  1.00  0.00     0.085 A 
ENDROOT
BRANCH   1   7
ATOM      7  C   UNL     1      13.353 -51.464 -23.450  1.00  0.00     0.071 C 
BRANCH   7   8
ATOM      8  C   UNL     1      12.841 -50.043 -23.585  1.00  0.00    -0.023 C 
ATOM      9  C   UNL     1      12.281 -49.270 -22.631  1.00  0.00     0.122 C 
ATOM     10  C   UNL     1      11.751 -47.924 -22.959  1.00  0.00     0.020 A 
ATOM     11  C   UNL     1      13.009 -49.485 -24.991  1.00  0.00     0.040 C 
ATOM     12  C   UNL     1      10.796 -47.277 -22.161  1.00  0.00     0.016 A 
ATOM     13  C   UNL     1      12.194 -47.278 -24.126  1.00  0.00    -0.033 A 
ATOM     14  C   UNL     1      13.193 -47.964 -25.017  1.00  0.00     0.041 C 
ATOM     15  C   UNL     1      10.329 -45.996 -22.487  1.00  0.00     0.047 A 
ATOM     16  C   UNL     1      11.736 -45.990 -24.436  1.00  0.00     0.050 A 
ATOM     17  C   UNL     1      10.805 -45.344 -23.623  1.00  0.00     0.119 A 
BRANCH   9  18
ATOM     18  O   UNL     1      12.201 -49.669 -21.313  1.00  0.00    -0.507 OA
ATOM     19  H   UNL     1      13.045 -49.416 -20.892  1.00  0.00     0.293 HD
ENDBRANCH   9  18
BRANCH  17  20
ATOM     20  O   UNL     1      10.441 -44.098 -24.049  1.00  0.00    -0.497 OA
ATOM     21  C   UNL     1      10.826 -42.996 -23.238  1.00  0.00     0.278 C 
ENDBRANCH  17  20
ENDBRANCH   7   8
ENDBRANCH   1   7
BRANCH   6  22
ATOM     22  C   UNL     1      13.005 -53.709 -25.614  1.00  0.00     0.166 C 
ATOM     23  C   UNL     1      13.259 -55.057 -26.226  1.00  0.00     0.094 C 
ATOM     24  O   UNL     1      13.402 -52.668 -26.135  1.00  0.00    -0.294 OA
ENDBRANCH   6  22
BRANCH   4  25
ATOM     25  C   UNL     1       9.249 -55.533 -23.125  1.00  0.00     0.393 C 
BRANCH  25  26
ATOM     26  C   UNL     1       9.775 -56.898 -22.747  1.00  0.00     0.020 A 
ATOM     27  C   UNL     1      10.984 -56.970 -22.026  1.00  0.00     0.010 A 
ATOM     28  C   UNL     1       9.106 -58.095 -23.085  1.00  0.00    -0.042 A 
ATOM     29  C   UNL     1      11.536 -58.201 -21.672  1.00  0.00     0.001 A 
ATOM     30  C   UNL     1       9.687 -59.325 -22.732  1.00  0.00     0.004 A 
ATOM     31  C   UNL     1      10.889 -59.377 -22.030  1.00  0.00     0.000 A 
ATOM     32  C   UNL     1       7.806 -58.121 -23.842  1.00  0.00     0.045 C 
ENDBRANCH  25  26
ENDBRANCH   4  25
TORSDOF 7
ENDMDL
MODEL 5
REMARK VINA RESULT:   -10.217      1.417      2.361
REMARK INTER + INTRA:         -14.794
REMARK INTER:                 -14.384
REMARK INTRA:                  -0.411
REMARK UNBOUND:                -0.696
REMARK SMILES COc1ccc2c(c1)CCC(Cc1cc[n+](Cc3ccccc3C)cc1C(C)=O)=C2O
REMARK SMILES IDX 13 1 14 2 15 3 16 4 25 5 26 6 12 7 11 8 30 9 6 10 10 11 5 12
REMARK SMILES IDX 7 13 9 14 4 15 8 16 3 17 31 18 2 20 1 21 27 22 28 23 29 24
REMARK SMILES IDX 17 25 18 26 19 27 23 28 20 29 22 30 21 31 24 32
REMARK H PARENT 31 19
ROOT
ATOM      1  C   UNL     1       9.311 -57.511 -23.123  1.00  0.00    -0.021 A 
ATOM      2  C   UNL     1       8.622 -58.138 -24.176  1.00  0.00     0.075 A 
ATOM      3  C   UNL     1       9.001 -59.397 -24.622  1.00  0.00     0.308 A 
ATOM      4  N   UNL     1      10.047 -60.039 -24.054  1.00  0.00    -0.200 N 
ATOM      5  C   UNL     1      10.740 -59.457 -23.048  1.00  0.00     0.320 A 
ATOM      6  C   UNL     1      10.379 -58.203 -22.544  1.00  0.00     0.085 A 
ENDROOT
BRANCH   1   7
ATOM      7  C   UNL     1       8.857 -56.130 -22.710  1.00  0.00     0.071 C 
BRANCH   7   8
ATOM      8  C   UNL     1       9.816 -54.980 -22.949  1.00  0.00    -0.023 C 
ATOM      9  C   UNL     1      10.217 -54.040 -22.068  1.00  0.00     0.122 C 
ATOM     10  C   UNL     1      11.098 -52.926 -22.496  1.00  0.00     0.020 A 
ATOM     11  C   UNL     1      10.352 -54.942 -24.373  1.00  0.00     0.040 C 
ATOM     12  C   UNL     1      11.187 -51.721 -21.783  1.00  0.00     0.016 A 
ATOM     13  C   UNL     1      11.854 -53.062 -23.672  1.00  0.00    -0.033 A 
ATOM     14  C   UNL     1      11.754 -54.332 -24.473  1.00  0.00     0.041 C 
ATOM     15  C   UNL     1      12.044 -50.694 -22.202  1.00  0.00     0.047 A 
ATOM     16  C   UNL     1      12.723 -52.038 -24.076  1.00  0.00     0.050 A 
ATOM     17  C   UNL     1      12.822 -50.853 -23.346  1.00  0.00     0.119 A 
BRANCH   9  18
ATOM     18  O   UNL     1       9.862 -54.080 -20.736  1.00  0.00    -0.507 OA
ATOM     19  H   UNL     1      10.438 -53.441 -20.273  1.00  0.00     0.293 HD
ENDBRANCH   9  18
BRANCH  17  20
ATOM     20  O   UNL     1      13.700 -49.940 -23.858  1.00  0.00    -0.497 OA
ATOM     21  C   UNL     1      13.275 -49.193 -24.991  1.00  0.00     0.278 C 
ENDBRANCH  17  20
ENDBRANCH   7   8
ENDBRANCH   1   7
BRANCH   6  22
ATOM     22  C   UNL     1      11.252 -57.718 -21.451  1.00  0.00     0.166 C 
ATOM     23  C   UNL     1      11.508 -58.558 -20.232  1.00  0.00     0.094 C 
ATOM     24  O   UNL     1      11.798 -56.631 -21.624  1.00  0.00    -0.294 OA
ENDBRANCH   6  22
BRANCH   4  25
ATOM     25  C   UNL     1      10.472 -61.370 -24.563  1.00  0.00     0.393 C 
BRANCH  25  26
ATOM     26  C   UNL     1       9.309 -62.320 -24.725  1.00  0.00     0.020 A 
ATOM     27  C   UNL     1       8.706 -62.427 -25.994  1.00  0.00     0.010 A 
ATOM     28  C   UNL     1       8.804 -63.099 -23.660  1.00  0.00    -0.042 A 
ATOM     29  C   UNL     1       7.610 -63.264 -26.201  1.00  0.00     0.001 A 
ATOM     30  C   UNL     1       7.691 -63.926 -23.886  1.00  0.00     0.004 A 
ATOM     31  C   UNL     1       7.100 -64.009 -25.145  1.00  0.00     0.000 A 
ATOM     32  C   UNL     1       9.386 -63.064 -22.273  1.00  0.00     0.045 C 
ENDBRANCH  25  26
ENDBRANCH   4  25
TORSDOF 7
ENDMDL
MODEL 6
REMARK VINA RESULT:   -10.189      2.853      9.483
REMARK INTER + INTRA:         -14.756
REMARK INTER:                 -13.795
REMARK INTRA:                  -0.961
REMARK UNBOUND:                -0.696
REMARK SMILES COc1ccc2c(c1)CCC(Cc1cc[n+](Cc3ccccc3C)cc1C(C)=O)=C2O
REMARK SMILES IDX 13 1 14 2 15 3 16 4 25 5 26 6 12 7 11 8 30 9 6 10 10 11 5 12
REMARK SMILES IDX 7 13 9 14 4 15 8 16 3 17 31 18 2 20 1 21 27 22 28 23 29 24
REMARK SMILES IDX 17 25 18 26 19 27 23 28 20 29 22 30 21 31 24 32
REMARK H PARENT 31 19
ROOT
ATOM      1  C   UNL     1      11.221 -56.398 -23.221  1.00  0.00    -0.021 A 
ATOM      2  C   UNL     1      11.057 -55.010 -23.074  1.00  0.00     0.075 A 
ATOM      3  C   UNL     1      11.598 -54.129 -24.002  1.00  0.00     0.308 A 
ATOM      4  N   UNL     1      12.299 -54.594 -25.061  1.00  0.00    -0.200 N 
ATOM      5  C   UNL     1      12.487 -55.924 -25.223  1.00  0.00     0.320 A 
ATOM      6  C   UNL     1      11.937 -56.853 -24.332  1.00  0.00     0.085 A 
ENDROOT
BRANCH   1   7
ATOM      7  C   UNL     1      10.627 -57.291 -22.157  1.00  0.00     0.071 C 
BRANCH   7   8
ATOM      8  C   UNL     1       9.750 -58.439 -22.618  1.00  0.00    -0.023 C 
ATOM      9  C   UNL     1       9.949 -59.760 -22.432  1.00  0.00     0.122 C 
ATOM     10  C   UNL     1       9.029 -60.758 -23.032  1.00  0.00     0.020 A 
ATOM     11  C   UNL     1       8.515 -57.972 -23.376  1.00  0.00     0.040 C 
ATOM     12  C   UNL     1       9.405 -62.091 -23.251  1.00  0.00     0.016 A 
ATOM     13  C   UNL     1       7.741 -60.355 -23.424  1.00  0.00    -0.033 A 
ATOM     14  C   UNL     1       7.322 -58.924 -23.229  1.00  0.00     0.041 C 
ATOM     15  C   UNL     1       8.507 -63.015 -23.802  1.00  0.00     0.047 A 
ATOM     16  C   UNL     1       6.841 -61.289 -23.957  1.00  0.00     0.050 A 
ATOM     17  C   UNL     1       7.217 -62.619 -24.149  1.00  0.00     0.119 A 
BRANCH   9  18
ATOM     18  O   UNL     1      10.983 -60.248 -21.660  1.00  0.00    -0.507 OA
ATOM     19  H   UNL     1      11.224 -59.539 -21.035  1.00  0.00     0.293 HD
ENDBRANCH   9  18
BRANCH  17  20
ATOM     20  O   UNL     1       6.245 -63.416 -24.683  1.00  0.00    -0.497 OA
ATOM     21  C   UNL     1       6.592 -64.185 -25.827  1.00  0.00     0.278 C 
ENDBRANCH  17  20
ENDBRANCH   7   8
ENDBRANCH   1   7
BRANCH   6  22
ATOM     22  C   UNL     1      12.250 -58.262 -24.661  1.00  0.00     0.166 C 
ATOM     23  C   UNL     1      11.922 -58.836 -26.009  1.00  0.00     0.094 C 
ATOM     24  O   UNL     1      12.844 -58.909 -23.800  1.00  0.00    -0.294 OA
ENDBRANCH   6  22
BRANCH   4  25
ATOM     25  C   UNL     1      12.908 -53.644 -26.029  1.00  0.00     0.393 C 
BRANCH  25  26
ATOM     26  C   UNL     1      14.184 -53.029 -25.503  1.00  0.00     0.020 A 
ATOM     27  C   UNL     1      15.397 -53.706 -25.738  1.00  0.00     0.010 A 
ATOM     28  C   UNL     1      14.207 -51.811 -24.789  1.00  0.00    -0.042 A 
ATOM     29  C   UNL     1      16.605 -53.205 -25.253  1.00  0.00     0.001 A 
ATOM     30  C   UNL     1      15.432 -51.330 -24.296  1.00  0.00     0.004 A 
ATOM     31  C   UNL     1      16.620 -52.020 -24.528  1.00  0.00     0.000 A 
ATOM     32  C   UNL     1      12.967 -51.009 -24.498  1.00  0.00     0.045 C 
ENDBRANCH  25  26
ENDBRANCH   4  25
TORSDOF 7
ENDMDL
MODEL 7
REMARK VINA RESULT:    -9.967      2.099      3.794
REMARK INTER + INTRA:         -14.450
REMARK INTER:                 -13.241
REMARK INTRA:                  -1.209
REMARK UNBOUND:                -0.696
REMARK SMILES COc1ccc2c(c1)CCC(Cc1cc[n+](Cc3ccccc3C)cc1C(C)=O)=C2O
REMARK SMILES IDX 13 1 14 2 15 3 16 4 25 5 26 6 12 7 11 8 30 9 6 10 10 11 5 12
REMARK SMILES IDX 7 13 9 14 4 15 8 16 3 17 31 18 2 20 1 21 27 22 28 23 29 24
REMARK SMILES IDX 17 25 18 26 19 27 23 28 20 29 22 30 21 31 24 32
REMARK H PARENT 31 19
ROOT
ATOM      1  C   UNL     1      11.241 -55.134 -23.608  1.00  0.00    -0.021 A 
ATOM      2  C   UNL     1      11.793 -56.189 -24.356  1.00  0.00     0.075 A 
ATOM      3  C   UNL     1      11.956 -57.448 -23.794  1.00  0.00     0.308 A 
ATOM      4  N   UNL     1      11.591 -57.679 -22.512  1.00  0.00    -0.200 N 
ATOM      5  C   UNL     1      11.069 -56.682 -21.761  1.00  0.00     0.320 A 
ATOM      6  C   UNL     1      10.859 -55.404 -22.291  1.00  0.00     0.085 A 
ENDROOT
BRANCH   1   7
ATOM      7  C   UNL     1      11.120 -53.786 -24.279  1.00  0.00     0.071 C 
BRANCH   7   8
ATOM      8  C   UNL     1      12.303 -52.843 -24.170  1.00  0.00    -0.023 C 
ATOM      9  C   UNL     1      13.417 -52.821 -24.930  1.00  0.00     0.122 C 
ATOM     10  C   UNL     1      14.525 -51.881 -24.627  1.00  0.00     0.020 A 
ATOM     11  C   UNL     1      12.149 -51.828 -23.046  1.00  0.00     0.040 C 
ATOM     12  C   UNL     1      15.837 -52.096 -25.072  1.00  0.00     0.016 A 
ATOM     13  C   UNL     1      14.264 -50.745 -23.842  1.00  0.00    -0.033 A 
ATOM     14  C   UNL     1      12.872 -50.506 -23.325  1.00  0.00     0.041 C 
ATOM     15  C   UNL     1      16.858 -51.179 -24.785  1.00  0.00     0.047 A 
ATOM     16  C   UNL     1      15.286 -49.823 -23.574  1.00  0.00     0.050 A 
ATOM     17  C   UNL     1      16.583 -50.033 -24.042  1.00  0.00     0.119 A 
BRANCH   9  18
ATOM     18  O   UNL     1      13.573 -53.634 -26.033  1.00  0.00    -0.507 OA
ATOM     19  H   UNL     1      12.720 -54.090 -26.168  1.00  0.00     0.293 HD
ENDBRANCH   9  18
BRANCH  17  20
ATOM     20  O   UNL     1      17.479 -49.060 -23.701  1.00  0.00    -0.497 OA
ATOM     21  C   UNL     1      17.015 -48.020 -22.850  1.00  0.00     0.278 C 
ENDBRANCH  17  20
ENDBRANCH   7   8
ENDBRANCH   1   7
BRANCH   6  22
ATOM     22  C   UNL     1      10.288 -54.438 -21.325  1.00  0.00     0.166 C 
ATOM     23  C   UNL     1      11.055 -54.010 -20.107  1.00  0.00     0.094 C 
ATOM     24  O   UNL     1       9.189 -53.963 -21.607  1.00  0.00    -0.294 OA
ENDBRANCH   6  22
BRANCH   4  25
ATOM     25  C   UNL     1      11.804 -59.020 -21.905  1.00  0.00     0.393 C 
BRANCH  25  26
ATOM     26  C   UNL     1      10.935 -60.081 -22.539  1.00  0.00     0.020 A 
ATOM     27  C   UNL     1       9.619 -60.238 -22.061  1.00  0.00     0.010 A 
ATOM     28  C   UNL     1      11.388 -60.915 -23.585  1.00  0.00    -0.042 A 
ATOM     29  C   UNL     1       8.777 -61.219 -22.585  1.00  0.00     0.001 A 
ATOM     30  C   UNL     1      10.529 -61.906 -24.090  1.00  0.00     0.004 A 
ATOM     31  C   UNL     1       9.235 -62.055 -23.596  1.00  0.00     0.000 A 
ATOM     32  C   UNL     1      12.771 -60.816 -24.171  1.00  0.00     0.045 C 
ENDBRANCH  25  26
ENDBRANCH   4  25
TORSDOF 7
ENDMDL
MODEL 8
REMARK VINA RESULT:    -9.416      3.896      7.262
REMARK INTER + INTRA:         -13.689
REMARK INTER:                 -13.143
REMARK INTRA:                  -0.546
REMARK UNBOUND:                -0.696
REMARK SMILES COc1ccc2c(c1)CCC(Cc1cc[n+](Cc3ccccc3C)cc1C(C)=O)=C2O
REMARK SMILES IDX 13 1 14 2 15 3 16 4 25 5 26 6 12 7 11 8 30 9 6 10 10 11 5 12
REMARK SMILES IDX 7 13 9 14 4 15 8 16 3 17 31 18 2 20 1 21 27 22 28 23 29 24
REMARK SMILES IDX 17 25 18 26 19 27 23 28 20 29 22 30 21 31 24 32
REMARK H PARENT 31 19
ROOT
ATOM      1  C   UNL     1      13.108 -51.323 -23.456  1.00  0.00    -0.021 A 
ATOM      2  C   UNL     1      12.155 -51.491 -22.436  1.00  0.00     0.075 A 
ATOM      3  C   UNL     1      11.254 -52.548 -22.473  1.00  0.00     0.308 A 
ATOM      4  N   UNL     1      11.275 -53.430 -23.498  1.00  0.00    -0.200 N 
ATOM      5  C   UNL     1      12.170 -53.288 -24.502  1.00  0.00     0.320 A 
ATOM      6  C   UNL     1      13.117 -52.258 -24.496  1.00  0.00     0.085 A 
ENDROOT
BRANCH   1   7
ATOM      7  C   UNL     1      14.037 -50.135 -23.361  1.00  0.00     0.071 C 
BRANCH   7   8
ATOM      8  C   UNL     1      13.423 -48.756 -23.505  1.00  0.00    -0.023 C 
ATOM      9  C   UNL     1      12.896 -47.978 -22.537  1.00  0.00     0.122 C 
ATOM     10  C   UNL     1      12.252 -46.683 -22.869  1.00  0.00     0.020 A 
ATOM     11  C   UNL     1      13.434 -48.250 -24.941  1.00  0.00     0.040 C 
ATOM     12  C   UNL     1      11.328 -46.062 -22.016  1.00  0.00     0.016 A 
ATOM     13  C   UNL     1      12.552 -46.063 -24.094  1.00  0.00    -0.033 A 
ATOM     14  C   UNL     1      13.515 -46.723 -25.041  1.00  0.00     0.041 C 
ATOM     15  C   UNL     1      10.752 -44.829 -22.349  1.00  0.00     0.047 A 
ATOM     16  C   UNL     1      11.985 -44.821 -24.413  1.00  0.00     0.050 A 
ATOM     17  C   UNL     1      11.086 -44.199 -23.546  1.00  0.00     0.119 A 
BRANCH   9  18
ATOM     18  O   UNL     1      12.954 -48.323 -21.202  1.00  0.00    -0.507 OA
ATOM     19  H   UNL     1      13.762 -48.858 -21.086  1.00  0.00     0.293 HD
ENDBRANCH   9  18
BRANCH  17  20
ATOM     20  O   UNL     1      10.606 -42.998 -23.986  1.00  0.00    -0.497 OA
ATOM     21  C   UNL     1      10.992 -41.839 -23.260  1.00  0.00     0.278 C 
ENDBRANCH  17  20
ENDBRANCH   7   8
ENDBRANCH   1   7
BRANCH   6  22
ATOM     22  C   UNL     1      14.010 -52.252 -25.676  1.00  0.00     0.166 C 
ATOM     23  C   UNL     1      13.991 -51.118 -26.661  1.00  0.00     0.094 C 
ATOM     24  O   UNL     1      14.804 -53.187 -25.769  1.00  0.00    -0.294 OA
ENDBRANCH   6  22
BRANCH   4  25
ATOM     25  C   UNL     1      10.282 -54.536 -23.551  1.00  0.00     0.393 C 
BRANCH  25  26
ATOM     26  C   UNL     1      10.815 -55.814 -22.945  1.00  0.00     0.020 A 
ATOM     27  C   UNL     1      11.123 -56.884 -23.809  1.00  0.00     0.010 A 
ATOM     28  C   UNL     1      11.015 -55.976 -21.557  1.00  0.00    -0.042 A 
ATOM     29  C   UNL     1      11.591 -58.099 -23.309  1.00  0.00     0.001 A 
ATOM     30  C   UNL     1      11.474 -57.213 -21.071  1.00  0.00     0.004 A 
ATOM     31  C   UNL     1      11.761 -58.264 -21.940  1.00  0.00     0.000 A 
ATOM     32  C   UNL     1      10.728 -54.890 -20.555  1.00  0.00     0.045 C 
ENDBRANCH  25  26
ENDBRANCH   4  25
TORSDOF 7
ENDMDL
MODEL 9
REMARK VINA RESULT:    -9.353      5.201     12.825
REMARK INTER + INTRA:         -13.602
REMARK INTER:                 -12.532
REMARK INTRA:                  -1.070
REMARK UNBOUND:                -0.696
REMARK SMILES COc1ccc2c(c1)CCC(Cc1cc[n+](Cc3ccccc3C)cc1C(C)=O)=C2O
REMARK SMILES IDX 13 1 14 2 15 3 16 4 25 5 26 6 12 7 11 8 30 9 6 10 10 11 5 12
REMARK SMILES IDX 7 13 9 14 4 15 8 16 3 17 31 18 2 20 1 21 27 22 28 23 29 24
REMARK SMILES IDX 17 25 18 26 19 27 23 28 20 29 22 30 21 31 24 32
REMARK H PARENT 31 19
ROOT
ATOM      1  C   UNL     1      13.247 -48.232 -23.221  1.00  0.00    -0.021 A 
ATOM      2  C   UNL     1      12.348 -48.104 -24.294  1.00  0.00     0.075 A 
ATOM      3  C   UNL     1      11.600 -46.944 -24.458  1.00  0.00     0.308 A 
ATOM      4  N   UNL     1      11.721 -45.921 -23.582  1.00  0.00    -0.200 N 
ATOM      5  C   UNL     1      12.567 -46.019 -22.531  1.00  0.00     0.320 A 
ATOM      6  C   UNL     1      13.362 -47.155 -22.339  1.00  0.00     0.085 A 
ENDROOT
BRANCH   1   7
ATOM      7  C   UNL     1      14.004 -49.533 -23.092  1.00  0.00     0.071 C 
BRANCH   7   8
ATOM      8  C   UNL     1      13.203 -50.818 -23.172  1.00  0.00    -0.023 C 
ATOM      9  C   UNL     1      12.171 -51.200 -22.392  1.00  0.00     0.122 C 
ATOM     10  C   UNL     1      11.553 -52.540 -22.552  1.00  0.00     0.020 A 
ATOM     11  C   UNL     1      13.674 -51.742 -24.287  1.00  0.00     0.040 C 
ATOM     12  C   UNL     1      10.812 -53.153 -21.531  1.00  0.00     0.016 A 
ATOM     13  C   UNL     1      11.737 -53.240 -23.756  1.00  0.00    -0.033 A 
ATOM     14  C   UNL     1      12.554 -52.619 -24.856  1.00  0.00     0.041 C 
ATOM     15  C   UNL     1      10.225 -54.412 -21.720  1.00  0.00     0.047 A 
ATOM     16  C   UNL     1      11.131 -54.490 -23.945  1.00  0.00     0.050 A 
ATOM     17  C   UNL     1      10.375 -55.081 -22.932  1.00  0.00     0.119 A 
BRANCH   9  18
ATOM     18  O   UNL     1      11.620 -50.368 -21.439  1.00  0.00    -0.507 OA
ATOM     19  H   UNL     1      12.160 -49.556 -21.431  1.00  0.00     0.293 HD
ENDBRANCH   9  18
BRANCH  17  20
ATOM     20  O   UNL     1       9.851 -56.302 -23.249  1.00  0.00    -0.497 OA
ATOM     21  C   UNL     1      10.586 -57.450 -22.845  1.00  0.00     0.278 C 
ENDBRANCH  17  20
ENDBRANCH   7   8
ENDBRANCH   1   7
BRANCH   6  22
ATOM     22  C   UNL     1      14.222 -47.091 -21.135  1.00  0.00     0.166 C 
ATOM     23  C   UNL     1      15.668 -46.694 -21.232  1.00  0.00     0.094 C 
ATOM     24  O   UNL     1      13.676 -47.317 -20.056  1.00  0.00    -0.294 OA
ENDBRANCH   6  22
BRANCH   4  25
ATOM     25  C   UNL     1      10.890 -44.699 -23.743  1.00  0.00     0.393 C 
BRANCH  25  26
ATOM     26  C   UNL     1      11.692 -43.432 -23.556  1.00  0.00     0.020 A 
ATOM     27  C   UNL     1      11.536 -42.715 -22.352  1.00  0.00     0.010 A 
ATOM     28  C   UNL     1      12.584 -42.941 -24.534  1.00  0.00    -0.042 A 
ATOM     29  C   UNL     1      12.226 -41.524 -22.132  1.00  0.00     0.001 A 
ATOM     30  C   UNL     1      13.260 -41.731 -24.299  1.00  0.00     0.004 A 
ATOM     31  C   UNL     1      13.083 -41.030 -23.107  1.00  0.00     0.000 A 
ATOM     32  C   UNL     1      12.828 -43.640 -25.845  1.00  0.00     0.045 C 
ENDBRANCH  25  26
ENDBRANCH   4  25
TORSDOF 7
ENDMDL
