MODEL 1
REMARK VINA RESULT:    -9.600      0.000      0.000
REMARK INTER + INTRA:         -14.826
REMARK INTER:                 -14.090
REMARK INTRA:                  -0.735
REMARK UNBOUND:                -0.735
REMARK SMILES C=CC[n+]1ccc(CCC(=O)[C@H]2Cc3cc(OC)c(OC)cc3S2)cc1
REMARK SMILES IDX 8 1 7 2 4 3 5 4 26 5 6 6 25 7 3 8 2 9 1 10 9 11 10 12 11 13
REMARK SMILES IDX 12 14 13 15 24 16 14 17 23 18 15 19 22 20 16 21 19 22 17 23
REMARK SMILES IDX 18 24 20 25 21 26
REMARK H PARENT
ROOT
ATOM      1  C   UNL     1      10.231 -57.124 -22.469  1.00  0.00     0.044 C 
ENDROOT
BRANCH   1   2
ATOM      2  C   UNL     1      10.695 -55.712 -22.745  1.00  0.00    -0.036 A 
ATOM      3  N   UNL     1      11.571 -53.125 -23.232  1.00  0.00    -0.201 N 
ATOM      4  C   UNL     1      10.972 -53.417 -22.054  1.00  0.00     0.308 A 
ATOM      5  C   UNL     1      11.746 -54.081 -24.173  1.00  0.00     0.308 A 
ATOM      6  C   UNL     1      10.529 -54.709 -21.788  1.00  0.00     0.074 A 
ATOM      7  C   UNL     1      11.318 -55.385 -23.949  1.00  0.00     0.074 A 
BRANCH   3   8
ATOM      8  C   UNL     1      12.045 -51.747 -23.495  1.00  0.00     0.385 C 
BRANCH   8   9
ATOM      9  C   UNL     1      12.806 -51.714 -24.786  1.00  0.00     0.037 C 
ATOM     10  C   UNL     1      13.515 -50.665 -25.225  1.00  0.00     0.011 C 
ENDBRANCH   8   9
ENDBRANCH   3   8
ENDBRANCH   1   2
BRANCH   1  11
ATOM     11  C   UNL     1      11.319 -57.950 -21.781  1.00  0.00     0.081 C 
BRANCH  11  12
ATOM     12  C   UNL     1      11.029 -59.444 -21.855  1.00  0.00     0.146 C 
ATOM     13  O   UNL     1      10.451 -60.017 -20.927  1.00  0.00    -0.298 OA
BRANCH  12  14
ATOM     14  C   UNL     1      11.377 -60.209 -23.122  1.00  0.00     0.123 C 
ATOM     15  C   UNL     1      10.106 -60.715 -23.819  1.00  0.00     0.059 C 
ATOM     16  S   UNL     1      12.313 -59.205 -24.324  1.00  0.00    -0.114 SA
ATOM     17  C   UNL     1      10.343 -60.658 -25.301  1.00  0.00    -0.029 A 
ATOM     18  C   UNL     1      11.429 -59.882 -25.694  1.00  0.00     0.015 A 
ATOM     19  C   UNL     1       9.526 -61.254 -26.260  1.00  0.00     0.055 A 
ATOM     20  C   UNL     1      11.715 -59.687 -27.034  1.00  0.00     0.065 A 
ATOM     21  C   UNL     1       9.810 -61.085 -27.625  1.00  0.00     0.161 A 
ATOM     22  C   UNL     1      10.913 -60.293 -28.012  1.00  0.00     0.161 A 
BRANCH  21  23
ATOM     23  O   UNL     1       8.998 -61.600 -28.601  1.00  0.00    -0.493 OA
ATOM     24  C   UNL     1       8.750 -63.002 -28.545  1.00  0.00     0.278 C 
ENDBRANCH  21  23
BRANCH  22  25
ATOM     25  O   UNL     1      11.325 -59.989 -29.286  1.00  0.00    -0.493 OA
ATOM     26  C   UNL     1      11.993 -58.750 -29.488  1.00  0.00     0.278 C 
ENDBRANCH  22  25
ENDBRANCH  12  14
ENDBRANCH  11  12
ENDBRANCH   1  11
TORSDOF 8
ENDMDL
MODEL 2
REMARK VINA RESULT:    -9.477      3.270      4.800
REMARK INTER + INTRA:         -14.644
REMARK INTER:                 -14.007
REMARK INTRA:                  -0.637
REMARK UNBOUND:                -0.735
REMARK SMILES C=CC[n+]1ccc(CCC(=O)[C@H]2Cc3cc(OC)c(OC)cc3S2)cc1
REMARK SMILES IDX 8 1 7 2 4 3 5 4 26 5 6 6 25 7 3 8 2 9 1 10 9 11 10 12 11 13
REMARK SMILES IDX 12 14 13 15 24 16 14 17 23 18 15 19 22 20 16 21 19 22 17 23
REMARK SMILES IDX 18 24 20 25 21 26
REMARK H PARENT
ROOT
ATOM      1  C   UNL     1      11.831 -54.125 -24.328  1.00  0.00     0.044 C 
ENDROOT
BRANCH   1   2
ATOM      2  C   UNL     1      11.998 -52.698 -23.857  1.00  0.00    -0.036 A 
ATOM      3  N   UNL     1      12.324 -50.090 -22.969  1.00  0.00    -0.201 N 
ATOM      4  C   UNL     1      11.535 -50.939 -22.272  1.00  0.00     0.308 A 
ATOM      5  C   UNL     1      12.955 -50.500 -24.094  1.00  0.00     0.308 A 
ATOM      6  C   UNL     1      11.361 -52.253 -22.698  1.00  0.00     0.074 A 
ATOM      7  C   UNL     1      12.809 -51.803 -24.556  1.00  0.00     0.074 A 
BRANCH   3   8
ATOM      8  C   UNL     1      12.506 -48.698 -22.497  1.00  0.00     0.385 C 
BRANCH   8   9
ATOM      9  C   UNL     1      11.356 -47.855 -22.956  1.00  0.00     0.037 C 
ATOM     10  C   UNL     1      11.364 -47.087 -24.054  1.00  0.00     0.011 C 
ENDBRANCH   8   9
ENDBRANCH   3   8
ENDBRANCH   1   2
BRANCH   1  11
ATOM     11  C   UNL     1      11.339 -55.035 -23.202  1.00  0.00     0.081 C 
BRANCH  11  12
ATOM     12  C   UNL     1      11.359 -56.503 -23.611  1.00  0.00     0.146 C 
ATOM     13  O   UNL     1      12.181 -56.913 -24.435  1.00  0.00    -0.298 OA
BRANCH  12  14
ATOM     14  C   UNL     1      10.415 -57.480 -22.928  1.00  0.00     0.123 C 
ATOM     15  C   UNL     1       8.953 -57.056 -23.129  1.00  0.00     0.059 C 
ATOM     16  S   UNL     1      10.592 -59.188 -23.545  1.00  0.00    -0.114 SA
ATOM     17  C   UNL     1       8.127 -58.303 -23.251  1.00  0.00    -0.029 A 
ATOM     18  C   UNL     1       8.850 -59.465 -23.502  1.00  0.00     0.015 A 
ATOM     19  C   UNL     1       6.735 -58.343 -23.202  1.00  0.00     0.055 A 
ATOM     20  C   UNL     1       8.204 -60.673 -23.707  1.00  0.00     0.065 A 
ATOM     21  C   UNL     1       6.061 -59.562 -23.387  1.00  0.00     0.161 A 
ATOM     22  C   UNL     1       6.805 -60.734 -23.643  1.00  0.00     0.161 A 
BRANCH  21  23
ATOM     23  O   UNL     1       4.693 -59.635 -23.408  1.00  0.00    -0.493 OA
ATOM     24  C   UNL     1       3.992 -58.624 -22.689  1.00  0.00     0.278 C 
ENDBRANCH  21  23
BRANCH  22  25
ATOM     25  O   UNL     1       6.326 -61.999 -23.882  1.00  0.00    -0.493 OA
ATOM     26  C   UNL     1       7.114 -62.864 -24.691  1.00  0.00     0.278 C 
ENDBRANCH  22  25
ENDBRANCH  12  14
ENDBRANCH  11  12
ENDBRANCH   1  11
TORSDOF 8
ENDMDL
MODEL 3
REMARK VINA RESULT:    -9.212      4.270      9.160
REMARK INTER + INTRA:         -14.255
REMARK INTER:                 -13.838
REMARK INTRA:                  -0.417
REMARK UNBOUND:                -0.735
REMARK SMILES C=CC[n+]1ccc(CCC(=O)[C@H]2Cc3cc(OC)c(OC)cc3S2)cc1
REMARK SMILES IDX 8 1 7 2 4 3 5 4 26 5 6 6 25 7 3 8 2 9 1 10 9 11 10 12 11 13
REMARK SMILES IDX 12 14 13 15 24 16 14 17 23 18 15 19 22 20 16 21 19 22 17 23
REMARK SMILES IDX 18 24 20 25 21 26
REMARK H PARENT
ROOT
ATOM      1  C   UNL     1      11.384 -57.300 -21.688  1.00  0.00     0.044 C 
ENDROOT
BRANCH   1   2
ATOM      2  C   UNL     1      11.109 -58.738 -22.063  1.00  0.00    -0.036 A 
ATOM      3  N   UNL     1      10.574 -61.370 -22.759  1.00  0.00    -0.201 N 
ATOM      4  C   UNL     1      10.085 -60.872 -21.599  1.00  0.00     0.308 A 
ATOM      5  C   UNL     1      11.321 -60.597 -23.580  1.00  0.00     0.308 A 
ATOM      6  C   UNL     1      10.338 -59.554 -21.233  1.00  0.00     0.074 A 
ATOM      7  C   UNL     1      11.599 -59.274 -23.253  1.00  0.00     0.074 A 
BRANCH   3   8
ATOM      8  C   UNL     1      10.288 -62.773 -23.138  1.00  0.00     0.385 C 
BRANCH   8   9
ATOM      9  C   UNL     1       9.013 -63.219 -22.491  1.00  0.00     0.037 C 
ATOM     10  C   UNL     1       8.016 -63.850 -23.126  1.00  0.00     0.011 C 
ENDBRANCH   8   9
ENDBRANCH   3   8
ENDBRANCH   1   2
BRANCH   1  11
ATOM     11  C   UNL     1      11.299 -56.375 -22.903  1.00  0.00     0.081 C 
BRANCH  11  12
ATOM     12  C   UNL     1      11.003 -54.936 -22.500  1.00  0.00     0.146 C 
ATOM     13  O   UNL     1      10.786 -54.646 -21.319  1.00  0.00    -0.298 OA
BRANCH  12  14
ATOM     14  C   UNL     1      11.064 -53.839 -23.552  1.00  0.00     0.123 C 
ATOM     15  C   UNL     1      11.507 -52.509 -22.926  1.00  0.00     0.059 C 
ATOM     16  S   UNL     1      12.212 -54.226 -24.916  1.00  0.00    -0.114 SA
ATOM     17  C   UNL     1      12.341 -51.781 -23.941  1.00  0.00    -0.029 A 
ATOM     18  C   UNL     1      12.797 -52.563 -24.998  1.00  0.00     0.015 A 
ATOM     19  C   UNL     1      12.724 -50.445 -23.844  1.00  0.00     0.055 A 
ATOM     20  C   UNL     1      13.634 -52.033 -25.964  1.00  0.00     0.065 A 
ATOM     21  C   UNL     1      13.557 -49.882 -24.825  1.00  0.00     0.161 A 
ATOM     22  C   UNL     1      14.015 -50.685 -25.891  1.00  0.00     0.161 A 
BRANCH  21  23
ATOM     23  O   UNL     1      14.009 -48.591 -24.735  1.00  0.00    -0.493 OA
ATOM     24  C   UNL     1      13.024 -47.590 -24.494  1.00  0.00     0.278 C 
ENDBRANCH  21  23
BRANCH  22  25
ATOM     25  O   UNL     1      14.855 -50.324 -26.916  1.00  0.00    -0.493 OA
ATOM     26  C   UNL     1      16.197 -49.987 -26.586  1.00  0.00     0.278 C 
ENDBRANCH  22  25
ENDBRANCH  12  14
ENDBRANCH  11  12
ENDBRANCH   1  11
TORSDOF 8
ENDMDL
MODEL 4
REMARK VINA RESULT:    -9.194      4.518      9.244
REMARK INTER + INTRA:         -14.228
REMARK INTER:                 -13.681
REMARK INTRA:                  -0.547
REMARK UNBOUND:                -0.735
REMARK SMILES C=CC[n+]1ccc(CCC(=O)[C@H]2Cc3cc(OC)c(OC)cc3S2)cc1
REMARK SMILES IDX 8 1 7 2 4 3 5 4 26 5 6 6 25 7 3 8 2 9 1 10 9 11 10 12 11 13
REMARK SMILES IDX 12 14 13 15 24 16 14 17 23 18 15 19 22 20 16 21 19 22 17 23
REMARK SMILES IDX 18 24 20 25 21 26
REMARK H PARENT
ROOT
ATOM      1  C   UNL     1      11.095 -55.727 -22.054  1.00  0.00     0.044 C 
ENDROOT
BRANCH   1   2
ATOM      2  C   UNL     1      10.679 -57.176 -22.166  1.00  0.00    -0.036 A 
ATOM      3  N   UNL     1       9.902 -59.833 -22.341  1.00  0.00    -0.201 N 
ATOM      4  C   UNL     1      10.934 -59.491 -21.537  1.00  0.00     0.308 A 
ATOM      5  C   UNL     1       9.246 -58.893 -23.060  1.00  0.00     0.308 A 
ATOM      6  C   UNL     1      11.338 -58.163 -21.432  1.00  0.00     0.074 A 
ATOM      7  C   UNL     1       9.616 -57.555 -22.985  1.00  0.00     0.074 A 
BRANCH   3   8
ATOM      8  C   UNL     1       9.479 -61.250 -22.435  1.00  0.00     0.385 C 
BRANCH   8   9
ATOM      9  C   UNL     1      10.490 -62.027 -23.221  1.00  0.00     0.037 C 
ATOM     10  C   UNL     1      10.963 -61.665 -24.422  1.00  0.00     0.011 C 
ENDBRANCH   8   9
ENDBRANCH   3   8
ENDBRANCH   1   2
BRANCH   1  11
ATOM     11  C   UNL     1      10.274 -54.832 -22.984  1.00  0.00     0.081 C 
BRANCH  11  12
ATOM     12  C   UNL     1      10.366 -53.365 -22.585  1.00  0.00     0.146 C 
ATOM     13  O   UNL     1       9.425 -52.811 -22.009  1.00  0.00    -0.298 OA
BRANCH  12  14
ATOM     14  C   UNL     1      11.662 -52.607 -22.823  1.00  0.00     0.123 C 
ATOM     15  C   UNL     1      12.180 -52.847 -24.249  1.00  0.00     0.059 C 
ATOM     16  S   UNL     1      11.487 -50.807 -22.588  1.00  0.00    -0.114 SA
ATOM     17  C   UNL     1      12.830 -51.579 -24.721  1.00  0.00    -0.029 A 
ATOM     18  C   UNL     1      12.523 -50.447 -23.971  1.00  0.00     0.015 A 
ATOM     19  C   UNL     1      13.625 -51.468 -25.859  1.00  0.00     0.055 A 
ATOM     20  C   UNL     1      12.999 -49.200 -24.340  1.00  0.00     0.065 A 
ATOM     21  C   UNL     1      14.134 -50.216 -26.240  1.00  0.00     0.161 A 
ATOM     22  C   UNL     1      13.815 -49.074 -25.473  1.00  0.00     0.161 A 
BRANCH  21  23
ATOM     23  O   UNL     1      14.868 -50.052 -27.385  1.00  0.00    -0.493 OA
ATOM     24  C   UNL     1      16.244 -49.723 -27.216  1.00  0.00     0.278 C 
ENDBRANCH  21  23
BRANCH  22  25
ATOM     25  O   UNL     1      14.189 -47.773 -25.705  1.00  0.00    -0.493 OA
ATOM     26  C   UNL     1      14.709 -47.028 -24.610  1.00  0.00     0.278 C 
ENDBRANCH  22  25
ENDBRANCH  12  14
ENDBRANCH  11  12
ENDBRANCH   1  11
TORSDOF 8
ENDMDL
MODEL 5
REMARK VINA RESULT:    -9.065      4.564      9.490
REMARK INTER + INTRA:         -14.040
REMARK INTER:                 -13.390
REMARK INTRA:                  -0.651
REMARK UNBOUND:                -0.735
REMARK SMILES C=CC[n+]1ccc(CCC(=O)[C@H]2Cc3cc(OC)c(OC)cc3S2)cc1
REMARK SMILES IDX 8 1 7 2 4 3 5 4 26 5 6 6 25 7 3 8 2 9 1 10 9 11 10 12 11 13
REMARK SMILES IDX 12 14 13 15 24 16 14 17 23 18 15 19 22 20 16 21 19 22 17 23
REMARK SMILES IDX 18 24 20 25 21 26
REMARK H PARENT
ROOT
ATOM      1  C   UNL     1      11.019 -56.409 -22.016  1.00  0.00     0.044 C 
ENDROOT
BRANCH   1   2
ATOM      2  C   UNL     1      10.757 -57.795 -22.562  1.00  0.00    -0.036 A 
ATOM      3  N   UNL     1      10.281 -60.326 -23.593  1.00  0.00    -0.201 N 
ATOM      4  C   UNL     1       9.309 -59.387 -23.650  1.00  0.00     0.308 A 
ATOM      5  C   UNL     1      11.482 -60.042 -23.037  1.00  0.00     0.308 A 
ATOM      6  C   UNL     1       9.528 -58.110 -23.143  1.00  0.00     0.074 A 
ATOM      7  C   UNL     1      11.744 -58.780 -22.517  1.00  0.00     0.074 A 
BRANCH   3   8
ATOM      8  C   UNL     1      10.035 -61.678 -24.147  1.00  0.00     0.385 C 
BRANCH   8   9
ATOM      9  C   UNL     1      10.308 -62.710 -23.096  1.00  0.00     0.037 C 
ATOM     10  C   UNL     1       9.367 -63.445 -22.487  1.00  0.00     0.011 C 
ENDBRANCH   8   9
ENDBRANCH   3   8
ENDBRANCH   1   2
BRANCH   1  11
ATOM     11  C   UNL     1      10.511 -55.325 -22.967  1.00  0.00     0.081 C 
BRANCH  11  12
ATOM     12  C   UNL     1      10.337 -53.987 -22.259  1.00  0.00     0.146 C 
ATOM     13  O   UNL     1       9.337 -53.768 -21.569  1.00  0.00    -0.298 OA
BRANCH  12  14
ATOM     14  C   UNL     1      11.448 -52.952 -22.336  1.00  0.00     0.123 C 
ATOM     15  C   UNL     1      12.063 -52.917 -23.743  1.00  0.00     0.059 C 
ATOM     16  S   UNL     1      10.879 -51.267 -21.932  1.00  0.00    -0.114 SA
ATOM     17  C   UNL     1      12.442 -51.495 -24.042  1.00  0.00    -0.029 A 
ATOM     18  C   UNL     1      11.869 -50.545 -23.202  1.00  0.00     0.015 A 
ATOM     19  C   UNL     1      13.241 -51.094 -25.110  1.00  0.00     0.055 A 
ATOM     20  C   UNL     1      12.080 -49.193 -23.412  1.00  0.00     0.065 A 
ATOM     21  C   UNL     1      13.483 -49.727 -25.330  1.00  0.00     0.161 A 
ATOM     22  C   UNL     1      12.895 -48.772 -24.473  1.00  0.00     0.161 A 
BRANCH  21  23
ATOM     23  O   UNL     1      14.211 -49.286 -26.404  1.00  0.00    -0.493 OA
ATOM     24  C   UNL     1      15.538 -49.790 -26.522  1.00  0.00     0.278 C 
ENDBRANCH  21  23
BRANCH  22  25
ATOM     25  O   UNL     1      12.989 -47.404 -24.548  1.00  0.00    -0.493 OA
ATOM     26  C   UNL     1      11.789 -46.650 -24.421  1.00  0.00     0.278 C 
ENDBRANCH  22  25
ENDBRANCH  12  14
ENDBRANCH  11  12
ENDBRANCH   1  11
TORSDOF 8
ENDMDL
MODEL 6
REMARK VINA RESULT:    -9.045      1.885      2.797
REMARK INTER + INTRA:         -14.011
REMARK INTER:                 -13.537
REMARK INTRA:                  -0.473
REMARK UNBOUND:                -0.735
REMARK SMILES C=CC[n+]1ccc(CCC(=O)[C@H]2Cc3cc(OC)c(OC)cc3S2)cc1
REMARK SMILES IDX 8 1 7 2 4 3 5 4 26 5 6 6 25 7 3 8 2 9 1 10 9 11 10 12 11 13
REMARK SMILES IDX 12 14 13 15 24 16 14 17 23 18 15 19 22 20 16 21 19 22 17 23
REMARK SMILES IDX 18 24 20 25 21 26
REMARK H PARENT
ROOT
ATOM      1  C   UNL     1      10.312 -55.828 -22.391  1.00  0.00     0.044 C 
ENDROOT
BRANCH   1   2
ATOM      2  C   UNL     1      10.808 -54.409 -22.551  1.00  0.00    -0.036 A 
ATOM      3  N   UNL     1      11.696 -51.800 -22.867  1.00  0.00    -0.201 N 
ATOM      4  C   UNL     1      11.945 -52.712 -23.834  1.00  0.00     0.308 A 
ATOM      5  C   UNL     1      11.019 -52.148 -21.749  1.00  0.00     0.308 A 
ATOM      6  C   UNL     1      11.506 -54.025 -23.698  1.00  0.00     0.074 A 
ATOM      7  C   UNL     1      10.562 -53.449 -21.570  1.00  0.00     0.074 A 
BRANCH   3   8
ATOM      8  C   UNL     1      12.162 -50.403 -23.032  1.00  0.00     0.385 C 
BRANCH   8   9
ATOM      9  C   UNL     1      11.045 -49.458 -22.713  1.00  0.00     0.037 C 
ATOM     10  C   UNL     1      11.153 -48.122 -22.719  1.00  0.00     0.011 C 
ENDBRANCH   8   9
ENDBRANCH   3   8
ENDBRANCH   1   2
BRANCH   1  11
ATOM     11  C   UNL     1      11.398 -56.847 -22.738  1.00  0.00     0.081 C 
BRANCH  11  12
ATOM     12  C   UNL     1      11.381 -58.040 -21.791  1.00  0.00     0.146 C 
ATOM     13  O   UNL     1      11.473 -57.873 -20.571  1.00  0.00    -0.298 OA
BRANCH  12  14
ATOM     14  C   UNL     1      11.158 -59.435 -22.352  1.00  0.00     0.123 C 
ATOM     15  C   UNL     1       9.678 -59.833 -22.251  1.00  0.00     0.059 C 
ATOM     16  S   UNL     1      11.660 -59.586 -24.099  1.00  0.00    -0.114 SA
ATOM     17  C   UNL     1       9.346 -60.670 -23.452  1.00  0.00    -0.029 A 
ATOM     18  C   UNL     1      10.270 -60.601 -24.490  1.00  0.00     0.015 A 
ATOM     19  C   UNL     1       8.179 -61.416 -23.602  1.00  0.00     0.055 A 
ATOM     20  C   UNL     1      10.048 -61.268 -25.683  1.00  0.00     0.065 A 
ATOM     21  C   UNL     1       7.944 -62.116 -24.798  1.00  0.00     0.161 A 
ATOM     22  C   UNL     1       8.887 -62.038 -25.845  1.00  0.00     0.161 A 
BRANCH  21  23
ATOM     23  O   UNL     1       6.782 -62.811 -25.011  1.00  0.00    -0.493 OA
ATOM     24  C   UNL     1       6.914 -64.210 -25.245  1.00  0.00     0.278 C 
ENDBRANCH  21  23
BRANCH  22  25
ATOM     25  O   UNL     1       8.816 -62.620 -27.087  1.00  0.00    -0.493 OA
ATOM     26  C   UNL     1       9.216 -61.841 -28.208  1.00  0.00     0.278 C 
ENDBRANCH  22  25
ENDBRANCH  12  14
ENDBRANCH  11  12
ENDBRANCH   1  11
TORSDOF 8
ENDMDL
MODEL 7
REMARK VINA RESULT:    -8.610      3.018      4.297
REMARK INTER + INTRA:         -13.372
REMARK INTER:                 -12.868
REMARK INTRA:                  -0.504
REMARK UNBOUND:                -0.735
REMARK SMILES C=CC[n+]1ccc(CCC(=O)[C@H]2Cc3cc(OC)c(OC)cc3S2)cc1
REMARK SMILES IDX 8 1 7 2 4 3 5 4 26 5 6 6 25 7 3 8 2 9 1 10 9 11 10 12 11 13
REMARK SMILES IDX 12 14 13 15 24 16 14 17 23 18 15 19 22 20 16 21 19 22 17 23
REMARK SMILES IDX 18 24 20 25 21 26
REMARK H PARENT
ROOT
ATOM      1  C   UNL     1       9.900 -53.791 -22.245  1.00  0.00     0.044 C 
ENDROOT
BRANCH   1   2
ATOM      2  C   UNL     1      10.520 -52.426 -22.436  1.00  0.00    -0.036 A 
ATOM      3  N   UNL     1      11.654 -49.923 -22.818  1.00  0.00    -0.201 N 
ATOM      4  C   UNL     1      12.333 -51.029 -23.199  1.00  0.00     0.308 A 
ATOM      5  C   UNL     1      10.429 -50.026 -22.253  1.00  0.00     0.308 A 
ATOM      6  C   UNL     1      11.781 -52.294 -23.020  1.00  0.00     0.074 A 
ATOM      7  C   UNL     1       9.840 -51.270 -22.054  1.00  0.00     0.074 A 
BRANCH   3   8
ATOM      8  C   UNL     1      12.251 -48.583 -23.025  1.00  0.00     0.385 C 
BRANCH   8   9
ATOM      9  C   UNL     1      11.169 -47.588 -23.310  1.00  0.00     0.037 C 
ATOM     10  C   UNL     1      11.033 -46.921 -24.465  1.00  0.00     0.011 C 
ENDBRANCH   8   9
ENDBRANCH   3   8
ENDBRANCH   1   2
BRANCH   1  11
ATOM     11  C   UNL     1      10.951 -54.843 -21.891  1.00  0.00     0.081 C 
BRANCH  11  12
ATOM     12  C   UNL     1      10.887 -56.045 -22.825  1.00  0.00     0.146 C 
ATOM     13  O   UNL     1      11.540 -56.061 -23.873  1.00  0.00    -0.298 OA
BRANCH  12  14
ATOM     14  C   UNL     1      10.081 -57.267 -22.414  1.00  0.00     0.123 C 
ATOM     15  C   UNL     1       9.164 -57.725 -23.559  1.00  0.00     0.059 C 
ATOM     16  S   UNL     1      11.128 -58.682 -21.937  1.00  0.00    -0.114 SA
ATOM     17  C   UNL     1       9.084 -59.223 -23.510  1.00  0.00    -0.029 A 
ATOM     18  C   UNL     1      10.063 -59.840 -22.737  1.00  0.00     0.015 A 
ATOM     19  C   UNL     1       8.169 -59.993 -24.224  1.00  0.00     0.055 A 
ATOM     20  C   UNL     1      10.145 -61.220 -22.664  1.00  0.00     0.065 A 
ATOM     21  C   UNL     1       8.223 -61.395 -24.149  1.00  0.00     0.161 A 
ATOM     22  C   UNL     1       9.222 -62.010 -23.363  1.00  0.00     0.161 A 
BRANCH  21  23
ATOM     23  O   UNL     1       7.383 -62.191 -24.883  1.00  0.00    -0.493 OA
ATOM     24  C   UNL     1       7.926 -62.762 -26.070  1.00  0.00     0.278 C 
ENDBRANCH  21  23
BRANCH  22  25
ATOM     25  O   UNL     1       9.451 -63.353 -23.195  1.00  0.00    -0.493 OA
ATOM     26  C   UNL     1       8.439 -64.124 -22.558  1.00  0.00     0.278 C 
ENDBRANCH  22  25
ENDBRANCH  12  14
ENDBRANCH  11  12
ENDBRANCH   1  11
TORSDOF 8
ENDMDL
MODEL 8
REMARK VINA RESULT:    -8.592      4.706      9.837
REMARK INTER + INTRA:         -13.346
REMARK INTER:                 -12.753
REMARK INTRA:                  -0.593
REMARK UNBOUND:                -0.735
REMARK SMILES C=CC[n+]1ccc(CCC(=O)[C@H]2Cc3cc(OC)c(OC)cc3S2)cc1
REMARK SMILES IDX 8 1 7 2 4 3 5 4 26 5 6 6 25 7 3 8 2 9 1 10 9 11 10 12 11 13
REMARK SMILES IDX 12 14 13 15 24 16 14 17 23 18 15 19 22 20 16 21 19 22 17 23
REMARK SMILES IDX 18 24 20 25 21 26
REMARK H PARENT
ROOT
ATOM      1  C   UNL     1       9.809 -56.263 -22.920  1.00  0.00     0.044 C 
ENDROOT
BRANCH   1   2
ATOM      2  C   UNL     1      10.058 -57.754 -22.969  1.00  0.00    -0.036 A 
ATOM      3  N   UNL     1      10.518 -60.487 -23.091  1.00  0.00    -0.201 N 
ATOM      4  C   UNL     1       9.307 -59.996 -23.444  1.00  0.00     0.308 A 
ATOM      5  C   UNL     1      11.504 -59.658 -22.679  1.00  0.00     0.308 A 
ATOM      6  C   UNL     1       9.057 -58.628 -23.394  1.00  0.00     0.074 A 
ATOM      7  C   UNL     1      11.298 -58.284 -22.613  1.00  0.00     0.074 A 
BRANCH   3   8
ATOM      8  C   UNL     1      10.771 -61.945 -23.159  1.00  0.00     0.385 C 
BRANCH   8   9
ATOM      9  C   UNL     1       9.511 -62.657 -23.544  1.00  0.00     0.037 C 
ATOM     10  C   UNL     1       8.920 -63.610 -22.810  1.00  0.00     0.011 C 
ENDBRANCH   8   9
ENDBRANCH   3   8
ENDBRANCH   1   2
BRANCH   1  11
ATOM     11  C   UNL     1      10.964 -55.521 -22.247  1.00  0.00     0.081 C 
BRANCH  11  12
ATOM     12  C   UNL     1      10.543 -54.141 -21.758  1.00  0.00     0.146 C 
ATOM     13  O   UNL     1      10.250 -53.958 -20.573  1.00  0.00    -0.298 OA
BRANCH  12  14
ATOM     14  C   UNL     1      10.572 -52.967 -22.724  1.00  0.00     0.123 C 
ATOM     15  C   UNL     1      10.336 -51.644 -21.980  1.00  0.00     0.059 C 
ATOM     16  S   UNL     1      12.151 -52.827 -23.626  1.00  0.00    -0.114 SA
ATOM     17  C   UNL     1      11.161 -50.586 -22.653  1.00  0.00    -0.029 A 
ATOM     18  C   UNL     1      12.156 -51.067 -23.500  1.00  0.00     0.015 A 
ATOM     19  C   UNL     1      11.037 -49.217 -22.428  1.00  0.00     0.055 A 
ATOM     20  C   UNL     1      13.034 -50.200 -24.127  1.00  0.00     0.065 A 
ATOM     21  C   UNL     1      11.905 -48.319 -23.070  1.00  0.00     0.161 A 
ATOM     22  C   UNL     1      12.912 -48.818 -23.925  1.00  0.00     0.161 A 
BRANCH  21  23
ATOM     23  O   UNL     1      11.858 -46.971 -22.829  1.00  0.00    -0.493 OA
ATOM     24  C   UNL     1      10.619 -46.454 -22.353  1.00  0.00     0.278 C 
ENDBRANCH  21  23
BRANCH  22  25
ATOM     25  O   UNL     1      13.866 -48.104 -24.608  1.00  0.00    -0.493 OA
ATOM     26  C   UNL     1      14.067 -48.413 -25.982  1.00  0.00     0.278 C 
ENDBRANCH  22  25
ENDBRANCH  12  14
ENDBRANCH  11  12
ENDBRANCH   1  11
TORSDOF 8
ENDMDL
MODEL 9
REMARK VINA RESULT:    -8.339      5.367     10.393
REMARK INTER + INTRA:         -12.974
REMARK INTER:                 -12.227
REMARK INTRA:                  -0.747
REMARK UNBOUND:                -0.735
REMARK SMILES C=CC[n+]1ccc(CCC(=O)[C@H]2Cc3cc(OC)c(OC)cc3S2)cc1
REMARK SMILES IDX 8 1 7 2 4 3 5 4 26 5 6 6 25 7 3 8 2 9 1 10 9 11 10 12 11 13
REMARK SMILES IDX 12 14 13 15 24 16 14 17 23 18 15 19 22 20 16 21 19 22 17 23
REMARK SMILES IDX 18 24 20 25 21 26
REMARK H PARENT
ROOT
ATOM      1  C   UNL     1       9.837 -54.752 -22.869  1.00  0.00     0.044 C 
ENDROOT
BRANCH   1   2
ATOM      2  C   UNL     1      10.056 -56.247 -22.813  1.00  0.00    -0.036 A 
ATOM      3  N   UNL     1      10.453 -58.989 -22.680  1.00  0.00    -0.201 N 
ATOM      4  C   UNL     1      11.433 -58.151 -22.270  1.00  0.00     0.308 A 
ATOM      5  C   UNL     1       9.283 -58.502 -23.154  1.00  0.00     0.308 A 
ATOM      6  C   UNL     1      11.253 -56.772 -22.326  1.00  0.00     0.074 A 
ATOM      7  C   UNL     1       9.061 -57.132 -23.227  1.00  0.00     0.074 A 
BRANCH   3   8
ATOM      8  C   UNL     1      10.658 -60.454 -22.606  1.00  0.00     0.385 C 
BRANCH   8   9
ATOM      9  C   UNL     1      11.694 -60.869 -23.605  1.00  0.00     0.037 C 
ATOM     10  C   UNL     1      11.520 -60.855 -24.934  1.00  0.00     0.011 C 
ENDBRANCH   8   9
ENDBRANCH   3   8
ENDBRANCH   1   2
BRANCH   1  11
ATOM     11  C   UNL     1      10.950 -53.992 -22.148  1.00  0.00     0.081 C 
BRANCH  11  12
ATOM     12  C   UNL     1      11.727 -53.088 -23.097  1.00  0.00     0.146 C 
ATOM     13  O   UNL     1      12.009 -53.469 -24.236  1.00  0.00    -0.298 OA
BRANCH  12  14
ATOM     14  C   UNL     1      12.075 -51.673 -22.660  1.00  0.00     0.123 C 
ATOM     15  C   UNL     1      12.843 -50.936 -23.767  1.00  0.00     0.059 C 
ATOM     16  S   UNL     1      10.606 -50.677 -22.240  1.00  0.00    -0.114 SA
ATOM     17  C   UNL     1      12.432 -49.492 -23.727  1.00  0.00    -0.029 A 
ATOM     18  C   UNL     1      11.273 -49.231 -23.001  1.00  0.00     0.015 A 
ATOM     19  C   UNL     1      13.078 -48.462 -24.406  1.00  0.00     0.055 A 
ATOM     20  C   UNL     1      10.745 -47.953 -22.943  1.00  0.00     0.065 A 
ATOM     21  C   UNL     1      12.569 -47.154 -24.344  1.00  0.00     0.161 A 
ATOM     22  C   UNL     1      11.392 -46.901 -23.607  1.00  0.00     0.161 A 
BRANCH  21  23
ATOM     23  O   UNL     1      13.137 -46.124 -25.047  1.00  0.00    -0.493 OA
ATOM     24  C   UNL     1      14.139 -46.479 -25.996  1.00  0.00     0.278 C 
ENDBRANCH  21  23
BRANCH  22  25
ATOM     25  O   UNL     1      10.732 -45.706 -23.459  1.00  0.00    -0.493 OA
ATOM     26  C   UNL     1      11.029 -44.923 -22.309  1.00  0.00     0.278 C 
ENDBRANCH  22  25
ENDBRANCH  12  14
ENDBRANCH  11  12
ENDBRANCH   1  11
TORSDOF 8
ENDMDL
