MODEL 1
REMARK VINA RESULT:   -10.931      0.000      0.000
REMARK INTER + INTRA:         -15.564
REMARK INTER:                 -15.084
REMARK INTRA:                  -0.480
REMARK UNBOUND:                -0.480
REMARK SMILES COc1cc2c(cc1OC)C(O)=C(C[C@H]1CC[N@H+](CC3CCCCC3)CC1)C2
REMARK SMILES IDX 14 1 13 2 11 3 6 4 28 5 7 6 5 7 8 8 4 9 3 10 12 11 9 13
REMARK SMILES IDX 10 14 2 15 1 16 15 17 16 18 27 19 17 20 26 21 18 22 19 24
REMARK SMILES IDX 20 25 21 26 25 27 22 28 24 29 23 30
REMARK H PARENT 12 12 18 23
ROOT
ATOM      1  C   UNL     1      10.118 -55.250 -22.394  1.00  0.00     0.039 C 
ENDROOT
BRANCH   1   2
ATOM      2  C   UNL     1      10.909 -54.110 -22.963  1.00  0.00    -0.023 C 
ATOM      3  C   UNL     1      11.030 -52.829 -22.568  1.00  0.00     0.122 C 
ATOM      4  C   UNL     1      11.910 -52.111 -23.486  1.00  0.00     0.024 A 
ATOM      5  C   UNL     1      11.715 -54.360 -24.229  1.00  0.00     0.071 C 
ATOM      6  C   UNL     1      12.356 -50.798 -23.497  1.00  0.00     0.062 A 
ATOM      7  C   UNL     1      12.320 -53.011 -24.476  1.00  0.00    -0.029 A 
ATOM      8  C   UNL     1      13.218 -50.389 -24.525  1.00  0.00     0.161 A 
ATOM      9  C   UNL     1      13.172 -52.629 -25.502  1.00  0.00     0.055 A 
ATOM     10  C   UNL     1      13.626 -51.306 -25.531  1.00  0.00     0.161 A 
BRANCH   3  11
ATOM     11  O   UNL     1      10.420 -52.225 -21.514  1.00  0.00    -0.507 OA
ATOM     12  H   UNL     1      11.046 -52.236 -20.769  1.00  0.00     0.293 HD
ENDBRANCH   3  11
BRANCH   8  13
ATOM     13  O   UNL     1      13.727 -49.118 -24.644  1.00  0.00    -0.493 OA
ATOM     14  C   UNL     1      12.819 -48.026 -24.620  1.00  0.00     0.278 C 
ENDBRANCH   8  13
BRANCH  10  15
ATOM     15  O   UNL     1      14.472 -50.802 -26.489  1.00  0.00    -0.493 OA
ATOM     16  C   UNL     1      15.854 -50.714 -26.174  1.00  0.00     0.278 C 
ENDBRANCH  10  15
ENDBRANCH   1   2
BRANCH   1  17
ATOM     17  C   UNL     1      10.426 -56.665 -22.920  1.00  0.00     0.004 C 
ATOM     18  C   UNL     1       9.153 -57.507 -23.088  1.00  0.00     0.065 C 
ATOM     19  C   UNL     1      11.384 -57.396 -21.968  1.00  0.00     0.065 C 
ATOM     20  C   UNL     1       9.481 -58.899 -23.605  1.00  0.00     0.262 C 
ATOM     21  C   UNL     1      11.704 -58.801 -22.463  1.00  0.00     0.262 C 
ATOM     22  N   UNL     1      10.427 -59.591 -22.642  1.00  0.00    -0.335 N 
ATOM     23  H   UNL     1       9.944 -59.613 -21.736  1.00  0.00     0.348 HD
BRANCH  22  24
ATOM     24  C   UNL     1      10.660 -61.026 -23.076  1.00  0.00     0.265 C 
BRANCH  24  25
ATOM     25  C   UNL     1       9.379 -61.748 -23.528  1.00  0.00     0.044 C 
ATOM     26  C   UNL     1       9.422 -62.225 -24.985  1.00  0.00     0.009 C 
ATOM     27  C   UNL     1       9.116 -62.941 -22.582  1.00  0.00     0.009 C 
ATOM     28  C   UNL     1       8.102 -62.873 -25.419  1.00  0.00     0.001 C 
ATOM     29  C   UNL     1       8.242 -64.041 -23.191  1.00  0.00     0.001 C 
ATOM     30  C   UNL     1       7.316 -63.503 -24.269  1.00  0.00     0.000 C 
ENDBRANCH  24  25
ENDBRANCH  22  24
ENDBRANCH   1  17
TORSDOF 7
ENDMDL
MODEL 2
REMARK VINA RESULT:   -10.842      1.188      2.099
REMARK INTER + INTRA:         -15.442
REMARK INTER:                 -15.005
REMARK INTRA:                  -0.437
REMARK UNBOUND:                -0.480
REMARK SMILES COc1cc2c(cc1OC)C(O)=C(C[C@H]1CC[N@H+](CC3CCCCC3)CC1)C2
REMARK SMILES IDX 14 1 13 2 11 3 6 4 28 5 7 6 5 7 8 8 4 9 3 10 12 11 9 13
REMARK SMILES IDX 10 14 2 15 1 16 15 17 16 18 27 19 17 20 26 21 18 22 19 24
REMARK SMILES IDX 20 25 21 26 25 27 22 28 24 29 23 30
REMARK H PARENT 12 12 18 23
ROOT
ATOM      1  C   UNL     1      10.175 -55.287 -22.067  1.00  0.00     0.039 C 
ENDROOT
BRANCH   1   2
ATOM      2  C   UNL     1      10.876 -54.084 -22.626  1.00  0.00    -0.023 C 
ATOM      3  C   UNL     1      11.540 -53.901 -23.782  1.00  0.00     0.122 C 
ATOM      4  C   UNL     1      12.065 -52.539 -23.838  1.00  0.00     0.024 A 
ATOM      5  C   UNL     1      10.916 -52.821 -21.778  1.00  0.00     0.071 C 
ATOM      6  C   UNL     1      12.788 -51.871 -24.814  1.00  0.00     0.062 A 
ATOM      7  C   UNL     1      11.702 -51.892 -22.652  1.00  0.00    -0.029 A 
ATOM      8  C   UNL     1      13.156 -50.537 -24.584  1.00  0.00     0.161 A 
ATOM      9  C   UNL     1      12.054 -50.574 -22.403  1.00  0.00     0.055 A 
ATOM     10  C   UNL     1      12.789 -49.887 -23.375  1.00  0.00     0.161 A 
BRANCH   3  11
ATOM     11  O   UNL     1      11.759 -54.812 -24.767  1.00  0.00    -0.507 OA
ATOM     12  H   UNL     1      11.801 -54.328 -25.609  1.00  0.00     0.293 HD
ENDBRANCH   3  11
BRANCH   8  13
ATOM     13  O   UNL     1      13.871 -49.770 -25.473  1.00  0.00    -0.493 OA
ATOM     14  C   UNL     1      14.306 -50.375 -26.682  1.00  0.00     0.278 C 
ENDBRANCH   8  13
BRANCH  10  15
ATOM     15  O   UNL     1      13.199 -48.581 -23.252  1.00  0.00    -0.493 OA
ATOM     16  C   UNL     1      13.438 -48.081 -21.945  1.00  0.00     0.278 C 
ENDBRANCH  10  15
ENDBRANCH   1   2
BRANCH   1  17
ATOM     17  C   UNL     1      10.487 -56.654 -22.703  1.00  0.00     0.004 C 
ATOM     18  C   UNL     1       9.209 -57.419 -23.077  1.00  0.00     0.065 C 
ATOM     19  C   UNL     1      11.320 -57.517 -21.744  1.00  0.00     0.065 C 
ATOM     20  C   UNL     1       9.540 -58.766 -23.701  1.00  0.00     0.262 C 
ATOM     21  C   UNL     1      11.641 -58.878 -22.349  1.00  0.00     0.262 C 
ATOM     22  N   UNL     1      10.362 -59.591 -22.728  1.00  0.00    -0.335 N 
ATOM     23  H   UNL     1       9.791 -59.681 -21.880  1.00  0.00     0.348 HD
BRANCH  22  24
ATOM     24  C   UNL     1      10.589 -60.985 -23.283  1.00  0.00     0.265 C 
BRANCH  24  25
ATOM     25  C   UNL     1       9.296 -61.685 -23.735  1.00  0.00     0.044 C 
ATOM     26  C   UNL     1       9.344 -62.195 -25.180  1.00  0.00     0.009 C 
ATOM     27  C   UNL     1       8.993 -62.851 -22.767  1.00  0.00     0.009 C 
ATOM     28  C   UNL     1       8.014 -62.821 -25.616  1.00  0.00     0.001 C 
ATOM     29  C   UNL     1       8.099 -63.942 -23.361  1.00  0.00     0.001 C 
ATOM     30  C   UNL     1       7.200 -63.406 -24.463  1.00  0.00     0.000 C 
ENDBRANCH  24  25
ENDBRANCH  22  24
ENDBRANCH   1  17
TORSDOF 7
ENDMDL
MODEL 3
REMARK VINA RESULT:   -10.186      2.121      3.236
REMARK INTER + INTRA:         -14.537
REMARK INTER:                 -14.009
REMARK INTRA:                  -0.527
REMARK UNBOUND:                -0.480
REMARK SMILES COc1cc2c(cc1OC)C(O)=C(C[C@H]1CC[N@H+](CC3CCCCC3)CC1)C2
REMARK SMILES IDX 14 1 13 2 11 3 6 4 28 5 7 6 5 7 8 8 4 9 3 10 12 11 9 13
REMARK SMILES IDX 10 14 2 15 1 16 15 17 16 18 27 19 17 20 26 21 18 22 19 24
REMARK SMILES IDX 20 25 21 26 25 27 22 28 24 29 23 30
REMARK H PARENT 12 12 18 23
ROOT
ATOM      1  C   UNL     1      10.085 -52.962 -22.005  1.00  0.00     0.039 C 
ENDROOT
BRANCH   1   2
ATOM      2  C   UNL     1      10.593 -51.595 -22.356  1.00  0.00    -0.023 C 
ATOM      3  C   UNL     1      10.043 -50.377 -22.201  1.00  0.00     0.122 C 
ATOM      4  C   UNL     1      10.943 -49.358 -22.735  1.00  0.00     0.024 A 
ATOM      5  C   UNL     1      11.946 -51.490 -23.043  1.00  0.00     0.071 C 
ATOM      6  C   UNL     1      10.840 -47.976 -22.792  1.00  0.00     0.062 A 
ATOM      7  C   UNL     1      12.074 -50.009 -23.239  1.00  0.00    -0.029 A 
ATOM      8  C   UNL     1      11.888 -47.247 -23.372  1.00  0.00     0.161 A 
ATOM      9  C   UNL     1      13.122 -49.309 -23.817  1.00  0.00     0.055 A 
ATOM     10  C   UNL     1      13.032 -47.915 -23.887  1.00  0.00     0.161 A 
BRANCH   3  11
ATOM     11  O   UNL     1       8.826 -50.076 -21.676  1.00  0.00    -0.507 OA
ATOM     12  H   UNL     1       8.868 -50.254 -20.720  1.00  0.00     0.293 HD
ENDBRANCH   3  11
BRANCH   8  13
ATOM     13  O   UNL     1      11.904 -45.877 -23.485  1.00  0.00    -0.493 OA
ATOM     14  C   UNL     1      12.033 -45.108 -22.298  1.00  0.00     0.278 C 
ENDBRANCH   8  13
BRANCH  10  15
ATOM     15  O   UNL     1      14.000 -47.105 -24.432  1.00  0.00    -0.493 OA
ATOM     16  C   UNL     1      14.322 -47.288 -25.803  1.00  0.00     0.278 C 
ENDBRANCH  10  15
ENDBRANCH   1   2
BRANCH   1  17
ATOM     17  C   UNL     1      10.939 -54.171 -22.431  1.00  0.00     0.004 C 
ATOM     18  C   UNL     1      10.794 -54.479 -23.929  1.00  0.00     0.065 C 
ATOM     19  C   UNL     1      10.544 -55.419 -21.627  1.00  0.00     0.065 C 
ATOM     20  C   UNL     1      11.642 -55.676 -24.326  1.00  0.00     0.262 C 
ATOM     21  C   UNL     1      11.372 -56.632 -22.031  1.00  0.00     0.262 C 
ATOM     22  N   UNL     1      11.226 -56.889 -23.514  1.00  0.00    -0.335 N 
ATOM     23  H   UNL     1      10.228 -57.032 -23.710  1.00  0.00     0.348 HD
BRANCH  22  24
ATOM     24  C   UNL     1      11.973 -58.121 -23.991  1.00  0.00     0.265 C 
BRANCH  24  25
ATOM     25  C   UNL     1      11.067 -59.347 -24.198  1.00  0.00     0.044 C 
ATOM     26  C   UNL     1      11.178 -59.965 -25.597  1.00  0.00     0.009 C 
ATOM     27  C   UNL     1      11.397 -60.403 -23.120  1.00  0.00     0.009 C 
ATOM     28  C   UNL     1      10.209 -61.138 -25.789  1.00  0.00     0.001 C 
ATOM     29  C   UNL     1      11.004 -61.832 -23.501  1.00  0.00     0.001 C 
ATOM     30  C   UNL     1       9.851 -61.861 -24.492  1.00  0.00     0.000 C 
ENDBRANCH  24  25
ENDBRANCH  22  24
ENDBRANCH   1  17
TORSDOF 7
ENDMDL
MODEL 4
REMARK VINA RESULT:    -9.986      3.916     10.430
REMARK INTER + INTRA:         -14.260
REMARK INTER:                 -13.567
REMARK INTRA:                  -0.693
REMARK UNBOUND:                -0.480
REMARK SMILES COc1cc2c(cc1OC)C(O)=C(C[C@H]1CC[N@H+](CC3CCCCC3)CC1)C2
REMARK SMILES IDX 14 1 13 2 11 3 6 4 28 5 7 6 5 7 8 8 4 9 3 10 12 11 9 13
REMARK SMILES IDX 10 14 2 15 1 16 15 17 16 18 27 19 17 20 26 21 18 22 19 24
REMARK SMILES IDX 20 25 21 26 25 27 22 28 24 29 23 30
REMARK H PARENT 12 12 18 23
ROOT
ATOM      1  C   UNL     1      11.376 -57.426 -22.209  1.00  0.00     0.039 C 
ENDROOT
BRANCH   1   2
ATOM      2  C   UNL     1      10.791 -58.488 -23.093  1.00  0.00    -0.023 C 
ATOM      3  C   UNL     1      11.181 -58.960 -24.291  1.00  0.00     0.122 C 
ATOM      4  C   UNL     1      10.245 -59.985 -24.745  1.00  0.00     0.024 A 
ATOM      5  C   UNL     1       9.509 -59.171 -22.638  1.00  0.00     0.071 C 
ATOM      6  C   UNL     1      10.224 -60.772 -25.887  1.00  0.00     0.062 A 
ATOM      7  C   UNL     1       9.249 -60.115 -23.772  1.00  0.00    -0.029 A 
ATOM      8  C   UNL     1       9.178 -61.692 -26.050  1.00  0.00     0.161 A 
ATOM      9  C   UNL     1       8.206 -61.019 -23.912  1.00  0.00     0.055 A 
ATOM     10  C   UNL     1       8.166 -61.816 -25.061  1.00  0.00     0.161 A 
BRANCH   3  11
ATOM     11  O   UNL     1      12.247 -58.560 -25.034  1.00  0.00    -0.507 OA
ATOM     12  H   UNL     1      12.789 -57.975 -24.477  1.00  0.00     0.293 HD
ENDBRANCH   3  11
BRANCH   8  13
ATOM     13  O   UNL     1       9.049 -62.527 -27.135  1.00  0.00    -0.493 OA
ATOM     14  C   UNL     1       8.962 -61.941 -28.426  1.00  0.00     0.278 C 
ENDBRANCH   8  13
BRANCH  10  15
ATOM     15  O   UNL     1       7.190 -62.748 -25.320  1.00  0.00    -0.493 OA
ATOM     16  C   UNL     1       7.219 -63.960 -24.580  1.00  0.00     0.278 C 
ENDBRANCH  10  15
ENDBRANCH   1   2
BRANCH   1  17
ATOM     17  C   UNL     1      10.742 -56.023 -22.264  1.00  0.00     0.004 C 
ATOM     18  C   UNL     1      11.236 -55.217 -23.474  1.00  0.00     0.065 C 
ATOM     19  C   UNL     1      11.059 -55.239 -20.982  1.00  0.00     0.065 C 
ATOM     20  C   UNL     1      10.600 -53.835 -23.507  1.00  0.00     0.262 C 
ATOM     21  C   UNL     1      10.445 -53.845 -21.011  1.00  0.00     0.262 C 
ATOM     22  N   UNL     1      10.932 -53.090 -22.227  1.00  0.00    -0.335 N 
ATOM     23  H   UNL     1      11.957 -53.049 -22.181  1.00  0.00     0.348 HD
BRANCH  22  24
ATOM     24  C   UNL     1      10.416 -51.665 -22.301  1.00  0.00     0.265 C 
BRANCH  24  25
ATOM     25  C   UNL     1      11.532 -50.611 -22.402  1.00  0.00     0.044 C 
ATOM     26  C   UNL     1      12.598 -50.942 -23.454  1.00  0.00     0.009 C 
ATOM     27  C   UNL     1      10.896 -49.235 -22.701  1.00  0.00     0.009 C 
ATOM     28  C   UNL     1      13.729 -49.908 -23.474  1.00  0.00     0.001 C 
ATOM     29  C   UNL     1      11.851 -48.233 -23.355  1.00  0.00     0.001 C 
ATOM     30  C   UNL     1      13.303 -48.517 -23.006  1.00  0.00     0.000 C 
ENDBRANCH  24  25
ENDBRANCH  22  24
ENDBRANCH   1  17
TORSDOF 7
ENDMDL
MODEL 5
REMARK VINA RESULT:    -9.786      1.881      3.389
REMARK INTER + INTRA:         -13.985
REMARK INTER:                 -13.800
REMARK INTRA:                  -0.185
REMARK UNBOUND:                -0.480
REMARK SMILES COc1cc2c(cc1OC)C(O)=C(C[C@H]1CC[N@H+](CC3CCCCC3)CC1)C2
REMARK SMILES IDX 14 1 13 2 11 3 6 4 28 5 7 6 5 7 8 8 4 9 3 10 12 11 9 13
REMARK SMILES IDX 10 14 2 15 1 16 15 17 16 18 27 19 17 20 26 21 18 22 19 24
REMARK SMILES IDX 20 25 21 26 25 27 22 28 24 29 23 30
REMARK H PARENT 12 12 18 23
ROOT
ATOM      1  C   UNL     1      10.608 -57.816 -21.706  1.00  0.00     0.039 C 
ENDROOT
BRANCH   1   2
ATOM      2  C   UNL     1      10.992 -56.528 -22.372  1.00  0.00    -0.023 C 
ATOM      3  C   UNL     1      11.598 -56.282 -23.548  1.00  0.00     0.122 C 
ATOM      4  C   UNL     1      11.769 -54.843 -23.724  1.00  0.00     0.024 A 
ATOM      5  C   UNL     1      10.710 -55.228 -21.632  1.00  0.00     0.071 C 
ATOM      6  C   UNL     1      12.311 -54.100 -24.762  1.00  0.00     0.062 A 
ATOM      7  C   UNL     1      11.247 -54.209 -22.591  1.00  0.00    -0.029 A 
ATOM      8  C   UNL     1      12.334 -52.702 -24.648  1.00  0.00     0.161 A 
ATOM      9  C   UNL     1      11.258 -52.829 -22.457  1.00  0.00     0.055 A 
ATOM     10  C   UNL     1      11.807 -52.065 -23.492  1.00  0.00     0.161 A 
BRANCH   3  11
ATOM     11  O   UNL     1      12.045 -57.190 -24.456  1.00  0.00    -0.507 OA
ATOM     12  H   UNL     1      13.010 -57.084 -24.525  1.00  0.00     0.293 HD
ENDBRANCH   3  11
BRANCH   8  13
ATOM     13  O   UNL     1      12.842 -51.859 -25.607  1.00  0.00    -0.493 OA
ATOM     14  C   UNL     1      14.243 -51.872 -25.838  1.00  0.00     0.278 C 
ENDBRANCH   8  13
BRANCH  10  15
ATOM     15  O   UNL     1      11.878 -50.692 -23.484  1.00  0.00    -0.493 OA
ATOM     16  C   UNL     1      11.627 -50.023 -22.257  1.00  0.00     0.278 C 
ENDBRANCH  10  15
ENDBRANCH   1   2
BRANCH   1  17
ATOM     17  C   UNL     1      10.206 -58.995 -22.611  1.00  0.00     0.004 C 
ATOM     18  C   UNL     1       8.759 -58.870 -23.110  1.00  0.00     0.065 C 
ATOM     19  C   UNL     1      10.359 -60.326 -21.861  1.00  0.00     0.065 C 
ATOM     20  C   UNL     1       8.383 -60.045 -23.999  1.00  0.00     0.262 C 
ATOM     21  C   UNL     1       9.966 -61.511 -22.734  1.00  0.00     0.262 C 
ATOM     22  N   UNL     1       8.546 -61.342 -23.228  1.00  0.00    -0.335 N 
ATOM     23  H   UNL     1       7.936 -61.261 -22.406  1.00  0.00     0.348 HD
BRANCH  22  24
ATOM     24  C   UNL     1       8.051 -62.512 -24.058  1.00  0.00     0.265 C 
BRANCH  24  25
ATOM     25  C   UNL     1       8.118 -62.262 -25.574  1.00  0.00     0.044 C 
ATOM     26  C   UNL     1       9.535 -61.988 -26.092  1.00  0.00     0.009 C 
ATOM     27  C   UNL     1       7.506 -63.476 -26.309  1.00  0.00     0.009 C 
ATOM     28  C   UNL     1       9.551 -61.673 -27.592  1.00  0.00     0.001 C 
ATOM     29  C   UNL     1       7.977 -63.633 -27.758  1.00  0.00     0.001 C 
ATOM     30  C   UNL     1       8.397 -62.306 -28.368  1.00  0.00     0.000 C 
ENDBRANCH  24  25
ENDBRANCH  22  24
ENDBRANCH   1  17
TORSDOF 7
ENDMDL
MODEL 6
REMARK VINA RESULT:    -9.318      3.762     10.624
REMARK INTER + INTRA:         -13.338
REMARK INTER:                 -13.486
REMARK INTRA:                   0.148
REMARK UNBOUND:                -0.480
REMARK SMILES COc1cc2c(cc1OC)C(O)=C(C[C@H]1CC[N@H+](CC3CCCCC3)CC1)C2
REMARK SMILES IDX 14 1 13 2 11 3 6 4 28 5 7 6 5 7 8 8 4 9 3 10 12 11 9 13
REMARK SMILES IDX 10 14 2 15 1 16 15 17 16 18 27 19 17 20 26 21 18 22 19 24
REMARK SMILES IDX 20 25 21 26 25 27 22 28 24 29 23 30
REMARK H PARENT 12 12 18 23
ROOT
ATOM      1  C   UNL     1      10.691 -54.022 -21.800  1.00  0.00     0.039 C 
ENDROOT
BRANCH   1   2
ATOM      2  C   UNL     1      11.054 -55.319 -22.460  1.00  0.00    -0.023 C 
ATOM      3  C   UNL     1      11.383 -55.606 -23.733  1.00  0.00     0.122 C 
ATOM      4  C   UNL     1      11.626 -57.039 -23.869  1.00  0.00     0.024 A 
ATOM      5  C   UNL     1      11.035 -56.583 -21.613  1.00  0.00     0.071 C 
ATOM      6  C   UNL     1      12.006 -57.811 -24.957  1.00  0.00     0.062 A 
ATOM      7  C   UNL     1      11.420 -57.628 -22.616  1.00  0.00    -0.029 A 
ATOM      8  C   UNL     1      12.170 -59.192 -24.778  1.00  0.00     0.161 A 
ATOM      9  C   UNL     1      11.576 -58.991 -22.415  1.00  0.00     0.055 A 
ATOM     10  C   UNL     1      11.954 -59.784 -23.504  1.00  0.00     0.161 A 
BRANCH   3  11
ATOM     11  O   UNL     1      11.455 -54.748 -24.785  1.00  0.00    -0.507 OA
ATOM     12  H   UNL     1      10.986 -53.934 -24.532  1.00  0.00     0.293 HD
ENDBRANCH   3  11
BRANCH   8  13
ATOM     13  O   UNL     1      12.545 -60.059 -25.776  1.00  0.00    -0.493 OA
ATOM     14  C   UNL     1      12.132 -59.771 -27.104  1.00  0.00     0.278 C 
ENDBRANCH   8  13
BRANCH  10  15
ATOM     15  O   UNL     1      12.143 -61.144 -23.440  1.00  0.00    -0.493 OA
ATOM     16  C   UNL     1      10.992 -61.975 -23.471  1.00  0.00     0.278 C 
ENDBRANCH  10  15
ENDBRANCH   1   2
BRANCH   1  17
ATOM     17  C   UNL     1      10.906 -52.727 -22.605  1.00  0.00     0.004 C 
ATOM     18  C   UNL     1      12.371 -52.551 -23.031  1.00  0.00     0.065 C 
ATOM     19  C   UNL     1      10.477 -51.503 -21.781  1.00  0.00     0.065 C 
ATOM     20  C   UNL     1      12.561 -51.266 -23.821  1.00  0.00     0.262 C 
ATOM     21  C   UNL     1      10.682 -50.206 -22.554  1.00  0.00     0.262 C 
ATOM     22  N   UNL     1      12.128 -50.079 -22.979  1.00  0.00    -0.335 N 
ATOM     23  H   UNL     1      12.707 -50.108 -22.131  1.00  0.00     0.348 HD
BRANCH  22  24
ATOM     24  C   UNL     1      12.433 -48.782 -23.704  1.00  0.00     0.265 C 
BRANCH  24  25
ATOM     25  C   UNL     1      11.747 -47.554 -23.082  1.00  0.00     0.044 C 
ATOM     26  C   UNL     1      12.702 -46.646 -22.296  1.00  0.00     0.009 C 
ATOM     27  C   UNL     1      11.046 -46.751 -24.200  1.00  0.00     0.009 C 
ATOM     28  C   UNL     1      11.970 -45.475 -21.632  1.00  0.00     0.001 C 
ATOM     29  C   UNL     1      10.803 -45.278 -23.857  1.00  0.00     0.001 C 
ATOM     30  C   UNL     1      10.692 -45.054 -22.357  1.00  0.00     0.000 C 
ENDBRANCH  24  25
ENDBRANCH  22  24
ENDBRANCH   1  17
TORSDOF 7
ENDMDL
MODEL 7
REMARK VINA RESULT:    -9.092      4.354      9.419
REMARK INTER + INTRA:         -13.027
REMARK INTER:                 -12.384
REMARK INTRA:                  -0.643
REMARK UNBOUND:                -0.480
REMARK SMILES COc1cc2c(cc1OC)C(O)=C(C[C@H]1CC[N@H+](CC3CCCCC3)CC1)C2
REMARK SMILES IDX 14 1 13 2 11 3 6 4 28 5 7 6 5 7 8 8 4 9 3 10 12 11 9 13
REMARK SMILES IDX 10 14 2 15 1 16 15 17 16 18 27 19 17 20 26 21 18 22 19 24
REMARK SMILES IDX 20 25 21 26 25 27 22 28 24 29 23 30
REMARK H PARENT 12 12 18 23
ROOT
ATOM      1  C   UNL     1      10.567 -59.813 -22.389  1.00  0.00     0.039 C 
ENDROOT
BRANCH   1   2
ATOM      2  C   UNL     1      10.334 -60.238 -23.809  1.00  0.00    -0.023 C 
ATOM      3  C   UNL     1       9.520 -61.172 -24.334  1.00  0.00     0.122 C 
ATOM      4  C   UNL     1       9.687 -61.213 -25.784  1.00  0.00     0.024 A 
ATOM      5  C   UNL     1      11.151 -59.564 -24.900  1.00  0.00     0.071 C 
ATOM      6  C   UNL     1       9.069 -61.979 -26.761  1.00  0.00     0.062 A 
ATOM      7  C   UNL     1      10.655 -60.264 -26.129  1.00  0.00    -0.029 A 
ATOM      8  C   UNL     1       9.442 -61.789 -28.100  1.00  0.00     0.161 A 
ATOM      9  C   UNL     1      11.039 -60.058 -27.445  1.00  0.00     0.055 A 
ATOM     10  C   UNL     1      10.430 -60.827 -28.443  1.00  0.00     0.161 A 
BRANCH   3  11
ATOM     11  O   UNL     1       8.679 -62.009 -23.669  1.00  0.00    -0.507 OA
ATOM     12  H   UNL     1       9.228 -62.642 -23.173  1.00  0.00     0.293 HD
ENDBRANCH   3  11
BRANCH   8  13
ATOM     13  O   UNL     1       8.902 -62.484 -29.156  1.00  0.00    -0.493 OA
ATOM     14  C   UNL     1       8.250 -63.716 -28.885  1.00  0.00     0.278 C 
ENDBRANCH   8  13
BRANCH  10  15
ATOM     15  O   UNL     1      10.718 -60.721 -29.783  1.00  0.00    -0.493 OA
ATOM     16  C   UNL     1      11.662 -59.738 -30.182  1.00  0.00     0.278 C 
ENDBRANCH  10  15
ENDBRANCH   1   2
BRANCH   1  17
ATOM     17  C   UNL     1      10.266 -58.347 -22.025  1.00  0.00     0.004 C 
ATOM     18  C   UNL     1       9.430 -57.646 -23.105  1.00  0.00     0.065 C 
ATOM     19  C   UNL     1      11.572 -57.564 -21.822  1.00  0.00     0.065 C 
ATOM     20  C   UNL     1       9.147 -56.201 -22.727  1.00  0.00     0.262 C 
ATOM     21  C   UNL     1      11.304 -56.109 -21.463  1.00  0.00     0.262 C 
ATOM     22  N   UNL     1      10.457 -55.458 -22.533  1.00  0.00    -0.335 N 
ATOM     23  H   UNL     1      10.962 -55.539 -23.424  1.00  0.00     0.348 HD
BRANCH  22  24
ATOM     24  C   UNL     1      10.193 -53.985 -22.284  1.00  0.00     0.265 C 
BRANCH  24  25
ATOM     25  C   UNL     1      10.981 -53.052 -23.220  1.00  0.00     0.044 C 
ATOM     26  C   UNL     1      11.987 -52.153 -22.490  1.00  0.00     0.009 C 
ATOM     27  C   UNL     1      11.703 -53.906 -24.287  1.00  0.00     0.009 C 
ATOM     28  C   UNL     1      12.699 -51.189 -23.446  1.00  0.00     0.001 C 
ATOM     29  C   UNL     1      12.917 -53.220 -24.920  1.00  0.00     0.001 C 
ATOM     30  C   UNL     1      12.802 -51.705 -24.881  1.00  0.00     0.000 C 
ENDBRANCH  24  25
ENDBRANCH  22  24
ENDBRANCH   1  17
TORSDOF 7
ENDMDL
MODEL 8
REMARK VINA RESULT:    -9.085      4.236      9.579
REMARK INTER + INTRA:         -13.017
REMARK INTER:                 -12.424
REMARK INTRA:                  -0.593
REMARK UNBOUND:                -0.480
REMARK SMILES COc1cc2c(cc1OC)C(O)=C(C[C@H]1CC[N@H+](CC3CCCCC3)CC1)C2
REMARK SMILES IDX 14 1 13 2 11 3 6 4 28 5 7 6 5 7 8 8 4 9 3 10 12 11 9 13
REMARK SMILES IDX 10 14 2 15 1 16 15 17 16 18 27 19 17 20 26 21 18 22 19 24
REMARK SMILES IDX 20 25 21 26 25 27 22 28 24 29 23 30
REMARK H PARENT 12 12 18 23
ROOT
ATOM      1  C   UNL     1      11.306 -57.656 -22.364  1.00  0.00     0.039 C 
ENDROOT
BRANCH   1   2
ATOM      2  C   UNL     1      11.112 -58.369 -23.669  1.00  0.00    -0.023 C 
ATOM      3  C   UNL     1      10.202 -59.283 -24.055  1.00  0.00     0.122 C 
ATOM      4  C   UNL     1      10.464 -59.688 -25.433  1.00  0.00     0.024 A 
ATOM      5  C   UNL     1      12.099 -58.088 -24.792  1.00  0.00     0.071 C 
ATOM      6  C   UNL     1       9.806 -60.573 -26.274  1.00  0.00     0.062 A 
ATOM      7  C   UNL     1      11.589 -58.986 -25.879  1.00  0.00    -0.029 A 
ATOM      8  C   UNL     1      10.298 -60.757 -27.575  1.00  0.00     0.161 A 
ATOM      9  C   UNL     1      12.092 -59.150 -27.160  1.00  0.00     0.055 A 
ATOM     10  C   UNL     1      11.444 -60.044 -28.019  1.00  0.00     0.161 A 
BRANCH   3  11
ATOM     11  O   UNL     1       9.198 -59.819 -23.312  1.00  0.00    -0.507 OA
ATOM     12  H   UNL     1       8.651 -60.361 -23.906  1.00  0.00     0.293 HD
ENDBRANCH   3  11
BRANCH   8  13
ATOM     13  O   UNL     1       9.733 -61.603 -28.499  1.00  0.00    -0.493 OA
ATOM     14  C   UNL     1       8.579 -62.338 -28.119  1.00  0.00     0.278 C 
ENDBRANCH   8  13
BRANCH  10  15
ATOM     15  O   UNL     1      11.839 -60.298 -29.311  1.00  0.00    -0.493 OA
ATOM     16  C   UNL     1      12.143 -59.186 -30.141  1.00  0.00     0.278 C 
ENDBRANCH  10  15
ENDBRANCH   1   2
BRANCH   1  17
ATOM     17  C   UNL     1      10.620 -56.288 -22.190  1.00  0.00     0.004 C 
ATOM     18  C   UNL     1      10.740 -55.419 -23.450  1.00  0.00     0.065 C 
ATOM     19  C   UNL     1      11.229 -55.528 -21.002  1.00  0.00     0.065 C 
ATOM     20  C   UNL     1      10.059 -54.074 -23.255  1.00  0.00     0.262 C 
ATOM     21  C   UNL     1      10.569 -54.168 -20.808  1.00  0.00     0.262 C 
ATOM     22  N   UNL     1      10.683 -53.351 -22.075  1.00  0.00    -0.335 N 
ATOM     23  H   UNL     1      11.682 -53.257 -22.298  1.00  0.00     0.348 HD
BRANCH  22  24
ATOM     24  C   UNL     1      10.104 -51.955 -21.949  1.00  0.00     0.265 C 
BRANCH  24  25
ATOM     25  C   UNL     1      11.146 -50.838 -22.126  1.00  0.00     0.044 C 
ATOM     26  C   UNL     1      12.201 -51.143 -23.197  1.00  0.00     0.009 C 
ATOM     27  C   UNL     1      10.416 -49.517 -22.456  1.00  0.00     0.009 C 
ATOM     28  C   UNL     1      13.263 -50.041 -23.293  1.00  0.00     0.001 C 
ATOM     29  C   UNL     1      11.285 -48.484 -23.178  1.00  0.00     0.001 C 
ATOM     30  C   UNL     1      12.762 -48.662 -22.864  1.00  0.00     0.000 C 
ENDBRANCH  24  25
ENDBRANCH  22  24
ENDBRANCH   1  17
TORSDOF 7
ENDMDL
MODEL 9
REMARK VINA RESULT:    -8.951      2.587      4.870
REMARK INTER + INTRA:         -12.832
REMARK INTER:                 -12.150
REMARK INTRA:                  -0.682
REMARK UNBOUND:                -0.480
REMARK SMILES COc1cc2c(cc1OC)C(O)=C(C[C@H]1CC[N@H+](CC3CCCCC3)CC1)C2
REMARK SMILES IDX 14 1 13 2 11 3 6 4 28 5 7 6 5 7 8 8 4 9 3 10 12 11 9 13
REMARK SMILES IDX 10 14 2 15 1 16 15 17 16 18 27 19 17 20 26 21 18 22 19 24
REMARK SMILES IDX 20 25 21 26 25 27 22 28 24 29 23 30
REMARK H PARENT 12 12 18 23
ROOT
ATOM      1  C   UNL     1      12.536 -51.018 -22.704  1.00  0.00     0.039 C 
ENDROOT
BRANCH   1   2
ATOM      2  C   UNL     1      13.585 -50.765 -23.745  1.00  0.00    -0.023 C 
ATOM      3  C   UNL     1      14.924 -50.894 -23.707  1.00  0.00     0.122 C 
ATOM      4  C   UNL     1      15.495 -50.491 -24.989  1.00  0.00     0.024 A 
ATOM      5  C   UNL     1      13.136 -50.232 -25.098  1.00  0.00     0.071 C 
ATOM      6  C   UNL     1      16.804 -50.464 -25.447  1.00  0.00     0.062 A 
ATOM      7  C   UNL     1      14.442 -50.094 -25.820  1.00  0.00    -0.029 A 
ATOM      8  C   UNL     1      17.050 -50.023 -26.755  1.00  0.00     0.161 A 
ATOM      9  C   UNL     1      14.661 -49.654 -27.117  1.00  0.00     0.055 A 
ATOM     10  C   UNL     1      15.976 -49.616 -27.592  1.00  0.00     0.161 A 
BRANCH   3  11
ATOM     11  O   UNL     1      15.690 -51.293 -22.657  1.00  0.00    -0.507 OA
ATOM     12  H   UNL     1      16.613 -51.069 -22.866  1.00  0.00     0.293 HD
ENDBRANCH   3  11
BRANCH   8  13
ATOM     13  O   UNL     1      18.300 -49.953 -27.323  1.00  0.00    -0.493 OA
ATOM     14  C   UNL     1      19.303 -50.839 -26.848  1.00  0.00     0.278 C 
ENDBRANCH   8  13
BRANCH  10  15
ATOM     15  O   UNL     1      16.328 -49.203 -28.855  1.00  0.00    -0.493 OA
ATOM     16  C   UNL     1      15.392 -48.420 -29.582  1.00  0.00     0.278 C 
ENDBRANCH  10  15
ENDBRANCH   1   2
BRANCH   1  17
ATOM     17  C   UNL     1      11.495 -52.116 -22.992  1.00  0.00     0.004 C 
ATOM     18  C   UNL     1      10.934 -52.731 -21.701  1.00  0.00     0.065 C 
ATOM     19  C   UNL     1      12.113 -53.233 -23.846  1.00  0.00     0.065 C 
ATOM     20  C   UNL     1       9.911 -53.813 -22.010  1.00  0.00     0.262 C 
ATOM     21  C   UNL     1      11.105 -54.335 -24.145  1.00  0.00     0.262 C 
ATOM     22  N   UNL     1      10.555 -54.898 -22.853  1.00  0.00    -0.335 N 
ATOM     23  H   UNL     1      11.347 -55.252 -22.304  1.00  0.00     0.348 HD
BRANCH  22  24
ATOM     24  C   UNL     1       9.585 -56.047 -23.059  1.00  0.00     0.265 C 
BRANCH  24  25
ATOM     25  C   UNL     1      10.245 -57.433 -22.962  1.00  0.00     0.044 C 
ATOM     26  C   UNL     1      11.093 -57.624 -21.699  1.00  0.00     0.009 C 
ATOM     27  C   UNL     1       9.146 -58.518 -23.037  1.00  0.00     0.009 C 
ATOM     28  C   UNL     1      11.792 -58.989 -21.673  1.00  0.00     0.001 C 
ATOM     29  C   UNL     1       9.550 -59.861 -22.424  1.00  0.00     0.001 C 
ATOM     30  C   UNL     1      11.054 -60.075 -22.457  1.00  0.00     0.000 C 
ENDBRANCH  24  25
ENDBRANCH  22  24
ENDBRANCH   1  17
TORSDOF 7
ENDMDL
