MODEL 1
REMARK VINA RESULT:   -10.235      0.000      0.000
REMARK INTER + INTRA:         -12.852
REMARK INTER:                 -12.629
REMARK INTRA:                  -0.224
REMARK UNBOUND:                -0.224
REMARK SMILES COc1ccc(NC(=O)C2CCN(C(=O)c3ccccc3)CC2)cc1
REMARK SMILES IDX 3 1 4 2 5 3 6 4 24 5 25 6 2 7 1 8 7 9 8 10 9 12 10 13 11 14
REMARK SMILES IDX 23 15 12 16 22 17 13 18 14 19 15 20 16 21 17 22 21 23 18 24
REMARK SMILES IDX 20 25 19 26
REMARK H PARENT 7 11
ROOT
ATOM      1  C   UNL     1       7.113 -60.983 -23.515  1.00  0.00     0.119 A 
ATOM      2  C   UNL     1       6.364 -59.875 -23.127  1.00  0.00     0.048 A 
ATOM      3  C   UNL     1       6.948 -58.601 -23.119  1.00  0.00     0.030 A 
ATOM      4  C   UNL     1       8.285 -58.416 -23.496  1.00  0.00     0.041 A 
ATOM      5  C   UNL     1       9.028 -59.529 -23.884  1.00  0.00     0.030 A 
ATOM      6  C   UNL     1       8.444 -60.801 -23.892  1.00  0.00     0.048 A 
ENDROOT
BRANCH   1   7
ATOM      7  O   UNL     1       6.672 -62.275 -23.569  1.00  0.00    -0.497 OA
ATOM      8  C   UNL     1       7.612 -63.293 -23.250  1.00  0.00     0.278 C 
ENDBRANCH   1   7
BRANCH   4   9
ATOM      9  N   UNL     1       8.788 -57.099 -23.459  1.00  0.00    -0.326 N 
ATOM     10  C   UNL     1       9.929 -56.647 -22.813  1.00  0.00     0.227 C 
ATOM     11  H   UNL     1       8.232 -56.406 -23.940  1.00  0.00     0.169 HD
ATOM     12  O   UNL     1      10.689 -57.325 -22.132  1.00  0.00    -0.274 OA
BRANCH  10  13
ATOM     13  C   UNL     1      10.167 -55.152 -23.038  1.00  0.00     0.082 C 
ATOM     14  C   UNL     1      11.304 -54.933 -24.044  1.00  0.00     0.035 C 
ATOM     15  C   UNL     1      10.501 -54.439 -21.722  1.00  0.00     0.035 C 
ATOM     16  C   UNL     1      11.593 -53.449 -24.237  1.00  0.00     0.120 C 
ATOM     17  C   UNL     1      10.793 -52.962 -21.951  1.00  0.00     0.120 C 
ATOM     18  N   UNL     1      11.825 -52.764 -22.964  1.00  0.00    -0.339 N 
ATOM     19  C   UNL     1      12.506 -51.539 -22.918  1.00  0.00     0.253 C 
ATOM     20  O   UNL     1      12.231 -50.641 -22.126  1.00  0.00    -0.269 OA
BRANCH  19  21
ATOM     21  C   UNL     1      13.637 -51.316 -23.850  1.00  0.00     0.040 A 
ATOM     22  C   UNL     1      13.371 -50.848 -25.140  1.00  0.00     0.014 A 
ATOM     23  C   UNL     1      14.958 -51.505 -23.426  1.00  0.00     0.014 A 
ATOM     24  C   UNL     1      14.427 -50.608 -26.021  1.00  0.00     0.001 A 
ATOM     25  C   UNL     1      16.010 -51.265 -24.310  1.00  0.00     0.001 A 
ATOM     26  C   UNL     1      15.743 -50.821 -25.607  1.00  0.00     0.000 A 
ENDBRANCH  19  21
ENDBRANCH  10  13
ENDBRANCH   4   9
TORSDOF 4
ENDMDL
MODEL 2
REMARK VINA RESULT:   -10.134      2.581      9.767
REMARK INTER + INTRA:         -12.727
REMARK INTER:                 -12.309
REMARK INTRA:                  -0.418
REMARK UNBOUND:                -0.224
REMARK SMILES COc1ccc(NC(=O)C2CCN(C(=O)c3ccccc3)CC2)cc1
REMARK SMILES IDX 3 1 4 2 5 3 6 4 24 5 25 6 2 7 1 8 7 9 8 10 9 12 10 13 11 14
REMARK SMILES IDX 23 15 12 16 22 17 13 18 14 19 15 20 16 21 17 22 21 23 18 24
REMARK SMILES IDX 20 25 19 26
REMARK H PARENT 7 11
ROOT
ATOM      1  C   UNL     1      10.816 -50.712 -22.359  1.00  0.00     0.119 A 
ATOM      2  C   UNL     1      11.948 -51.246 -22.972  1.00  0.00     0.048 A 
ATOM      3  C   UNL     1      12.012 -52.616 -23.256  1.00  0.00     0.030 A 
ATOM      4  C   UNL     1      10.951 -53.472 -22.931  1.00  0.00     0.041 A 
ATOM      5  C   UNL     1       9.822 -52.932 -22.319  1.00  0.00     0.030 A 
ATOM      6  C   UNL     1       9.758 -51.561 -22.037  1.00  0.00     0.048 A 
ENDROOT
BRANCH   1   7
ATOM      7  O   UNL     1      10.622 -49.400 -22.028  1.00  0.00    -0.497 OA
ATOM      8  C   UNL     1      10.694 -48.451 -23.083  1.00  0.00     0.278 C 
ENDBRANCH   1   7
BRANCH   4   9
ATOM      9  N   UNL     1      11.102 -54.837 -23.255  1.00  0.00    -0.326 N 
ATOM     10  C   UNL     1      11.085 -55.919 -22.388  1.00  0.00     0.227 C 
ATOM     11  H   UNL     1      11.267 -55.037 -24.232  1.00  0.00     0.169 HD
ATOM     12  O   UNL     1      10.961 -55.865 -21.170  1.00  0.00    -0.274 OA
BRANCH  10  13
ATOM     13  C   UNL     1      11.243 -57.251 -23.123  1.00  0.00     0.082 C 
ATOM     14  C   UNL     1       9.872 -57.812 -23.522  1.00  0.00     0.035 C 
ATOM     15  C   UNL     1      11.986 -58.278 -22.259  1.00  0.00     0.035 C 
ATOM     16  C   UNL     1      10.007 -59.167 -24.206  1.00  0.00     0.120 C 
ATOM     17  C   UNL     1      12.096 -59.621 -22.967  1.00  0.00     0.120 C 
ATOM     18  N   UNL     1      10.792 -60.110 -23.407  1.00  0.00    -0.339 N 
ATOM     19  C   UNL     1      10.693 -61.493 -23.620  1.00  0.00     0.253 C 
ATOM     20  O   UNL     1      11.643 -62.265 -23.512  1.00  0.00    -0.269 OA
BRANCH  19  21
ATOM     21  C   UNL     1       9.370 -62.068 -23.964  1.00  0.00     0.040 A 
ATOM     22  C   UNL     1       9.076 -62.337 -25.304  1.00  0.00     0.014 A 
ATOM     23  C   UNL     1       8.455 -62.402 -22.960  1.00  0.00     0.014 A 
ATOM     24  C   UNL     1       7.846 -62.903 -25.643  1.00  0.00     0.001 A 
ATOM     25  C   UNL     1       7.226 -62.967 -23.303  1.00  0.00     0.001 A 
ATOM     26  C   UNL     1       6.922 -63.212 -24.643  1.00  0.00     0.000 A 
ENDBRANCH  19  21
ENDBRANCH  10  13
ENDBRANCH   4   9
TORSDOF 4
ENDMDL
MODEL 3
REMARK VINA RESULT:    -9.830      2.769      9.489
REMARK INTER + INTRA:         -12.353
REMARK INTER:                 -12.956
REMARK INTRA:                   0.603
REMARK UNBOUND:                -0.224
REMARK SMILES COc1ccc(NC(=O)C2CCN(C(=O)c3ccccc3)CC2)cc1
REMARK SMILES IDX 3 1 4 2 5 3 6 4 24 5 25 6 2 7 1 8 7 9 8 10 9 12 10 13 11 14
REMARK SMILES IDX 23 15 12 16 22 17 13 18 14 19 15 20 16 21 17 22 21 23 18 24
REMARK SMILES IDX 20 25 19 26
REMARK H PARENT 7 11
ROOT
ATOM      1  C   UNL     1      11.118 -52.796 -22.428  1.00  0.00     0.119 A 
ATOM      2  C   UNL     1      10.655 -53.616 -21.402  1.00  0.00     0.048 A 
ATOM      3  C   UNL     1      10.581 -55.003 -21.591  1.00  0.00     0.030 A 
ATOM      4  C   UNL     1      10.967 -55.588 -22.804  1.00  0.00     0.041 A 
ATOM      5  C   UNL     1      11.431 -54.762 -23.825  1.00  0.00     0.030 A 
ATOM      6  C   UNL     1      11.505 -53.377 -23.635  1.00  0.00     0.048 A 
ENDROOT
BRANCH   1   7
ATOM      7  O   UNL     1      11.242 -51.436 -22.379  1.00  0.00    -0.497 OA
ATOM      8  C   UNL     1      10.074 -50.693 -22.055  1.00  0.00     0.278 C 
ENDBRANCH   1   7
BRANCH   4   9
ATOM      9  N   UNL     1      10.861 -56.992 -22.904  1.00  0.00    -0.326 N 
ATOM     10  C   UNL     1      11.159 -57.934 -21.931  1.00  0.00     0.227 C 
ATOM     11  H   UNL     1      10.558 -57.343 -23.802  1.00  0.00     0.169 HD
ATOM     12  O   UNL     1      11.597 -57.701 -20.810  1.00  0.00    -0.274 OA
BRANCH  10  13
ATOM     13  C   UNL     1      10.879 -59.361 -22.405  1.00  0.00     0.082 C 
ATOM     14  C   UNL     1      10.977 -59.451 -23.933  1.00  0.00     0.035 C 
ATOM     15  C   UNL     1       9.492 -59.834 -21.951  1.00  0.00     0.035 C 
ATOM     16  C   UNL     1      10.644 -60.854 -24.427  1.00  0.00     0.120 C 
ATOM     17  C   UNL     1       9.187 -61.234 -22.468  1.00  0.00     0.120 C 
ATOM     18  N   UNL     1       9.356 -61.326 -23.916  1.00  0.00    -0.339 N 
ATOM     19  C   UNL     1       8.667 -62.369 -24.550  1.00  0.00     0.253 C 
ATOM     20  O   UNL     1       8.003 -63.208 -23.946  1.00  0.00    -0.269 OA
BRANCH  19  21
ATOM     21  C   UNL     1       8.709 -62.455 -26.030  1.00  0.00     0.040 A 
ATOM     22  C   UNL     1       7.916 -63.408 -26.677  1.00  0.00     0.014 A 
ATOM     23  C   UNL     1       9.477 -61.553 -26.775  1.00  0.00     0.014 A 
ATOM     24  C   UNL     1       7.925 -63.485 -28.070  1.00  0.00     0.001 A 
ATOM     25  C   UNL     1       9.483 -61.634 -28.168  1.00  0.00     0.001 A 
ATOM     26  C   UNL     1       8.711 -62.602 -28.813  1.00  0.00     0.000 A 
ENDBRANCH  19  21
ENDBRANCH  10  13
ENDBRANCH   4   9
TORSDOF 4
ENDMDL
MODEL 4
REMARK VINA RESULT:    -9.820      3.081      4.270
REMARK INTER + INTRA:         -12.340
REMARK INTER:                 -12.163
REMARK INTRA:                  -0.177
REMARK UNBOUND:                -0.224
REMARK SMILES COc1ccc(NC(=O)C2CCN(C(=O)c3ccccc3)CC2)cc1
REMARK SMILES IDX 3 1 4 2 5 3 6 4 24 5 25 6 2 7 1 8 7 9 8 10 9 12 10 13 11 14
REMARK SMILES IDX 23 15 12 16 22 17 13 18 14 19 15 20 16 21 17 22 21 23 18 24
REMARK SMILES IDX 20 25 19 26
REMARK H PARENT 7 11
ROOT
ATOM      1  C   UNL     1       9.691 -59.208 -22.391  1.00  0.00     0.119 A 
ATOM      2  C   UNL     1      10.905 -58.857 -21.805  1.00  0.00     0.048 A 
ATOM      3  C   UNL     1      11.378 -57.542 -21.901  1.00  0.00     0.030 A 
ATOM      4  C   UNL     1      10.648 -56.560 -22.584  1.00  0.00     0.041 A 
ATOM      5  C   UNL     1       9.434 -56.916 -23.167  1.00  0.00     0.030 A 
ATOM      6  C   UNL     1       8.962 -58.231 -23.069  1.00  0.00     0.048 A 
ENDROOT
BRANCH   1   7
ATOM      7  O   UNL     1       9.115 -60.447 -22.373  1.00  0.00    -0.497 OA
ATOM      8  C   UNL     1       8.183 -60.741 -23.406  1.00  0.00     0.278 C 
ENDBRANCH   1   7
BRANCH   4   9
ATOM      9  N   UNL     1      11.199 -55.262 -22.629  1.00  0.00    -0.326 N 
ATOM     10  C   UNL     1      10.633 -54.086 -22.160  1.00  0.00     0.227 C 
ATOM     11  H   UNL     1      12.100 -55.186 -23.082  1.00  0.00     0.169 HD
ATOM     12  O   UNL     1       9.528 -53.973 -21.643  1.00  0.00    -0.274 OA
BRANCH  10  13
ATOM     13  C   UNL     1      11.557 -52.883 -22.356  1.00  0.00     0.082 C 
ATOM     14  C   UNL     1      10.916 -51.613 -21.781  1.00  0.00     0.035 C 
ATOM     15  C   UNL     1      11.881 -52.666 -23.839  1.00  0.00     0.035 C 
ATOM     16  C   UNL     1      11.798 -50.392 -22.017  1.00  0.00     0.120 C 
ATOM     17  C   UNL     1      12.756 -51.436 -24.041  1.00  0.00     0.120 C 
ATOM     18  N   UNL     1      12.171 -50.248 -23.425  1.00  0.00    -0.339 N 
ATOM     19  C   UNL     1      12.602 -49.015 -23.934  1.00  0.00     0.253 C 
ATOM     20  O   UNL     1      13.465 -48.905 -24.802  1.00  0.00    -0.269 OA
BRANCH  19  21
ATOM     21  C   UNL     1      11.970 -47.774 -23.427  1.00  0.00     0.040 A 
ATOM     22  C   UNL     1      12.353 -47.279 -22.177  1.00  0.00     0.014 A 
ATOM     23  C   UNL     1      11.054 -47.067 -24.215  1.00  0.00     0.014 A 
ATOM     24  C   UNL     1      11.786 -46.098 -21.696  1.00  0.00     0.001 A 
ATOM     25  C   UNL     1      10.489 -45.886 -23.731  1.00  0.00     0.001 A 
ATOM     26  C   UNL     1      10.853 -45.406 -22.471  1.00  0.00     0.000 A 
ENDBRANCH  19  21
ENDBRANCH  10  13
ENDBRANCH   4   9
TORSDOF 4
ENDMDL
MODEL 5
REMARK VINA RESULT:    -9.748      3.156     10.029
REMARK INTER + INTRA:         -12.252
REMARK INTER:                 -11.807
REMARK INTRA:                  -0.445
REMARK UNBOUND:                -0.224
REMARK SMILES COc1ccc(NC(=O)C2CCN(C(=O)c3ccccc3)CC2)cc1
REMARK SMILES IDX 3 1 4 2 5 3 6 4 24 5 25 6 2 7 1 8 7 9 8 10 9 12 10 13 11 14
REMARK SMILES IDX 23 15 12 16 22 17 13 18 14 19 15 20 16 21 17 22 21 23 18 24
REMARK SMILES IDX 20 25 19 26
REMARK H PARENT 7 11
ROOT
ATOM      1  C   UNL     1      12.219 -46.541 -22.011  1.00  0.00     0.119 A 
ATOM      2  C   UNL     1      13.182 -47.546 -21.968  1.00  0.00     0.048 A 
ATOM      3  C   UNL     1      12.843 -48.859 -22.324  1.00  0.00     0.030 A 
ATOM      4  C   UNL     1      11.541 -49.185 -22.724  1.00  0.00     0.041 A 
ATOM      5  C   UNL     1      10.582 -48.175 -22.765  1.00  0.00     0.030 A 
ATOM      6  C   UNL     1      10.922 -46.864 -22.410  1.00  0.00     0.048 A 
ENDROOT
BRANCH   1   7
ATOM      7  O   UNL     1      12.412 -45.226 -21.693  1.00  0.00    -0.497 OA
ATOM      8  C   UNL     1      12.184 -44.273 -22.722  1.00  0.00     0.278 C 
ENDBRANCH   1   7
BRANCH   4   9
ATOM      9  N   UNL     1      11.290 -50.531 -23.066  1.00  0.00    -0.326 N 
ATOM     10  C   UNL     1      10.821 -51.540 -22.239  1.00  0.00     0.227 C 
ATOM     11  H   UNL     1      11.506 -50.786 -24.020  1.00  0.00     0.169 HD
ATOM     12  O   UNL     1      10.566 -51.435 -21.045  1.00  0.00    -0.274 OA
BRANCH  10  13
ATOM     13  C   UNL     1      10.640 -52.863 -22.987  1.00  0.00     0.082 C 
ATOM     14  C   UNL     1      10.176 -53.965 -22.026  1.00  0.00     0.035 C 
ATOM     15  C   UNL     1      11.942 -53.296 -23.672  1.00  0.00     0.035 C 
ATOM     16  C   UNL     1      10.045 -55.304 -22.743  1.00  0.00     0.120 C 
ATOM     17  C   UNL     1      11.780 -54.639 -24.371  1.00  0.00     0.120 C 
ATOM     18  N   UNL     1      11.266 -55.663 -23.465  1.00  0.00    -0.339 N 
ATOM     19  C   UNL     1      11.526 -56.992 -23.828  1.00  0.00     0.253 C 
ATOM     20  O   UNL     1      12.093 -57.311 -24.871  1.00  0.00    -0.269 OA
BRANCH  19  21
ATOM     21  C   UNL     1      11.126 -58.076 -22.899  1.00  0.00     0.040 A 
ATOM     22  C   UNL     1      11.534 -58.010 -21.564  1.00  0.00     0.014 A 
ATOM     23  C   UNL     1      10.294 -59.115 -23.332  1.00  0.00     0.014 A 
ATOM     24  C   UNL     1      11.145 -59.009 -20.670  1.00  0.00     0.001 A 
ATOM     25  C   UNL     1       9.907 -60.112 -22.436  1.00  0.00     0.001 A 
ATOM     26  C   UNL     1      10.337 -60.060 -21.108  1.00  0.00     0.000 A 
ENDBRANCH  19  21
ENDBRANCH  10  13
ENDBRANCH   4   9
TORSDOF 4
ENDMDL
MODEL 6
REMARK VINA RESULT:    -9.660      1.978      2.815
REMARK INTER + INTRA:         -12.143
REMARK INTER:                 -11.521
REMARK INTRA:                  -0.622
REMARK UNBOUND:                -0.224
REMARK SMILES COc1ccc(NC(=O)C2CCN(C(=O)c3ccccc3)CC2)cc1
REMARK SMILES IDX 3 1 4 2 5 3 6 4 24 5 25 6 2 7 1 8 7 9 8 10 9 12 10 13 11 14
REMARK SMILES IDX 23 15 12 16 22 17 13 18 14 19 15 20 16 21 17 22 21 23 18 24
REMARK SMILES IDX 20 25 19 26
REMARK H PARENT 7 11
ROOT
ATOM      1  C   UNL     1      10.215 -59.634 -21.811  1.00  0.00     0.119 A 
ATOM      2  C   UNL     1      11.210 -58.875 -21.199  1.00  0.00     0.048 A 
ATOM      3  C   UNL     1      11.385 -57.531 -21.553  1.00  0.00     0.030 A 
ATOM      4  C   UNL     1      10.573 -56.927 -22.522  1.00  0.00     0.041 A 
ATOM      5  C   UNL     1       9.579 -57.691 -23.129  1.00  0.00     0.030 A 
ATOM      6  C   UNL     1       9.404 -59.034 -22.774  1.00  0.00     0.048 A 
ENDROOT
BRANCH   1   7
ATOM      7  O   UNL     1       9.935 -60.948 -21.561  1.00  0.00    -0.497 OA
ATOM      8  C   UNL     1       9.706 -61.785 -22.687  1.00  0.00     0.278 C 
ENDBRANCH   1   7
BRANCH   4   9
ATOM      9  N   UNL     1      10.820 -55.569 -22.815  1.00  0.00    -0.326 N 
ATOM     10  C   UNL     1      10.117 -54.465 -22.358  1.00  0.00     0.227 C 
ATOM     11  H   UNL     1      11.583 -55.392 -23.454  1.00  0.00     0.169 HD
ATOM     12  O   UNL     1       9.131 -54.487 -21.631  1.00  0.00    -0.274 OA
BRANCH  10  13
ATOM     13  C   UNL     1      10.713 -53.150 -22.866  1.00  0.00     0.082 C 
ATOM     14  C   UNL     1      11.915 -53.421 -23.781  1.00  0.00     0.035 C 
ATOM     15  C   UNL     1      11.148 -52.251 -21.703  1.00  0.00     0.035 C 
ATOM     16  C   UNL     1      12.556 -52.121 -24.251  1.00  0.00     0.120 C 
ATOM     17  C   UNL     1      11.791 -50.966 -22.206  1.00  0.00     0.120 C 
ATOM     18  N   UNL     1      12.886 -51.236 -23.134  1.00  0.00    -0.339 N 
ATOM     19  C   UNL     1      13.835 -50.214 -23.279  1.00  0.00     0.253 C 
ATOM     20  O   UNL     1      13.746 -49.122 -22.723  1.00  0.00    -0.269 OA
BRANCH  19  21
ATOM     21  C   UNL     1      15.028 -50.463 -24.124  1.00  0.00     0.040 A 
ATOM     22  C   UNL     1      15.968 -51.411 -23.706  1.00  0.00     0.014 A 
ATOM     23  C   UNL     1      15.180 -49.813 -25.353  1.00  0.00     0.014 A 
ATOM     24  C   UNL     1      17.084 -51.676 -24.502  1.00  0.00     0.001 A 
ATOM     25  C   UNL     1      16.297 -50.081 -26.146  1.00  0.00     0.001 A 
ATOM     26  C   UNL     1      17.249 -51.008 -25.717  1.00  0.00     0.000 A 
ENDBRANCH  19  21
ENDBRANCH  10  13
ENDBRANCH   4   9
TORSDOF 4
ENDMDL
MODEL 7
REMARK VINA RESULT:    -8.991      2.686      3.529
REMARK INTER + INTRA:         -11.317
REMARK INTER:                 -10.875
REMARK INTRA:                  -0.442
REMARK UNBOUND:                -0.224
REMARK SMILES COc1ccc(NC(=O)C2CCN(C(=O)c3ccccc3)CC2)cc1
REMARK SMILES IDX 3 1 4 2 5 3 6 4 24 5 25 6 2 7 1 8 7 9 8 10 9 12 10 13 11 14
REMARK SMILES IDX 23 15 12 16 22 17 13 18 14 19 15 20 16 21 17 22 21 23 18 24
REMARK SMILES IDX 20 25 19 26
REMARK H PARENT 7 11
ROOT
ATOM      1  C   UNL     1      10.320 -59.081 -22.144  1.00  0.00     0.119 A 
ATOM      2  C   UNL     1      11.369 -58.270 -21.718  1.00  0.00     0.048 A 
ATOM      3  C   UNL     1      11.358 -56.899 -22.008  1.00  0.00     0.030 A 
ATOM      4  C   UNL     1      10.304 -56.321 -22.727  1.00  0.00     0.041 A 
ATOM      5  C   UNL     1       9.257 -57.137 -23.149  1.00  0.00     0.030 A 
ATOM      6  C   UNL     1       9.268 -58.507 -22.858  1.00  0.00     0.048 A 
ENDROOT
BRANCH   1   7
ATOM      7  O   UNL     1      10.203 -60.426 -21.930  1.00  0.00    -0.497 OA
ATOM      8  C   UNL     1      10.624 -61.286 -22.982  1.00  0.00     0.278 C 
ENDBRANCH   1   7
BRANCH   4   9
ATOM      9  N   UNL     1      10.376 -54.933 -22.972  1.00  0.00    -0.326 N 
ATOM     10  C   UNL     1      10.347 -53.908 -22.039  1.00  0.00     0.227 C 
ATOM     11  H   UNL     1      10.427 -54.664 -23.945  1.00  0.00     0.169 HD
ATOM     12  O   UNL     1      10.227 -54.038 -20.826  1.00  0.00    -0.274 OA
BRANCH  10  13
ATOM     13  C   UNL     1      10.488 -52.530 -22.690  1.00  0.00     0.082 C 
ATOM     14  C   UNL     1      11.966 -52.193 -22.924  1.00  0.00     0.035 C 
ATOM     15  C   UNL     1       9.843 -51.439 -21.827  1.00  0.00     0.035 C 
ATOM     16  C   UNL     1      12.128 -50.800 -23.520  1.00  0.00     0.120 C 
ATOM     17  C   UNL     1      10.030 -50.060 -22.446  1.00  0.00     0.120 C 
ATOM     18  N   UNL     1      11.435 -49.780 -22.731  1.00  0.00    -0.339 N 
ATOM     19  C   UNL     1      11.783 -48.426 -22.837  1.00  0.00     0.253 C 
ATOM     20  O   UNL     1      10.968 -47.509 -22.761  1.00  0.00    -0.269 OA
BRANCH  19  21
ATOM     21  C   UNL     1      13.210 -48.069 -23.020  1.00  0.00     0.040 A 
ATOM     22  C   UNL     1      13.654 -47.675 -24.285  1.00  0.00     0.014 A 
ATOM     23  C   UNL     1      14.088 -48.060 -21.930  1.00  0.00     0.014 A 
ATOM     24  C   UNL     1      14.989 -47.311 -24.469  1.00  0.00     0.001 A 
ATOM     25  C   UNL     1      15.422 -47.696 -22.118  1.00  0.00     0.001 A 
ATOM     26  C   UNL     1      15.871 -47.326 -23.387  1.00  0.00     0.000 A 
ENDBRANCH  19  21
ENDBRANCH  10  13
ENDBRANCH   4   9
TORSDOF 4
ENDMDL
MODEL 8
REMARK VINA RESULT:    -8.280      4.591     10.675
REMARK INTER + INTRA:         -10.440
REMARK INTER:                  -9.969
REMARK INTRA:                  -0.470
REMARK UNBOUND:                -0.224
REMARK SMILES COc1ccc(NC(=O)C2CCN(C(=O)c3ccccc3)CC2)cc1
REMARK SMILES IDX 3 1 4 2 5 3 6 4 24 5 25 6 2 7 1 8 7 9 8 10 9 12 10 13 11 14
REMARK SMILES IDX 23 15 12 16 22 17 13 18 14 19 15 20 16 21 17 22 21 23 18 24
REMARK SMILES IDX 20 25 19 26
REMARK H PARENT 7 11
ROOT
ATOM      1  C   UNL     1      15.935 -47.412 -29.977  1.00  0.00     0.119 A 
ATOM      2  C   UNL     1      15.302 -46.538 -29.096  1.00  0.00     0.048 A 
ATOM      3  C   UNL     1      14.793 -47.012 -27.880  1.00  0.00     0.030 A 
ATOM      4  C   UNL     1      14.907 -48.363 -27.527  1.00  0.00     0.041 A 
ATOM      5  C   UNL     1      15.542 -49.232 -28.411  1.00  0.00     0.030 A 
ATOM      6  C   UNL     1      16.051 -48.757 -29.626  1.00  0.00     0.048 A 
ENDROOT
BRANCH   1   7
ATOM      7  O   UNL     1      16.475 -47.085 -31.189  1.00  0.00    -0.497 OA
ATOM      8  C   UNL     1      16.160 -47.934 -32.285  1.00  0.00     0.278 C 
ENDBRANCH   1   7
BRANCH   4   9
ATOM      9  N   UNL     1      14.367 -48.751 -26.282  1.00  0.00    -0.326 N 
ATOM     10  C   UNL     1      14.861 -48.462 -25.019  1.00  0.00     0.227 C 
ATOM     11  H   UNL     1      13.540 -49.330 -26.327  1.00  0.00     0.169 HD
ATOM     12  O   UNL     1      15.882 -47.830 -24.770  1.00  0.00    -0.274 OA
BRANCH  10  13
ATOM     13  C   UNL     1      13.974 -49.028 -23.909  1.00  0.00     0.082 C 
ATOM     14  C   UNL     1      14.100 -50.555 -23.844  1.00  0.00     0.035 C 
ATOM     15  C   UNL     1      12.505 -48.643 -24.121  1.00  0.00     0.035 C 
ATOM     16  C   UNL     1      13.180 -51.142 -22.780  1.00  0.00     0.120 C 
ATOM     17  C   UNL     1      11.612 -49.252 -23.048  1.00  0.00     0.120 C 
ATOM     18  N   UNL     1      11.796 -50.697 -22.945  1.00  0.00    -0.339 N 
ATOM     19  C   UNL     1      10.735 -51.413 -22.372  1.00  0.00     0.253 C 
ATOM     20  O   UNL     1       9.725 -50.879 -21.917  1.00  0.00    -0.269 OA
BRANCH  19  21
ATOM     21  C   UNL     1      10.811 -52.893 -22.335  1.00  0.00     0.040 A 
ATOM     22  C   UNL     1      11.039 -53.590 -23.525  1.00  0.00     0.014 A 
ATOM     23  C   UNL     1      10.725 -53.580 -21.119  1.00  0.00     0.014 A 
ATOM     24  C   UNL     1      11.139 -54.982 -23.503  1.00  0.00     0.001 A 
ATOM     25  C   UNL     1      10.825 -54.972 -21.102  1.00  0.00     0.001 A 
ATOM     26  C   UNL     1      11.028 -55.671 -22.294  1.00  0.00     0.000 A 
ENDBRANCH  19  21
ENDBRANCH  10  13
ENDBRANCH   4   9
TORSDOF 4
ENDMDL
MODEL 9
REMARK VINA RESULT:    -8.272      4.563     11.493
REMARK INTER + INTRA:         -10.430
REMARK INTER:                  -9.856
REMARK INTRA:                  -0.574
REMARK UNBOUND:                -0.224
REMARK SMILES COc1ccc(NC(=O)C2CCN(C(=O)c3ccccc3)CC2)cc1
REMARK SMILES IDX 3 1 4 2 5 3 6 4 24 5 25 6 2 7 1 8 7 9 8 10 9 12 10 13 11 14
REMARK SMILES IDX 23 15 12 16 22 17 13 18 14 19 15 20 16 21 17 22 21 23 18 24
REMARK SMILES IDX 20 25 19 26
REMARK H PARENT 7 11
ROOT
ATOM      1  C   UNL     1      14.169 -43.457 -25.772  1.00  0.00     0.119 A 
ATOM      2  C   UNL     1      13.817 -43.440 -24.424  1.00  0.00     0.048 A 
ATOM      3  C   UNL     1      13.352 -44.608 -23.805  1.00  0.00     0.030 A 
ATOM      4  C   UNL     1      13.230 -45.806 -24.520  1.00  0.00     0.041 A 
ATOM      5  C   UNL     1      13.584 -45.817 -25.868  1.00  0.00     0.030 A 
ATOM      6  C   UNL     1      14.050 -44.649 -26.486  1.00  0.00     0.048 A 
ENDROOT
BRANCH   1   7
ATOM      7  O   UNL     1      14.635 -42.397 -26.497  1.00  0.00    -0.497 OA
ATOM      8  C   UNL     1      15.617 -41.575 -25.879  1.00  0.00     0.278 C 
ENDBRANCH   1   7
BRANCH   4   9
ATOM      9  N   UNL     1      12.755 -46.932 -23.816  1.00  0.00    -0.326 N 
ATOM     10  C   UNL     1      13.501 -47.968 -23.275  1.00  0.00     0.227 C 
ATOM     11  H   UNL     1      11.750 -46.996 -23.723  1.00  0.00     0.169 HD
ATOM     12  O   UNL     1      14.719 -48.093 -23.344  1.00  0.00    -0.274 OA
BRANCH  10  13
ATOM     13  C   UNL     1      12.627 -48.992 -22.549  1.00  0.00     0.082 C 
ATOM     14  C   UNL     1      13.167 -50.411 -22.766  1.00  0.00     0.035 C 
ATOM     15  C   UNL     1      11.172 -48.919 -23.027  1.00  0.00     0.035 C 
ATOM     16  C   UNL     1      12.276 -51.451 -22.095  1.00  0.00     0.120 C 
ATOM     17  C   UNL     1      10.311 -49.974 -22.346  1.00  0.00     0.120 C 
ATOM     18  N   UNL     1      10.875 -51.313 -22.496  1.00  0.00    -0.339 N 
ATOM     19  C   UNL     1       9.975 -52.379 -22.352  1.00  0.00     0.253 C 
ATOM     20  O   UNL     1       8.791 -52.231 -22.055  1.00  0.00    -0.269 OA
BRANCH  19  21
ATOM     21  C   UNL     1      10.459 -53.759 -22.597  1.00  0.00     0.040 A 
ATOM     22  C   UNL     1      10.887 -54.109 -23.881  1.00  0.00     0.014 A 
ATOM     23  C   UNL     1      10.553 -54.678 -21.546  1.00  0.00     0.014 A 
ATOM     24  C   UNL     1      11.370 -55.396 -24.122  1.00  0.00     0.001 A 
ATOM     25  C   UNL     1      11.036 -55.964 -21.792  1.00  0.00     0.001 A 
ATOM     26  C   UNL     1      11.439 -56.322 -23.080  1.00  0.00     0.000 A 
ENDBRANCH  19  21
ENDBRANCH  10  13
ENDBRANCH   4   9
TORSDOF 4
ENDMDL
