MODEL 1
REMARK VINA RESULT:   -13.045      0.000      0.000
REMARK INTER + INTRA:         -18.489
REMARK INTER:                 -18.002
REMARK INTRA:                  -0.487
REMARK UNBOUND:                -0.487
REMARK SMILES O=C(CC[C@H]1CC[N@H+](Cc2cccc(O)c2)CC1)c1cc2c3c(ccn3C(=O)CC2)c1
REMARK SMILES IDX 7 1 8 2 17 3 6 4 5 5 18 6 9 8 10 9 11 10 16 11 12 12 14 13
REMARK SMILES IDX 13 14 15 15 4 17 3 18 2 19 1 20 19 21 20 22 31 23 21 24
REMARK SMILES IDX 23 25 22 26 30 27 24 28 26 29 29 30 25 31 27 32 28 33
REMARK H PARENT 8 7 15 16
ROOT
ATOM      1  C   UNL     1       9.433 -59.364 -23.712  1.00  0.00     0.262 C 
ATOM      2  N   UNL     1      10.472 -59.585 -24.786  1.00  0.00    -0.331 N 
ATOM      3  C   UNL     1      11.875 -59.426 -24.257  1.00  0.00     0.262 C 
ATOM      4  C   UNL     1       9.603 -57.973 -23.116  1.00  0.00     0.065 C 
ATOM      5  C   UNL     1      11.020 -57.761 -22.564  1.00  0.00     0.000 C 
ATOM      6  C   UNL     1      12.050 -58.033 -23.664  1.00  0.00     0.065 C 
ATOM      7  H   UNL     1      10.323 -58.863 -25.501  1.00  0.00     0.348 HD
ENDROOT
BRANCH   2   8
ATOM      8  C   UNL     1      10.304 -60.916 -25.492  1.00  0.00     0.299 C 
BRANCH   8   9
ATOM      9  C   UNL     1       9.472 -61.898 -24.712  1.00  0.00     0.010 A 
ATOM     10  C   UNL     1      10.008 -62.538 -23.581  1.00  0.00     0.010 A 
ATOM     11  C   UNL     1       8.162 -62.206 -25.115  1.00  0.00     0.055 A 
ATOM     12  C   UNL     1       9.254 -63.478 -22.877  1.00  0.00     0.004 A 
ATOM     13  C   UNL     1       7.422 -63.145 -24.401  1.00  0.00     0.116 A 
ATOM     14  C   UNL     1       7.961 -63.786 -23.293  1.00  0.00     0.046 A 
BRANCH  13  15
ATOM     15  O   UNL     1       6.152 -63.477 -24.761  1.00  0.00    -0.508 OA
ATOM     16  H   UNL     1       5.510 -62.928 -24.282  1.00  0.00     0.293 HD
ENDBRANCH  13  15
ENDBRANCH   8   9
ENDBRANCH   2   8
BRANCH   5  17
ATOM     17  C   UNL     1      11.141 -56.357 -21.936  1.00  0.00     0.012 C 
BRANCH  17  18
ATOM     18  C   UNL     1      10.320 -55.226 -22.573  1.00  0.00     0.081 C 
BRANCH  18  19
ATOM     19  C   UNL     1      10.559 -53.850 -21.969  1.00  0.00     0.162 C 
ATOM     20  O   UNL     1      10.218 -53.575 -20.820  1.00  0.00    -0.294 OA
BRANCH  19  21
ATOM     21  C   UNL     1      11.272 -52.818 -22.783  1.00  0.00     0.019 A 
ATOM     22  C   UNL     1      11.200 -51.478 -22.358  1.00  0.00     0.017 A 
ATOM     23  C   UNL     1      12.025 -53.172 -23.921  1.00  0.00     0.022 A 
ATOM     24  C   UNL     1      11.839 -50.463 -23.074  1.00  0.00    -0.022 A 
ATOM     25  C   UNL     1      12.692 -52.161 -24.638  1.00  0.00     0.001 A 
ATOM     26  C   UNL     1      12.555 -50.857 -24.198  1.00  0.00     0.059 A 
ATOM     27  C   UNL     1      11.908 -49.021 -22.676  1.00  0.00     0.047 C 
ATOM     28  C   UNL     1      13.554 -52.109 -25.767  1.00  0.00     0.029 A 
ATOM     29  N   UNL     1      13.261 -50.017 -25.030  1.00  0.00    -0.287 N 
ATOM     30  C   UNL     1      12.194 -48.125 -23.895  1.00  0.00     0.106 C 
ATOM     31  C   UNL     1      13.910 -50.789 -25.969  1.00  0.00     0.095 A 
ATOM     32  C   UNL     1      13.257 -48.626 -24.869  1.00  0.00     0.231 C 
ATOM     33  O   UNL     1      13.981 -47.929 -25.565  1.00  0.00    -0.274 OA
ENDBRANCH  19  21
ENDBRANCH  18  19
ENDBRANCH  17  18
ENDBRANCH   5  17
TORSDOF 7
ENDMDL
MODEL 2
REMARK VINA RESULT:   -12.778      0.926      2.133
REMARK INTER + INTRA:         -18.120
REMARK INTER:                 -17.700
REMARK INTRA:                  -0.419
REMARK UNBOUND:                -0.487
REMARK SMILES O=C(CC[C@H]1CC[N@H+](Cc2cccc(O)c2)CC1)c1cc2c3c(ccn3C(=O)CC2)c1
REMARK SMILES IDX 7 1 8 2 17 3 6 4 5 5 18 6 9 8 10 9 11 10 16 11 12 12 14 13
REMARK SMILES IDX 13 14 15 15 4 17 3 18 2 19 1 20 19 21 20 22 31 23 21 24
REMARK SMILES IDX 23 25 22 26 30 27 24 28 26 29 29 30 25 31 27 32 28 33
REMARK H PARENT 8 7 15 16
ROOT
ATOM      1  C   UNL     1      11.482 -59.132 -24.353  1.00  0.00     0.262 C 
ATOM      2  N   UNL     1      11.658 -60.226 -23.326  1.00  0.00    -0.331 N 
ATOM      3  C   UNL     1      10.758 -60.030 -22.132  1.00  0.00     0.262 C 
ATOM      4  C   UNL     1      11.765 -57.779 -23.712  1.00  0.00     0.065 C 
ATOM      5  C   UNL     1      10.871 -57.534 -22.487  1.00  0.00     0.000 C 
ATOM      6  C   UNL     1      11.042 -58.680 -21.485  1.00  0.00     0.065 C 
ATOM      7  H   UNL     1      12.630 -60.175 -22.998  1.00  0.00     0.348 HD
ENDROOT
BRANCH   2   8
ATOM      8  C   UNL     1      11.486 -61.611 -23.917  1.00  0.00     0.299 C 
BRANCH   8   9
ATOM      9  C   UNL     1      10.152 -62.229 -23.596  1.00  0.00     0.010 A 
ATOM     10  C   UNL     1      10.060 -63.260 -22.645  1.00  0.00     0.010 A 
ATOM     11  C   UNL     1       8.988 -61.803 -24.257  1.00  0.00     0.055 A 
ATOM     12  C   UNL     1       8.831 -63.862 -22.372  1.00  0.00     0.004 A 
ATOM     13  C   UNL     1       7.769 -62.413 -23.973  1.00  0.00     0.116 A 
ATOM     14  C   UNL     1       7.686 -63.442 -23.042  1.00  0.00     0.046 A 
BRANCH  13  15
ATOM     15  O   UNL     1       6.619 -62.036 -24.594  1.00  0.00    -0.508 OA
ATOM     16  H   UNL     1       6.022 -62.796 -24.693  1.00  0.00     0.293 HD
ENDBRANCH  13  15
ENDBRANCH   8   9
ENDBRANCH   2   8
BRANCH   5  17
ATOM     17  C   UNL     1      11.160 -56.141 -21.889  1.00  0.00     0.012 C 
BRANCH  17  18
ATOM     18  C   UNL     1      10.606 -54.922 -22.641  1.00  0.00     0.081 C 
BRANCH  18  19
ATOM     19  C   UNL     1      10.792 -53.595 -21.922  1.00  0.00     0.162 C 
ATOM     20  O   UNL     1      10.486 -53.446 -20.739  1.00  0.00    -0.294 OA
BRANCH  19  21
ATOM     21  C   UNL     1      11.409 -52.452 -22.663  1.00  0.00     0.019 A 
ATOM     22  C   UNL     1      12.129 -52.740 -23.838  1.00  0.00     0.017 A 
ATOM     23  C   UNL     1      11.248 -51.121 -22.225  1.00  0.00     0.022 A 
ATOM     24  C   UNL     1      12.733 -51.719 -24.576  1.00  0.00    -0.022 A 
ATOM     25  C   UNL     1      11.834 -50.083 -22.974  1.00  0.00     0.001 A 
ATOM     26  C   UNL     1      12.562 -50.425 -24.097  1.00  0.00     0.059 A 
ATOM     27  C   UNL     1      13.448 -51.889 -25.881  1.00  0.00     0.047 C 
ATOM     28  C   UNL     1      11.867 -48.663 -22.898  1.00  0.00     0.029 A 
ATOM     29  N   UNL     1      13.066 -49.284 -24.681  1.00  0.00    -0.287 N 
ATOM     30  C   UNL     1      14.420 -50.721 -26.135  1.00  0.00     0.106 C 
ATOM     31  C   UNL     1      12.604 -48.198 -23.971  1.00  0.00     0.095 A 
ATOM     32  C   UNL     1      13.901 -49.324 -25.806  1.00  0.00     0.231 C 
ATOM     33  O   UNL     1      14.238 -48.284 -26.352  1.00  0.00    -0.274 OA
ENDBRANCH  19  21
ENDBRANCH  18  19
ENDBRANCH  17  18
ENDBRANCH   5  17
TORSDOF 7
ENDMDL
MODEL 3
REMARK VINA RESULT:   -12.223      1.215      1.711
REMARK INTER + INTRA:         -17.354
REMARK INTER:                 -17.037
REMARK INTRA:                  -0.317
REMARK UNBOUND:                -0.487
REMARK SMILES O=C(CC[C@H]1CC[N@H+](Cc2cccc(O)c2)CC1)c1cc2c3c(ccn3C(=O)CC2)c1
REMARK SMILES IDX 7 1 8 2 17 3 6 4 5 5 18 6 9 8 10 9 11 10 16 11 12 12 14 13
REMARK SMILES IDX 13 14 15 15 4 17 3 18 2 19 1 20 19 21 20 22 31 23 21 24
REMARK SMILES IDX 23 25 22 26 30 27 24 28 26 29 29 30 25 31 27 32 28 33
REMARK H PARENT 8 7 15 16
ROOT
ATOM      1  C   UNL     1      11.554 -58.674 -24.337  1.00  0.00     0.262 C 
ATOM      2  N   UNL     1      12.136 -59.640 -23.331  1.00  0.00    -0.331 N 
ATOM      3  C   UNL     1      11.375 -59.626 -22.029  1.00  0.00     0.262 C 
ATOM      4  C   UNL     1      11.557 -57.267 -23.755  1.00  0.00     0.065 C 
ATOM      5  C   UNL     1      10.793 -57.202 -22.424  1.00  0.00     0.000 C 
ATOM      6  C   UNL     1      11.379 -58.220 -21.441  1.00  0.00     0.065 C 
ATOM      7  H   UNL     1      13.095 -59.328 -23.136  1.00  0.00     0.348 HD
ENDROOT
BRANCH   2   8
ATOM      8  C   UNL     1      12.254 -61.049 -23.878  1.00  0.00     0.299 C 
BRANCH   8   9
ATOM      9  C   UNL     1      10.927 -61.749 -23.998  1.00  0.00     0.010 A 
ATOM     10  C   UNL     1      10.145 -61.588 -25.155  1.00  0.00     0.010 A 
ATOM     11  C   UNL     1      10.442 -62.549 -22.951  1.00  0.00     0.055 A 
ATOM     12  C   UNL     1       8.896 -62.204 -25.255  1.00  0.00     0.004 A 
ATOM     13  C   UNL     1       9.195 -63.158 -23.066  1.00  0.00     0.116 A 
ATOM     14  C   UNL     1       8.419 -62.984 -24.205  1.00  0.00     0.046 A 
BRANCH  13  15
ATOM     15  O   UNL     1       8.685 -63.936 -22.073  1.00  0.00    -0.508 OA
ATOM     16  H   UNL     1       7.715 -63.935 -22.107  1.00  0.00     0.293 HD
ENDBRANCH  13  15
ENDBRANCH   8   9
ENDBRANCH   2   8
BRANCH   5  17
ATOM     17  C   UNL     1      10.786 -55.756 -21.886  1.00  0.00     0.012 C 
BRANCH  17  18
ATOM     18  C   UNL     1      11.086 -54.629 -22.886  1.00  0.00     0.081 C 
BRANCH  18  19
ATOM     19  C   UNL     1      11.066 -53.230 -22.291  1.00  0.00     0.162 C 
ATOM     20  O   UNL     1      10.598 -53.002 -21.176  1.00  0.00    -0.294 OA
BRANCH  19  21
ATOM     21  C   UNL     1      11.678 -52.106 -23.066  1.00  0.00     0.019 A 
ATOM     22  C   UNL     1      11.500 -50.797 -22.580  1.00  0.00     0.017 A 
ATOM     23  C   UNL     1      12.439 -52.346 -24.228  1.00  0.00     0.022 A 
ATOM     24  C   UNL     1      12.042 -49.701 -23.257  1.00  0.00    -0.022 A 
ATOM     25  C   UNL     1      13.008 -51.251 -24.906  1.00  0.00     0.001 A 
ATOM     26  C   UNL     1      12.770 -49.985 -24.407  1.00  0.00     0.059 A 
ATOM     27  C   UNL     1      11.996 -48.278 -22.796  1.00  0.00     0.047 C 
ATOM     28  C   UNL     1      13.845 -51.078 -26.043  1.00  0.00     0.029 A 
ATOM     29  N   UNL     1      13.390 -49.053 -25.209  1.00  0.00    -0.287 N 
ATOM     30  C   UNL     1      12.187 -47.308 -23.978  1.00  0.00     0.106 C 
ATOM     31  C   UNL     1      14.087 -49.725 -26.189  1.00  0.00     0.095 A 
ATOM     32  C   UNL     1      13.272 -47.675 -24.986  1.00  0.00     0.231 C 
ATOM     33  O   UNL     1      13.925 -46.890 -25.658  1.00  0.00    -0.274 OA
ENDBRANCH  19  21
ENDBRANCH  18  19
ENDBRANCH  17  18
ENDBRANCH   5  17
TORSDOF 7
ENDMDL
MODEL 4
REMARK VINA RESULT:   -11.976      2.033     11.531
REMARK INTER + INTRA:         -17.014
REMARK INTER:                 -16.343
REMARK INTRA:                  -0.671
REMARK UNBOUND:                -0.487
REMARK SMILES O=C(CC[C@H]1CC[N@H+](Cc2cccc(O)c2)CC1)c1cc2c3c(ccn3C(=O)CC2)c1
REMARK SMILES IDX 7 1 8 2 17 3 6 4 5 5 18 6 9 8 10 9 11 10 16 11 12 12 14 13
REMARK SMILES IDX 13 14 15 15 4 17 3 18 2 19 1 20 19 21 20 22 31 23 21 24
REMARK SMILES IDX 23 25 22 26 30 27 24 28 26 29 29 30 25 31 27 32 28 33
REMARK H PARENT 8 7 15 16
ROOT
ATOM      1  C   UNL     1      13.087 -51.454 -23.574  1.00  0.00     0.262 C 
ATOM      2  N   UNL     1      12.146 -50.407 -23.026  1.00  0.00    -0.331 N 
ATOM      3  C   UNL     1      11.307 -50.940 -21.893  1.00  0.00     0.262 C 
ATOM      4  C   UNL     1      12.289 -52.661 -24.049  1.00  0.00     0.065 C 
ATOM      5  C   UNL     1      11.415 -53.240 -22.927  1.00  0.00     0.000 C 
ATOM      6  C   UNL     1      10.503 -52.145 -22.365  1.00  0.00     0.065 C 
ATOM      7  H   UNL     1      11.511 -50.146 -23.790  1.00  0.00     0.348 HD
ENDROOT
BRANCH   2   8
ATOM      8  C   UNL     1      12.863 -49.134 -22.622  1.00  0.00     0.299 C 
BRANCH   8   9
ATOM      9  C   UNL     1      12.139 -47.886 -23.052  1.00  0.00     0.010 A 
ATOM     10  C   UNL     1      12.497 -47.236 -24.245  1.00  0.00     0.010 A 
ATOM     11  C   UNL     1      11.116 -47.343 -22.257  1.00  0.00     0.055 A 
ATOM     12  C   UNL     1      11.854 -46.058 -24.627  1.00  0.00     0.004 A 
ATOM     13  C   UNL     1      10.484 -46.167 -22.652  1.00  0.00     0.116 A 
ATOM     14  C   UNL     1      10.851 -45.520 -23.826  1.00  0.00     0.046 A 
BRANCH  13  15
ATOM     15  O   UNL     1       9.493 -45.603 -21.909  1.00  0.00    -0.508 OA
ATOM     16  H   UNL     1       8.630 -45.748 -22.330  1.00  0.00     0.293 HD
ENDBRANCH  13  15
ENDBRANCH   8   9
ENDBRANCH   2   8
BRANCH   5  17
ATOM     17  C   UNL     1      10.653 -54.481 -23.434  1.00  0.00     0.012 C 
BRANCH  17  18
ATOM     18  C   UNL     1      11.431 -55.803 -23.516  1.00  0.00     0.081 C 
BRANCH  18  19
ATOM     19  C   UNL     1      11.146 -56.778 -22.383  1.00  0.00     0.162 C 
ATOM     20  O   UNL     1      11.454 -56.532 -21.218  1.00  0.00    -0.294 OA
BRANCH  19  21
ATOM     21  C   UNL     1      10.427 -58.053 -22.691  1.00  0.00     0.019 A 
ATOM     22  C   UNL     1       9.061 -57.977 -23.021  1.00  0.00     0.017 A 
ATOM     23  C   UNL     1      11.099 -59.293 -22.688  1.00  0.00     0.022 A 
ATOM     24  C   UNL     1       8.329 -59.130 -23.316  1.00  0.00    -0.022 A 
ATOM     25  C   UNL     1      10.377 -60.459 -23.005  1.00  0.00     0.001 A 
ATOM     26  C   UNL     1       9.029 -60.330 -23.284  1.00  0.00     0.059 A 
ATOM     27  C   UNL     1       6.901 -59.169 -23.764  1.00  0.00     0.047 C 
ATOM     28  C   UNL     1      10.681 -61.840 -23.150  1.00  0.00     0.029 A 
ATOM     29  N   UNL     1       8.497 -61.572 -23.552  1.00  0.00    -0.287 N 
ATOM     30  C   UNL     1       6.272 -60.546 -23.483  1.00  0.00     0.106 C 
ATOM     31  C   UNL     1       9.519 -62.495 -23.512  1.00  0.00     0.095 A 
ATOM     32  C   UNL     1       7.133 -61.763 -23.808  1.00  0.00     0.231 C 
ATOM     33  O   UNL     1       6.724 -62.865 -24.144  1.00  0.00    -0.274 OA
ENDBRANCH  19  21
ENDBRANCH  18  19
ENDBRANCH  17  18
ENDBRANCH   5  17
TORSDOF 7
ENDMDL
MODEL 5
REMARK VINA RESULT:   -11.952      2.075     11.642
REMARK INTER + INTRA:         -16.980
REMARK INTER:                 -16.267
REMARK INTRA:                  -0.713
REMARK UNBOUND:                -0.487
REMARK SMILES O=C(CC[C@H]1CC[N@H+](Cc2cccc(O)c2)CC1)c1cc2c3c(ccn3C(=O)CC2)c1
REMARK SMILES IDX 7 1 8 2 17 3 6 4 5 5 18 6 9 8 10 9 11 10 16 11 12 12 14 13
REMARK SMILES IDX 13 14 15 15 4 17 3 18 2 19 1 20 19 21 20 22 31 23 21 24
REMARK SMILES IDX 23 25 22 26 30 27 24 28 26 29 29 30 25 31 27 32 28 33
REMARK H PARENT 8 7 15 16
ROOT
ATOM      1  C   UNL     1      13.045 -51.413 -23.633  1.00  0.00     0.262 C 
ATOM      2  N   UNL     1      12.074 -50.462 -22.972  1.00  0.00    -0.331 N 
ATOM      3  C   UNL     1      11.289 -51.131 -21.872  1.00  0.00     0.262 C 
ATOM      4  C   UNL     1      12.286 -52.607 -24.197  1.00  0.00     0.065 C 
ATOM      5  C   UNL     1      11.467 -53.322 -23.112  1.00  0.00     0.000 C 
ATOM      6  C   UNL     1      10.525 -52.324 -22.433  1.00  0.00     0.065 C 
ATOM      7  H   UNL     1      11.409 -50.163 -23.695  1.00  0.00     0.348 HD
ENDROOT
BRANCH   2   8
ATOM      8  C   UNL     1      12.748 -49.200 -22.471  1.00  0.00     0.299 C 
BRANCH   8   9
ATOM      9  C   UNL     1      12.082 -47.941 -22.961  1.00  0.00     0.010 A 
ATOM     10  C   UNL     1      12.485 -47.354 -24.173  1.00  0.00     0.010 A 
ATOM     11  C   UNL     1      11.071 -47.325 -22.205  1.00  0.00     0.055 A 
ATOM     12  C   UNL     1      11.898 -46.166 -24.611  1.00  0.00     0.004 A 
ATOM     13  C   UNL     1      10.494 -46.142 -22.657  1.00  0.00     0.116 A 
ATOM     14  C   UNL     1      10.906 -45.556 -23.848  1.00  0.00     0.046 A 
BRANCH  13  15
ATOM     15  O   UNL     1       9.516 -45.509 -21.954  1.00  0.00    -0.508 OA
ATOM     16  H   UNL     1       8.945 -44.999 -22.551  1.00  0.00     0.293 HD
ENDBRANCH  13  15
ENDBRANCH   8   9
ENDBRANCH   2   8
BRANCH   5  17
ATOM     17  C   UNL     1      10.745 -54.546 -23.712  1.00  0.00     0.012 C 
BRANCH  17  18
ATOM     18  C   UNL     1      11.468 -55.899 -23.638  1.00  0.00     0.081 C 
BRANCH  18  19
ATOM     19  C   UNL     1      11.055 -56.777 -22.467  1.00  0.00     0.162 C 
ATOM     20  O   UNL     1      11.390 -56.522 -21.311  1.00  0.00    -0.294 OA
BRANCH  19  21
ATOM     21  C   UNL     1      10.177 -57.960 -22.726  1.00  0.00     0.019 A 
ATOM     22  C   UNL     1      10.752 -59.241 -22.635  1.00  0.00     0.017 A 
ATOM     23  C   UNL     1       8.805 -57.805 -23.016  1.00  0.00     0.022 A 
ATOM     24  C   UNL     1       9.989 -60.388 -22.868  1.00  0.00    -0.022 A 
ATOM     25  C   UNL     1       8.022 -58.955 -23.231  1.00  0.00     0.001 A 
ATOM     26  C   UNL     1       8.647 -60.186 -23.168  1.00  0.00     0.059 A 
ATOM     27  C   UNL     1      10.464 -61.800 -22.717  1.00  0.00     0.047 C 
ATOM     28  C   UNL     1       6.650 -59.220 -23.495  1.00  0.00     0.029 A 
ATOM     29  N   UNL     1       7.727 -61.180 -23.419  1.00  0.00    -0.287 N 
ATOM     30  C   UNL     1       9.591 -62.766 -23.540  1.00  0.00     0.106 C 
ATOM     31  C   UNL     1       6.492 -60.591 -23.578  1.00  0.00     0.095 A 
ATOM     32  C   UNL     1       8.084 -62.533 -23.485  1.00  0.00     0.231 C 
ATOM     33  O   UNL     1       7.218 -63.387 -23.605  1.00  0.00    -0.274 OA
ENDBRANCH  19  21
ENDBRANCH  18  19
ENDBRANCH  17  18
ENDBRANCH   5  17
TORSDOF 7
ENDMDL
MODEL 6
REMARK VINA RESULT:   -11.340      1.867     10.991
REMARK INTER + INTRA:         -16.136
REMARK INTER:                 -15.815
REMARK INTRA:                  -0.321
REMARK UNBOUND:                -0.487
REMARK SMILES O=C(CC[C@H]1CC[N@H+](Cc2cccc(O)c2)CC1)c1cc2c3c(ccn3C(=O)CC2)c1
REMARK SMILES IDX 7 1 8 2 17 3 6 4 5 5 18 6 9 8 10 9 11 10 16 11 12 12 14 13
REMARK SMILES IDX 13 14 15 15 4 17 3 18 2 19 1 20 19 21 20 22 31 23 21 24
REMARK SMILES IDX 23 25 22 26 30 27 24 28 26 29 29 30 25 31 27 32 28 33
REMARK H PARENT 8 7 15 16
ROOT
ATOM      1  C   UNL     1      12.432 -51.218 -22.587  1.00  0.00     0.262 C 
ATOM      2  N   UNL     1      11.404 -50.195 -23.010  1.00  0.00    -0.331 N 
ATOM      3  C   UNL     1      10.186 -50.218 -22.123  1.00  0.00     0.262 C 
ATOM      4  C   UNL     1      11.808 -52.607 -22.606  1.00  0.00     0.065 C 
ATOM      5  C   UNL     1      10.558 -52.680 -21.716  1.00  0.00     0.000 C 
ATOM      6  C   UNL     1       9.555 -51.605 -22.143  1.00  0.00     0.065 C 
ATOM      7  H   UNL     1      11.105 -50.446 -23.960  1.00  0.00     0.348 HD
ENDROOT
BRANCH   2   8
ATOM      8  C   UNL     1      11.982 -48.796 -23.107  1.00  0.00     0.299 C 
BRANCH   8   9
ATOM      9  C   UNL     1      12.895 -48.615 -24.290  1.00  0.00     0.010 A 
ATOM     10  C   UNL     1      13.343 -47.332 -24.647  1.00  0.00     0.010 A 
ATOM     11  C   UNL     1      13.290 -49.718 -25.065  1.00  0.00     0.055 A 
ATOM     12  C   UNL     1      14.158 -47.155 -25.766  1.00  0.00     0.004 A 
ATOM     13  C   UNL     1      14.104 -49.525 -26.178  1.00  0.00     0.116 A 
ATOM     14  C   UNL     1      14.533 -48.253 -26.536  1.00  0.00     0.046 A 
BRANCH  13  15
ATOM     15  O   UNL     1      14.505 -50.565 -26.959  1.00  0.00    -0.508 OA
ATOM     16  H   UNL     1      13.771 -51.185 -27.101  1.00  0.00     0.293 HD
ENDBRANCH  13  15
ENDBRANCH   8   9
ENDBRANCH   2   8
BRANCH   5  17
ATOM     17  C   UNL     1       9.978 -54.110 -21.732  1.00  0.00     0.012 C 
BRANCH  17  18
ATOM     18  C   UNL     1      10.974 -55.277 -21.664  1.00  0.00     0.081 C 
BRANCH  18  19
ATOM     19  C   UNL     1      11.062 -56.111 -22.934  1.00  0.00     0.162 C 
ATOM     20  O   UNL     1      11.743 -55.762 -23.897  1.00  0.00    -0.294 OA
BRANCH  19  21
ATOM     21  C   UNL     1      10.334 -57.416 -22.992  1.00  0.00     0.019 A 
ATOM     22  C   UNL     1       8.950 -57.388 -23.245  1.00  0.00     0.017 A 
ATOM     23  C   UNL     1      11.014 -58.642 -22.835  1.00  0.00     0.022 A 
ATOM     24  C   UNL     1       8.209 -58.571 -23.309  1.00  0.00    -0.022 A 
ATOM     25  C   UNL     1      10.281 -59.841 -22.920  1.00  0.00     0.001 A 
ATOM     26  C   UNL     1       8.918 -59.754 -23.131  1.00  0.00     0.059 A 
ATOM     27  C   UNL     1       6.756 -58.677 -23.656  1.00  0.00     0.047 C 
ATOM     28  C   UNL     1      10.585 -61.229 -22.863  1.00  0.00     0.029 A 
ATOM     29  N   UNL     1       8.379 -61.021 -23.167  1.00  0.00    -0.287 N 
ATOM     30  C   UNL     1       6.155 -59.991 -23.123  1.00  0.00     0.106 C 
ATOM     31  C   UNL     1       9.408 -61.929 -23.046  1.00  0.00     0.095 A 
ATOM     32  C   UNL     1       7.003 -61.246 -23.305  1.00  0.00     0.231 C 
ATOM     33  O   UNL     1       6.582 -62.386 -23.438  1.00  0.00    -0.274 OA
ENDBRANCH  19  21
ENDBRANCH  18  19
ENDBRANCH  17  18
ENDBRANCH   5  17
TORSDOF 7
ENDMDL
MODEL 7
REMARK VINA RESULT:   -11.289      2.619      9.632
REMARK INTER + INTRA:         -16.065
REMARK INTER:                 -15.271
REMARK INTRA:                  -0.794
REMARK UNBOUND:                -0.487
REMARK SMILES O=C(CC[C@H]1CC[N@H+](Cc2cccc(O)c2)CC1)c1cc2c3c(ccn3C(=O)CC2)c1
REMARK SMILES IDX 7 1 8 2 17 3 6 4 5 5 18 6 9 8 10 9 11 10 16 11 12 12 14 13
REMARK SMILES IDX 13 14 15 15 4 17 3 18 2 19 1 20 19 21 20 22 31 23 21 24
REMARK SMILES IDX 23 25 22 26 30 27 24 28 26 29 29 30 25 31 27 32 28 33
REMARK H PARENT 8 7 15 16
ROOT
ATOM      1  C   UNL     1       9.387 -56.410 -23.607  1.00  0.00     0.262 C 
ATOM      2  N   UNL     1      10.767 -56.046 -23.113  1.00  0.00    -0.331 N 
ATOM      3  C   UNL     1      11.708 -57.223 -23.146  1.00  0.00     0.262 C 
ATOM      4  C   UNL     1       8.823 -57.542 -22.758  1.00  0.00     0.065 C 
ATOM      5  C   UNL     1       9.750 -58.767 -22.759  1.00  0.00     0.000 C 
ATOM      6  C   UNL     1      11.150 -58.357 -22.294  1.00  0.00     0.065 C 
ATOM      7  H   UNL     1      10.667 -55.752 -22.134  1.00  0.00     0.348 HD
ENDROOT
BRANCH   2   8
ATOM      8  C   UNL     1      11.354 -54.858 -23.851  1.00  0.00     0.299 C 
BRANCH   8   9
ATOM      9  C   UNL     1      11.052 -53.542 -23.186  1.00  0.00     0.010 A 
ATOM     10  C   UNL     1       9.773 -53.292 -22.659  1.00  0.00     0.010 A 
ATOM     11  C   UNL     1      12.033 -52.540 -23.105  1.00  0.00     0.055 A 
ATOM     12  C   UNL     1       9.477 -52.059 -22.077  1.00  0.00     0.004 A 
ATOM     13  C   UNL     1      11.723 -51.315 -22.519  1.00  0.00     0.116 A 
ATOM     14  C   UNL     1      10.453 -51.067 -22.013  1.00  0.00     0.046 A 
BRANCH  13  15
ATOM     15  O   UNL     1      12.640 -50.315 -22.425  1.00  0.00    -0.508 OA
ATOM     16  H   UNL     1      13.506 -50.672 -22.169  1.00  0.00     0.293 HD
ENDBRANCH  13  15
ENDBRANCH   8   9
ENDBRANCH   2   8
BRANCH   5  17
ATOM     17  C   UNL     1       9.128 -59.904 -21.921  1.00  0.00     0.012 C 
BRANCH  17  18
ATOM     18  C   UNL     1      10.004 -61.134 -21.640  1.00  0.00     0.081 C 
BRANCH  18  19
ATOM     19  C   UNL     1       9.910 -62.233 -22.688  1.00  0.00     0.162 C 
ATOM     20  O   UNL     1       9.678 -63.403 -22.386  1.00  0.00    -0.294 OA
BRANCH  19  21
ATOM     21  C   UNL     1      10.059 -61.870 -24.131  1.00  0.00     0.019 A 
ATOM     22  C   UNL     1      11.170 -61.089 -24.503  1.00  0.00     0.017 A 
ATOM     23  C   UNL     1       9.140 -62.322 -25.100  1.00  0.00     0.022 A 
ATOM     24  C   UNL     1      11.367 -60.712 -25.834  1.00  0.00    -0.022 A 
ATOM     25  C   UNL     1       9.341 -61.966 -26.447  1.00  0.00     0.001 A 
ATOM     26  C   UNL     1      10.426 -61.166 -26.751  1.00  0.00     0.059 A 
ATOM     27  C   UNL     1      12.549 -59.961 -26.364  1.00  0.00     0.047 C 
ATOM     28  C   UNL     1       8.695 -62.243 -27.683  1.00  0.00     0.029 A 
ATOM     29  N   UNL     1      10.445 -60.915 -28.105  1.00  0.00    -0.287 N 
ATOM     30  C   UNL     1      12.208 -59.262 -27.694  1.00  0.00     0.106 C 
ATOM     31  C   UNL     1       9.407 -61.611 -28.685  1.00  0.00     0.095 A 
ATOM     32  C   UNL     1      11.397 -60.077 -28.698  1.00  0.00     0.231 C 
ATOM     33  O   UNL     1      11.440 -59.967 -29.915  1.00  0.00    -0.274 OA
ENDBRANCH  19  21
ENDBRANCH  18  19
ENDBRANCH  17  18
ENDBRANCH   5  17
TORSDOF 7
ENDMDL
MODEL 8
REMARK VINA RESULT:   -11.100      1.784     11.372
REMARK INTER + INTRA:         -15.804
REMARK INTER:                 -15.439
REMARK INTRA:                  -0.365
REMARK UNBOUND:                -0.487
REMARK SMILES O=C(CC[C@H]1CC[N@H+](Cc2cccc(O)c2)CC1)c1cc2c3c(ccn3C(=O)CC2)c1
REMARK SMILES IDX 7 1 8 2 17 3 6 4 5 5 18 6 9 8 10 9 11 10 16 11 12 12 14 13
REMARK SMILES IDX 13 14 15 15 4 17 3 18 2 19 1 20 19 21 20 22 31 23 21 24
REMARK SMILES IDX 23 25 22 26 30 27 24 28 26 29 29 30 25 31 27 32 28 33
REMARK H PARENT 8 7 15 16
ROOT
ATOM      1  C   UNL     1      12.510 -51.428 -22.685  1.00  0.00     0.262 C 
ATOM      2  N   UNL     1      11.533 -50.320 -23.003  1.00  0.00    -0.331 N 
ATOM      3  C   UNL     1      10.338 -50.341 -22.085  1.00  0.00     0.262 C 
ATOM      4  C   UNL     1      11.807 -52.775 -22.787  1.00  0.00     0.065 C 
ATOM      5  C   UNL     1      10.578 -52.844 -21.869  1.00  0.00     0.000 C 
ATOM      6  C   UNL     1       9.628 -51.685 -22.188  1.00  0.00     0.065 C 
ATOM      7  H   UNL     1      11.197 -50.484 -23.960  1.00  0.00     0.348 HD
ENDROOT
BRANCH   2   8
ATOM      8  C   UNL     1      12.188 -48.953 -23.016  1.00  0.00     0.299 C 
BRANCH   8   9
ATOM      9  C   UNL     1      12.954 -48.676 -24.281  1.00  0.00     0.010 A 
ATOM     10  C   UNL     1      13.373 -49.738 -25.102  1.00  0.00     0.010 A 
ATOM     11  C   UNL     1      13.281 -47.360 -24.647  1.00  0.00     0.055 A 
ATOM     12  C   UNL     1      14.117 -49.488 -26.256  1.00  0.00     0.004 A 
ATOM     13  C   UNL     1      14.023 -47.127 -25.802  1.00  0.00     0.116 A 
ATOM     14  C   UNL     1      14.448 -48.181 -26.602  1.00  0.00     0.046 A 
BRANCH  13  15
ATOM     15  O   UNL     1      14.367 -45.869 -26.189  1.00  0.00    -0.508 OA
ATOM     16  H   UNL     1      15.054 -45.901 -26.875  1.00  0.00     0.293 HD
ENDBRANCH  13  15
ENDBRANCH   8   9
ENDBRANCH   2   8
BRANCH   5  17
ATOM     17  C   UNL     1       9.915 -54.234 -21.972  1.00  0.00     0.012 C 
BRANCH  17  18
ATOM     18  C   UNL     1      10.820 -55.461 -21.792  1.00  0.00     0.081 C 
BRANCH  18  19
ATOM     19  C   UNL     1      10.939 -56.348 -23.023  1.00  0.00     0.162 C 
ATOM     20  O   UNL     1      11.719 -56.091 -23.939  1.00  0.00    -0.294 OA
BRANCH  19  21
ATOM     21  C   UNL     1      10.115 -57.594 -23.097  1.00  0.00     0.019 A 
ATOM     22  C   UNL     1      10.774 -58.829 -22.956  1.00  0.00     0.017 A 
ATOM     23  C   UNL     1       8.716 -57.539 -23.268  1.00  0.00     0.022 A 
ATOM     24  C   UNL     1      10.066 -60.032 -23.020  1.00  0.00    -0.022 A 
ATOM     25  C   UNL     1       7.989 -58.744 -23.311  1.00  0.00     0.001 A 
ATOM     26  C   UNL     1       8.692 -59.929 -23.206  1.00  0.00     0.059 A 
ATOM     27  C   UNL     1      10.638 -61.398 -22.798  1.00  0.00     0.047 C 
ATOM     28  C   UNL     1       6.618 -59.105 -23.420  1.00  0.00     0.029 A 
ATOM     29  N   UNL     1       7.816 -60.989 -23.285  1.00  0.00    -0.287 N 
ATOM     30  C   UNL     1       9.756 -62.478 -23.451  1.00  0.00     0.106 C 
ATOM     31  C   UNL     1       6.537 -60.484 -23.373  1.00  0.00     0.095 A 
ATOM     32  C   UNL     1       8.248 -62.322 -23.272  1.00  0.00     0.231 C 
ATOM     33  O   UNL     1       7.429 -63.228 -23.238  1.00  0.00    -0.274 OA
ENDBRANCH  19  21
ENDBRANCH  18  19
ENDBRANCH  17  18
ENDBRANCH   5  17
TORSDOF 7
ENDMDL
MODEL 9
REMARK VINA RESULT:   -10.850      2.255     11.432
REMARK INTER + INTRA:         -15.459
REMARK INTER:                 -14.831
REMARK INTRA:                  -0.628
REMARK UNBOUND:                -0.487
REMARK SMILES O=C(CC[C@H]1CC[N@H+](Cc2cccc(O)c2)CC1)c1cc2c3c(ccn3C(=O)CC2)c1
REMARK SMILES IDX 7 1 8 2 17 3 6 4 5 5 18 6 9 8 10 9 11 10 16 11 12 12 14 13
REMARK SMILES IDX 13 14 15 15 4 17 3 18 2 19 1 20 19 21 20 22 31 23 21 24
REMARK SMILES IDX 23 25 22 26 30 27 24 28 26 29 29 30 25 31 27 32 28 33
REMARK H PARENT 8 7 15 16
ROOT
ATOM      1  C   UNL     1      14.597 -52.357 -25.500  1.00  0.00     0.262 C 
ATOM      2  N   UNL     1      14.416 -50.869 -25.694  1.00  0.00    -0.331 N 
ATOM      3  C   UNL     1      13.868 -50.202 -24.459  1.00  0.00     0.262 C 
ATOM      4  C   UNL     1      13.265 -52.990 -25.122  1.00  0.00     0.065 C 
ATOM      5  C   UNL     1      12.664 -52.339 -23.867  1.00  0.00     0.000 C 
ATOM      6  C   UNL     1      12.532 -50.828 -24.080  1.00  0.00     0.065 C 
ATOM      7  H   UNL     1      13.728 -50.747 -26.448  1.00  0.00     0.348 HD
ENDROOT
BRANCH   2   8
ATOM      8  C   UNL     1      15.683 -50.185 -26.167  1.00  0.00     0.299 C 
BRANCH   8   9
ATOM      9  C   UNL     1      15.419 -49.016 -27.077  1.00  0.00     0.010 A 
ATOM     10  C   UNL     1      15.168 -49.227 -28.445  1.00  0.00     0.010 A 
ATOM     11  C   UNL     1      15.444 -47.702 -26.581  1.00  0.00     0.055 A 
ATOM     12  C   UNL     1      14.961 -48.143 -29.300  1.00  0.00     0.004 A 
ATOM     13  C   UNL     1      15.235 -46.632 -27.447  1.00  0.00     0.116 A 
ATOM     14  C   UNL     1      15.001 -46.844 -28.800  1.00  0.00     0.046 A 
BRANCH  13  15
ATOM     15  O   UNL     1      15.256 -45.344 -27.010  1.00  0.00    -0.508 OA
ATOM     16  H   UNL     1      14.412 -45.114 -26.589  1.00  0.00     0.293 HD
ENDBRANCH  13  15
ENDBRANCH   8   9
ENDBRANCH   2   8
BRANCH   5  17
ATOM     17  C   UNL     1      11.336 -53.031 -23.494  1.00  0.00     0.012 C 
BRANCH  17  18
ATOM     18  C   UNL     1      11.262 -54.555 -23.666  1.00  0.00     0.081 C 
BRANCH  18  19
ATOM     19  C   UNL     1      10.904 -55.320 -22.401  1.00  0.00     0.162 C 
ATOM     20  O   UNL     1      11.042 -54.829 -21.281  1.00  0.00    -0.294 OA
BRANCH  19  21
ATOM     21  C   UNL     1      10.322 -56.693 -22.527  1.00  0.00     0.019 A 
ATOM     22  C   UNL     1       9.051 -56.818 -23.119  1.00  0.00     0.017 A 
ATOM     23  C   UNL     1      11.034 -57.833 -22.101  1.00  0.00     0.022 A 
ATOM     24  C   UNL     1       8.449 -58.070 -23.263  1.00  0.00    -0.022 A 
ATOM     25  C   UNL     1      10.446 -59.102 -22.262  1.00  0.00     0.001 A 
ATOM     26  C   UNL     1       9.180 -59.163 -22.814  1.00  0.00     0.059 A 
ATOM     27  C   UNL     1       7.146 -58.340 -23.951  1.00  0.00     0.047 C 
ATOM     28  C   UNL     1      10.836 -60.446 -22.013  1.00  0.00     0.029 A 
ATOM     29  N   UNL     1       8.771 -60.477 -22.874  1.00  0.00    -0.287 N 
ATOM     30  C   UNL     1       6.536 -59.671 -23.474  1.00  0.00     0.106 C 
ATOM     31  C   UNL     1       9.804 -61.270 -22.422  1.00  0.00     0.095 A 
ATOM     32  C   UNL     1       7.499 -60.846 -23.331  1.00  0.00     0.231 C 
ATOM     33  O   UNL     1       7.219 -62.028 -23.466  1.00  0.00    -0.274 OA
ENDBRANCH  19  21
ENDBRANCH  18  19
ENDBRANCH  17  18
ENDBRANCH   5  17
TORSDOF 7
ENDMDL
