MODEL 1
REMARK VINA RESULT:    -7.306      0.000      0.000
REMARK INTER + INTRA:         -10.706
REMARK INTER:                  -9.869
REMARK INTRA:                  -0.837
REMARK UNBOUND:                -0.837
REMARK SMILES COc1ccc([C@H](O)[C@H]([NH3+])C(=O)[O-])cc1OC
REMARK SMILES IDX 7 1 9 2 10 3 11 7 12 8 13 9 6 10 5 11 14 12 4 13 15 14 3 15
REMARK SMILES IDX 16 16 17 17 2 18 1 19 8 20
REMARK H PARENT 10 4 10 5 10 6 8 21
ROOT
ATOM      1  C   UNL     1      11.061 -61.259 -24.748  1.00  0.00     0.208 C 
ENDROOT
BRANCH   1   2
ATOM      2  C   UNL     1      11.983 -60.036 -24.869  1.00  0.00     0.261 C 
BRANCH   2   3
ATOM      3  N   UNL     1      12.694 -60.061 -26.218  1.00  0.00    -0.348 N 
ATOM      4  H   UNL     1      12.785 -61.010 -26.583  1.00  0.00     0.345 HD
ATOM      5  H   UNL     1      13.608 -59.615 -26.029  1.00  0.00     0.345 HD
ATOM      6  H   UNL     1      12.223 -59.409 -26.850  1.00  0.00     0.345 HD
ENDBRANCH   2   3
BRANCH   2   7
ATOM      7  C   UNL     1      12.976 -59.965 -23.695  1.00  0.00     0.102 C 
ATOM      8  O   UNL     1      12.493 -59.298 -22.728  1.00  0.00    -0.544 OA
ATOM      9  O   UNL     1      14.077 -60.541 -23.851  1.00  0.00    -0.544 OA
ENDBRANCH   2   7
ENDBRANCH   1   2
BRANCH   1  10
ATOM     10  C   UNL     1       9.597 -60.934 -24.504  1.00  0.00    -0.009 A 
ATOM     11  C   UNL     1       9.226 -59.645 -24.113  1.00  0.00     0.011 A 
ATOM     12  C   UNL     1       8.584 -61.895 -24.631  1.00  0.00     0.057 A 
ATOM     13  C   UNL     1       7.891 -59.336 -23.830  1.00  0.00     0.051 A 
ATOM     14  C   UNL     1       7.237 -61.593 -24.368  1.00  0.00     0.161 A 
ATOM     15  C   UNL     1       6.883 -60.305 -23.935  1.00  0.00     0.160 A 
BRANCH  14  16
ATOM     16  O   UNL     1       6.420 -62.681 -24.545  1.00  0.00    -0.493 OA
ATOM     17  C   UNL     1       6.883 -63.724 -25.395  1.00  0.00     0.278 C 
ENDBRANCH  14  16
BRANCH  15  18
ATOM     18  O   UNL     1       5.573 -60.059 -23.630  1.00  0.00    -0.493 OA
ATOM     19  C   UNL     1       5.288 -58.964 -22.767  1.00  0.00     0.278 C 
ENDBRANCH  15  18
ENDBRANCH   1  10
BRANCH   1  20
ATOM     20  O   UNL     1      11.548 -62.036 -23.630  1.00  0.00    -0.382 OA
ATOM     21  H   UNL     1      11.641 -62.947 -23.969  1.00  0.00     0.211 HD
ENDBRANCH   1  20
TORSDOF 7
ENDMDL
MODEL 2
REMARK VINA RESULT:    -7.185      1.550      1.908
REMARK INTER + INTRA:         -10.542
REMARK INTER:                 -10.006
REMARK INTRA:                  -0.536
REMARK UNBOUND:                -0.837
REMARK SMILES COc1ccc([C@H](O)[C@H]([NH3+])C(=O)[O-])cc1OC
REMARK SMILES IDX 7 1 9 2 10 3 11 7 12 8 13 9 6 10 5 11 14 12 4 13 15 14 3 15
REMARK SMILES IDX 16 16 17 17 2 18 1 19 8 20
REMARK H PARENT 10 4 10 5 10 6 8 21
ROOT
ATOM      1  C   UNL     1      10.687 -59.617 -23.613  1.00  0.00     0.208 C 
ENDROOT
BRANCH   1   2
ATOM      2  C   UNL     1      11.315 -60.820 -24.334  1.00  0.00     0.261 C 
BRANCH   2   3
ATOM      3  N   UNL     1      11.359 -62.017 -23.391  1.00  0.00    -0.348 N 
ATOM      4  H   UNL     1      11.131 -62.889 -23.871  1.00  0.00     0.345 HD
ATOM      5  H   UNL     1      10.679 -61.779 -22.649  1.00  0.00     0.345 HD
ATOM      6  H   UNL     1      12.262 -62.024 -22.910  1.00  0.00     0.345 HD
ENDBRANCH   2   3
BRANCH   2   7
ATOM      7  C   UNL     1      12.708 -60.474 -24.892  1.00  0.00     0.102 C 
ATOM      8  O   UNL     1      13.585 -60.492 -23.974  1.00  0.00    -0.544 OA
ATOM      9  O   UNL     1      12.779 -60.225 -26.118  1.00  0.00    -0.544 OA
ENDBRANCH   2   7
ENDBRANCH   1   2
BRANCH   1  10
ATOM     10  C   UNL     1       9.168 -59.594 -23.615  1.00  0.00    -0.009 A 
ATOM     11  C   UNL     1       8.490 -58.405 -23.332  1.00  0.00     0.011 A 
ATOM     12  C   UNL     1       8.400 -60.739 -23.869  1.00  0.00     0.057 A 
ATOM     13  C   UNL     1       7.092 -58.371 -23.275  1.00  0.00     0.051 A 
ATOM     14  C   UNL     1       6.996 -60.714 -23.833  1.00  0.00     0.161 A 
ATOM     15  C   UNL     1       6.328 -59.523 -23.505  1.00  0.00     0.160 A 
BRANCH  14  16
ATOM     16  O   UNL     1       6.450 -61.944 -24.101  1.00  0.00    -0.493 OA
ATOM     17  C   UNL     1       7.312 -63.074 -24.048  1.00  0.00     0.278 C 
ENDBRANCH  14  16
BRANCH  15  18
ATOM     18  O   UNL     1       4.963 -59.545 -23.420  1.00  0.00    -0.493 OA
ATOM     19  C   UNL     1       4.341 -58.651 -22.504  1.00  0.00     0.278 C 
ENDBRANCH  15  18
ENDBRANCH   1  10
BRANCH   1  20
ATOM     20  O   UNL     1      11.162 -58.433 -24.293  1.00  0.00    -0.382 OA
ATOM     21  H   UNL     1      11.881 -58.082 -23.732  1.00  0.00     0.211 HD
ENDBRANCH   1  20
TORSDOF 7
ENDMDL
MODEL 3
REMARK VINA RESULT:    -7.047      2.735      5.552
REMARK INTER + INTRA:         -10.355
REMARK INTER:                  -9.612
REMARK INTRA:                  -0.742
REMARK UNBOUND:                -0.837
REMARK SMILES COc1ccc([C@H](O)[C@H]([NH3+])C(=O)[O-])cc1OC
REMARK SMILES IDX 7 1 9 2 10 3 11 7 12 8 13 9 6 10 5 11 14 12 4 13 15 14 3 15
REMARK SMILES IDX 16 16 17 17 2 18 1 19 8 20
REMARK H PARENT 10 4 10 5 10 6 8 21
ROOT
ATOM      1  C   UNL     1       9.254 -62.880 -23.641  1.00  0.00     0.208 C 
ENDROOT
BRANCH   1   2
ATOM      2  C   UNL     1       7.809 -63.094 -23.164  1.00  0.00     0.261 C 
BRANCH   2   3
ATOM      3  N   UNL     1       7.518 -64.588 -23.062  1.00  0.00    -0.348 N 
ATOM      4  H   UNL     1       6.973 -64.924 -23.856  1.00  0.00     0.345 HD
ATOM      5  H   UNL     1       7.018 -64.687 -22.162  1.00  0.00     0.345 HD
ATOM      6  H   UNL     1       8.400 -65.085 -22.914  1.00  0.00     0.345 HD
ENDBRANCH   2   3
BRANCH   2   7
ATOM      7  C   UNL     1       6.804 -62.372 -24.079  1.00  0.00     0.102 C 
ATOM      8  O   UNL     1       6.368 -63.151 -24.982  1.00  0.00    -0.544 OA
ATOM      9  O   UNL     1       6.570 -61.168 -23.823  1.00  0.00    -0.544 OA
ENDBRANCH   2   7
ENDBRANCH   1   2
BRANCH   1  10
ATOM     10  C   UNL     1       9.963 -61.691 -23.017  1.00  0.00    -0.009 A 
ATOM     11  C   UNL     1       9.609 -61.262 -21.735  1.00  0.00     0.011 A 
ATOM     12  C   UNL     1      10.960 -60.972 -23.693  1.00  0.00     0.057 A 
ATOM     13  C   UNL     1      10.211 -60.137 -21.162  1.00  0.00     0.051 A 
ATOM     14  C   UNL     1      11.585 -59.852 -23.121  1.00  0.00     0.161 A 
ATOM     15  C   UNL     1      11.190 -59.407 -21.849  1.00  0.00     0.160 A 
BRANCH  14  16
ATOM     16  O   UNL     1      12.520 -59.298 -23.959  1.00  0.00    -0.493 OA
ATOM     17  C   UNL     1      12.262 -59.342 -25.358  1.00  0.00     0.278 C 
ENDBRANCH  14  16
BRANCH  15  18
ATOM     18  O   UNL     1      11.775 -58.278 -21.345  1.00  0.00    -0.493 OA
ATOM     19  C   UNL     1      11.283 -57.020 -21.792  1.00  0.00     0.278 C 
ENDBRANCH  15  18
ENDBRANCH   1  10
BRANCH   1  20
ATOM     20  O   UNL     1       9.191 -62.675 -25.071  1.00  0.00    -0.382 OA
ATOM     21  H   UNL     1       8.312 -62.284 -25.239  1.00  0.00     0.211 HD
ENDBRANCH   1  20
TORSDOF 7
ENDMDL
MODEL 4
REMARK VINA RESULT:    -6.978      1.778      2.288
REMARK INTER + INTRA:         -10.262
REMARK INTER:                  -9.558
REMARK INTRA:                  -0.704
REMARK UNBOUND:                -0.837
REMARK SMILES COc1ccc([C@H](O)[C@H]([NH3+])C(=O)[O-])cc1OC
REMARK SMILES IDX 7 1 9 2 10 3 11 7 12 8 13 9 6 10 5 11 14 12 4 13 15 14 3 15
REMARK SMILES IDX 16 16 17 17 2 18 1 19 8 20
REMARK H PARENT 10 4 10 5 10 6 8 21
ROOT
ATOM      1  C   UNL     1      10.655 -59.458 -23.813  1.00  0.00     0.208 C 
ENDROOT
BRANCH   1   2
ATOM      2  C   UNL     1      11.271 -60.460 -24.801  1.00  0.00     0.261 C 
BRANCH   2   3
ATOM      3  N   UNL     1      12.615 -60.946 -24.268  1.00  0.00    -0.348 N 
ATOM      4  H   UNL     1      13.086 -60.229 -23.714  1.00  0.00     0.345 HD
ATOM      5  H   UNL     1      13.144 -61.207 -25.118  1.00  0.00     0.345 HD
ATOM      6  H   UNL     1      12.473 -61.832 -23.779  1.00  0.00     0.345 HD
ENDBRANCH   2   3
BRANCH   2   7
ATOM      7  C   UNL     1      11.395 -59.852 -26.210  1.00  0.00     0.102 C 
ATOM      8  O   UNL     1      12.613 -59.706 -26.539  1.00  0.00    -0.544 OA
ATOM      9  O   UNL     1      10.326 -59.589 -26.808  1.00  0.00    -0.544 OA
ENDBRANCH   2   7
ENDBRANCH   1   2
BRANCH   1  10
ATOM     10  C   UNL     1       9.137 -59.468 -23.756  1.00  0.00    -0.009 A 
ATOM     11  C   UNL     1       8.443 -58.288 -23.477  1.00  0.00     0.011 A 
ATOM     12  C   UNL     1       8.386 -60.636 -23.952  1.00  0.00     0.057 A 
ATOM     13  C   UNL     1       7.048 -58.283 -23.367  1.00  0.00     0.051 A 
ATOM     14  C   UNL     1       6.984 -60.641 -23.862  1.00  0.00     0.161 A 
ATOM     15  C   UNL     1       6.302 -59.457 -23.539  1.00  0.00     0.160 A 
BRANCH  14  16
ATOM     16  O   UNL     1       6.457 -61.889 -24.078  1.00  0.00    -0.493 OA
ATOM     17  C   UNL     1       7.306 -62.874 -24.656  1.00  0.00     0.278 C 
ENDBRANCH  14  16
BRANCH  15  18
ATOM     18  O   UNL     1       4.942 -59.507 -23.401  1.00  0.00    -0.493 OA
ATOM     19  C   UNL     1       4.346 -58.679 -22.408  1.00  0.00     0.278 C 
ENDBRANCH  15  18
ENDBRANCH   1  10
BRANCH   1  20
ATOM     20  O   UNL     1      11.087 -58.143 -24.232  1.00  0.00    -0.382 OA
ATOM     21  H   UNL     1      11.480 -58.269 -25.117  1.00  0.00     0.211 HD
ENDBRANCH   1  20
TORSDOF 7
ENDMDL
MODEL 5
REMARK VINA RESULT:    -6.903      4.238      5.556
REMARK INTER + INTRA:         -10.161
REMARK INTER:                  -9.393
REMARK INTRA:                  -0.768
REMARK UNBOUND:                -0.837
REMARK SMILES COc1ccc([C@H](O)[C@H]([NH3+])C(=O)[O-])cc1OC
REMARK SMILES IDX 7 1 9 2 10 3 11 7 12 8 13 9 6 10 5 11 14 12 4 13 15 14 3 15
REMARK SMILES IDX 16 16 17 17 2 18 1 19 8 20
REMARK H PARENT 10 4 10 5 10 6 8 21
ROOT
ATOM      1  C   UNL     1      11.231 -55.715 -22.311  1.00  0.00     0.208 C 
ENDROOT
BRANCH   1   2
ATOM      2  C   UNL     1      10.524 -54.774 -23.298  1.00  0.00     0.261 C 
BRANCH   2   3
ATOM      3  N   UNL     1      11.296 -54.738 -24.613  1.00  0.00    -0.348 N 
ATOM      4  H   UNL     1      11.242 -53.822 -25.061  1.00  0.00     0.345 HD
ATOM      5  H   UNL     1      10.863 -55.487 -25.181  1.00  0.00     0.345 HD
ATOM      6  H   UNL     1      12.248 -55.070 -24.445  1.00  0.00     0.345 HD
ENDBRANCH   2   3
BRANCH   2   7
ATOM      7  C   UNL     1      10.340 -53.368 -22.699  1.00  0.00     0.102 C 
ATOM      8  O   UNL     1      11.372 -52.653 -22.885  1.00  0.00    -0.544 OA
ATOM      9  O   UNL     1       9.248 -53.136 -22.129  1.00  0.00    -0.544 OA
ENDBRANCH   2   7
ENDBRANCH   1   2
BRANCH   1  10
ATOM     10  C   UNL     1      10.691 -57.134 -22.283  1.00  0.00    -0.009 A 
ATOM     11  C   UNL     1      11.309 -58.099 -21.481  1.00  0.00     0.011 A 
ATOM     12  C   UNL     1       9.595 -57.536 -23.059  1.00  0.00     0.057 A 
ATOM     13  C   UNL     1      10.863 -59.425 -21.481  1.00  0.00     0.051 A 
ATOM     14  C   UNL     1       9.126 -58.860 -23.053  1.00  0.00     0.161 A 
ATOM     15  C   UNL     1       9.782 -59.828 -22.276  1.00  0.00     0.160 A 
BRANCH  14  16
ATOM     16  O   UNL     1       8.053 -59.032 -23.891  1.00  0.00    -0.493 OA
ATOM     17  C   UNL     1       6.751 -58.905 -23.333  1.00  0.00     0.278 C 
ENDBRANCH  14  16
BRANCH  15  18
ATOM     18  O   UNL     1       9.338 -61.121 -22.337  1.00  0.00    -0.493 OA
ATOM     19  C   UNL     1      10.205 -62.093 -22.910  1.00  0.00     0.278 C 
ENDBRANCH  15  18
ENDBRANCH   1  10
BRANCH   1  20
ATOM     20  O   UNL     1      11.062 -55.137 -20.996  1.00  0.00    -0.382 OA
ATOM     21  H   UNL     1      11.532 -54.282 -21.026  1.00  0.00     0.211 HD
ENDBRANCH   1  20
TORSDOF 7
ENDMDL
MODEL 6
REMARK VINA RESULT:    -6.889      2.097      3.442
REMARK INTER + INTRA:         -10.142
REMARK INTER:                  -9.372
REMARK INTRA:                  -0.770
REMARK UNBOUND:                -0.837
REMARK SMILES COc1ccc([C@H](O)[C@H]([NH3+])C(=O)[O-])cc1OC
REMARK SMILES IDX 7 1 9 2 10 3 11 7 12 8 13 9 6 10 5 11 14 12 4 13 15 14 3 15
REMARK SMILES IDX 16 16 17 17 2 18 1 19 8 20
REMARK H PARENT 10 4 10 5 10 6 8 21
ROOT
ATOM      1  C   UNL     1      11.038 -59.687 -22.667  1.00  0.00     0.208 C 
ENDROOT
BRANCH   1   2
ATOM      2  C   UNL     1      11.099 -58.537 -23.684  1.00  0.00     0.261 C 
BRANCH   2   3
ATOM      3  N   UNL     1      12.499 -58.457 -24.285  1.00  0.00    -0.348 N 
ATOM      4  H   UNL     1      13.224 -58.503 -23.568  1.00  0.00     0.345 HD
ATOM      5  H   UNL     1      12.501 -57.560 -24.801  1.00  0.00     0.345 HD
ATOM      6  H   UNL     1      12.583 -59.167 -25.016  1.00  0.00     0.345 HD
ENDBRANCH   2   3
BRANCH   2   7
ATOM      7  C   UNL     1      10.668 -57.203 -23.048  1.00  0.00     0.102 C 
ATOM      8  O   UNL     1       9.450 -56.950 -23.299  1.00  0.00    -0.544 OA
ATOM      9  O   UNL     1      11.542 -56.576 -22.406  1.00  0.00    -0.544 OA
ENDBRANCH   2   7
ENDBRANCH   1   2
BRANCH   1  10
ATOM     10  C   UNL     1      10.018 -60.766 -22.983  1.00  0.00    -0.009 A 
ATOM     11  C   UNL     1      10.422 -62.101 -23.080  1.00  0.00     0.011 A 
ATOM     12  C   UNL     1       8.664 -60.476 -23.211  1.00  0.00     0.057 A 
ATOM     13  C   UNL     1       9.510 -63.104 -23.423  1.00  0.00     0.051 A 
ATOM     14  C   UNL     1       7.736 -61.478 -23.538  1.00  0.00     0.161 A 
ATOM     15  C   UNL     1       8.164 -62.808 -23.674  1.00  0.00     0.160 A 
BRANCH  14  16
ATOM     16  O   UNL     1       6.475 -60.971 -23.727  1.00  0.00    -0.493 OA
ATOM     17  C   UNL     1       6.200 -59.674 -23.211  1.00  0.00     0.278 C 
ENDBRANCH  14  16
BRANCH  15  18
ATOM     18  O   UNL     1       7.247 -63.751 -24.051  1.00  0.00    -0.493 OA
ATOM     19  C   UNL     1       6.946 -63.865 -25.437  1.00  0.00     0.278 C 
ENDBRANCH  15  18
ENDBRANCH   1  10
BRANCH   1  20
ATOM     20  O   UNL     1      10.696 -59.095 -21.393  1.00  0.00    -0.382 OA
ATOM     21  H   UNL     1      10.852 -59.796 -20.731  1.00  0.00     0.211 HD
ENDBRANCH   1  20
TORSDOF 7
ENDMDL
MODEL 7
REMARK VINA RESULT:    -6.601      8.122      9.643
REMARK INTER + INTRA:          -9.753
REMARK INTER:                  -8.932
REMARK INTRA:                  -0.821
REMARK UNBOUND:                -0.837
REMARK SMILES COc1ccc([C@H](O)[C@H]([NH3+])C(=O)[O-])cc1OC
REMARK SMILES IDX 7 1 9 2 10 3 11 7 12 8 13 9 6 10 5 11 14 12 4 13 15 14 3 15
REMARK SMILES IDX 16 16 17 17 2 18 1 19 8 20
REMARK H PARENT 10 4 10 5 10 6 8 21
ROOT
ATOM      1  C   UNL     1      12.157 -50.851 -22.355  1.00  0.00     0.208 C 
ENDROOT
BRANCH   1   2
ATOM      2  C   UNL     1      11.662 -49.748 -23.303  1.00  0.00     0.261 C 
BRANCH   2   3
ATOM      3  N   UNL     1      12.857 -49.026 -23.917  1.00  0.00    -0.348 N 
ATOM      4  H   UNL     1      13.308 -49.586 -24.643  1.00  0.00     0.345 HD
ATOM      5  H   UNL     1      13.480 -48.838 -23.112  1.00  0.00     0.345 HD
ATOM      6  H   UNL     1      12.558 -48.098 -24.225  1.00  0.00     0.345 HD
ENDBRANCH   2   3
BRANCH   2   7
ATOM      7  C   UNL     1      10.709 -48.776 -22.585  1.00  0.00     0.102 C 
ATOM      8  O   UNL     1      11.281 -47.668 -22.345  1.00  0.00    -0.544 OA
ATOM      9  O   UNL     1       9.554 -49.196 -22.340  1.00  0.00    -0.544 OA
ENDBRANCH   2   7
ENDBRANCH   1   2
BRANCH   1  10
ATOM     10  C   UNL     1      11.566 -52.226 -22.611  1.00  0.00    -0.009 A 
ATOM     11  C   UNL     1      10.725 -52.811 -21.660  1.00  0.00     0.011 A 
ATOM     12  C   UNL     1      11.850 -52.961 -23.771  1.00  0.00     0.057 A 
ATOM     13  C   UNL     1      10.212 -54.099 -21.850  1.00  0.00     0.051 A 
ATOM     14  C   UNL     1      11.326 -54.248 -23.981  1.00  0.00     0.161 A 
ATOM     15  C   UNL     1      10.517 -54.840 -22.999  1.00  0.00     0.160 A 
BRANCH  14  16
ATOM     16  O   UNL     1      11.741 -54.785 -25.174  1.00  0.00    -0.493 OA
ATOM     17  C   UNL     1      12.892 -54.218 -25.789  1.00  0.00     0.278 C 
ENDBRANCH  14  16
BRANCH  15  18
ATOM     18  O   UNL     1      10.072 -56.117 -23.207  1.00  0.00    -0.493 OA
ATOM     19  C   UNL     1      10.851 -57.185 -22.681  1.00  0.00     0.278 C 
ENDBRANCH  15  18
ENDBRANCH   1  10
BRANCH   1  20
ATOM     20  O   UNL     1      11.792 -50.440 -21.017  1.00  0.00    -0.382 OA
ATOM     21  H   UNL     1      12.589 -50.008 -20.652  1.00  0.00     0.211 HD
ENDBRANCH   1  20
TORSDOF 7
ENDMDL
MODEL 8
REMARK VINA RESULT:    -6.457      3.957      5.188
REMARK INTER + INTRA:          -9.559
REMARK INTER:                  -8.722
REMARK INTRA:                  -0.837
REMARK UNBOUND:                -0.837
REMARK SMILES COc1ccc([C@H](O)[C@H]([NH3+])C(=O)[O-])cc1OC
REMARK SMILES IDX 7 1 9 2 10 3 11 7 12 8 13 9 6 10 5 11 14 12 4 13 15 14 3 15
REMARK SMILES IDX 16 16 17 17 2 18 1 19 8 20
REMARK H PARENT 10 4 10 5 10 6 8 21
ROOT
ATOM      1  C   UNL     1      11.184 -55.956 -22.711  1.00  0.00     0.208 C 
ENDROOT
BRANCH   1   2
ATOM      2  C   UNL     1      10.664 -54.736 -23.486  1.00  0.00     0.261 C 
BRANCH   2   3
ATOM      3  N   UNL     1      11.590 -54.443 -24.662  1.00  0.00    -0.348 N 
ATOM      4  H   UNL     1      11.342 -53.573 -25.134  1.00  0.00     0.345 HD
ATOM      5  H   UNL     1      11.491 -55.273 -25.273  1.00  0.00     0.345 HD
ATOM      6  H   UNL     1      12.559 -54.486 -24.337  1.00  0.00     0.345 HD
ENDBRANCH   2   3
BRANCH   2   7
ATOM      7  C   UNL     1      10.501 -53.514 -22.564  1.00  0.00     0.102 C 
ATOM      8  O   UNL     1      11.573 -52.837 -22.508  1.00  0.00    -0.544 OA
ATOM      9  O   UNL     1       9.384 -53.367 -22.015  1.00  0.00    -0.544 OA
ENDBRANCH   2   7
ENDBRANCH   1   2
BRANCH   1  10
ATOM     10  C   UNL     1      10.341 -57.211 -22.855  1.00  0.00    -0.009 A 
ATOM     11  C   UNL     1       8.975 -57.105 -23.132  1.00  0.00     0.011 A 
ATOM     12  C   UNL     1      10.876 -58.498 -22.696  1.00  0.00     0.057 A 
ATOM     13  C   UNL     1       8.168 -58.244 -23.217  1.00  0.00     0.051 A 
ATOM     14  C   UNL     1      10.080 -59.650 -22.797  1.00  0.00     0.161 A 
ATOM     15  C   UNL     1       8.701 -59.527 -23.034  1.00  0.00     0.160 A 
BRANCH  14  16
ATOM     16  O   UNL     1      10.805 -60.798 -22.597  1.00  0.00    -0.493 OA
ATOM     17  C   UNL     1      11.464 -61.367 -23.722  1.00  0.00     0.278 C 
ENDBRANCH  14  16
BRANCH  15  18
ATOM     18  O   UNL     1       7.943 -60.666 -23.067  1.00  0.00    -0.493 OA
ATOM     19  C   UNL     1       7.829 -61.350 -24.309  1.00  0.00     0.278 C 
ENDBRANCH  15  18
ENDBRANCH   1  10
BRANCH   1  20
ATOM     20  O   UNL     1      11.206 -55.580 -21.314  1.00  0.00    -0.382 OA
ATOM     21  H   UNL     1      10.270 -55.457 -21.064  1.00  0.00     0.211 HD
ENDBRANCH   1  20
TORSDOF 7
ENDMDL
MODEL 9
REMARK VINA RESULT:    -6.423      2.133      2.507
REMARK INTER + INTRA:          -9.512
REMARK INTER:                  -9.362
REMARK INTRA:                  -0.150
REMARK UNBOUND:                -0.837
REMARK SMILES COc1ccc([C@H](O)[C@H]([NH3+])C(=O)[O-])cc1OC
REMARK SMILES IDX 7 1 9 2 10 3 11 7 12 8 13 9 6 10 5 11 14 12 4 13 15 14 3 15
REMARK SMILES IDX 16 16 17 17 2 18 1 19 8 20
REMARK H PARENT 10 4 10 5 10 6 8 21
ROOT
ATOM      1  C   UNL     1      10.665 -59.404 -23.887  1.00  0.00     0.208 C 
ENDROOT
BRANCH   1   2
ATOM      2  C   UNL     1      11.346 -58.837 -22.632  1.00  0.00     0.261 C 
BRANCH   2   3
ATOM      3  N   UNL     1      10.616 -59.329 -21.387  1.00  0.00    -0.348 N 
ATOM      4  H   UNL     1       9.678 -59.669 -21.604  1.00  0.00     0.345 HD
ATOM      5  H   UNL     1      10.609 -58.507 -20.757  1.00  0.00     0.345 HD
ATOM      6  H   UNL     1      11.210 -60.008 -20.905  1.00  0.00     0.345 HD
ENDBRANCH   2   3
BRANCH   2   7
ATOM      7  C   UNL     1      11.425 -57.300 -22.684  1.00  0.00     0.102 C 
ATOM      8  O   UNL     1      11.706 -56.897 -23.855  1.00  0.00    -0.544 OA
ATOM      9  O   UNL     1      11.219 -56.688 -21.611  1.00  0.00    -0.544 OA
ENDBRANCH   2   7
ENDBRANCH   1   2
BRANCH   1  10
ATOM     10  C   UNL     1       9.148 -59.449 -23.826  1.00  0.00    -0.009 A 
ATOM     11  C   UNL     1       8.422 -58.267 -23.653  1.00  0.00     0.011 A 
ATOM     12  C   UNL     1       8.428 -60.649 -23.913  1.00  0.00     0.057 A 
ATOM     13  C   UNL     1       7.028 -58.290 -23.540  1.00  0.00     0.051 A 
ATOM     14  C   UNL     1       7.027 -60.683 -23.820  1.00  0.00     0.161 A 
ATOM     15  C   UNL     1       6.314 -59.493 -23.604  1.00  0.00     0.160 A 
BRANCH  14  16
ATOM     16  O   UNL     1       6.533 -61.960 -23.921  1.00  0.00    -0.493 OA
ATOM     17  C   UNL     1       7.315 -63.015 -23.375  1.00  0.00     0.278 C 
ENDBRANCH  14  16
BRANCH  15  18
ATOM     18  O   UNL     1       4.955 -59.567 -23.458  1.00  0.00    -0.493 OA
ATOM     19  C   UNL     1       4.337 -58.666 -22.547  1.00  0.00     0.278 C 
ENDBRANCH  15  18
ENDBRANCH   1  10
BRANCH   1  20
ATOM     20  O   UNL     1      11.155 -60.755 -24.048  1.00  0.00    -0.382 OA
ATOM     21  H   UNL     1      11.067 -60.951 -25.002  1.00  0.00     0.211 HD
ENDBRANCH   1  20
TORSDOF 7
ENDMDL
