MODEL 1
REMARK VINA RESULT:   -10.247      0.000      0.000
REMARK INTER + INTRA:         -13.399
REMARK INTER:                 -12.943
REMARK INTRA:                  -0.456
REMARK UNBOUND:                -0.456
REMARK SMILES C[NH+]1CCC(=CCC=C2C=c3ccccc3=C2O)CC1
REMARK SMILES IDX 7 1 6 2 5 3 4 4 19 5 3 6 20 7 2 8 1 9 8 11 9 12 10 13 17 14
REMARK SMILES IDX 11 15 16 16 12 17 15 18 13 19 14 20 18 21
REMARK H PARENT 2 10 18 22
ROOT
ATOM      1  C   UNL     1      10.994 -56.548 -22.198  1.00  0.00     0.055 C 
ENDROOT
BRANCH   1   2
ATOM      2  C   UNL     1      11.427 -57.734 -23.028  1.00  0.00    -0.023 C 
BRANCH   2   3
ATOM      3  C   UNL     1      11.531 -59.028 -22.666  1.00  0.00    -0.063 C 
ATOM      4  C   UNL     1      10.791 -59.572 -21.463  1.00  0.00     0.092 C 
ATOM      5  C   UNL     1      12.299 -60.102 -23.404  1.00  0.00     0.092 C 
ATOM      6  C   UNL     1       9.847 -60.703 -21.894  1.00  0.00     0.266 C 
ATOM      7  C   UNL     1      11.359 -61.229 -23.845  1.00  0.00     0.266 C 
ATOM      8  N   UNL     1      10.616 -61.785 -22.636  1.00  0.00    -0.337 N 
ATOM      9  C   UNL     1       9.723 -62.928 -23.027  1.00  0.00     0.332 C 
ATOM     10  H   UNL     1      11.324 -62.158 -21.990  1.00  0.00     0.347 HD
ENDBRANCH   2   3
ENDBRANCH   1   2
BRANCH   1  11
ATOM     11  C   UNL     1      10.526 -55.359 -22.998  1.00  0.00    -0.011 C 
BRANCH  11  12
ATOM     12  C   UNL     1      11.268 -54.329 -23.435  1.00  0.00     0.014 C 
ATOM     13  C   UNL     1      11.384 -53.009 -22.815  1.00  0.00     0.020 C 
ATOM     14  C   UNL     1      12.043 -54.286 -24.671  1.00  0.00     0.130 C 
ATOM     15  C   UNL     1      12.112 -52.248 -23.648  1.00  0.00    -0.014 A 
ATOM     16  C   UNL     1      12.518 -53.041 -24.817  1.00  0.00     0.024 A 
ATOM     17  C   UNL     1      12.529 -50.869 -23.537  1.00  0.00     0.009 A 
ATOM     18  C   UNL     1      13.312 -52.437 -25.859  1.00  0.00     0.012 A 
ATOM     19  C   UNL     1      13.269 -50.352 -24.541  1.00  0.00     0.001 A 
ATOM     20  C   UNL     1      13.662 -51.142 -25.714  1.00  0.00     0.001 A 
BRANCH  14  21
ATOM     21  O   UNL     1      12.182 -55.345 -25.512  1.00  0.00    -0.507 OA
ATOM     22  H   UNL     1      11.360 -55.417 -26.028  1.00  0.00     0.293 HD
ENDBRANCH  14  21
ENDBRANCH  11  12
ENDBRANCH   1  11
TORSDOF 5
ENDMDL
MODEL 2
REMARK VINA RESULT:   -10.244      1.257      1.839
REMARK INTER + INTRA:         -13.395
REMARK INTER:                 -12.939
REMARK INTRA:                  -0.455
REMARK UNBOUND:                -0.456
REMARK SMILES C[NH+]1CCC(=CCC=C2C=c3ccccc3=C2O)CC1
REMARK SMILES IDX 7 1 6 2 5 3 4 4 19 5 3 6 20 7 2 8 1 9 8 11 9 12 10 13 17 14
REMARK SMILES IDX 11 15 16 16 12 17 15 18 13 19 14 20 18 21
REMARK H PARENT 2 10 18 22
ROOT
ATOM      1  C   UNL     1      10.217 -56.685 -22.747  1.00  0.00     0.055 C 
ENDROOT
BRANCH   1   2
ATOM      2  C   UNL     1      11.355 -57.530 -22.223  1.00  0.00    -0.023 C 
BRANCH   2   3
ATOM      3  C   UNL     1      11.468 -58.873 -22.192  1.00  0.00    -0.063 C 
ATOM      4  C   UNL     1      10.655 -59.710 -21.227  1.00  0.00     0.092 C 
ATOM      5  C   UNL     1      12.319 -59.719 -23.112  1.00  0.00     0.092 C 
ATOM      6  C   UNL     1       9.778 -60.702 -22.003  1.00  0.00     0.266 C 
ATOM      7  C   UNL     1      11.447 -60.704 -23.896  1.00  0.00     0.266 C 
ATOM      8  N   UNL     1      10.631 -61.554 -22.931  1.00  0.00    -0.337 N 
ATOM      9  C   UNL     1       9.802 -62.569 -23.667  1.00  0.00     0.332 C 
ATOM     10  H   UNL     1      11.299 -62.073 -22.345  1.00  0.00     0.347 HD
ENDBRANCH   2   3
ENDBRANCH   1   2
BRANCH   1  11
ATOM     11  C   UNL     1      10.327 -55.216 -22.427  1.00  0.00    -0.011 C 
BRANCH  11  12
ATOM     12  C   UNL     1      10.975 -54.275 -23.133  1.00  0.00     0.014 C 
ATOM     13  C   UNL     1      11.734 -54.475 -24.367  1.00  0.00     0.020 C 
ATOM     14  C   UNL     1      11.128 -52.872 -22.763  1.00  0.00     0.130 C 
ATOM     15  C   UNL     1      12.326 -53.305 -24.656  1.00  0.00    -0.014 A 
ATOM     16  C   UNL     1      11.957 -52.300 -23.648  1.00  0.00     0.024 A 
ATOM     17  C   UNL     1      13.190 -52.935 -25.753  1.00  0.00     0.009 A 
ATOM     18  C   UNL     1      12.473 -50.956 -23.744  1.00  0.00     0.012 A 
ATOM     19  C   UNL     1      13.647 -51.665 -25.795  1.00  0.00     0.001 A 
ATOM     20  C   UNL     1      13.289 -50.668 -24.780  1.00  0.00     0.001 A 
BRANCH  14  21
ATOM     21  O   UNL     1      10.543 -52.311 -21.672  1.00  0.00    -0.507 OA
ATOM     22  H   UNL     1      11.122 -52.484 -20.910  1.00  0.00     0.293 HD
ENDBRANCH  14  21
ENDBRANCH  11  12
ENDBRANCH   1  11
TORSDOF 5
ENDMDL
MODEL 3
REMARK VINA RESULT:    -9.869      1.895      3.390
REMARK INTER + INTRA:         -12.922
REMARK INTER:                 -12.181
REMARK INTRA:                  -0.740
REMARK UNBOUND:                -0.456
REMARK SMILES C[NH+]1CCC(=CCC=C2C=c3ccccc3=C2O)CC1
REMARK SMILES IDX 7 1 6 2 5 3 4 4 19 5 3 6 20 7 2 8 1 9 8 11 9 12 10 13 17 14
REMARK SMILES IDX 11 15 16 16 12 17 15 18 13 19 14 20 18 21
REMARK H PARENT 2 10 18 22
ROOT
ATOM      1  C   UNL     1      10.738 -59.658 -20.980  1.00  0.00     0.055 C 
ENDROOT
BRANCH   1   2
ATOM      2  C   UNL     1       9.875 -60.847 -21.330  1.00  0.00    -0.023 C 
BRANCH   2   3
ATOM      3  C   UNL     1       9.496 -61.290 -22.547  1.00  0.00    -0.063 C 
ATOM      4  C   UNL     1       8.235 -60.784 -23.213  1.00  0.00     0.092 C 
ATOM      5  C   UNL     1      10.266 -62.251 -23.425  1.00  0.00     0.092 C 
ATOM      6  C   UNL     1       8.578 -60.122 -24.555  1.00  0.00     0.266 C 
ATOM      7  C   UNL     1      10.619 -61.593 -24.762  1.00  0.00     0.266 C 
ATOM      8  N   UNL     1       9.353 -61.087 -25.441  1.00  0.00    -0.337 N 
ATOM      9  C   UNL     1       9.659 -60.481 -26.781  1.00  0.00     0.332 C 
ATOM     10  H   UNL     1       8.750 -61.904 -25.606  1.00  0.00     0.347 HD
ENDBRANCH   2   3
ENDBRANCH   1   2
BRANCH   1  11
ATOM     11  C   UNL     1      11.304 -58.922 -22.167  1.00  0.00    -0.011 C 
BRANCH  11  12
ATOM     12  C   UNL     1      11.349 -57.593 -22.356  1.00  0.00     0.014 C 
ATOM     13  C   UNL     1      10.954 -56.560 -21.400  1.00  0.00     0.020 C 
ATOM     14  C   UNL     1      11.717 -56.909 -23.592  1.00  0.00     0.130 C 
ATOM     15  C   UNL     1      11.029 -55.383 -22.042  1.00  0.00    -0.014 A 
ATOM     16  C   UNL     1      11.497 -55.599 -23.418  1.00  0.00     0.024 A 
ATOM     17  C   UNL     1      10.751 -54.042 -21.581  1.00  0.00     0.009 A 
ATOM     18  C   UNL     1      11.657 -54.477 -24.312  1.00  0.00     0.012 A 
ATOM     19  C   UNL     1      10.915 -53.028 -22.457  1.00  0.00     0.001 A 
ATOM     20  C   UNL     1      11.368 -53.247 -23.836  1.00  0.00     0.001 A 
BRANCH  14  21
ATOM     21  O   UNL     1      12.156 -57.550 -24.707  1.00  0.00    -0.507 OA
ATOM     22  H   UNL     1      11.527 -58.266 -24.898  1.00  0.00     0.293 HD
ENDBRANCH  14  21
ENDBRANCH  11  12
ENDBRANCH   1  11
TORSDOF 5
ENDMDL
MODEL 4
REMARK VINA RESULT:    -9.715      2.962      8.209
REMARK INTER + INTRA:         -12.726
REMARK INTER:                 -12.306
REMARK INTRA:                  -0.420
REMARK UNBOUND:                -0.456
REMARK SMILES C[NH+]1CCC(=CCC=C2C=c3ccccc3=C2O)CC1
REMARK SMILES IDX 7 1 6 2 5 3 4 4 19 5 3 6 20 7 2 8 1 9 8 11 9 12 10 13 17 14
REMARK SMILES IDX 11 15 16 16 12 17 15 18 13 19 14 20 18 21
REMARK H PARENT 2 10 18 22
ROOT
ATOM      1  C   UNL     1      11.076 -55.559 -21.602  1.00  0.00     0.055 C 
ENDROOT
BRANCH   1   2
ATOM      2  C   UNL     1      10.117 -54.471 -22.023  1.00  0.00    -0.023 C 
BRANCH   2   3
ATOM      3  C   UNL     1      10.379 -53.311 -22.659  1.00  0.00    -0.063 C 
ATOM      4  C   UNL     1       9.520 -52.083 -22.445  1.00  0.00     0.092 C 
ATOM      5  C   UNL     1      11.549 -53.042 -23.578  1.00  0.00     0.092 C 
ATOM      6  C   UNL     1      10.376 -50.932 -21.897  1.00  0.00     0.266 C 
ATOM      7  C   UNL     1      12.412 -51.901 -23.031  1.00  0.00     0.266 C 
ATOM      8  N   UNL     1      11.554 -50.660 -22.819  1.00  0.00    -0.337 N 
ATOM      9  C   UNL     1      12.382 -49.505 -22.332  1.00  0.00     0.332 C 
ATOM     10  H   UNL     1      11.172 -50.395 -23.737  1.00  0.00     0.347 HD
ENDBRANCH   2   3
ENDBRANCH   1   2
BRANCH   1  11
ATOM     11  C   UNL     1      11.448 -56.525 -22.697  1.00  0.00    -0.011 C 
BRANCH  11  12
ATOM     12  C   UNL     1      11.136 -57.830 -22.773  1.00  0.00     0.014 C 
ATOM     13  C   UNL     1      10.254 -58.573 -21.874  1.00  0.00     0.020 C 
ATOM     14  C   UNL     1      11.688 -58.795 -23.719  1.00  0.00     0.130 C 
ATOM     15  C   UNL     1      10.333 -59.866 -22.228  1.00  0.00    -0.014 A 
ATOM     16  C   UNL     1      11.238 -60.010 -23.377  1.00  0.00     0.024 A 
ATOM     17  C   UNL     1       9.677 -61.031 -21.682  1.00  0.00     0.009 A 
ATOM     18  C   UNL     1      11.487 -61.314 -23.942  1.00  0.00     0.012 A 
ATOM     19  C   UNL     1       9.946 -62.228 -22.245  1.00  0.00     0.001 A 
ATOM     20  C   UNL     1      10.862 -62.372 -23.383  1.00  0.00     0.001 A 
BRANCH  14  21
ATOM     21  O   UNL     1      12.543 -58.463 -24.722  1.00  0.00    -0.507 OA
ATOM     22  H   UNL     1      13.448 -58.584 -24.386  1.00  0.00     0.293 HD
ENDBRANCH  14  21
ENDBRANCH  11  12
ENDBRANCH   1  11
TORSDOF 5
ENDMDL
MODEL 5
REMARK VINA RESULT:    -9.571      2.777      8.359
REMARK INTER + INTRA:         -12.545
REMARK INTER:                 -12.098
REMARK INTRA:                  -0.447
REMARK UNBOUND:                -0.456
REMARK SMILES C[NH+]1CCC(=CCC=C2C=c3ccccc3=C2O)CC1
REMARK SMILES IDX 7 1 6 2 5 3 4 4 19 5 3 6 20 7 2 8 1 9 8 11 9 12 10 13 17 14
REMARK SMILES IDX 11 15 16 16 12 17 15 18 13 19 14 20 18 21
REMARK H PARENT 2 10 18 22
ROOT
ATOM      1  C   UNL     1      11.233 -57.415 -21.623  1.00  0.00     0.055 C 
ENDROOT
BRANCH   1   2
ATOM      2  C   UNL     1      11.345 -56.466 -22.794  1.00  0.00    -0.023 C 
BRANCH   2   3
ATOM      3  C   UNL     1      10.869 -55.210 -22.914  1.00  0.00    -0.063 C 
ATOM      4  C   UNL     1      10.012 -54.585 -21.835  1.00  0.00     0.092 C 
ATOM      5  C   UNL     1      11.160 -54.250 -24.046  1.00  0.00     0.092 C 
ATOM      6  C   UNL     1      10.686 -53.315 -21.298  1.00  0.00     0.266 C 
ATOM      7  C   UNL     1      11.842 -52.985 -23.517  1.00  0.00     0.266 C 
ATOM      8  N   UNL     1      10.981 -52.347 -22.434  1.00  0.00    -0.337 N 
ATOM      9  C   UNL     1      11.598 -51.074 -21.930  1.00  0.00     0.332 C 
ATOM     10  H   UNL     1      10.082 -52.100 -22.868  1.00  0.00     0.347 HD
ENDBRANCH   2   3
ENDBRANCH   1   2
BRANCH   1  11
ATOM     11  C   UNL     1      11.611 -58.841 -21.933  1.00  0.00    -0.011 C 
BRANCH  11  12
ATOM     12  C   UNL     1      10.824 -59.797 -22.452  1.00  0.00     0.014 C 
ATOM     13  C   UNL     1      10.205 -60.908 -21.729  1.00  0.00     0.020 C 
ATOM     14  C   UNL     1      10.498 -59.976 -23.863  1.00  0.00     0.130 C 
ATOM     15  C   UNL     1       9.621 -61.696 -22.646  1.00  0.00    -0.014 A 
ATOM     16  C   UNL     1       9.812 -61.120 -23.986  1.00  0.00     0.024 A 
ATOM     17  C   UNL     1       8.874 -62.922 -22.493  1.00  0.00     0.009 A 
ATOM     18  C   UNL     1       9.272 -61.791 -25.144  1.00  0.00     0.012 A 
ATOM     19  C   UNL     1       8.393 -63.511 -23.608  1.00  0.00     0.001 A 
ATOM     20  C   UNL     1       8.596 -62.943 -24.946  1.00  0.00     0.001 A 
BRANCH  14  21
ATOM     21  O   UNL     1      10.892 -59.120 -24.843  1.00  0.00    -0.507 OA
ATOM     22  H   UNL     1      11.814 -59.337 -25.066  1.00  0.00     0.293 HD
ENDBRANCH  14  21
ENDBRANCH  11  12
ENDBRANCH   1  11
TORSDOF 5
ENDMDL
MODEL 6
REMARK VINA RESULT:    -9.303      3.138      7.767
REMARK INTER + INTRA:         -12.207
REMARK INTER:                 -11.609
REMARK INTRA:                  -0.597
REMARK UNBOUND:                -0.456
REMARK SMILES C[NH+]1CCC(=CCC=C2C=c3ccccc3=C2O)CC1
REMARK SMILES IDX 7 1 6 2 5 3 4 4 19 5 3 6 20 7 2 8 1 9 8 11 9 12 10 13 17 14
REMARK SMILES IDX 11 15 16 16 12 17 15 18 13 19 14 20 18 21
REMARK H PARENT 2 10 18 22
ROOT
ATOM      1  C   UNL     1      12.130 -52.080 -22.703  1.00  0.00     0.055 C 
ENDROOT
BRANCH   1   2
ATOM      2  C   UNL     1      12.296 -51.216 -23.930  1.00  0.00    -0.023 C 
BRANCH   2   3
ATOM      3  C   UNL     1      13.194 -51.328 -24.930  1.00  0.00    -0.063 C 
ATOM      4  C   UNL     1      13.735 -50.108 -25.644  1.00  0.00     0.092 C 
ATOM      5  C   UNL     1      13.827 -52.611 -25.421  1.00  0.00     0.092 C 
ATOM      6  C   UNL     1      15.261 -50.043 -25.491  1.00  0.00     0.266 C 
ATOM      7  C   UNL     1      15.349 -52.555 -25.261  1.00  0.00     0.266 C 
ATOM      8  N   UNL     1      15.901 -51.332 -25.984  1.00  0.00    -0.337 N 
ATOM      9  C   UNL     1      17.399 -51.276 -25.890  1.00  0.00     0.332 C 
ATOM     10  H   UNL     1      15.660 -51.434 -26.979  1.00  0.00     0.347 HD
ENDBRANCH   2   3
ENDBRANCH   1   2
BRANCH   1  11
ATOM     11  C   UNL     1      10.990 -53.063 -22.776  1.00  0.00    -0.011 C 
BRANCH  11  12
ATOM     12  C   UNL     1      11.063 -54.402 -22.716  1.00  0.00     0.014 C 
ATOM     13  C   UNL     1      10.942 -55.233 -21.519  1.00  0.00     0.020 C 
ATOM     14  C   UNL     1      11.368 -55.300 -23.826  1.00  0.00     0.130 C 
ATOM     15  C   UNL     1      11.214 -56.495 -21.889  1.00  0.00    -0.014 A 
ATOM     16  C   UNL     1      11.491 -56.540 -23.332  1.00  0.00     0.024 A 
ATOM     17  C   UNL     1      11.243 -57.715 -21.116  1.00  0.00     0.009 A 
ATOM     18  C   UNL     1      11.812 -57.794 -23.968  1.00  0.00     0.012 A 
ATOM     19  C   UNL     1      11.551 -58.862 -21.758  1.00  0.00     0.001 A 
ATOM     20  C   UNL     1      11.842 -58.902 -23.197  1.00  0.00     0.001 A 
BRANCH  14  21
ATOM     21  O   UNL     1      11.535 -54.884 -25.109  1.00  0.00    -0.507 OA
ATOM     22  H   UNL     1      11.911 -53.988 -25.078  1.00  0.00     0.293 HD
ENDBRANCH  14  21
ENDBRANCH  11  12
ENDBRANCH   1  11
TORSDOF 5
ENDMDL
MODEL 7
REMARK VINA RESULT:    -8.791      1.268      2.066
REMARK INTER + INTRA:         -11.559
REMARK INTER:                 -11.243
REMARK INTRA:                  -0.317
REMARK UNBOUND:                -0.456
REMARK SMILES C[NH+]1CCC(=CCC=C2C=c3ccccc3=C2O)CC1
REMARK SMILES IDX 7 1 6 2 5 3 4 4 19 5 3 6 20 7 2 8 1 9 8 11 9 12 10 13 17 14
REMARK SMILES IDX 11 15 16 16 12 17 15 18 13 19 14 20 18 21
REMARK H PARENT 2 10 18 22
ROOT
ATOM      1  C   UNL     1      10.573 -54.380 -22.627  1.00  0.00     0.055 C 
ENDROOT
BRANCH   1   2
ATOM      2  C   UNL     1      10.224 -55.845 -22.509  1.00  0.00    -0.023 C 
BRANCH   2   3
ATOM      3  C   UNL     1      11.040 -56.917 -22.564  1.00  0.00    -0.063 C 
ATOM      4  C   UNL     1      11.304 -57.770 -21.342  1.00  0.00     0.092 C 
ATOM      5  C   UNL     1      11.725 -57.454 -23.800  1.00  0.00     0.092 C 
ATOM      6  C   UNL     1      10.867 -59.218 -21.608  1.00  0.00     0.266 C 
ATOM      7  C   UNL     1      11.285 -58.895 -24.075  1.00  0.00     0.266 C 
ATOM      8  N   UNL     1      11.554 -59.761 -22.851  1.00  0.00    -0.337 N 
ATOM      9  C   UNL     1      11.181 -61.194 -23.107  1.00  0.00     0.332 C 
ATOM     10  H   UNL     1      12.568 -59.736 -22.678  1.00  0.00     0.347 HD
ENDBRANCH   2   3
ENDBRANCH   1   2
BRANCH   1  11
ATOM     11  C   UNL     1      11.682 -54.076 -23.602  1.00  0.00    -0.011 C 
BRANCH  11  12
ATOM     12  C   UNL     1      12.178 -52.870 -23.921  1.00  0.00     0.014 C 
ATOM     13  C   UNL     1      11.934 -51.609 -23.221  1.00  0.00     0.020 C 
ATOM     14  C   UNL     1      12.994 -52.554 -25.090  1.00  0.00     0.130 C 
ATOM     15  C   UNL     1      12.505 -50.638 -23.951  1.00  0.00    -0.014 A 
ATOM     16  C   UNL     1      13.162 -51.225 -25.128  1.00  0.00     0.024 A 
ATOM     17  C   UNL     1      12.569 -49.212 -23.732  1.00  0.00     0.009 A 
ATOM     18  C   UNL     1      13.850 -50.376 -26.071  1.00  0.00     0.012 A 
ATOM     19  C   UNL     1      13.223 -48.462 -24.644  1.00  0.00     0.001 A 
ATOM     20  C   UNL     1      13.866 -49.048 -25.827  1.00  0.00     0.001 A 
BRANCH  14  21
ATOM     21  O   UNL     1      13.436 -53.486 -25.975  1.00  0.00    -0.507 OA
ATOM     22  H   UNL     1      14.338 -53.735 -25.709  1.00  0.00     0.293 HD
ENDBRANCH  14  21
ENDBRANCH  11  12
ENDBRANCH   1  11
TORSDOF 5
ENDMDL
MODEL 8
REMARK VINA RESULT:    -8.680      3.269      7.582
REMARK INTER + INTRA:         -11.420
REMARK INTER:                 -10.992
REMARK INTRA:                  -0.428
REMARK UNBOUND:                -0.456
REMARK SMILES C[NH+]1CCC(=CCC=C2C=c3ccccc3=C2O)CC1
REMARK SMILES IDX 7 1 6 2 5 3 4 4 19 5 3 6 20 7 2 8 1 9 8 11 9 12 10 13 17 14
REMARK SMILES IDX 11 15 16 16 12 17 15 18 13 19 14 20 18 21
REMARK H PARENT 2 10 18 22
ROOT
ATOM      1  C   UNL     1      11.281 -57.479 -21.731  1.00  0.00     0.055 C 
ENDROOT
BRANCH   1   2
ATOM      2  C   UNL     1      11.377 -56.417 -22.801  1.00  0.00    -0.023 C 
BRANCH   2   3
ATOM      3  C   UNL     1      10.841 -55.179 -22.817  1.00  0.00    -0.063 C 
ATOM      4  C   UNL     1      10.027 -54.658 -21.653  1.00  0.00     0.092 C 
ATOM      5  C   UNL     1      11.019 -54.144 -23.905  1.00  0.00     0.092 C 
ATOM      6  C   UNL     1      10.678 -53.390 -21.082  1.00  0.00     0.266 C 
ATOM      7  C   UNL     1      11.677 -52.881 -23.343  1.00  0.00     0.266 C 
ATOM      8  N   UNL     1      10.859 -52.347 -22.174  1.00  0.00    -0.337 N 
ATOM      9  C   UNL     1      11.450 -51.077 -21.632  1.00  0.00     0.332 C 
ATOM     10  H   UNL     1       9.924 -52.118 -22.538  1.00  0.00     0.347 HD
ENDBRANCH   2   3
ENDBRANCH   1   2
BRANCH   1  11
ATOM     11  C   UNL     1      11.605 -58.874 -22.201  1.00  0.00    -0.011 C 
BRANCH  11  12
ATOM     12  C   UNL     1      11.381 -59.397 -23.417  1.00  0.00     0.014 C 
ATOM     13  C   UNL     1      12.108 -59.091 -24.649  1.00  0.00     0.020 C 
ATOM     14  C   UNL     1      10.303 -60.313 -23.777  1.00  0.00     0.130 C 
ATOM     15  C   UNL     1      11.472 -59.726 -25.647  1.00  0.00    -0.014 A 
ATOM     16  C   UNL     1      10.335 -60.485 -25.106  1.00  0.00     0.024 A 
ATOM     17  C   UNL     1      11.755 -59.771 -27.063  1.00  0.00     0.009 A 
ATOM     18  C   UNL     1       9.493 -61.253 -25.990  1.00  0.00     0.012 A 
ATOM     19  C   UNL     1      10.935 -60.503 -27.847  1.00  0.00     0.001 A 
ATOM     20  C   UNL     1       9.791 -61.248 -27.307  1.00  0.00     0.001 A 
BRANCH  14  21
ATOM     21  O   UNL     1       9.423 -60.832 -22.881  1.00  0.00    -0.507 OA
ATOM     22  H   UNL     1       8.897 -60.094 -22.528  1.00  0.00     0.293 HD
ENDBRANCH  14  21
ENDBRANCH  11  12
ENDBRANCH   1  11
TORSDOF 5
ENDMDL
MODEL 9
REMARK VINA RESULT:    -8.606      3.344      8.541
REMARK INTER + INTRA:         -11.326
REMARK INTER:                 -10.995
REMARK INTRA:                  -0.331
REMARK UNBOUND:                -0.456
REMARK SMILES C[NH+]1CCC(=CCC=C2C=c3ccccc3=C2O)CC1
REMARK SMILES IDX 7 1 6 2 5 3 4 4 19 5 3 6 20 7 2 8 1 9 8 11 9 12 10 13 17 14
REMARK SMILES IDX 11 15 16 16 12 17 15 18 13 19 14 20 18 21
REMARK H PARENT 2 10 18 22
ROOT
ATOM      1  C   UNL     1      10.802 -54.977 -22.242  1.00  0.00     0.055 C 
ENDROOT
BRANCH   1   2
ATOM      2  C   UNL     1      11.098 -53.734 -23.047  1.00  0.00    -0.023 C 
BRANCH   2   3
ATOM      3  C   UNL     1      11.551 -52.537 -22.620  1.00  0.00    -0.063 C 
ATOM      4  C   UNL     1      12.763 -51.883 -23.249  1.00  0.00     0.092 C 
ATOM      5  C   UNL     1      10.915 -51.669 -21.558  1.00  0.00     0.092 C 
ATOM      6  C   UNL     1      12.379 -50.518 -23.836  1.00  0.00     0.266 C 
ATOM      7  C   UNL     1      10.521 -50.308 -22.140  1.00  0.00     0.266 C 
ATOM      8  N   UNL     1      11.738 -49.642 -22.770  1.00  0.00    -0.337 N 
ATOM      9  C   UNL     1      11.396 -48.281 -23.305  1.00  0.00     0.332 C 
ATOM     10  H   UNL     1      12.432 -49.511 -22.021  1.00  0.00     0.347 HD
ENDBRANCH   2   3
ENDBRANCH   1   2
BRANCH   1  11
ATOM     11  C   UNL     1       9.831 -55.929 -22.892  1.00  0.00    -0.011 C 
BRANCH  11  12
ATOM     12  C   UNL     1       9.938 -57.265 -22.985  1.00  0.00     0.014 C 
ATOM     13  C   UNL     1      11.160 -58.056 -22.850  1.00  0.00     0.020 C 
ATOM     14  C   UNL     1       8.867 -58.194 -23.330  1.00  0.00     0.130 C 
ATOM     15  C   UNL     1      10.840 -59.326 -23.149  1.00  0.00    -0.014 A 
ATOM     16  C   UNL     1       9.406 -59.414 -23.460  1.00  0.00     0.024 A 
ATOM     17  C   UNL     1      11.655 -60.518 -23.180  1.00  0.00     0.009 A 
ATOM     18  C   UNL     1       8.821 -60.684 -23.815  1.00  0.00     0.012 A 
ATOM     19  C   UNL     1      11.059 -61.680 -23.521  1.00  0.00     0.001 A 
ATOM     20  C   UNL     1       9.630 -61.764 -23.845  1.00  0.00     0.001 A 
BRANCH  14  21
ATOM     21  O   UNL     1       7.574 -57.819 -23.519  1.00  0.00    -0.507 OA
ATOM     22  H   UNL     1       7.256 -58.264 -24.323  1.00  0.00     0.293 HD
ENDBRANCH  14  21
ENDBRANCH  11  12
ENDBRANCH   1  11
TORSDOF 5
ENDMDL
