MODEL 1
REMARK VINA RESULT:   -11.290      0.000      0.000
REMARK INTER + INTRA:         -15.800
REMARK INTER:                 -15.250
REMARK INTRA:                  -0.551
REMARK UNBOUND:                -0.551
REMARK SMILES COc1ccc2c(CC[C@H]3CC[N@H+](Cc4ccccc4)CC3)noc2c1
REMARK SMILES IDX 9 1 10 2 12 3 13 4 11 5 21 6 22 7 14 9 15 10 16 11 20 12
REMARK SMILES IDX 17 13 19 14 18 15 8 16 7 17 6 18 23 19 5 20 25 21 24 22 4 23
REMARK SMILES IDX 26 24 3 25 2 26 1 27
REMARK H PARENT 13 8
ROOT
ATOM      1  C   UNL     1      10.375 -56.139 -22.979  1.00  0.00     0.010 C 
ENDROOT
BRANCH   1   2
ATOM      2  C   UNL     1      11.321 -57.349 -22.753  1.00  0.00     0.000 C 
ATOM      3  C   UNL     1      12.302 -59.328 -24.118  1.00  0.00     0.262 C 
ATOM      4  N   UNL     1      11.272 -60.149 -23.407  1.00  0.00    -0.331 N 
ATOM      5  C   UNL     1      11.870 -57.871 -24.102  1.00  0.00     0.065 C 
ATOM      6  C   UNL     1      11.268 -59.804 -21.949  1.00  0.00     0.262 C 
ATOM      7  C   UNL     1      10.721 -58.396 -21.790  1.00  0.00     0.065 C 
ATOM      8  H   UNL     1      10.348 -59.863 -23.786  1.00  0.00     0.348 HD
BRANCH   4   9
ATOM      9  C   UNL     1      11.356 -61.628 -23.693  1.00  0.00     0.299 C 
BRANCH   9  10
ATOM     10  C   UNL     1      10.039 -62.354 -23.753  1.00  0.00     0.006 A 
ATOM     11  C   UNL     1       9.227 -62.269 -24.896  1.00  0.00     0.009 A 
ATOM     12  C   UNL     1       9.602 -63.136 -22.673  1.00  0.00     0.009 A 
ATOM     13  C   UNL     1       8.016 -62.961 -24.959  1.00  0.00     0.001 A 
ATOM     14  C   UNL     1       8.391 -63.827 -22.740  1.00  0.00     0.001 A 
ATOM     15  C   UNL     1       7.601 -63.741 -23.883  1.00  0.00     0.000 A 
ENDBRANCH   9  10
ENDBRANCH   4   9
ENDBRANCH   1   2
BRANCH   1  16
ATOM     16  C   UNL     1      10.406 -54.984 -21.956  1.00  0.00     0.061 C 
BRANCH  16  17
ATOM     17  C   UNL     1      11.038 -53.715 -22.431  1.00  0.00     0.091 A 
ATOM     18  C   UNL     1      11.760 -53.490 -23.632  1.00  0.00     0.045 A 
ATOM     19  N   UNL     1      10.953 -52.592 -21.693  1.00  0.00    -0.084 NA
ATOM     20  C   UNL     1      12.158 -54.233 -24.755  1.00  0.00     0.018 A 
ATOM     21  C   UNL     1      12.108 -52.154 -23.566  1.00  0.00     0.170 A 
ATOM     22  O   UNL     1      11.627 -51.618 -22.413  1.00  0.00    -0.356 OA
ATOM     23  C   UNL     1      12.894 -53.585 -25.763  1.00  0.00     0.047 A 
ATOM     24  C   UNL     1      12.833 -51.482 -24.544  1.00  0.00     0.097 A 
ATOM     25  C   UNL     1      13.228 -52.230 -25.660  1.00  0.00     0.122 A 
BRANCH  25  26
ATOM     26  O   UNL     1      13.934 -51.509 -26.586  1.00  0.00    -0.497 OA
ATOM     27  C   UNL     1      14.133 -50.124 -26.320  1.00  0.00     0.278 C 
ENDBRANCH  25  26
ENDBRANCH  16  17
ENDBRANCH   1  16
TORSDOF 6
ENDMDL
MODEL 2
REMARK VINA RESULT:   -11.199      1.546      2.241
REMARK INTER + INTRA:         -15.677
REMARK INTER:                 -15.203
REMARK INTRA:                  -0.475
REMARK UNBOUND:                -0.551
REMARK SMILES COc1ccc2c(CC[C@H]3CC[N@H+](Cc4ccccc4)CC3)noc2c1
REMARK SMILES IDX 9 1 10 2 12 3 13 4 11 5 21 6 22 7 14 9 15 10 16 11 20 12
REMARK SMILES IDX 17 13 19 14 18 15 8 16 7 17 6 18 23 19 5 20 25 21 24 22 4 23
REMARK SMILES IDX 26 24 3 25 2 26 1 27
REMARK H PARENT 13 8
ROOT
ATOM      1  C   UNL     1      10.438 -56.289 -22.384  1.00  0.00     0.010 C 
ENDROOT
BRANCH   1   2
ATOM      2  C   UNL     1      11.359 -57.539 -22.413  1.00  0.00     0.000 C 
ATOM      3  C   UNL     1      12.235 -59.265 -24.143  1.00  0.00     0.262 C 
ATOM      4  N   UNL     1      11.210 -60.178 -23.545  1.00  0.00    -0.331 N 
ATOM      5  C   UNL     1      11.844 -57.826 -23.854  1.00  0.00     0.065 C 
ATOM      6  C   UNL     1      11.269 -60.096 -22.050  1.00  0.00     0.262 C 
ATOM      7  C   UNL     1      10.767 -58.726 -21.625  1.00  0.00     0.065 C 
ATOM      8  H   UNL     1      10.281 -59.812 -23.831  1.00  0.00     0.348 HD
BRANCH   4   9
ATOM      9  C   UNL     1      11.244 -61.585 -24.090  1.00  0.00     0.299 C 
BRANCH   9  10
ATOM     10  C   UNL     1       9.951 -62.349 -23.994  1.00  0.00     0.006 A 
ATOM     11  C   UNL     1       9.653 -63.113 -22.854  1.00  0.00     0.009 A 
ATOM     12  C   UNL     1       9.013 -62.305 -25.038  1.00  0.00     0.009 A 
ATOM     13  C   UNL     1       8.443 -63.802 -22.757  1.00  0.00     0.001 A 
ATOM     14  C   UNL     1       7.804 -62.995 -24.938  1.00  0.00     0.001 A 
ATOM     15  C   UNL     1       7.520 -63.740 -23.797  1.00  0.00     0.000 A 
ENDBRANCH   9  10
ENDBRANCH   4   9
ENDBRANCH   1   2
BRANCH   1  16
ATOM     16  C   UNL     1      10.753 -55.125 -23.347  1.00  0.00     0.061 C 
BRANCH  16  17
ATOM     17  C   UNL     1      10.513 -53.752 -22.805  1.00  0.00     0.091 A 
ATOM     18  C   UNL     1      11.244 -52.564 -23.070  1.00  0.00     0.045 A 
ATOM     19  N   UNL     1       9.492 -53.521 -21.958  1.00  0.00    -0.084 NA
ATOM     20  C   UNL     1      12.354 -52.182 -23.839  1.00  0.00     0.018 A 
ATOM     21  C   UNL     1      10.593 -51.600 -22.322  1.00  0.00     0.170 A 
ATOM     22  O   UNL     1       9.550 -52.169 -21.660  1.00  0.00    -0.356 OA
ATOM     23  C   UNL     1      12.757 -50.834 -23.812  1.00  0.00     0.047 A 
ATOM     24  C   UNL     1      10.964 -50.261 -22.274  1.00  0.00     0.097 A 
ATOM     25  C   UNL     1      12.074 -49.887 -23.042  1.00  0.00     0.122 A 
BRANCH  25  26
ATOM     26  O   UNL     1      12.383 -48.556 -22.953  1.00  0.00    -0.497 OA
ATOM     27  C   UNL     1      11.303 -47.630 -23.013  1.00  0.00     0.278 C 
ENDBRANCH  25  26
ENDBRANCH  16  17
ENDBRANCH   1  16
TORSDOF 6
ENDMDL
MODEL 3
REMARK VINA RESULT:   -10.867      1.659      2.165
REMARK INTER + INTRA:         -15.229
REMARK INTER:                 -14.800
REMARK INTRA:                  -0.429
REMARK UNBOUND:                -0.551
REMARK SMILES COc1ccc2c(CC[C@H]3CC[N@H+](Cc4ccccc4)CC3)noc2c1
REMARK SMILES IDX 9 1 10 2 12 3 13 4 11 5 21 6 22 7 14 9 15 10 16 11 20 12
REMARK SMILES IDX 17 13 19 14 18 15 8 16 7 17 6 18 23 19 5 20 25 21 24 22 4 23
REMARK SMILES IDX 26 24 3 25 2 26 1 27
REMARK H PARENT 13 8
ROOT
ATOM      1  C   UNL     1      11.169 -56.217 -22.198  1.00  0.00     0.010 C 
ENDROOT
BRANCH   1   2
ATOM      2  C   UNL     1      10.607 -57.664 -22.151  1.00  0.00     0.000 C 
ATOM      3  C   UNL     1      11.412 -60.077 -22.670  1.00  0.00     0.262 C 
ATOM      4  N   UNL     1      10.607 -59.929 -23.923  1.00  0.00    -0.331 N 
ATOM      5  C   UNL     1      11.759 -58.697 -22.139  1.00  0.00     0.065 C 
ATOM      6  C   UNL     1       9.270 -59.336 -23.598  1.00  0.00     0.262 C 
ATOM      7  C   UNL     1       9.475 -57.891 -23.176  1.00  0.00     0.065 C 
ATOM      8  H   UNL     1      11.105 -59.240 -24.519  1.00  0.00     0.348 HD
BRANCH   4   9
ATOM      9  C   UNL     1      10.541 -61.179 -24.766  1.00  0.00     0.299 C 
BRANCH   9  10
ATOM     10  C   UNL     1       9.522 -62.200 -24.336  1.00  0.00     0.006 A 
ATOM     11  C   UNL     1       8.405 -62.477 -25.141  1.00  0.00     0.009 A 
ATOM     12  C   UNL     1       9.674 -62.900 -23.129  1.00  0.00     0.009 A 
ATOM     13  C   UNL     1       7.472 -63.441 -24.752  1.00  0.00     0.001 A 
ATOM     14  C   UNL     1       8.740 -63.862 -22.744  1.00  0.00     0.001 A 
ATOM     15  C   UNL     1       7.642 -64.133 -23.556  1.00  0.00     0.000 A 
ENDBRANCH   9  10
ENDBRANCH   4   9
ENDBRANCH   1   2
BRANCH   1  16
ATOM     16  C   UNL     1      10.438 -55.176 -23.073  1.00  0.00     0.061 C 
BRANCH  16  17
ATOM     17  C   UNL     1      11.318 -54.233 -23.829  1.00  0.00     0.091 A 
ATOM     18  C   UNL     1      11.676 -52.903 -23.487  1.00  0.00     0.045 A 
ATOM     19  N   UNL     1      11.891 -54.612 -24.987  1.00  0.00    -0.084 NA
ATOM     20  C   UNL     1      11.415 -51.995 -22.448  1.00  0.00     0.018 A 
ATOM     21  C   UNL     1      12.504 -52.505 -24.520  1.00  0.00     0.170 A 
ATOM     22  O   UNL     1      12.633 -53.522 -25.413  1.00  0.00    -0.356 OA
ATOM     23  C   UNL     1      12.006 -50.720 -22.506  1.00  0.00     0.047 A 
ATOM     24  C   UNL     1      13.104 -51.254 -24.608  1.00  0.00     0.097 A 
ATOM     25  C   UNL     1      12.838 -50.354 -23.569  1.00  0.00     0.122 A 
BRANCH  25  26
ATOM     26  O   UNL     1      13.463 -49.143 -23.715  1.00  0.00    -0.497 OA
ATOM     27  C   UNL     1      12.864 -48.203 -24.602  1.00  0.00     0.278 C 
ENDBRANCH  25  26
ENDBRANCH  16  17
ENDBRANCH   1  16
TORSDOF 6
ENDMDL
MODEL 4
REMARK VINA RESULT:   -10.856      1.919      2.799
REMARK INTER + INTRA:         -15.215
REMARK INTER:                 -14.601
REMARK INTRA:                  -0.614
REMARK UNBOUND:                -0.551
REMARK SMILES COc1ccc2c(CC[C@H]3CC[N@H+](Cc4ccccc4)CC3)noc2c1
REMARK SMILES IDX 9 1 10 2 12 3 13 4 11 5 21 6 22 7 14 9 15 10 16 11 20 12
REMARK SMILES IDX 17 13 19 14 18 15 8 16 7 17 6 18 23 19 5 20 25 21 24 22 4 23
REMARK SMILES IDX 26 24 3 25 2 26 1 27
REMARK H PARENT 13 8
ROOT
ATOM      1  C   UNL     1      11.387 -56.981 -22.631  1.00  0.00     0.010 C 
ENDROOT
BRANCH   1   2
ATOM      2  C   UNL     1      10.317 -57.996 -22.146  1.00  0.00     0.000 C 
ATOM      3  C   UNL     1      10.140 -60.537 -21.644  1.00  0.00     0.262 C 
ATOM      4  N   UNL     1       9.442 -60.610 -22.966  1.00  0.00    -0.331 N 
ATOM      5  C   UNL     1      10.990 -59.279 -21.602  1.00  0.00     0.065 C 
ATOM      6  C   UNL     1       8.433 -59.506 -23.067  1.00  0.00     0.262 C 
ATOM      7  C   UNL     1       9.176 -58.185 -23.168  1.00  0.00     0.065 C 
ATOM      8  H   UNL     1      10.160 -60.429 -23.693  1.00  0.00     0.348 HD
BRANCH   4   9
ATOM      9  C   UNL     1       8.899 -61.977 -23.303  1.00  0.00     0.299 C 
BRANCH   9  10
ATOM     10  C   UNL     1       8.741 -62.268 -24.772  1.00  0.00     0.006 A 
ATOM     11  C   UNL     1       7.774 -63.183 -25.219  1.00  0.00     0.009 A 
ATOM     12  C   UNL     1       9.548 -61.623 -25.721  1.00  0.00     0.009 A 
ATOM     13  C   UNL     1       7.612 -63.435 -26.583  1.00  0.00     0.001 A 
ATOM     14  C   UNL     1       9.384 -61.877 -27.084  1.00  0.00     0.001 A 
ATOM     15  C   UNL     1       8.415 -62.780 -27.513  1.00  0.00     0.000 A 
ENDBRANCH   9  10
ENDBRANCH   4   9
ENDBRANCH   1   2
BRANCH   1  16
ATOM     16  C   UNL     1      10.911 -55.718 -23.381  1.00  0.00     0.061 C 
BRANCH  16  17
ATOM     17  C   UNL     1      10.836 -54.469 -22.564  1.00  0.00     0.091 A 
ATOM     18  C   UNL     1      11.388 -53.194 -22.857  1.00  0.00     0.045 A 
ATOM     19  N   UNL     1      10.175 -54.458 -21.391  1.00  0.00    -0.084 NA
ATOM     20  C   UNL     1      12.142 -52.604 -23.884  1.00  0.00     0.018 A 
ATOM     21  C   UNL     1      11.015 -52.414 -21.778  1.00  0.00     0.170 A 
ATOM     22  O   UNL     1      10.292 -53.165 -20.906  1.00  0.00    -0.356 OA
ATOM     23  C   UNL     1      12.486 -51.245 -23.768  1.00  0.00     0.047 A 
ATOM     24  C   UNL     1      11.338 -51.069 -21.633  1.00  0.00     0.097 A 
ATOM     25  C   UNL     1      12.091 -50.488 -22.660  1.00  0.00     0.122 A 
BRANCH  25  26
ATOM     26  O   UNL     1      12.370 -49.162 -22.458  1.00  0.00    -0.497 OA
ATOM     27  C   UNL     1      12.214 -48.286 -23.570  1.00  0.00     0.278 C 
ENDBRANCH  25  26
ENDBRANCH  16  17
ENDBRANCH   1  16
TORSDOF 6
ENDMDL
MODEL 5
REMARK VINA RESULT:   -10.846      3.520      7.830
REMARK INTER + INTRA:         -15.200
REMARK INTER:                 -14.767
REMARK INTRA:                  -0.433
REMARK UNBOUND:                -0.551
REMARK SMILES COc1ccc2c(CC[C@H]3CC[N@H+](Cc4ccccc4)CC3)noc2c1
REMARK SMILES IDX 9 1 10 2 12 3 13 4 11 5 21 6 22 7 14 9 15 10 16 11 20 12
REMARK SMILES IDX 17 13 19 14 18 15 8 16 7 17 6 18 23 19 5 20 25 21 24 22 4 23
REMARK SMILES IDX 26 24 3 25 2 26 1 27
REMARK H PARENT 13 8
ROOT
ATOM      1  C   UNL     1       9.424 -61.640 -21.988  1.00  0.00     0.010 C 
ENDROOT
BRANCH   1   2
ATOM      2  C   UNL     1       9.558 -60.113 -21.741  1.00  0.00     0.000 C 
ATOM      3  C   UNL     1       9.409 -57.907 -23.100  1.00  0.00     0.262 C 
ATOM      4  N   UNL     1      10.905 -57.931 -23.041  1.00  0.00    -0.331 N 
ATOM      5  C   UNL     1       8.883 -59.314 -22.881  1.00  0.00     0.065 C 
ATOM      6  C   UNL     1      11.352 -58.255 -21.648  1.00  0.00     0.262 C 
ATOM      7  C   UNL     1      10.995 -59.703 -21.355  1.00  0.00     0.065 C 
ATOM      8  H   UNL     1      11.215 -58.714 -23.647  1.00  0.00     0.348 HD
BRANCH   4   9
ATOM      9  C   UNL     1      11.566 -56.710 -23.635  1.00  0.00     0.299 C 
BRANCH   9  10
ATOM     10  C   UNL     1      11.220 -55.401 -22.979  1.00  0.00     0.006 A 
ATOM     11  C   UNL     1      10.942 -55.342 -21.603  1.00  0.00     0.009 A 
ATOM     12  C   UNL     1      11.179 -54.213 -23.726  1.00  0.00     0.009 A 
ATOM     13  C   UNL     1      10.643 -54.122 -20.992  1.00  0.00     0.001 A 
ATOM     14  C   UNL     1      10.881 -52.996 -23.111  1.00  0.00     0.001 A 
ATOM     15  C   UNL     1      10.616 -52.952 -21.745  1.00  0.00     0.000 A 
ENDBRANCH   9  10
ENDBRANCH   4   9
ENDBRANCH   1   2
BRANCH   1  16
ATOM     16  C   UNL     1      10.337 -62.295 -23.046  1.00  0.00     0.061 C 
BRANCH  16  17
ATOM     17  C   UNL     1       9.956 -62.053 -24.471  1.00  0.00     0.091 A 
ATOM     18  C   UNL     1      10.607 -61.229 -25.426  1.00  0.00     0.045 A 
ATOM     19  N   UNL     1       8.877 -62.660 -25.001  1.00  0.00    -0.084 NA
ATOM     20  C   UNL     1      11.730 -60.389 -25.473  1.00  0.00     0.018 A 
ATOM     21  C   UNL     1       9.844 -61.378 -26.569  1.00  0.00     0.170 A 
ATOM     22  O   UNL     1       8.815 -62.230 -26.317  1.00  0.00    -0.356 OA
ATOM     23  C   UNL     1      12.029 -59.734 -26.682  1.00  0.00     0.047 A 
ATOM     24  C   UNL     1      10.111 -60.748 -27.779  1.00  0.00     0.097 A 
ATOM     25  C   UNL     1      11.233 -59.910 -27.818  1.00  0.00     0.122 A 
BRANCH  25  26
ATOM     26  O   UNL     1      11.441 -59.324 -29.039  1.00  0.00    -0.497 OA
ATOM     27  C   UNL     1      12.054 -58.038 -29.048  1.00  0.00     0.278 C 
ENDBRANCH  25  26
ENDBRANCH  16  17
ENDBRANCH   1  16
TORSDOF 6
ENDMDL
MODEL 6
REMARK VINA RESULT:   -10.628      3.512      8.815
REMARK INTER + INTRA:         -14.907
REMARK INTER:                 -14.025
REMARK INTRA:                  -0.882
REMARK UNBOUND:                -0.551
REMARK SMILES COc1ccc2c(CC[C@H]3CC[N@H+](Cc4ccccc4)CC3)noc2c1
REMARK SMILES IDX 9 1 10 2 12 3 13 4 11 5 21 6 22 7 14 9 15 10 16 11 20 12
REMARK SMILES IDX 17 13 19 14 18 15 8 16 7 17 6 18 23 19 5 20 25 21 24 22 4 23
REMARK SMILES IDX 26 24 3 25 2 26 1 27
REMARK H PARENT 13 8
ROOT
ATOM      1  C   UNL     1      11.258 -59.868 -22.278  1.00  0.00     0.010 C 
ENDROOT
BRANCH   1   2
ATOM      2  C   UNL     1      10.544 -58.531 -21.936  1.00  0.00     0.000 C 
ATOM      3  C   UNL     1       9.071 -56.757 -23.129  1.00  0.00     0.262 C 
ATOM      4  N   UNL     1      10.326 -55.942 -23.168  1.00  0.00    -0.331 N 
ATOM      5  C   UNL     1       9.438 -58.223 -22.973  1.00  0.00     0.065 C 
ATOM      6  C   UNL     1      11.003 -55.991 -21.832  1.00  0.00     0.262 C 
ATOM      7  C   UNL     1      11.539 -57.396 -21.617  1.00  0.00     0.065 C 
ATOM      8  H   UNL     1      10.962 -56.406 -23.845  1.00  0.00     0.348 HD
BRANCH   4   9
ATOM      9  C   UNL     1      10.141 -54.549 -23.718  1.00  0.00     0.299 C 
BRANCH   9  10
ATOM     10  C   UNL     1      11.394 -53.871 -24.204  1.00  0.00     0.006 A 
ATOM     11  C   UNL     1      12.136 -54.416 -25.264  1.00  0.00     0.009 A 
ATOM     12  C   UNL     1      11.838 -52.678 -23.613  1.00  0.00     0.009 A 
ATOM     13  C   UNL     1      13.286 -53.774 -25.729  1.00  0.00     0.001 A 
ATOM     14  C   UNL     1      12.987 -52.038 -24.081  1.00  0.00     0.001 A 
ATOM     15  C   UNL     1      13.708 -52.586 -25.139  1.00  0.00     0.000 A 
ENDBRANCH   9  10
ENDBRANCH   4   9
ENDBRANCH   1   2
BRANCH   1  16
ATOM     16  C   UNL     1      12.219 -59.896 -23.485  1.00  0.00     0.061 C 
BRANCH  16  17
ATOM     17  C   UNL     1      11.582 -60.138 -24.816  1.00  0.00     0.091 A 
ATOM     18  C   UNL     1      10.542 -61.048 -25.138  1.00  0.00     0.045 A 
ATOM     19  N   UNL     1      11.978 -59.443 -25.899  1.00  0.00    -0.084 NA
ATOM     20  C   UNL     1       9.752 -61.996 -24.469  1.00  0.00     0.018 A 
ATOM     21  C   UNL     1      10.339 -60.856 -26.492  1.00  0.00     0.170 A 
ATOM     22  O   UNL     1      11.193 -59.900 -26.945  1.00  0.00    -0.356 OA
ATOM     23  C   UNL     1       8.790 -62.710 -25.206  1.00  0.00     0.047 A 
ATOM     24  C   UNL     1       9.398 -61.542 -27.250  1.00  0.00     0.097 A 
ATOM     25  C   UNL     1       8.614 -62.487 -26.576  1.00  0.00     0.122 A 
BRANCH  25  26
ATOM     26  O   UNL     1       7.705 -63.124 -27.379  1.00  0.00    -0.497 OA
ATOM     27  C   UNL     1       8.189 -63.681 -28.597  1.00  0.00     0.278 C 
ENDBRANCH  25  26
ENDBRANCH  16  17
ENDBRANCH   1  16
TORSDOF 6
ENDMDL
MODEL 7
REMARK VINA RESULT:   -10.574      3.500      9.831
REMARK INTER + INTRA:         -14.834
REMARK INTER:                 -14.269
REMARK INTRA:                  -0.565
REMARK UNBOUND:                -0.551
REMARK SMILES COc1ccc2c(CC[C@H]3CC[N@H+](Cc4ccccc4)CC3)noc2c1
REMARK SMILES IDX 9 1 10 2 12 3 13 4 11 5 21 6 22 7 14 9 15 10 16 11 20 12
REMARK SMILES IDX 17 13 19 14 18 15 8 16 7 17 6 18 23 19 5 20 25 21 24 22 4 23
REMARK SMILES IDX 26 24 3 25 2 26 1 27
REMARK H PARENT 13 8
ROOT
ATOM      1  C   UNL     1      11.357 -57.361 -22.959  1.00  0.00     0.010 C 
ENDROOT
BRANCH   1   2
ATOM      2  C   UNL     1      10.531 -56.158 -22.430  1.00  0.00     0.000 C 
ATOM      3  C   UNL     1       9.974 -53.723 -23.139  1.00  0.00     0.262 C 
ATOM      4  N   UNL     1      10.983 -53.337 -22.103  1.00  0.00    -0.331 N 
ATOM      5  C   UNL     1      10.233 -55.156 -23.571  1.00  0.00     0.065 C 
ATOM      6  C   UNL     1      10.750 -54.125 -20.850  1.00  0.00     0.262 C 
ATOM      7  C   UNL     1      11.108 -55.576 -21.122  1.00  0.00     0.065 C 
ATOM      8  H   UNL     1      11.912 -53.623 -22.469  1.00  0.00     0.348 HD
BRANCH   4   9
ATOM      9  C   UNL     1      11.106 -51.849 -21.884  1.00  0.00     0.299 C 
BRANCH   9  10
ATOM     10  C   UNL     1      11.837 -51.093 -22.961  1.00  0.00     0.006 A 
ATOM     11  C   UNL     1      11.840 -49.688 -22.972  1.00  0.00     0.009 A 
ATOM     12  C   UNL     1      12.536 -51.776 -23.968  1.00  0.00     0.009 A 
ATOM     13  C   UNL     1      12.538 -48.988 -23.958  1.00  0.00     0.001 A 
ATOM     14  C   UNL     1      13.233 -51.073 -24.952  1.00  0.00     0.001 A 
ATOM     15  C   UNL     1      13.235 -49.680 -24.945  1.00  0.00     0.000 A 
ENDBRANCH   9  10
ENDBRANCH   4   9
ENDBRANCH   1   2
BRANCH   1  16
ATOM     16  C   UNL     1      11.402 -58.649 -22.110  1.00  0.00     0.061 C 
BRANCH  16  17
ATOM     17  C   UNL     1      10.964 -59.899 -22.803  1.00  0.00     0.091 A 
ATOM     18  C   UNL     1       9.641 -60.314 -23.109  1.00  0.00     0.045 A 
ATOM     19  N   UNL     1      11.871 -60.796 -23.234  1.00  0.00    -0.084 NA
ATOM     20  C   UNL     1       8.336 -59.828 -22.932  1.00  0.00     0.018 A 
ATOM     21  C   UNL     1       9.813 -61.526 -23.752  1.00  0.00     0.170 A 
ATOM     22  O   UNL     1      11.140 -61.813 -23.827  1.00  0.00    -0.356 OA
ATOM     23  C   UNL     1       7.261 -60.596 -23.414  1.00  0.00     0.047 A 
ATOM     24  C   UNL     1       8.775 -62.310 -24.241  1.00  0.00     0.097 A 
ATOM     25  C   UNL     1       7.476 -61.819 -24.059  1.00  0.00     0.122 A 
BRANCH  25  26
ATOM     26  O   UNL     1       6.501 -62.636 -24.567  1.00  0.00    -0.497 OA
ATOM     27  C   UNL     1       6.926 -63.769 -25.319  1.00  0.00     0.278 C 
ENDBRANCH  25  26
ENDBRANCH  16  17
ENDBRANCH   1  16
TORSDOF 6
ENDMDL
MODEL 8
REMARK VINA RESULT:   -10.478      3.380     10.071
REMARK INTER + INTRA:         -14.704
REMARK INTER:                 -14.471
REMARK INTRA:                  -0.232
REMARK UNBOUND:                -0.551
REMARK SMILES COc1ccc2c(CC[C@H]3CC[N@H+](Cc4ccccc4)CC3)noc2c1
REMARK SMILES IDX 9 1 10 2 12 3 13 4 11 5 21 6 22 7 14 9 15 10 16 11 20 12
REMARK SMILES IDX 17 13 19 14 18 15 8 16 7 17 6 18 23 19 5 20 25 21 24 22 4 23
REMARK SMILES IDX 26 24 3 25 2 26 1 27
REMARK H PARENT 13 8
ROOT
ATOM      1  C   UNL     1      10.028 -55.694 -22.771  1.00  0.00     0.010 C 
ENDROOT
BRANCH   1   2
ATOM      2  C   UNL     1      10.212 -54.233 -23.265  1.00  0.00     0.000 C 
ATOM      3  C   UNL     1      12.118 -52.710 -24.153  1.00  0.00     0.262 C 
ATOM      4  N   UNL     1      12.100 -52.120 -22.778  1.00  0.00    -0.331 N 
ATOM      5  C   UNL     1      11.506 -54.100 -24.103  1.00  0.00     0.065 C 
ATOM      6  C   UNL     1      10.686 -51.861 -22.356  1.00  0.00     0.262 C 
ATOM      7  C   UNL     1       9.997 -53.198 -22.140  1.00  0.00     0.065 C 
ATOM      8  H   UNL     1      12.478 -52.844 -22.137  1.00  0.00     0.348 HD
BRANCH   4   9
ATOM      9  C   UNL     1      13.024 -50.940 -22.601  1.00  0.00     0.299 C 
BRANCH   9  10
ATOM     10  C   UNL     1      12.557 -49.650 -23.220  1.00  0.00     0.006 A 
ATOM     11  C   UNL     1      13.208 -49.119 -24.345  1.00  0.00     0.009 A 
ATOM     12  C   UNL     1      11.455 -48.959 -22.691  1.00  0.00     0.009 A 
ATOM     13  C   UNL     1      12.759 -47.935 -24.932  1.00  0.00     0.001 A 
ATOM     14  C   UNL     1      11.009 -47.776 -23.281  1.00  0.00     0.001 A 
ATOM     15  C   UNL     1      11.659 -47.267 -24.402  1.00  0.00     0.000 A 
ENDBRANCH   9  10
ENDBRANCH   4   9
ENDBRANCH   1   2
BRANCH   1  16
ATOM     16  C   UNL     1      11.287 -56.502 -22.390  1.00  0.00     0.061 C 
BRANCH  16  17
ATOM     17  C   UNL     1      11.463 -57.803 -23.105  1.00  0.00     0.091 A 
ATOM     18  C   UNL     1      10.976 -59.083 -22.729  1.00  0.00     0.045 A 
ATOM     19  N   UNL     1      12.148 -57.860 -24.262  1.00  0.00    -0.084 NA
ATOM     20  C   UNL     1      10.226 -59.638 -21.681  1.00  0.00     0.018 A 
ATOM     21  C   UNL     1      11.418 -59.917 -23.740  1.00  0.00     0.170 A 
ATOM     22  O   UNL     1      12.114 -59.189 -24.653  1.00  0.00    -0.356 OA
ATOM     23  C   UNL     1       9.958 -61.019 -21.705  1.00  0.00     0.047 A 
ATOM     24  C   UNL     1      11.171 -61.284 -23.795  1.00  0.00     0.097 A 
ATOM     25  C   UNL     1      10.423 -61.831 -22.745  1.00  0.00     0.122 A 
BRANCH  25  26
ATOM     26  O   UNL     1      10.212 -63.179 -22.861  1.00  0.00    -0.497 OA
ATOM     27  C   UNL     1       8.864 -63.635 -22.810  1.00  0.00     0.278 C 
ENDBRANCH  25  26
ENDBRANCH  16  17
ENDBRANCH   1  16
TORSDOF 6
ENDMDL
MODEL 9
REMARK VINA RESULT:   -10.116      3.593      8.377
REMARK INTER + INTRA:         -14.215
REMARK INTER:                 -14.204
REMARK INTRA:                  -0.011
REMARK UNBOUND:                -0.551
REMARK SMILES COc1ccc2c(CC[C@H]3CC[N@H+](Cc4ccccc4)CC3)noc2c1
REMARK SMILES IDX 9 1 10 2 12 3 13 4 11 5 21 6 22 7 14 9 15 10 16 11 20 12
REMARK SMILES IDX 17 13 19 14 18 15 8 16 7 17 6 18 23 19 5 20 25 21 24 22 4 23
REMARK SMILES IDX 26 24 3 25 2 26 1 27
REMARK H PARENT 13 8
ROOT
ATOM      1  C   UNL     1       9.897 -60.091 -21.611  1.00  0.00     0.010 C 
ENDROOT
BRANCH   1   2
ATOM      2  C   UNL     1      10.301 -58.855 -22.460  1.00  0.00     0.000 C 
ATOM      3  C   UNL     1      11.360 -56.513 -22.095  1.00  0.00     0.262 C 
ATOM      4  N   UNL     1       9.959 -56.009 -22.240  1.00  0.00    -0.331 N 
ATOM      5  C   UNL     1      11.320 -57.977 -21.694  1.00  0.00     0.065 C 
ATOM      6  C   UNL     1       9.300 -56.671 -23.411  1.00  0.00     0.262 C 
ATOM      7  C   UNL     1       9.081 -58.136 -23.073  1.00  0.00     0.065 C 
ATOM      8  H   UNL     1       9.442 -56.314 -21.392  1.00  0.00     0.348 HD
BRANCH   4   9
ATOM      9  C   UNL     1       9.840 -54.504 -22.232  1.00  0.00     0.299 C 
BRANCH   9  10
ATOM     10  C   UNL     1      10.891 -53.766 -23.017  1.00  0.00     0.006 A 
ATOM     11  C   UNL     1      11.419 -54.314 -24.197  1.00  0.00     0.009 A 
ATOM     12  C   UNL     1      11.356 -52.512 -22.590  1.00  0.00     0.009 A 
ATOM     13  C   UNL     1      12.377 -53.618 -24.936  1.00  0.00     0.001 A 
ATOM     14  C   UNL     1      12.313 -51.819 -23.332  1.00  0.00     0.001 A 
ATOM     15  C   UNL     1      12.821 -52.371 -24.505  1.00  0.00     0.000 A 
ENDBRANCH   9  10
ENDBRANCH   4   9
ENDBRANCH   1   2
BRANCH   1  16
ATOM     16  C   UNL     1      10.191 -61.496 -22.178  1.00  0.00     0.061 C 
BRANCH  16  17
ATOM     17  C   UNL     1       9.725 -61.742 -23.577  1.00  0.00     0.091 A 
ATOM     18  C   UNL     1      10.241 -61.196 -24.782  1.00  0.00     0.045 A 
ATOM     19  N   UNL     1       8.698 -62.578 -23.818  1.00  0.00    -0.084 NA
ATOM     20  C   UNL     1      11.263 -60.313 -25.163  1.00  0.00     0.018 A 
ATOM     21  C   UNL     1       9.451 -61.759 -25.767  1.00  0.00     0.170 A 
ATOM     22  O   UNL     1       8.533 -62.582 -25.194  1.00  0.00    -0.356 OA
ATOM     23  C   UNL     1      11.437 -60.038 -26.532  1.00  0.00     0.047 A 
ATOM     24  C   UNL     1       9.597 -61.511 -27.127  1.00  0.00     0.097 A 
ATOM     25  C   UNL     1      10.617 -60.628 -27.500  1.00  0.00     0.122 A 
BRANCH  25  26
ATOM     26  O   UNL     1      10.709 -60.430 -28.852  1.00  0.00    -0.497 OA
ATOM     27  C   UNL     1      11.846 -59.718 -29.331  1.00  0.00     0.278 C 
ENDBRANCH  25  26
ENDBRANCH  16  17
ENDBRANCH   1  16
TORSDOF 6
ENDMDL
