MODEL 1
REMARK VINA RESULT:   -12.620      0.000      0.000
REMARK INTER + INTRA:         -18.753
REMARK INTER:                 -17.784
REMARK INTRA:                  -0.969
REMARK UNBOUND:                -0.969
REMARK SMILES Cc1cc(=O)[nH]c2c1C(=O)C(=NCCCCN=c1c3c([nH]c4cc(Cl)ccc14)CCCC3)CC2=O
REMARK SMILES IDX 15 1 16 2 17 3 18 4 21 5 20 6 22 7 19 8 29 9 23 10 28 11
REMARK SMILES IDX 32 12 30 13 24 14 27 15 31 16 26 17 25 19 14 20 13 21 12 22
REMARK SMILES IDX 11 23 33 24 9 25 34 26 8 27 7 28 2 29 6 30 3 31 4 32 10 33
REMARK SMILES IDX 35 34 1 35 5 37
REMARK H PARENT 21 18 6 36
ROOT
ATOM      1  C   UNL     1      10.580 -59.073 -22.200  1.00  0.00     0.025 C 
ENDROOT
BRANCH   1   2
ATOM      2  C   UNL     1      11.984 -59.311 -22.753  1.00  0.00     0.143 C 
BRANCH   2   3
ATOM      3  N   UNL     1      12.029 -60.562 -23.473  1.00  0.00    -0.284 NA
BRANCH   3   4
ATOM      4  C   UNL     1      11.157 -61.096 -24.245  1.00  0.00     0.072 A 
ATOM      5  N   UNL     1       9.144 -61.709 -26.160  1.00  0.00    -0.358 N 
ATOM      6  C   UNL     1       9.068 -62.246 -24.893  1.00  0.00     0.021 A 
ATOM      7  C   UNL     1      10.305 -61.077 -26.612  1.00  0.00     0.049 A 
ATOM      8  C   UNL     1       9.987 -62.014 -23.925  1.00  0.00    -0.003 A 
ATOM      9  C   UNL     1       7.869 -63.152 -24.668  1.00  0.00     0.054 C 
ATOM     10  C   UNL     1      10.431 -60.699 -27.954  1.00  0.00     0.047 A 
ATOM     11  C   UNL     1      11.322 -60.751 -25.706  1.00  0.00     0.024 A 
ATOM     12  C   UNL     1       9.904 -62.705 -22.590  1.00  0.00     0.039 C 
ATOM     13  C   UNL     1       7.649 -63.574 -23.219  1.00  0.00     0.007 C 
ATOM     14  C   UNL     1      11.577 -60.036 -28.392  1.00  0.00     0.043 A 
ATOM     15  C   UNL     1      12.472 -60.081 -26.157  1.00  0.00     0.014 A 
ATOM     16  C   UNL     1       8.976 -63.921 -22.567  1.00  0.00     0.005 C 
ATOM     17  C   UNL     1      12.601 -59.729 -27.501  1.00  0.00     0.021 A 
ATOM     18  H   UNL     1       8.518 -62.090 -26.862  1.00  0.00     0.166 HD
ATOM     19  Cl  UNL     1      11.725 -59.591 -30.049  1.00  0.00    -0.084 Cl
ENDBRANCH   3   4
ENDBRANCH   2   3
ENDBRANCH   1   2
BRANCH   1  20
ATOM     20  C   UNL     1       9.623 -58.521 -23.264  1.00  0.00     0.025 C 
BRANCH  20  21
ATOM     21  C   UNL     1       8.799 -57.340 -22.750  1.00  0.00     0.142 C 
BRANCH  21  22
ATOM     22  N   UNL     1       9.162 -56.139 -23.495  1.00  0.00    -0.285 NA
BRANCH  22  23
ATOM     23  C   UNL     1      10.095 -55.373 -23.044  1.00  0.00     0.091 C 
ATOM     24  C   UNL     1      10.072 -54.540 -21.803  1.00  0.00     0.142 C 
ATOM     25  C   UNL     1      11.381 -55.275 -23.835  1.00  0.00     0.209 C 
ATOM     26  C   UNL     1      10.679 -53.182 -22.005  1.00  0.00     0.185 C 
ATOM     27  C   UNL     1      11.883 -53.897 -24.081  1.00  0.00     0.054 A 
ATOM     28  C   UNL     1      11.535 -52.934 -23.208  1.00  0.00     0.097 A 
ATOM     29  C   UNL     1      12.756 -53.558 -25.211  1.00  0.00    -0.032 A 
ATOM     30  N   UNL     1      11.993 -51.645 -23.370  1.00  0.00    -0.319 N 
ATOM     31  C   UNL     1      13.192 -52.292 -25.358  1.00  0.00     0.075 A 
ATOM     32  C   UNL     1      12.809 -51.237 -24.388  1.00  0.00     0.248 A 
ATOM     33  O   UNL     1      11.949 -56.290 -24.202  1.00  0.00    -0.287 OA
ATOM     34  O   UNL     1      10.506 -52.273 -21.192  1.00  0.00    -0.292 OA
ATOM     35  C   UNL     1      13.137 -54.614 -26.210  1.00  0.00     0.045 C 
ATOM     36  H   UNL     1      11.726 -50.945 -22.681  1.00  0.00     0.170 HD
ATOM     37  O   UNL     1      13.206 -50.086 -24.511  1.00  0.00    -0.270 OA
ENDBRANCH  22  23
ENDBRANCH  21  22
ENDBRANCH  20  21
ENDBRANCH   1  20
TORSDOF 7
ENDMDL
MODEL 2
REMARK VINA RESULT:   -12.174      1.233      2.294
REMARK INTER + INTRA:         -18.125
REMARK INTER:                 -17.398
REMARK INTRA:                  -0.727
REMARK UNBOUND:                -0.969
REMARK SMILES Cc1cc(=O)[nH]c2c1C(=O)C(=NCCCCN=c1c3c([nH]c4cc(Cl)ccc14)CCCC3)CC2=O
REMARK SMILES IDX 15 1 16 2 17 3 18 4 21 5 20 6 22 7 19 8 29 9 23 10 28 11
REMARK SMILES IDX 32 12 30 13 24 14 27 15 31 16 26 17 25 19 14 20 13 21 12 22
REMARK SMILES IDX 11 23 33 24 9 25 34 26 8 27 7 28 2 29 6 30 3 31 4 32 10 33
REMARK SMILES IDX 35 34 1 35 5 37
REMARK H PARENT 21 18 6 36
ROOT
ATOM      1  C   UNL     1      10.705 -59.048 -22.256  1.00  0.00     0.025 C 
ENDROOT
BRANCH   1   2
ATOM      2  C   UNL     1      12.122 -59.434 -22.677  1.00  0.00     0.143 C 
BRANCH   2   3
ATOM      3  N   UNL     1      12.098 -60.658 -23.443  1.00  0.00    -0.284 NA
BRANCH   3   4
ATOM      4  C   UNL     1      11.188 -61.124 -24.216  1.00  0.00     0.072 A 
ATOM      5  N   UNL     1       9.118 -61.574 -26.115  1.00  0.00    -0.358 N 
ATOM      6  C   UNL     1       9.036 -62.150 -24.865  1.00  0.00     0.021 A 
ATOM      7  C   UNL     1      10.301 -60.983 -26.565  1.00  0.00     0.049 A 
ATOM      8  C   UNL     1       9.981 -61.995 -23.906  1.00  0.00    -0.003 A 
ATOM      9  C   UNL     1       7.799 -63.004 -24.649  1.00  0.00     0.054 C 
ATOM     10  C   UNL     1      10.423 -60.567 -27.897  1.00  0.00     0.047 A 
ATOM     11  C   UNL     1      11.346 -60.738 -25.668  1.00  0.00     0.024 A 
ATOM     12  C   UNL     1       9.886 -62.725 -22.593  1.00  0.00     0.039 C 
ATOM     13  C   UNL     1       7.582 -63.464 -23.211  1.00  0.00     0.007 C 
ATOM     14  C   UNL     1      11.593 -59.945 -28.333  1.00  0.00     0.043 A 
ATOM     15  C   UNL     1      12.520 -60.108 -26.116  1.00  0.00     0.014 A 
ATOM     16  C   UNL     1       8.900 -63.895 -22.594  1.00  0.00     0.005 C 
ATOM     17  C   UNL     1      12.644 -59.717 -27.450  1.00  0.00     0.021 A 
ATOM     18  H   UNL     1       8.463 -61.901 -26.817  1.00  0.00     0.166 HD
ATOM     19  Cl  UNL     1      11.735 -59.452 -29.976  1.00  0.00    -0.084 Cl
ENDBRANCH   3   4
ENDBRANCH   2   3
ENDBRANCH   1   2
BRANCH   1  20
ATOM     20  C   UNL     1      10.249 -57.729 -22.892  1.00  0.00     0.025 C 
BRANCH  20  21
ATOM     21  C   UNL     1      11.355 -56.674 -22.899  1.00  0.00     0.142 C 
BRANCH  21  22
ATOM     22  N   UNL     1      11.807 -56.458 -24.270  1.00  0.00    -0.285 NA
BRANCH  22  23
ATOM     23  C   UNL     1      11.897 -55.255 -24.725  1.00  0.00     0.091 C 
ATOM     24  C   UNL     1      12.788 -54.756 -25.816  1.00  0.00     0.142 C 
ATOM     25  C   UNL     1      11.016 -54.193 -24.106  1.00  0.00     0.209 C 
ATOM     26  C   UNL     1      13.401 -53.422 -25.499  1.00  0.00     0.185 C 
ATOM     27  C   UNL     1      11.700 -52.927 -23.730  1.00  0.00     0.054 A 
ATOM     28  C   UNL     1      12.818 -52.592 -24.399  1.00  0.00     0.097 A 
ATOM     29  C   UNL     1      11.191 -52.026 -22.689  1.00  0.00    -0.032 A 
ATOM     30  N   UNL     1      13.478 -51.418 -24.112  1.00  0.00    -0.319 N 
ATOM     31  C   UNL     1      11.850 -50.883 -22.418  1.00  0.00     0.075 A 
ATOM     32  C   UNL     1      13.080 -50.518 -23.162  1.00  0.00     0.248 A 
ATOM     33  O   UNL     1       9.820 -54.395 -23.971  1.00  0.00    -0.287 OA
ATOM     34  O   UNL     1      14.358 -52.986 -26.140  1.00  0.00    -0.292 OA
ATOM     35  C   UNL     1       9.955 -52.393 -21.915  1.00  0.00     0.045 C 
ATOM     36  H   UNL     1      14.311 -51.186 -24.649  1.00  0.00     0.170 HD
ATOM     37  O   UNL     1      13.681 -49.480 -22.927  1.00  0.00    -0.270 OA
ENDBRANCH  22  23
ENDBRANCH  21  22
ENDBRANCH  20  21
ENDBRANCH   1  20
TORSDOF 7
ENDMDL
MODEL 3
REMARK VINA RESULT:   -11.502      1.960      2.848
REMARK INTER + INTRA:         -17.178
REMARK INTER:                 -16.500
REMARK INTRA:                  -0.678
REMARK UNBOUND:                -0.969
REMARK SMILES Cc1cc(=O)[nH]c2c1C(=O)C(=NCCCCN=c1c3c([nH]c4cc(Cl)ccc14)CCCC3)CC2=O
REMARK SMILES IDX 15 1 16 2 17 3 18 4 21 5 20 6 22 7 19 8 29 9 23 10 28 11
REMARK SMILES IDX 32 12 30 13 24 14 27 15 31 16 26 17 25 19 14 20 13 21 12 22
REMARK SMILES IDX 11 23 33 24 9 25 34 26 8 27 7 28 2 29 6 30 3 31 4 32 10 33
REMARK SMILES IDX 35 34 1 35 5 37
REMARK H PARENT 21 18 6 36
ROOT
ATOM      1  C   UNL     1      10.344 -57.011 -23.176  1.00  0.00     0.025 C 
ENDROOT
BRANCH   1   2
ATOM      2  C   UNL     1      10.958 -58.236 -22.500  1.00  0.00     0.143 C 
BRANCH   2   3
ATOM      3  N   UNL     1      11.506 -59.129 -23.494  1.00  0.00    -0.284 NA
BRANCH   3   4
ATOM      4  C   UNL     1      10.935 -60.058 -24.167  1.00  0.00     0.072 A 
ATOM      5  N   UNL     1       9.446 -61.652 -25.994  1.00  0.00    -0.358 N 
ATOM      6  C   UNL     1       9.380 -61.918 -24.643  1.00  0.00     0.021 A 
ATOM      7  C   UNL     1      10.412 -60.788 -26.516  1.00  0.00     0.049 A 
ATOM      8  C   UNL     1      10.062 -61.216 -23.707  1.00  0.00    -0.003 A 
ATOM      9  C   UNL     1       8.488 -63.093 -24.280  1.00  0.00     0.054 C 
ATOM     10  C   UNL     1      10.582 -60.669 -27.901  1.00  0.00     0.047 A 
ATOM     11  C   UNL     1      11.166 -59.980 -25.658  1.00  0.00     0.024 A 
ATOM     12  C   UNL     1      10.026 -61.612 -22.255  1.00  0.00     0.039 C 
ATOM     13  C   UNL     1       8.229 -63.261 -22.786  1.00  0.00     0.007 C 
ATOM     14  C   UNL     1      11.523 -59.779 -28.419  1.00  0.00     0.043 A 
ATOM     15  C   UNL     1      12.110 -59.084 -26.189  1.00  0.00     0.014 A 
ATOM     16  C   UNL     1       9.508 -63.029 -22.002  1.00  0.00     0.005 C 
ATOM     17  C   UNL     1      12.291 -58.989 -27.569  1.00  0.00     0.021 A 
ATOM     18  H   UNL     1       9.054 -62.346 -26.621  1.00  0.00     0.166 HD
ATOM     19  Cl  UNL     1      11.732 -59.655 -30.123  1.00  0.00    -0.084 Cl
ENDBRANCH   3   4
ENDBRANCH   2   3
ENDBRANCH   1   2
BRANCH   1  20
ATOM     20  C   UNL     1      10.885 -55.697 -22.599  1.00  0.00     0.025 C 
BRANCH  20  21
ATOM     21  C   UNL     1      10.307 -54.469 -23.302  1.00  0.00     0.142 C 
BRANCH  21  22
ATOM     22  N   UNL     1      11.364 -53.483 -23.498  1.00  0.00    -0.285 NA
BRANCH  22  23
ATOM     23  C   UNL     1      11.323 -52.373 -22.844  1.00  0.00     0.091 C 
ATOM     24  C   UNL     1      10.274 -51.919 -21.882  1.00  0.00     0.142 C 
ATOM     25  C   UNL     1      12.451 -51.385 -23.047  1.00  0.00     0.209 C 
ATOM     26  C   UNL     1       9.925 -50.468 -22.048  1.00  0.00     0.185 C 
ATOM     27  C   UNL     1      12.037 -49.979 -23.298  1.00  0.00     0.054 A 
ATOM     28  C   UNL     1      10.846 -49.577 -22.820  1.00  0.00     0.097 A 
ATOM     29  C   UNL     1      12.883 -49.017 -24.014  1.00  0.00    -0.032 A 
ATOM     30  N   UNL     1      10.424 -48.278 -22.998  1.00  0.00    -0.319 N 
ATOM     31  C   UNL     1      12.455 -47.751 -24.184  1.00  0.00     0.075 A 
ATOM     32  C   UNL     1      11.141 -47.314 -23.650  1.00  0.00     0.248 A 
ATOM     33  O   UNL     1      13.610 -51.759 -22.972  1.00  0.00    -0.287 OA
ATOM     34  O   UNL     1       8.908 -49.990 -21.543  1.00  0.00    -0.292 OA
ATOM     35  C   UNL     1      14.208 -49.452 -24.576  1.00  0.00     0.045 C 
ATOM     36  H   UNL     1       9.525 -48.002 -22.608  1.00  0.00     0.170 HD
ATOM     37  O   UNL     1      10.747 -46.165 -23.794  1.00  0.00    -0.270 OA
ENDBRANCH  22  23
ENDBRANCH  21  22
ENDBRANCH  20  21
ENDBRANCH   1  20
TORSDOF 7
ENDMDL
MODEL 4
REMARK VINA RESULT:   -11.182      4.216     10.708
REMARK INTER + INTRA:         -16.727
REMARK INTER:                 -16.262
REMARK INTRA:                  -0.465
REMARK UNBOUND:                -0.969
REMARK SMILES Cc1cc(=O)[nH]c2c1C(=O)C(=NCCCCN=c1c3c([nH]c4cc(Cl)ccc14)CCCC3)CC2=O
REMARK SMILES IDX 15 1 16 2 17 3 18 4 21 5 20 6 22 7 19 8 29 9 23 10 28 11
REMARK SMILES IDX 32 12 30 13 24 14 27 15 31 16 26 17 25 19 14 20 13 21 12 22
REMARK SMILES IDX 11 23 33 24 9 25 34 26 8 27 7 28 2 29 6 30 3 31 4 32 10 33
REMARK SMILES IDX 35 34 1 35 5 37
REMARK H PARENT 21 18 6 36
ROOT
ATOM      1  C   UNL     1      10.188 -52.577 -22.002  1.00  0.00     0.025 C 
ENDROOT
BRANCH   1   2
ATOM      2  C   UNL     1      11.155 -51.468 -21.589  1.00  0.00     0.143 C 
BRANCH   2   3
ATOM      3  N   UNL     1      10.915 -50.282 -22.376  1.00  0.00    -0.284 NA
BRANCH   3   4
ATOM      4  C   UNL     1      11.693 -49.663 -23.185  1.00  0.00     0.072 A 
ATOM      5  N   UNL     1      12.895 -48.057 -25.203  1.00  0.00    -0.358 N 
ATOM      6  C   UNL     1      13.312 -49.358 -25.027  1.00  0.00     0.021 A 
ATOM      7  C   UNL     1      12.080 -47.422 -24.262  1.00  0.00     0.049 A 
ATOM      8  C   UNL     1      12.801 -50.188 -24.085  1.00  0.00    -0.003 A 
ATOM      9  C   UNL     1      14.423 -49.793 -25.968  1.00  0.00     0.054 C 
ATOM     10  C   UNL     1      11.815 -46.051 -24.363  1.00  0.00     0.047 A 
ATOM     11  C   UNL     1      11.463 -48.171 -23.253  1.00  0.00     0.024 A 
ATOM     12  C   UNL     1      13.361 -51.569 -23.876  1.00  0.00     0.039 C 
ATOM     13  C   UNL     1      14.740 -51.284 -25.938  1.00  0.00     0.007 C 
ATOM     14  C   UNL     1      10.971 -45.430 -23.442  1.00  0.00     0.043 A 
ATOM     15  C   UNL     1      10.613 -47.537 -22.332  1.00  0.00     0.014 A 
ATOM     16  C   UNL     1      14.737 -51.792 -24.507  1.00  0.00     0.005 C 
ATOM     17  C   UNL     1      10.372 -46.165 -22.423  1.00  0.00     0.021 A 
ATOM     18  H   UNL     1      13.464 -47.466 -25.799  1.00  0.00     0.166 HD
ATOM     19  Cl  UNL     1      10.667 -43.740 -23.569  1.00  0.00    -0.084 Cl
ENDBRANCH   3   4
ENDBRANCH   2   3
ENDBRANCH   1   2
BRANCH   1  20
ATOM     20  C   UNL     1      10.656 -53.960 -21.531  1.00  0.00     0.025 C 
BRANCH  20  21
ATOM     21  C   UNL     1      11.004 -54.886 -22.697  1.00  0.00     0.142 C 
BRANCH  21  22
ATOM     22  N   UNL     1      10.947 -56.272 -22.246  1.00  0.00    -0.285 NA
BRANCH  22  23
ATOM     23  C   UNL     1      10.305 -57.141 -22.949  1.00  0.00     0.091 C 
ATOM     24  C   UNL     1       8.825 -57.259 -23.124  1.00  0.00     0.142 C 
ATOM     25  C   UNL     1      11.105 -58.181 -23.700  1.00  0.00     0.209 C 
ATOM     26  C   UNL     1       8.350 -58.683 -23.087  1.00  0.00     0.185 C 
ATOM     27  C   UNL     1      10.638 -59.586 -23.549  1.00  0.00     0.054 A 
ATOM     28  C   UNL     1       9.341 -59.790 -23.259  1.00  0.00     0.097 A 
ATOM     29  C   UNL     1      11.523 -60.742 -23.732  1.00  0.00    -0.032 A 
ATOM     30  N   UNL     1       8.846 -61.070 -23.136  1.00  0.00    -0.319 N 
ATOM     31  C   UNL     1      11.025 -61.987 -23.604  1.00  0.00     0.075 A 
ATOM     32  C   UNL     1       9.592 -62.206 -23.289  1.00  0.00     0.248 A 
ATOM     33  O   UNL     1      12.048 -57.840 -24.395  1.00  0.00    -0.287 OA
ATOM     34  O   UNL     1       7.158 -58.958 -22.941  1.00  0.00    -0.292 OA
ATOM     35  C   UNL     1      12.981 -60.534 -24.035  1.00  0.00     0.045 C 
ATOM     36  H   UNL     1       7.856 -61.190 -22.934  1.00  0.00     0.170 HD
ATOM     37  O   UNL     1       9.130 -63.333 -23.177  1.00  0.00    -0.270 OA
ENDBRANCH  22  23
ENDBRANCH  21  22
ENDBRANCH  20  21
ENDBRANCH   1  20
TORSDOF 7
ENDMDL
MODEL 5
REMARK VINA RESULT:   -11.048      3.446     10.062
REMARK INTER + INTRA:         -16.538
REMARK INTER:                 -16.172
REMARK INTRA:                  -0.367
REMARK UNBOUND:                -0.969
REMARK SMILES Cc1cc(=O)[nH]c2c1C(=O)C(=NCCCCN=c1c3c([nH]c4cc(Cl)ccc14)CCCC3)CC2=O
REMARK SMILES IDX 15 1 16 2 17 3 18 4 21 5 20 6 22 7 19 8 29 9 23 10 28 11
REMARK SMILES IDX 32 12 30 13 24 14 27 15 31 16 26 17 25 19 14 20 13 21 12 22
REMARK SMILES IDX 11 23 33 24 9 25 34 26 8 27 7 28 2 29 6 30 3 31 4 32 10 33
REMARK SMILES IDX 35 34 1 35 5 37
REMARK H PARENT 21 18 6 36
ROOT
ATOM      1  C   UNL     1      11.086 -54.635 -23.104  1.00  0.00     0.025 C 
ENDROOT
BRANCH   1   2
ATOM      2  C   UNL     1      11.290 -53.213 -22.585  1.00  0.00     0.143 C 
BRANCH   2   3
ATOM      3  N   UNL     1      11.716 -52.348 -23.660  1.00  0.00    -0.284 NA
BRANCH   3   4
ATOM      4  C   UNL     1      12.501 -51.335 -23.637  1.00  0.00     0.072 A 
ATOM      5  N   UNL     1      14.639 -49.483 -23.334  1.00  0.00    -0.358 N 
ATOM      6  C   UNL     1      13.361 -49.117 -22.970  1.00  0.00     0.021 A 
ATOM      7  C   UNL     1      14.878 -50.641 -24.077  1.00  0.00     0.049 A 
ATOM      8  C   UNL     1      12.285 -49.932 -23.091  1.00  0.00    -0.003 A 
ATOM      9  C   UNL     1      13.243 -47.698 -22.440  1.00  0.00     0.054 C 
ATOM     10  C   UNL     1      16.154 -50.904 -24.591  1.00  0.00     0.047 A 
ATOM     11  C   UNL     1      13.859 -51.585 -24.250  1.00  0.00     0.024 A 
ATOM     12  C   UNL     1      10.898 -49.445 -22.768  1.00  0.00     0.039 C 
ATOM     13  C   UNL     1      11.888 -47.354 -21.830  1.00  0.00     0.007 C 
ATOM     14  C   UNL     1      16.397 -52.079 -25.301  1.00  0.00     0.043 A 
ATOM     15  C   UNL     1      14.114 -52.767 -24.966  1.00  0.00     0.014 A 
ATOM     16  C   UNL     1      10.770 -47.923 -22.684  1.00  0.00     0.005 C 
ATOM     17  C   UNL     1      15.381 -53.010 -25.496  1.00  0.00     0.021 A 
ATOM     18  H   UNL     1      15.334 -48.746 -23.383  1.00  0.00     0.166 HD
ATOM     19  Cl  UNL     1      17.966 -52.381 -25.941  1.00  0.00    -0.084 Cl
ENDBRANCH   3   4
ENDBRANCH   2   3
ENDBRANCH   1   2
BRANCH   1  20
ATOM     20  C   UNL     1      10.979 -55.659 -21.967  1.00  0.00     0.025 C 
BRANCH  20  21
ATOM     21  C   UNL     1      10.550 -57.039 -22.463  1.00  0.00     0.142 C 
BRANCH  21  22
ATOM     22  N   UNL     1       9.282 -56.923 -23.176  1.00  0.00    -0.285 NA
BRANCH  22  23
ATOM     23  C   UNL     1       8.782 -57.962 -23.752  1.00  0.00     0.091 C 
ATOM     24  C   UNL     1       7.344 -58.237 -24.050  1.00  0.00     0.142 C 
ATOM     25  C   UNL     1       9.729 -59.057 -24.190  1.00  0.00     0.209 C 
ATOM     26  C   UNL     1       6.957 -59.662 -23.775  1.00  0.00     0.185 C 
ATOM     27  C   UNL     1       9.336 -60.440 -23.808  1.00  0.00     0.054 A 
ATOM     28  C   UNL     1       8.029 -60.694 -23.617  1.00  0.00     0.097 A 
ATOM     29  C   UNL     1      10.307 -61.531 -23.661  1.00  0.00    -0.032 A 
ATOM     30  N   UNL     1       7.605 -61.962 -23.289  1.00  0.00    -0.319 N 
ATOM     31  C   UNL     1       9.877 -62.765 -23.336  1.00  0.00     0.075 A 
ATOM     32  C   UNL     1       8.433 -63.039 -23.131  1.00  0.00     0.248 A 
ATOM     33  O   UNL     1      10.724 -58.779 -24.839  1.00  0.00    -0.287 OA
ATOM     34  O   UNL     1       5.776 -60.004 -23.700  1.00  0.00    -0.292 OA
ATOM     35  C   UNL     1      11.774 -61.263 -23.848  1.00  0.00     0.045 C 
ATOM     36  H   UNL     1       6.607 -62.124 -23.170  1.00  0.00     0.170 HD
ATOM     37  O   UNL     1       8.032 -64.158 -22.842  1.00  0.00    -0.270 OA
ENDBRANCH  22  23
ENDBRANCH  21  22
ENDBRANCH  20  21
ENDBRANCH   1  20
TORSDOF 7
ENDMDL
MODEL 6
REMARK VINA RESULT:   -11.032      3.818      9.628
REMARK INTER + INTRA:         -16.516
REMARK INTER:                 -15.663
REMARK INTRA:                  -0.852
REMARK UNBOUND:                -0.969
REMARK SMILES Cc1cc(=O)[nH]c2c1C(=O)C(=NCCCCN=c1c3c([nH]c4cc(Cl)ccc14)CCCC3)CC2=O
REMARK SMILES IDX 15 1 16 2 17 3 18 4 21 5 20 6 22 7 19 8 29 9 23 10 28 11
REMARK SMILES IDX 32 12 30 13 24 14 27 15 31 16 26 17 25 19 14 20 13 21 12 22
REMARK SMILES IDX 11 23 33 24 9 25 34 26 8 27 7 28 2 29 6 30 3 31 4 32 10 33
REMARK SMILES IDX 35 34 1 35 5 37
REMARK H PARENT 21 18 6 36
ROOT
ATOM      1  C   UNL     1      12.833 -56.107 -26.177  1.00  0.00     0.025 C 
ENDROOT
BRANCH   1   2
ATOM      2  C   UNL     1      13.651 -54.851 -25.883  1.00  0.00     0.143 C 
BRANCH   2   3
ATOM      3  N   UNL     1      12.784 -53.698 -25.812  1.00  0.00    -0.284 NA
BRANCH   3   4
ATOM      4  C   UNL     1      12.507 -52.939 -24.817  1.00  0.00     0.072 A 
ATOM      5  N   UNL     1      12.497 -51.141 -22.612  1.00  0.00    -0.358 N 
ATOM      6  C   UNL     1      11.794 -52.323 -22.533  1.00  0.00     0.021 A 
ATOM      7  C   UNL     1      13.008 -50.681 -23.828  1.00  0.00     0.049 A 
ATOM      8  C   UNL     1      11.737 -53.230 -23.538  1.00  0.00    -0.003 A 
ATOM      9  C   UNL     1      11.054 -52.525 -21.221  1.00  0.00     0.054 C 
ATOM     10  C   UNL     1      13.560 -49.398 -23.926  1.00  0.00     0.047 A 
ATOM     11  C   UNL     1      13.039 -51.530 -24.941  1.00  0.00     0.024 A 
ATOM     12  C   UNL     1      10.875 -54.460 -23.431  1.00  0.00     0.039 C 
ATOM     13  C   UNL     1      10.457 -53.916 -21.031  1.00  0.00     0.007 C 
ATOM     14  C   UNL     1      14.102 -48.957 -25.133  1.00  0.00     0.043 A 
ATOM     15  C   UNL     1      13.590 -51.078 -26.152  1.00  0.00     0.014 A 
ATOM     16  C   UNL     1       9.822 -54.396 -22.323  1.00  0.00     0.005 C 
ATOM     17  C   UNL     1      14.116 -49.789 -26.249  1.00  0.00     0.021 A 
ATOM     18  H   UNL     1      12.323 -50.450 -21.890  1.00  0.00     0.166 HD
ATOM     19  Cl  UNL     1      14.762 -47.371 -25.243  1.00  0.00    -0.084 Cl
ENDBRANCH   3   4
ENDBRANCH   2   3
ENDBRANCH   1   2
BRANCH   1  20
ATOM     20  C   UNL     1      12.513 -56.255 -27.670  1.00  0.00     0.025 C 
BRANCH  20  21
ATOM     21  C   UNL     1      12.347 -57.716 -28.088  1.00  0.00     0.142 C 
BRANCH  21  22
ATOM     22  N   UNL     1      12.032 -58.521 -26.913  1.00  0.00    -0.285 NA
BRANCH  22  23
ATOM     23  C   UNL     1      11.593 -59.724 -27.069  1.00  0.00     0.091 C 
ATOM     24  C   UNL     1      11.106 -60.361 -28.330  1.00  0.00     0.142 C 
ATOM     25  C   UNL     1      11.548 -60.627 -25.857  1.00  0.00     0.209 C 
ATOM     26  C   UNL     1       9.881 -61.202 -28.118  1.00  0.00     0.185 C 
ATOM     27  C   UNL     1      10.272 -61.365 -25.651  1.00  0.00     0.054 A 
ATOM     28  C   UNL     1       9.509 -61.618 -26.729  1.00  0.00     0.097 A 
ATOM     29  C   UNL     1       9.835 -61.846 -24.335  1.00  0.00    -0.032 A 
ATOM     30  N   UNL     1       8.332 -62.321 -26.602  1.00  0.00    -0.319 N 
ATOM     31  C   UNL     1       8.679 -62.528 -24.227  1.00  0.00     0.075 A 
ATOM     32  C   UNL     1       7.845 -62.808 -25.421  1.00  0.00     0.248 A 
ATOM     33  O   UNL     1      12.528 -60.735 -25.140  1.00  0.00    -0.287 OA
ATOM     34  O   UNL     1       9.187 -61.577 -29.064  1.00  0.00    -0.292 OA
ATOM     35  C   UNL     1      10.663 -61.553 -23.115  1.00  0.00     0.045 C 
ATOM     36  H   UNL     1       7.787 -62.511 -27.441  1.00  0.00     0.170 HD
ATOM     37  O   UNL     1       6.797 -63.432 -25.333  1.00  0.00    -0.270 OA
ENDBRANCH  22  23
ENDBRANCH  21  22
ENDBRANCH  20  21
ENDBRANCH   1  20
TORSDOF 7
ENDMDL
MODEL 7
REMARK VINA RESULT:   -10.913      3.429      9.352
REMARK INTER + INTRA:         -16.348
REMARK INTER:                 -15.487
REMARK INTRA:                  -0.861
REMARK UNBOUND:                -0.969
REMARK SMILES Cc1cc(=O)[nH]c2c1C(=O)C(=NCCCCN=c1c3c([nH]c4cc(Cl)ccc14)CCCC3)CC2=O
REMARK SMILES IDX 15 1 16 2 17 3 18 4 21 5 20 6 22 7 19 8 29 9 23 10 28 11
REMARK SMILES IDX 32 12 30 13 24 14 27 15 31 16 26 17 25 19 14 20 13 21 12 22
REMARK SMILES IDX 11 23 33 24 9 25 34 26 8 27 7 28 2 29 6 30 3 31 4 32 10 33
REMARK SMILES IDX 35 34 1 35 5 37
REMARK H PARENT 21 18 6 36
ROOT
ATOM      1  C   UNL     1      12.898 -55.728 -25.865  1.00  0.00     0.025 C 
ENDROOT
BRANCH   1   2
ATOM      2  C   UNL     1      12.755 -54.343 -26.496  1.00  0.00     0.143 C 
BRANCH   2   3
ATOM      3  N   UNL     1      13.430 -53.356 -25.686  1.00  0.00    -0.284 NA
BRANCH   3   4
ATOM      4  C   UNL     1      12.943 -52.462 -24.908  1.00  0.00     0.072 A 
ATOM      5  N   UNL     1      12.446 -50.286 -23.143  1.00  0.00    -0.358 N 
ATOM      6  C   UNL     1      11.870 -51.513 -22.894  1.00  0.00     0.021 A 
ATOM      7  C   UNL     1      13.062 -50.008 -24.365  1.00  0.00     0.049 A 
ATOM      8  C   UNL     1      12.046 -52.598 -23.687  1.00  0.00    -0.003 A 
ATOM      9  C   UNL     1      10.989 -51.552 -21.657  1.00  0.00     0.054 C 
ATOM     10  C   UNL     1      13.480 -48.707 -24.670  1.00  0.00     0.047 A 
ATOM     11  C   UNL     1      13.331 -51.046 -25.265  1.00  0.00     0.024 A 
ATOM     12  C   UNL     1      11.315 -53.886 -23.420  1.00  0.00     0.039 C 
ATOM     13  C   UNL     1      10.526 -52.946 -21.246  1.00  0.00     0.007 C 
ATOM     14  C   UNL     1      14.127 -48.441 -25.876  1.00  0.00     0.043 A 
ATOM     15  C   UNL     1      13.986 -50.769 -26.477  1.00  0.00     0.014 A 
ATOM     16  C   UNL     1      10.123 -53.748 -22.470  1.00  0.00     0.005 C 
ATOM     17  C   UNL     1      14.378 -49.465 -26.784  1.00  0.00     0.021 A 
ATOM     18  H   UNL     1      12.104 -49.498 -22.604  1.00  0.00     0.166 HD
ATOM     19  Cl  UNL     1      14.621 -46.834 -26.243  1.00  0.00    -0.084 Cl
ENDBRANCH   3   4
ENDBRANCH   2   3
ENDBRANCH   1   2
BRANCH   1  20
ATOM     20  C   UNL     1      12.514 -56.850 -26.837  1.00  0.00     0.025 C 
BRANCH  20  21
ATOM     21  C   UNL     1      12.181 -58.156 -26.116  1.00  0.00     0.142 C 
BRANCH  21  22
ATOM     22  N   UNL     1      12.132 -57.914 -24.677  1.00  0.00    -0.285 NA
BRANCH  22  23
ATOM     23  C   UNL     1      11.558 -58.776 -23.910  1.00  0.00     0.091 C 
ATOM     24  C   UNL     1      12.104 -60.086 -23.440  1.00  0.00     0.142 C 
ATOM     25  C   UNL     1      10.166 -58.466 -23.406  1.00  0.00     0.209 C 
ATOM     26  C   UNL     1      11.079 -61.183 -23.463  1.00  0.00     0.185 C 
ATOM     27  C   UNL     1       9.172 -59.564 -23.542  1.00  0.00     0.054 A 
ATOM     28  C   UNL     1       9.629 -60.829 -23.569  1.00  0.00     0.097 A 
ATOM     29  C   UNL     1       7.726 -59.323 -23.617  1.00  0.00    -0.032 A 
ATOM     30  N   UNL     1       8.753 -61.887 -23.664  1.00  0.00    -0.319 N 
ATOM     31  C   UNL     1       6.882 -60.369 -23.715  1.00  0.00     0.075 A 
ATOM     32  C   UNL     1       7.393 -61.761 -23.739  1.00  0.00     0.248 A 
ATOM     33  O   UNL     1       9.928 -57.380 -22.903  1.00  0.00    -0.287 OA
ATOM     34  O   UNL     1      11.405 -62.368 -23.375  1.00  0.00    -0.292 OA
ATOM     35  C   UNL     1       7.196 -57.917 -23.612  1.00  0.00     0.045 C 
ATOM     36  H   UNL     1       9.132 -62.832 -23.663  1.00  0.00     0.170 HD
ATOM     37  O   UNL     1       6.634 -62.716 -23.821  1.00  0.00    -0.270 OA
ENDBRANCH  22  23
ENDBRANCH  21  22
ENDBRANCH  20  21
ENDBRANCH   1  20
TORSDOF 7
ENDMDL
MODEL 8
REMARK VINA RESULT:   -10.424      2.378      4.095
REMARK INTER + INTRA:         -15.660
REMARK INTER:                 -14.862
REMARK INTRA:                  -0.797
REMARK UNBOUND:                -0.969
REMARK SMILES Cc1cc(=O)[nH]c2c1C(=O)C(=NCCCCN=c1c3c([nH]c4cc(Cl)ccc14)CCCC3)CC2=O
REMARK SMILES IDX 15 1 16 2 17 3 18 4 21 5 20 6 22 7 19 8 29 9 23 10 28 11
REMARK SMILES IDX 32 12 30 13 24 14 27 15 31 16 26 17 25 19 14 20 13 21 12 22
REMARK SMILES IDX 11 23 33 24 9 25 34 26 8 27 7 28 2 29 6 30 3 31 4 32 10 33
REMARK SMILES IDX 35 34 1 35 5 37
REMARK H PARENT 21 18 6 36
ROOT
ATOM      1  C   UNL     1      12.066 -58.428 -27.646  1.00  0.00     0.025 C 
ENDROOT
BRANCH   1   2
ATOM      2  C   UNL     1      11.670 -59.816 -27.144  1.00  0.00     0.143 C 
BRANCH   2   3
ATOM      3  N   UNL     1      10.407 -59.752 -26.448  1.00  0.00    -0.284 NA
BRANCH   3   4
ATOM      4  C   UNL     1      10.058 -60.273 -25.330  1.00  0.00     0.072 A 
ATOM      5  N   UNL     1       8.715 -61.364 -23.072  1.00  0.00    -0.358 N 
ATOM      6  C   UNL     1       9.731 -60.451 -22.887  1.00  0.00     0.021 A 
ATOM      7  C   UNL     1       8.491 -61.959 -24.316  1.00  0.00     0.049 A 
ATOM      8  C   UNL     1      10.428 -59.891 -23.905  1.00  0.00    -0.003 A 
ATOM      9  C   UNL     1      10.032 -60.135 -21.432  1.00  0.00     0.054 C 
ATOM     10  C   UNL     1       7.577 -63.013 -24.444  1.00  0.00     0.047 A 
ATOM     11  C   UNL     1       9.125 -61.455 -25.457  1.00  0.00     0.024 A 
ATOM     12  C   UNL     1      11.591 -58.973 -23.641  1.00  0.00     0.039 C 
ATOM     13  C   UNL     1      10.993 -58.971 -21.217  1.00  0.00     0.007 C 
ATOM     14  C   UNL     1       7.330 -63.578 -25.695  1.00  0.00     0.043 A 
ATOM     15  C   UNL     1       8.868 -62.030 -26.713  1.00  0.00     0.014 A 
ATOM     16  C   UNL     1      12.136 -59.043 -22.213  1.00  0.00     0.005 C 
ATOM     17  C   UNL     1       7.974 -63.096 -26.830  1.00  0.00     0.021 A 
ATOM     18  H   UNL     1       8.388 -61.863 -22.251  1.00  0.00     0.166 HD
ATOM     19  Cl  UNL     1       6.217 -64.884 -25.835  1.00  0.00    -0.084 Cl
ENDBRANCH   3   4
ENDBRANCH   2   3
ENDBRANCH   1   2
BRANCH   1  20
ATOM     20  C   UNL     1      12.205 -57.416 -26.502  1.00  0.00     0.025 C 
BRANCH  20  21
ATOM     21  C   UNL     1      12.893 -56.125 -26.948  1.00  0.00     0.142 C 
BRANCH  21  22
ATOM     22  N   UNL     1      12.089 -54.981 -26.530  1.00  0.00    -0.285 NA
BRANCH  22  23
ATOM     23  C   UNL     1      12.333 -54.417 -25.397  1.00  0.00     0.091 C 
ATOM     24  C   UNL     1      11.765 -54.770 -24.060  1.00  0.00     0.142 C 
ATOM     25  C   UNL     1      13.300 -53.254 -25.374  1.00  0.00     0.209 C 
ATOM     26  C   UNL     1      11.402 -53.561 -23.247  1.00  0.00     0.185 C 
ATOM     27  C   UNL     1      12.843 -52.051 -24.628  1.00  0.00     0.054 A 
ATOM     28  C   UNL     1      11.951 -52.225 -23.637  1.00  0.00     0.097 A 
ATOM     29  C   UNL     1      13.347 -50.702 -24.911  1.00  0.00    -0.032 A 
ATOM     30  N   UNL     1      11.514 -51.151 -22.894  1.00  0.00    -0.319 N 
ATOM     31  C   UNL     1      12.907 -49.661 -24.177  1.00  0.00     0.075 A 
ATOM     32  C   UNL     1      11.926 -49.861 -23.083  1.00  0.00     0.248 A 
ATOM     33  O   UNL     1      14.385 -53.353 -25.923  1.00  0.00    -0.287 OA
ATOM     34  O   UNL     1      10.681 -53.649 -22.252  1.00  0.00    -0.292 OA
ATOM     35  C   UNL     1      14.328 -50.483 -26.028  1.00  0.00     0.045 C 
ATOM     36  H   UNL     1      10.852 -51.320 -22.139  1.00  0.00     0.170 HD
ATOM     37  O   UNL     1      11.526 -48.922 -22.408  1.00  0.00    -0.270 OA
ENDBRANCH  22  23
ENDBRANCH  21  22
ENDBRANCH  20  21
ENDBRANCH   1  20
TORSDOF 7
ENDMDL
MODEL 9
REMARK VINA RESULT:   -10.066      3.243     10.128
REMARK INTER + INTRA:         -15.154
REMARK INTER:                 -14.337
REMARK INTRA:                  -0.817
REMARK UNBOUND:                -0.969
REMARK SMILES Cc1cc(=O)[nH]c2c1C(=O)C(=NCCCCN=c1c3c([nH]c4cc(Cl)ccc14)CCCC3)CC2=O
REMARK SMILES IDX 15 1 16 2 17 3 18 4 21 5 20 6 22 7 19 8 29 9 23 10 28 11
REMARK SMILES IDX 32 12 30 13 24 14 27 15 31 16 26 17 25 19 14 20 13 21 12 22
REMARK SMILES IDX 11 23 33 24 9 25 34 26 8 27 7 28 2 29 6 30 3 31 4 32 10 33
REMARK SMILES IDX 35 34 1 35 5 37
REMARK H PARENT 21 18 6 36
ROOT
ATOM      1  C   UNL     1      11.016 -53.754 -22.160  1.00  0.00     0.025 C 
ENDROOT
BRANCH   1   2
ATOM      2  C   UNL     1      10.779 -52.255 -22.334  1.00  0.00     0.143 C 
BRANCH   2   3
ATOM      3  N   UNL     1      11.549 -51.757 -23.450  1.00  0.00    -0.284 NA
BRANCH   3   4
ATOM      4  C   UNL     1      12.404 -50.803 -23.496  1.00  0.00     0.072 A 
ATOM      5  N   UNL     1      14.673 -49.094 -23.330  1.00  0.00    -0.358 N 
ATOM      6  C   UNL     1      13.430 -48.617 -22.972  1.00  0.00     0.021 A 
ATOM      7  C   UNL     1      14.817 -50.308 -24.007  1.00  0.00     0.049 A 
ATOM      8  C   UNL     1      12.298 -49.359 -23.030  1.00  0.00    -0.003 A 
ATOM      9  C   UNL     1      13.422 -47.166 -22.524  1.00  0.00     0.054 C 
ATOM     10  C   UNL     1      16.062 -50.690 -24.521  1.00  0.00     0.047 A 
ATOM     11  C   UNL     1      13.730 -51.184 -24.111  1.00  0.00     0.024 A 
ATOM     12  C   UNL     1      10.954 -48.756 -22.719  1.00  0.00     0.039 C 
ATOM     13  C   UNL     1      12.105 -46.690 -21.919  1.00  0.00     0.007 C 
ATOM     14  C   UNL     1      16.208 -51.919 -25.164  1.00  0.00     0.043 A 
ATOM     15  C   UNL     1      13.889 -52.421 -24.759  1.00  0.00     0.014 A 
ATOM     16  C   UNL     1      10.935 -47.227 -22.723  1.00  0.00     0.005 C 
ATOM     17  C   UNL     1      15.127 -52.785 -25.290  1.00  0.00     0.021 A 
ATOM     18  H   UNL     1      15.418 -48.413 -23.431  1.00  0.00     0.166 HD
ATOM     19  Cl  UNL     1      17.742 -52.368 -25.805  1.00  0.00    -0.084 Cl
ENDBRANCH   3   4
ENDBRANCH   2   3
ENDBRANCH   1   2
BRANCH   1  20
ATOM     20  C   UNL     1       9.706 -54.552 -22.159  1.00  0.00     0.025 C 
BRANCH  20  21
ATOM     21  C   UNL     1       9.856 -55.918 -22.829  1.00  0.00     0.142 C 
BRANCH  21  22
ATOM     22  N   UNL     1      11.268 -56.285 -22.867  1.00  0.00    -0.285 NA
BRANCH  22  23
ATOM     23  C   UNL     1      11.607 -57.456 -23.284  1.00  0.00     0.091 C 
ATOM     24  C   UNL     1      12.180 -57.820 -24.616  1.00  0.00     0.142 C 
ATOM     25  C   UNL     1      11.414 -58.629 -22.348  1.00  0.00     0.209 C 
ATOM     26  C   UNL     1      11.594 -59.085 -25.173  1.00  0.00     0.185 C 
ATOM     27  C   UNL     1      10.744 -59.819 -22.936  1.00  0.00     0.054 A 
ATOM     28  C   UNL     1      10.842 -60.006 -24.265  1.00  0.00     0.097 A 
ATOM     29  C   UNL     1      10.013 -60.801 -22.127  1.00  0.00    -0.032 A 
ATOM     30  N   UNL     1      10.265 -61.106 -24.860  1.00  0.00    -0.319 N 
ATOM     31  C   UNL     1       9.450 -61.869 -22.724  1.00  0.00     0.075 A 
ATOM     32  C   UNL     1       9.567 -62.072 -24.189  1.00  0.00     0.248 A 
ATOM     33  O   UNL     1      11.825 -58.566 -21.201  1.00  0.00    -0.287 OA
ATOM     34  O   UNL     1      11.736 -59.391 -26.358  1.00  0.00    -0.292 OA
ATOM     35  C   UNL     1       9.872 -60.598 -20.644  1.00  0.00     0.045 C 
ATOM     36  H   UNL     1      10.375 -61.227 -25.865  1.00  0.00     0.170 HD
ATOM     37  O   UNL     1       9.065 -63.042 -24.739  1.00  0.00    -0.270 OA
ENDBRANCH  22  23
ENDBRANCH  21  22
ENDBRANCH  20  21
ENDBRANCH   1  20
TORSDOF 7
ENDMDL
