MODEL 1
REMARK VINA RESULT:    -8.523      0.000      0.000
REMARK INTER + INTRA:         -10.232
REMARK INTER:                 -10.267
REMARK INTRA:                   0.035
REMARK UNBOUND:                 0.035
REMARK SMILES CN(C)S(=O)(=O)N[C@H]1CCc2c(O)cccc2C1
REMARK SMILES IDX 7 1 4 3 5 4 6 5 2 6 1 7 3 8 8 9 9 10 18 11 10 12 17 13 11 14
REMARK SMILES IDX 16 15 12 16 15 17 14 18 13 19
REMARK H PARENT 7 2 13 20
ROOT
ATOM      1  N   UNL     1       9.485 -56.919 -23.480  1.00  0.00    -0.199 NA
ATOM      2  H   UNL     1       9.399 -56.757 -24.484  1.00  0.00     0.142 HD
ENDROOT
BRANCH   1   3
ATOM      3  S   UNL     1      10.992 -56.387 -22.981  1.00  0.00     0.279 S 
ATOM      4  O   UNL     1      11.262 -56.927 -21.672  1.00  0.00    -0.195 OA
ATOM      5  O   UNL     1      11.869 -56.633 -24.101  1.00  0.00    -0.195 OA
BRANCH   3   6
ATOM      6  N   UNL     1      10.718 -54.736 -22.866  1.00  0.00    -0.195 NA
ATOM      7  C   UNL     1      11.429 -53.844 -23.788  1.00  0.00     0.125 C 
ATOM      8  C   UNL     1      10.570 -54.184 -21.511  1.00  0.00     0.125 C 
ENDBRANCH   3   6
ENDBRANCH   1   3
BRANCH   1   9
ATOM      9  C   UNL     1       9.015 -58.255 -23.042  1.00  0.00     0.075 C 
ATOM     10  C   UNL     1       7.762 -58.595 -23.849  1.00  0.00     0.025 C 
ATOM     11  C   UNL     1      10.091 -59.321 -23.291  1.00  0.00     0.056 C 
ATOM     12  C   UNL     1       7.170 -59.921 -23.381  1.00  0.00     0.041 C 
ATOM     13  C   UNL     1       9.570 -60.733 -23.169  1.00  0.00    -0.040 A 
ATOM     14  C   UNL     1       8.194 -61.022 -23.245  1.00  0.00    -0.003 A 
ATOM     15  C   UNL     1      10.492 -61.784 -23.024  1.00  0.00     0.004 A 
ATOM     16  C   UNL     1       7.777 -62.355 -23.131  1.00  0.00     0.119 A 
ATOM     17  C   UNL     1      10.055 -63.104 -22.929  1.00  0.00     0.004 A 
ATOM     18  C   UNL     1       8.694 -63.393 -22.978  1.00  0.00     0.046 A 
BRANCH  16  19
ATOM     19  O   UNL     1       6.437 -62.628 -23.168  1.00  0.00    -0.508 OA
ATOM     20  H   UNL     1       5.983 -62.036 -22.547  1.00  0.00     0.293 HD
ENDBRANCH  16  19
ENDBRANCH   1   9
TORSDOF 4
ENDMDL
MODEL 2
REMARK VINA RESULT:    -8.489      2.656      7.870
REMARK INTER + INTRA:         -10.192
REMARK INTER:                 -10.773
REMARK INTRA:                   0.581
REMARK UNBOUND:                 0.035
REMARK SMILES CN(C)S(=O)(=O)N[C@H]1CCc2c(O)cccc2C1
REMARK SMILES IDX 7 1 4 3 5 4 6 5 2 6 1 7 3 8 8 9 9 10 18 11 10 12 17 13 11 14
REMARK SMILES IDX 16 15 12 16 15 17 14 18 13 19
REMARK H PARENT 7 2 13 20
ROOT
ATOM      1  N   UNL     1       9.671 -56.329 -23.123  1.00  0.00    -0.199 NA
ATOM      2  H   UNL     1       8.866 -56.587 -22.551  1.00  0.00     0.142 HD
ENDROOT
BRANCH   1   3
ATOM      3  S   UNL     1      10.891 -57.444 -22.862  1.00  0.00     0.279 S 
ATOM      4  O   UNL     1      11.764 -57.452 -24.009  1.00  0.00    -0.195 OA
ATOM      5  O   UNL     1      11.382 -57.162 -21.535  1.00  0.00    -0.195 OA
BRANCH   3   6
ATOM      6  N   UNL     1      10.007 -58.869 -22.815  1.00  0.00    -0.195 NA
ATOM      7  C   UNL     1       8.576 -58.815 -23.132  1.00  0.00     0.125 C 
ATOM      8  C   UNL     1      10.334 -59.814 -21.735  1.00  0.00     0.125 C 
ENDBRANCH   3   6
ENDBRANCH   1   3
BRANCH   1   9
ATOM      9  C   UNL     1      10.000 -54.884 -23.084  1.00  0.00     0.075 C 
ATOM     10  C   UNL     1      10.333 -54.521 -21.637  1.00  0.00     0.025 C 
ATOM     11  C   UNL     1      11.206 -54.574 -23.982  1.00  0.00     0.056 C 
ATOM     12  C   UNL     1      10.591 -53.022 -21.510  1.00  0.00     0.041 C 
ATOM     13  C   UNL     1      11.788 -53.201 -23.746  1.00  0.00    -0.040 A 
ATOM     14  C   UNL     1      11.526 -52.481 -22.564  1.00  0.00    -0.003 A 
ATOM     15  C   UNL     1      12.650 -52.656 -24.712  1.00  0.00     0.004 A 
ATOM     16  C   UNL     1      12.103 -51.214 -22.403  1.00  0.00     0.119 A 
ATOM     17  C   UNL     1      13.225 -51.400 -24.524  1.00  0.00     0.004 A 
ATOM     18  C   UNL     1      12.949 -50.673 -23.369  1.00  0.00     0.046 A 
BRANCH  16  19
ATOM     19  O   UNL     1      11.817 -50.502 -21.271  1.00  0.00    -0.508 OA
ATOM     20  H   UNL     1      12.579 -50.553 -20.672  1.00  0.00     0.293 HD
ENDBRANCH  16  19
ENDBRANCH   1   9
TORSDOF 4
ENDMDL
MODEL 3
REMARK VINA RESULT:    -8.313      4.037      4.955
REMARK INTER + INTRA:          -9.980
REMARK INTER:                  -9.754
REMARK INTRA:                  -0.225
REMARK UNBOUND:                 0.035
REMARK SMILES CN(C)S(=O)(=O)N[C@H]1CCc2c(O)cccc2C1
REMARK SMILES IDX 7 1 4 3 5 4 6 5 2 6 1 7 3 8 8 9 9 10 18 11 10 12 17 13 11 14
REMARK SMILES IDX 16 15 12 16 15 17 14 18 13 19
REMARK H PARENT 7 2 13 20
ROOT
ATOM      1  N   UNL     1      10.386 -59.716 -27.237  1.00  0.00    -0.199 NA
ATOM      2  H   UNL     1       9.834 -59.805 -28.091  1.00  0.00     0.142 HD
ENDROOT
BRANCH   1   3
ATOM      3  S   UNL     1      11.910 -59.154 -27.641  1.00  0.00     0.279 S 
ATOM      4  O   UNL     1      12.192 -57.977 -26.858  1.00  0.00    -0.195 OA
ATOM      5  O   UNL     1      12.764 -60.317 -27.598  1.00  0.00    -0.195 OA
BRANCH   3   6
ATOM      6  N   UNL     1      11.669 -58.724 -29.244  1.00  0.00    -0.195 NA
ATOM      7  C   UNL     1      11.794 -59.761 -30.273  1.00  0.00     0.125 C 
ATOM      8  C   UNL     1      12.195 -57.415 -29.662  1.00  0.00     0.125 C 
ENDBRANCH   3   6
ENDBRANCH   1   3
BRANCH   1   9
ATOM      9  C   UNL     1      10.269 -60.875 -26.320  1.00  0.00     0.075 C 
ATOM     10  C   UNL     1      10.588 -60.386 -24.908  1.00  0.00     0.025 C 
ATOM     11  C   UNL     1       8.849 -61.457 -26.354  1.00  0.00     0.056 C 
ATOM     12  C   UNL     1      10.578 -61.552 -23.924  1.00  0.00     0.041 C 
ATOM     13  C   UNL     1       8.573 -62.421 -25.224  1.00  0.00    -0.040 A 
ATOM     14  C   UNL     1       9.368 -62.445 -24.062  1.00  0.00    -0.003 A 
ATOM     15  C   UNL     1       7.466 -63.280 -25.323  1.00  0.00     0.004 A 
ATOM     16  C   UNL     1       9.054 -63.360 -23.048  1.00  0.00     0.119 A 
ATOM     17  C   UNL     1       7.163 -64.172 -24.295  1.00  0.00     0.004 A 
ATOM     18  C   UNL     1       7.961 -64.216 -23.155  1.00  0.00     0.046 A 
BRANCH  16  19
ATOM     19  O   UNL     1       9.850 -63.405 -21.937  1.00  0.00    -0.508 OA
ATOM     20  H   UNL     1       9.345 -63.069 -21.179  1.00  0.00     0.293 HD
ENDBRANCH  16  19
ENDBRANCH   1   9
TORSDOF 4
ENDMDL
MODEL 4
REMARK VINA RESULT:    -8.254      4.443      4.962
REMARK INTER + INTRA:          -9.908
REMARK INTER:                 -10.104
REMARK INTRA:                   0.196
REMARK UNBOUND:                 0.035
REMARK SMILES CN(C)S(=O)(=O)N[C@H]1CCc2c(O)cccc2C1
REMARK SMILES IDX 7 1 4 3 5 4 6 5 2 6 1 7 3 8 8 9 9 10 18 11 10 12 17 13 11 14
REMARK SMILES IDX 16 15 12 16 15 17 14 18 13 19
REMARK H PARENT 7 2 13 20
ROOT
ATOM      1  N   UNL     1      10.663 -60.490 -28.149  1.00  0.00    -0.199 NA
ATOM      2  H   UNL     1      10.909 -61.240 -28.795  1.00  0.00     0.142 HD
ENDROOT
BRANCH   1   3
ATOM      3  S   UNL     1      12.023 -59.553 -27.875  1.00  0.00     0.279 S 
ATOM      4  O   UNL     1      11.702 -58.547 -26.894  1.00  0.00    -0.195 OA
ATOM      5  O   UNL     1      13.096 -60.497 -27.672  1.00  0.00    -0.195 OA
BRANCH   3   6
ATOM      6  N   UNL     1      12.217 -58.836 -29.379  1.00  0.00    -0.195 NA
ATOM      7  C   UNL     1      12.030 -57.386 -29.491  1.00  0.00     0.125 C 
ATOM      8  C   UNL     1      11.708 -59.586 -30.538  1.00  0.00     0.125 C 
ENDBRANCH   3   6
ENDBRANCH   1   3
BRANCH   1   9
ATOM      9  C   UNL     1       9.853 -60.934 -26.990  1.00  0.00     0.075 C 
ATOM     10  C   UNL     1       9.081 -62.183 -27.412  1.00  0.00     0.025 C 
ATOM     11  C   UNL     1      10.752 -61.266 -25.790  1.00  0.00     0.056 C 
ATOM     12  C   UNL     1       8.151 -62.640 -26.291  1.00  0.00     0.041 C 
ATOM     13  C   UNL     1      10.032 -62.019 -24.697  1.00  0.00    -0.040 A 
ATOM     14  C   UNL     1       8.822 -62.696 -24.940  1.00  0.00    -0.003 A 
ATOM     15  C   UNL     1      10.616 -62.080 -23.420  1.00  0.00     0.004 A 
ATOM     16  C   UNL     1       8.208 -63.382 -23.883  1.00  0.00     0.119 A 
ATOM     17  C   UNL     1       9.995 -62.781 -22.388  1.00  0.00     0.004 A 
ATOM     18  C   UNL     1       8.786 -63.432 -22.616  1.00  0.00     0.046 A 
BRANCH  16  19
ATOM     19  O   UNL     1       7.014 -64.008 -24.113  1.00  0.00    -0.508 OA
ATOM     20  H   UNL     1       6.790 -64.545 -23.335  1.00  0.00     0.293 HD
ENDBRANCH  16  19
ENDBRANCH   1   9
TORSDOF 4
ENDMDL
MODEL 5
REMARK VINA RESULT:    -8.245      3.242      3.629
REMARK INTER + INTRA:          -9.897
REMARK INTER:                  -9.620
REMARK INTRA:                  -0.277
REMARK UNBOUND:                 0.035
REMARK SMILES CN(C)S(=O)(=O)N[C@H]1CCc2c(O)cccc2C1
REMARK SMILES IDX 7 1 4 3 5 4 6 5 2 6 1 7 3 8 8 9 9 10 18 11 10 12 17 13 11 14
REMARK SMILES IDX 16 15 12 16 15 17 14 18 13 19
REMARK H PARENT 7 2 13 20
ROOT
ATOM      1  N   UNL     1      10.212 -58.859 -24.212  1.00  0.00    -0.199 NA
ATOM      2  H   UNL     1       9.833 -58.098 -24.777  1.00  0.00     0.142 HD
ENDROOT
BRANCH   1   3
ATOM      3  S   UNL     1      11.812 -58.514 -23.857  1.00  0.00     0.279 S 
ATOM      4  O   UNL     1      12.548 -59.751 -23.793  1.00  0.00    -0.195 OA
ATOM      5  O   UNL     1      12.180 -57.457 -24.768  1.00  0.00    -0.195 OA
BRANCH   3   6
ATOM      6  N   UNL     1      11.657 -57.866 -22.318  1.00  0.00    -0.195 NA
ATOM      7  C   UNL     1      11.185 -58.737 -21.237  1.00  0.00     0.125 C 
ATOM      8  C   UNL     1      11.145 -56.489 -22.229  1.00  0.00     0.125 C 
ENDBRANCH   3   6
ENDBRANCH   1   3
BRANCH   1   9
ATOM      9  C   UNL     1       9.864 -60.211 -24.710  1.00  0.00     0.075 C 
ATOM     10  C   UNL     1       8.449 -60.533 -24.231  1.00  0.00     0.025 C 
ATOM     11  C   UNL     1       9.912 -60.258 -26.243  1.00  0.00     0.056 C 
ATOM     12  C   UNL     1       8.062 -61.955 -24.630  1.00  0.00     0.041 C 
ATOM     13  C   UNL     1       9.266 -61.495 -26.822  1.00  0.00    -0.040 A 
ATOM     14  C   UNL     1       8.367 -62.278 -26.073  1.00  0.00    -0.003 A 
ATOM     15  C   UNL     1       9.539 -61.839 -28.157  1.00  0.00     0.004 A 
ATOM     16  C   UNL     1       7.797 -63.410 -26.672  1.00  0.00     0.119 A 
ATOM     17  C   UNL     1       8.949 -62.960 -28.736  1.00  0.00     0.004 A 
ATOM     18  C   UNL     1       8.078 -63.753 -27.993  1.00  0.00     0.046 A 
BRANCH  16  19
ATOM     19  O   UNL     1       6.953 -64.189 -25.930  1.00  0.00    -0.508 OA
ATOM     20  H   UNL     1       7.436 -64.520 -25.155  1.00  0.00     0.293 HD
ENDBRANCH  16  19
ENDBRANCH   1   9
TORSDOF 4
ENDMDL
MODEL 6
REMARK VINA RESULT:    -8.109      2.581      7.824
REMARK INTER + INTRA:          -9.733
REMARK INTER:                  -9.488
REMARK INTRA:                  -0.245
REMARK UNBOUND:                 0.035
REMARK SMILES CN(C)S(=O)(=O)N[C@H]1CCc2c(O)cccc2C1
REMARK SMILES IDX 7 1 4 3 5 4 6 5 2 6 1 7 3 8 8 9 9 10 18 11 10 12 17 13 11 14
REMARK SMILES IDX 16 15 12 16 15 17 14 18 13 19
REMARK H PARENT 7 2 13 20
ROOT
ATOM      1  N   UNL     1      10.545 -57.045 -23.152  1.00  0.00    -0.199 NA
ATOM      2  H   UNL     1       9.593 -56.975 -22.791  1.00  0.00     0.142 HD
ENDROOT
BRANCH   1   3
ATOM      3  S   UNL     1      11.271 -58.399 -22.487  1.00  0.00     0.279 S 
ATOM      4  O   UNL     1      12.358 -58.808 -23.341  1.00  0.00    -0.195 OA
ATOM      5  O   UNL     1      11.480 -58.070 -21.097  1.00  0.00    -0.195 OA
BRANCH   3   6
ATOM      6  N   UNL     1      10.019 -59.509 -22.594  1.00  0.00    -0.195 NA
ATOM      7  C   UNL     1       8.707 -59.042 -23.054  1.00  0.00     0.125 C 
ATOM      8  C   UNL     1       9.942 -60.522 -21.529  1.00  0.00     0.125 C 
ENDBRANCH   3   6
ENDBRANCH   1   3
BRANCH   1   9
ATOM      9  C   UNL     1      11.286 -55.761 -23.152  1.00  0.00     0.075 C 
ATOM     10  C   UNL     1      11.315 -55.240 -24.588  1.00  0.00     0.025 C 
ATOM     11  C   UNL     1      10.596 -54.733 -22.245  1.00  0.00     0.056 C 
ATOM     12  C   UNL     1      12.146 -53.963 -24.676  1.00  0.00     0.041 C 
ATOM     13  C   UNL     1      11.106 -53.325 -22.445  1.00  0.00    -0.040 A 
ATOM     14  C   UNL     1      11.809 -52.952 -23.607  1.00  0.00    -0.003 A 
ATOM     15  C   UNL     1      10.828 -52.359 -21.463  1.00  0.00     0.004 A 
ATOM     16  C   UNL     1      12.250 -51.627 -23.733  1.00  0.00     0.119 A 
ATOM     17  C   UNL     1      11.262 -51.044 -21.617  1.00  0.00     0.004 A 
ATOM     18  C   UNL     1      11.979 -50.675 -22.752  1.00  0.00     0.046 A 
BRANCH  16  19
ATOM     19  O   UNL     1      12.964 -51.277 -24.846  1.00  0.00    -0.508 OA
ATOM     20  H   UNL     1      12.783 -50.345 -25.050  1.00  0.00     0.293 HD
ENDBRANCH  16  19
ENDBRANCH   1   9
TORSDOF 4
ENDMDL
MODEL 7
REMARK VINA RESULT:    -8.077      6.293      8.891
REMARK INTER + INTRA:          -9.694
REMARK INTER:                  -9.448
REMARK INTRA:                  -0.246
REMARK UNBOUND:                 0.035
REMARK SMILES CN(C)S(=O)(=O)N[C@H]1CCc2c(O)cccc2C1
REMARK SMILES IDX 7 1 4 3 5 4 6 5 2 6 1 7 3 8 8 9 9 10 18 11 10 12 17 13 11 14
REMARK SMILES IDX 16 15 12 16 15 17 14 18 13 19
REMARK H PARENT 7 2 13 20
ROOT
ATOM      1  N   UNL     1      12.278 -48.960 -22.002  1.00  0.00    -0.199 NA
ATOM      2  H   UNL     1      12.233 -49.003 -20.984  1.00  0.00     0.142 HD
ENDROOT
BRANCH   1   3
ATOM      3  S   UNL     1      11.688 -47.475 -22.501  1.00  0.00     0.279 S 
ATOM      4  O   UNL     1      12.159 -47.215 -23.838  1.00  0.00    -0.195 OA
ATOM      5  O   UNL     1      10.280 -47.502 -22.183  1.00  0.00    -0.195 OA
BRANCH   3   6
ATOM      6  N   UNL     1      12.462 -46.453 -21.419  1.00  0.00    -0.195 NA
ATOM      7  C   UNL     1      12.579 -45.031 -21.762  1.00  0.00     0.125 C 
ATOM      8  C   UNL     1      13.647 -46.992 -20.734  1.00  0.00     0.125 C 
ENDBRANCH   3   6
ENDBRANCH   1   3
BRANCH   1   9
ATOM      9  C   UNL     1      11.795 -50.187 -22.680  1.00  0.00     0.075 C 
ATOM     10  C   UNL     1      12.945 -50.736 -23.524  1.00  0.00     0.025 C 
ATOM     11  C   UNL     1      11.360 -51.242 -21.653  1.00  0.00     0.056 C 
ATOM     12  C   UNL     1      12.485 -51.951 -24.324  1.00  0.00     0.041 C 
ATOM     13  C   UNL     1      11.163 -52.613 -22.256  1.00  0.00    -0.040 A 
ATOM     14  C   UNL     1      11.722 -52.960 -23.501  1.00  0.00    -0.003 A 
ATOM     15  C   UNL     1      10.444 -53.575 -21.527  1.00  0.00     0.004 A 
ATOM     16  C   UNL     1      11.507 -54.252 -24.001  1.00  0.00     0.119 A 
ATOM     17  C   UNL     1      10.256 -54.859 -22.037  1.00  0.00     0.004 A 
ATOM     18  C   UNL     1      10.785 -55.200 -23.279  1.00  0.00     0.046 A 
BRANCH  16  19
ATOM     19  O   UNL     1      12.020 -54.574 -25.227  1.00  0.00    -0.508 OA
ATOM     20  H   UNL     1      12.503 -53.806 -25.573  1.00  0.00     0.293 HD
ENDBRANCH  16  19
ENDBRANCH   1   9
TORSDOF 4
ENDMDL
MODEL 8
REMARK VINA RESULT:    -7.688      3.010      7.283
REMARK INTER + INTRA:          -9.226
REMARK INTER:                  -8.974
REMARK INTRA:                  -0.252
REMARK UNBOUND:                 0.035
REMARK SMILES CN(C)S(=O)(=O)N[C@H]1CCc2c(O)cccc2C1
REMARK SMILES IDX 7 1 4 3 5 4 6 5 2 6 1 7 3 8 8 9 9 10 18 11 10 12 17 13 11 14
REMARK SMILES IDX 16 15 12 16 15 17 14 18 13 19
REMARK H PARENT 7 2 13 20
ROOT
ATOM      1  N   UNL     1      10.953 -58.268 -23.577  1.00  0.00    -0.199 NA
ATOM      2  H   UNL     1      11.623 -58.528 -24.302  1.00  0.00     0.142 HD
ENDROOT
BRANCH   1   3
ATOM      3  S   UNL     1       9.619 -59.271 -23.698  1.00  0.00     0.279 S 
ATOM      4  O   UNL     1       9.214 -59.664 -22.372  1.00  0.00    -0.195 OA
ATOM      5  O   UNL     1       8.717 -58.593 -24.598  1.00  0.00    -0.195 OA
BRANCH   3   6
ATOM      6  N   UNL     1      10.288 -60.585 -24.498  1.00  0.00    -0.195 NA
ATOM      7  C   UNL     1      11.395 -61.304 -23.859  1.00  0.00     0.125 C 
ATOM      8  C   UNL     1      10.429 -60.467 -25.958  1.00  0.00     0.125 C 
ENDBRANCH   3   6
ENDBRANCH   1   3
BRANCH   1   9
ATOM      9  C   UNL     1      10.742 -56.806 -23.448  1.00  0.00     0.075 C 
ATOM     10  C   UNL     1      10.922 -56.438 -21.976  1.00  0.00     0.025 C 
ATOM     11  C   UNL     1      11.756 -56.030 -24.300  1.00  0.00     0.056 C 
ATOM     12  C   UNL     1      10.624 -54.957 -21.756  1.00  0.00     0.041 C 
ATOM     13  C   UNL     1      11.806 -54.557 -23.971  1.00  0.00    -0.040 A 
ATOM     14  C   UNL     1      11.303 -54.053 -22.756  1.00  0.00    -0.003 A 
ATOM     15  C   UNL     1      12.415 -53.680 -24.885  1.00  0.00     0.004 A 
ATOM     16  C   UNL     1      11.386 -52.676 -22.510  1.00  0.00     0.119 A 
ATOM     17  C   UNL     1      12.500 -52.316 -24.612  1.00  0.00     0.004 A 
ATOM     18  C   UNL     1      11.982 -51.809 -23.424  1.00  0.00     0.046 A 
BRANCH  16  19
ATOM     19  O   UNL     1      10.863 -52.185 -21.346  1.00  0.00    -0.508 OA
ATOM     20  H   UNL     1       9.916 -52.398 -21.317  1.00  0.00     0.293 HD
ENDBRANCH  16  19
ENDBRANCH   1   9
TORSDOF 4
ENDMDL
MODEL 9
REMARK VINA RESULT:    -7.503      6.541      8.761
REMARK INTER + INTRA:          -9.004
REMARK INTER:                  -8.665
REMARK INTRA:                  -0.339
REMARK UNBOUND:                 0.035
REMARK SMILES CN(C)S(=O)(=O)N[C@H]1CCc2c(O)cccc2C1
REMARK SMILES IDX 7 1 4 3 5 4 6 5 2 6 1 7 3 8 8 9 9 10 18 11 10 12 17 13 11 14
REMARK SMILES IDX 16 15 12 16 15 17 14 18 13 19
REMARK H PARENT 7 2 13 20
ROOT
ATOM      1  N   UNL     1      14.551 -50.942 -26.122  1.00  0.00    -0.199 NA
ATOM      2  H   UNL     1      14.507 -51.502 -26.973  1.00  0.00     0.142 HD
ENDROOT
BRANCH   1   3
ATOM      3  S   UNL     1      16.108 -50.349 -25.952  1.00  0.00     0.279 S 
ATOM      4  O   UNL     1      16.785 -50.459 -27.219  1.00  0.00    -0.195 OA
ATOM      5  O   UNL     1      15.957 -49.080 -25.280  1.00  0.00    -0.195 OA
BRANCH   3   6
ATOM      6  N   UNL     1      16.748 -51.457 -24.869  1.00  0.00    -0.195 NA
ATOM      7  C   UNL     1      17.455 -50.953 -23.687  1.00  0.00     0.125 C 
ATOM      8  C   UNL     1      17.355 -52.668 -25.445  1.00  0.00     0.125 C 
ENDBRANCH   3   6
ENDBRANCH   1   3
BRANCH   1   9
ATOM      9  C   UNL     1      13.892 -51.569 -24.951  1.00  0.00     0.075 C 
ATOM     10  C   UNL     1      12.938 -50.539 -24.347  1.00  0.00     0.025 C 
ATOM     11  C   UNL     1      13.102 -52.816 -25.373  1.00  0.00     0.056 C 
ATOM     12  C   UNL     1      12.294 -51.090 -23.078  1.00  0.00     0.041 C 
ATOM     13  C   UNL     1      12.158 -53.313 -24.304  1.00  0.00    -0.040 A 
ATOM     14  C   UNL     1      11.749 -52.489 -23.239  1.00  0.00    -0.003 A 
ATOM     15  C   UNL     1      11.643 -54.616 -24.410  1.00  0.00     0.004 A 
ATOM     16  C   UNL     1      10.866 -53.009 -22.283  1.00  0.00     0.119 A 
ATOM     17  C   UNL     1      10.753 -55.108 -23.456  1.00  0.00     0.004 A 
ATOM     18  C   UNL     1      10.365 -54.306 -22.386  1.00  0.00     0.046 A 
BRANCH  16  19
ATOM     19  O   UNL     1      10.499 -52.218 -21.229  1.00  0.00    -0.508 OA
ATOM     20  H   UNL     1      11.082 -51.442 -21.207  1.00  0.00     0.293 HD
ENDBRANCH  16  19
ENDBRANCH   1   9
TORSDOF 4
ENDMDL
