MODEL 1
REMARK VINA RESULT:   -11.919      0.000      0.000
REMARK INTER + INTRA:         -15.865
REMARK INTER:                 -15.403
REMARK INTRA:                  -0.462
REMARK UNBOUND:                -0.462
REMARK SMILES O=C(NCCN=c1c2c([nH]c3ccccc13)CCCC2)c1ccc(F)cc1
REMARK SMILES IDX 5 1 6 2 7 3 10 4 9 5 11 6 8 7 17 8 12 9 16 10 20 11 18 12
REMARK SMILES IDX 13 13 15 14 19 15 14 16 4 18 3 19 2 20 1 22 21 23 22 24
REMARK SMILES IDX 27 25 23 26 26 27 24 28 25 29
REMARK H PARENT 10 17 3 21
ROOT
ATOM      1  C   UNL     1      12.143 -59.445 -22.741  1.00  0.00     0.164 C 
ENDROOT
BRANCH   1   2
ATOM      2  N   UNL     1      11.681 -60.772 -23.099  1.00  0.00    -0.282 NA
BRANCH   2   3
ATOM      3  C   UNL     1      11.076 -61.140 -24.168  1.00  0.00     0.072 A 
ATOM      4  N   UNL     1       9.113 -61.584 -26.164  1.00  0.00    -0.358 N 
ATOM      5  C   UNL     1      10.281 -60.925 -26.490  1.00  0.00     0.021 A 
ATOM      6  C   UNL     1       9.022 -62.325 -24.979  1.00  0.00     0.048 A 
ATOM      7  C   UNL     1      11.281 -60.697 -25.606  1.00  0.00    -0.003 A 
ATOM      8  C   UNL     1      10.383 -60.500 -27.944  1.00  0.00     0.054 C 
ATOM      9  C   UNL     1       7.944 -63.191 -24.760  1.00  0.00     0.027 A 
ATOM     10  C   UNL     1       9.970 -62.144 -23.965  1.00  0.00     0.024 A 
ATOM     11  C   UNL     1      12.596 -60.106 -26.033  1.00  0.00     0.039 C 
ATOM     12  C   UNL     1      11.555 -59.571 -28.246  1.00  0.00     0.007 C 
ATOM     13  C   UNL     1       7.836 -63.899 -23.560  1.00  0.00     0.002 A 
ATOM     14  C   UNL     1       9.857 -62.851 -22.759  1.00  0.00     0.012 A 
ATOM     15  C   UNL     1      12.809 -60.067 -27.549  1.00  0.00     0.005 C 
ATOM     16  C   UNL     1       8.794 -63.733 -22.562  1.00  0.00     0.001 A 
ATOM     17  H   UNL     1       8.539 -61.903 -26.936  1.00  0.00     0.166 HD
ENDBRANCH   2   3
ENDBRANCH   1   2
BRANCH   1  18
ATOM     18  C   UNL     1      11.018 -58.636 -22.085  1.00  0.00     0.139 C 
BRANCH  18  19
ATOM     19  N   UNL     1      11.250 -57.202 -22.142  1.00  0.00    -0.350 N 
ATOM     20  C   UNL     1      10.399 -56.364 -22.830  1.00  0.00     0.251 C 
ATOM     21  H   UNL     1      11.908 -56.812 -21.484  1.00  0.00     0.163 HD
ATOM     22  O   UNL     1       9.421 -56.751 -23.458  1.00  0.00    -0.269 OA
BRANCH  20  23
ATOM     23  C   UNL     1      10.700 -54.908 -22.746  1.00  0.00     0.040 A 
ATOM     24  C   UNL     1      11.406 -54.312 -23.804  1.00  0.00     0.017 A 
ATOM     25  C   UNL     1      10.324 -54.133 -21.639  1.00  0.00     0.017 A 
ATOM     26  C   UNL     1      11.710 -52.950 -23.765  1.00  0.00     0.040 A 
ATOM     27  C   UNL     1      10.631 -52.771 -21.604  1.00  0.00     0.040 A 
ATOM     28  C   UNL     1      11.317 -52.192 -22.667  1.00  0.00     0.123 A 
ATOM     29  F   UNL     1      11.609 -50.886 -22.629  1.00  0.00    -0.207 F 
ENDBRANCH  20  23
ENDBRANCH  18  19
ENDBRANCH   1  18
TORSDOF 5
ENDMDL
MODEL 2
REMARK VINA RESULT:   -10.623      3.442      8.577
REMARK INTER + INTRA:         -14.190
REMARK INTER:                 -13.253
REMARK INTRA:                  -0.937
REMARK UNBOUND:                -0.462
REMARK SMILES O=C(NCCN=c1c2c([nH]c3ccccc13)CCCC2)c1ccc(F)cc1
REMARK SMILES IDX 5 1 6 2 7 3 10 4 9 5 11 6 8 7 17 8 12 9 16 10 20 11 18 12
REMARK SMILES IDX 13 13 15 14 19 15 14 16 4 18 3 19 2 20 1 22 21 23 22 24
REMARK SMILES IDX 27 25 23 26 26 27 24 28 25 29
REMARK H PARENT 10 17 3 21
ROOT
ATOM      1  C   UNL     1      13.544 -54.846 -25.785  1.00  0.00     0.164 C 
ENDROOT
BRANCH   1   2
ATOM      2  N   UNL     1      12.554 -53.792 -25.671  1.00  0.00    -0.282 NA
BRANCH   2   3
ATOM      3  C   UNL     1      12.491 -52.854 -24.798  1.00  0.00     0.072 A 
ATOM      4  N   UNL     1      12.722 -51.344 -22.411  1.00  0.00    -0.358 N 
ATOM      5  C   UNL     1      13.267 -50.857 -23.582  1.00  0.00     0.021 A 
ATOM      6  C   UNL     1      11.780 -52.379 -22.443  1.00  0.00     0.048 A 
ATOM      7  C   UNL     1      13.178 -51.500 -24.770  1.00  0.00    -0.003 A 
ATOM      8  C   UNL     1      13.955 -49.510 -23.449  1.00  0.00     0.054 C 
ATOM      9  C   UNL     1      11.043 -52.708 -21.299  1.00  0.00     0.027 A 
ATOM     10  C   UNL     1      11.627 -53.152 -23.600  1.00  0.00     0.024 A 
ATOM     11  C   UNL     1      13.658 -50.871 -26.049  1.00  0.00     0.039 C 
ATOM     12  C   UNL     1      14.757 -49.089 -24.676  1.00  0.00     0.007 C 
ATOM     13  C   UNL     1      10.132 -53.768 -21.323  1.00  0.00     0.002 A 
ATOM     14  C   UNL     1      10.716 -54.219 -23.620  1.00  0.00     0.012 A 
ATOM     15  C   UNL     1      13.967 -49.376 -25.941  1.00  0.00     0.005 C 
ATOM     16  C   UNL     1       9.965 -54.520 -22.483  1.00  0.00     0.001 A 
ATOM     17  H   UNL     1      12.643 -50.691 -21.639  1.00  0.00     0.166 HD
ENDBRANCH   2   3
ENDBRANCH   1   2
BRANCH   1  18
ATOM     18  C   UNL     1      12.878 -56.182 -26.134  1.00  0.00     0.139 C 
BRANCH  18  19
ATOM     19  N   UNL     1      12.323 -56.855 -24.972  1.00  0.00    -0.350 N 
ATOM     20  C   UNL     1      11.986 -58.191 -25.008  1.00  0.00     0.251 C 
ATOM     21  H   UNL     1      12.404 -56.386 -24.082  1.00  0.00     0.163 HD
ATOM     22  O   UNL     1      12.096 -58.895 -26.004  1.00  0.00    -0.269 OA
BRANCH  20  23
ATOM     23  C   UNL     1      11.503 -58.782 -23.729  1.00  0.00     0.040 A 
ATOM     24  C   UNL     1      11.497 -57.972 -22.582  1.00  0.00     0.017 A 
ATOM     25  C   UNL     1      11.084 -60.118 -23.639  1.00  0.00     0.017 A 
ATOM     26  C   UNL     1      11.053 -58.486 -21.363  1.00  0.00     0.040 A 
ATOM     27  C   UNL     1      10.641 -60.628 -22.416  1.00  0.00     0.040 A 
ATOM     28  C   UNL     1      10.627 -59.808 -21.291  1.00  0.00     0.123 A 
ATOM     29  F   UNL     1      10.202 -60.303 -20.122  1.00  0.00    -0.207 F 
ENDBRANCH  20  23
ENDBRANCH  18  19
ENDBRANCH   1  18
TORSDOF 5
ENDMDL
MODEL 3
REMARK VINA RESULT:   -10.595      3.641      9.071
REMARK INTER + INTRA:         -14.154
REMARK INTER:                 -14.246
REMARK INTRA:                   0.092
REMARK UNBOUND:                -0.462
REMARK SMILES O=C(NCCN=c1c2c([nH]c3ccccc13)CCCC2)c1ccc(F)cc1
REMARK SMILES IDX 5 1 6 2 7 3 10 4 9 5 11 6 8 7 17 8 12 9 16 10 20 11 18 12
REMARK SMILES IDX 13 13 15 14 19 15 14 16 4 18 3 19 2 20 1 22 21 23 22 24
REMARK SMILES IDX 27 25 23 26 26 27 24 28 25 29
REMARK H PARENT 10 17 3 21
ROOT
ATOM      1  C   UNL     1      10.133 -55.026 -22.433  1.00  0.00     0.164 C 
ENDROOT
BRANCH   1   2
ATOM      2  N   UNL     1      10.549 -53.648 -22.262  1.00  0.00    -0.282 NA
BRANCH   2   3
ATOM      3  C   UNL     1      11.200 -52.908 -23.082  1.00  0.00     0.072 A 
ATOM      4  N   UNL     1      13.000 -51.030 -24.208  1.00  0.00    -0.358 N 
ATOM      5  C   UNL     1      13.022 -52.341 -24.641  1.00  0.00     0.021 A 
ATOM      6  C   UNL     1      11.904 -50.537 -23.489  1.00  0.00     0.048 A 
ATOM      7  C   UNL     1      12.180 -53.293 -24.178  1.00  0.00    -0.003 A 
ATOM      8  C   UNL     1      14.051 -52.635 -25.718  1.00  0.00     0.054 C 
ATOM      9  C   UNL     1      11.759 -49.164 -23.263  1.00  0.00     0.027 A 
ATOM     10  C   UNL     1      10.986 -51.425 -22.917  1.00  0.00     0.024 A 
ATOM     11  C   UNL     1      12.137 -54.672 -24.776  1.00  0.00     0.039 C 
ATOM     12  C   UNL     1      14.237 -54.118 -26.022  1.00  0.00     0.007 C 
ATOM     13  C   UNL     1      10.685 -48.679 -22.511  1.00  0.00     0.002 A 
ATOM     14  C   UNL     1       9.912 -50.937 -22.158  1.00  0.00     0.012 A 
ATOM     15  C   UNL     1      12.886 -54.809 -26.104  1.00  0.00     0.005 C 
ATOM     16  C   UNL     1       9.760 -49.564 -21.963  1.00  0.00     0.001 A 
ATOM     17  H   UNL     1      13.505 -50.355 -24.772  1.00  0.00     0.166 HD
ENDBRANCH   2   3
ENDBRANCH   1   2
BRANCH   1  18
ATOM     18  C   UNL     1      11.179 -55.986 -21.855  1.00  0.00     0.139 C 
BRANCH  18  19
ATOM     19  N   UNL     1      10.963 -57.365 -22.264  1.00  0.00    -0.350 N 
ATOM     20  C   UNL     1      11.142 -58.411 -21.385  1.00  0.00     0.251 C 
ATOM     21  H   UNL     1      10.464 -57.520 -23.127  1.00  0.00     0.163 HD
ATOM     22  O   UNL     1      11.515 -58.272 -20.226  1.00  0.00    -0.269 OA
BRANCH  20  23
ATOM     23  C   UNL     1      10.811 -59.768 -21.902  1.00  0.00     0.040 A 
ATOM     24  C   UNL     1      11.387 -60.175 -23.116  1.00  0.00     0.017 A 
ATOM     25  C   UNL     1       9.931 -60.627 -21.227  1.00  0.00     0.017 A 
ATOM     26  C   UNL     1      11.103 -61.439 -23.637  1.00  0.00     0.040 A 
ATOM     27  C   UNL     1       9.650 -61.890 -21.753  1.00  0.00     0.040 A 
ATOM     28  C   UNL     1      10.240 -62.285 -22.950  1.00  0.00     0.123 A 
ATOM     29  F   UNL     1       9.967 -63.497 -23.449  1.00  0.00    -0.207 F 
ENDBRANCH  20  23
ENDBRANCH  18  19
ENDBRANCH   1  18
TORSDOF 5
ENDMDL
MODEL 4
REMARK VINA RESULT:   -10.496      4.374     10.201
REMARK INTER + INTRA:         -14.026
REMARK INTER:                 -13.837
REMARK INTRA:                  -0.189
REMARK UNBOUND:                -0.462
REMARK SMILES O=C(NCCN=c1c2c([nH]c3ccccc13)CCCC2)c1ccc(F)cc1
REMARK SMILES IDX 5 1 6 2 7 3 10 4 9 5 11 6 8 7 17 8 12 9 16 10 20 11 18 12
REMARK SMILES IDX 13 13 15 14 19 15 14 16 4 18 3 19 2 20 1 22 21 23 22 24
REMARK SMILES IDX 27 25 23 26 26 27 24 28 25 29
REMARK H PARENT 10 17 3 21
ROOT
ATOM      1  C   UNL     1      11.062 -52.194 -21.640  1.00  0.00     0.164 C 
ENDROOT
BRANCH   1   2
ATOM      2  N   UNL     1      11.051 -50.836 -22.146  1.00  0.00    -0.282 NA
BRANCH   2   3
ATOM      3  C   UNL     1      11.735 -50.344 -23.113  1.00  0.00     0.072 A 
ATOM      4  N   UNL     1      13.634 -48.892 -24.636  1.00  0.00    -0.358 N 
ATOM      5  C   UNL     1      13.560 -50.265 -24.767  1.00  0.00     0.021 A 
ATOM      6  C   UNL     1      12.588 -48.177 -24.040  1.00  0.00     0.048 A 
ATOM      7  C   UNL     1      12.664 -51.030 -24.099  1.00  0.00    -0.003 A 
ATOM      8  C   UNL     1      14.545 -50.861 -25.755  1.00  0.00     0.054 C 
ATOM      9  C   UNL     1      12.539 -46.781 -24.125  1.00  0.00     0.027 A 
ATOM     10  C   UNL     1      11.623 -48.850 -23.281  1.00  0.00     0.024 A 
ATOM     11  C   UNL     1      12.518 -52.501 -24.375  1.00  0.00     0.039 C 
ATOM     12  C   UNL     1      14.625 -52.384 -25.722  1.00  0.00     0.007 C 
ATOM     13  C   UNL     1      11.515 -46.068 -23.496  1.00  0.00     0.002 A 
ATOM     14  C   UNL     1      10.600 -48.131 -22.645  1.00  0.00     0.012 A 
ATOM     15  C   UNL     1      13.230 -52.980 -25.642  1.00  0.00     0.005 C 
ATOM     16  C   UNL     1      10.544 -46.742 -22.761  1.00  0.00     0.001 A 
ATOM     17  H   UNL     1      14.172 -48.396 -25.338  1.00  0.00     0.166 HD
ENDBRANCH   2   3
ENDBRANCH   1   2
BRANCH   1  18
ATOM     18  C   UNL     1       9.814 -52.956 -22.099  1.00  0.00     0.139 C 
BRANCH  18  19
ATOM     19  N   UNL     1       9.916 -54.389 -21.876  1.00  0.00    -0.350 N 
ATOM     20  C   UNL     1      10.076 -55.270 -22.924  1.00  0.00     0.251 C 
ATOM     21  H   UNL     1      10.095 -54.700 -20.933  1.00  0.00     0.163 HD
ATOM     22  O   UNL     1      10.116 -54.931 -24.100  1.00  0.00    -0.269 OA
BRANCH  20  23
ATOM     23  C   UNL     1      10.248 -56.703 -22.557  1.00  0.00     0.040 A 
ATOM     24  C   UNL     1       9.357 -57.641 -23.104  1.00  0.00     0.017 A 
ATOM     25  C   UNL     1      11.249 -57.129 -21.671  1.00  0.00     0.017 A 
ATOM     26  C   UNL     1       9.482 -58.995 -22.786  1.00  0.00     0.040 A 
ATOM     27  C   UNL     1      11.368 -58.485 -21.356  1.00  0.00     0.040 A 
ATOM     28  C   UNL     1      10.488 -59.405 -21.918  1.00  0.00     0.123 A 
ATOM     29  F   UNL     1      10.608 -60.702 -21.612  1.00  0.00    -0.207 F 
ENDBRANCH  20  23
ENDBRANCH  18  19
ENDBRANCH   1  18
TORSDOF 5
ENDMDL
MODEL 5
REMARK VINA RESULT:   -10.423      1.435      4.005
REMARK INTER + INTRA:         -13.931
REMARK INTER:                 -13.388
REMARK INTRA:                  -0.543
REMARK UNBOUND:                -0.462
REMARK SMILES O=C(NCCN=c1c2c([nH]c3ccccc13)CCCC2)c1ccc(F)cc1
REMARK SMILES IDX 5 1 6 2 7 3 10 4 9 5 11 6 8 7 17 8 12 9 16 10 20 11 18 12
REMARK SMILES IDX 13 13 15 14 19 15 14 16 4 18 3 19 2 20 1 22 21 23 22 24
REMARK SMILES IDX 27 25 23 26 26 27 24 28 25 29
REMARK H PARENT 10 17 3 21
ROOT
ATOM      1  C   UNL     1      12.259 -59.895 -24.030  1.00  0.00     0.164 C 
ENDROOT
BRANCH   1   2
ATOM      2  N   UNL     1      11.678 -59.327 -25.232  1.00  0.00    -0.282 NA
BRANCH   2   3
ATOM      3  C   UNL     1      10.947 -59.909 -26.110  1.00  0.00     0.072 A 
ATOM      4  N   UNL     1      10.044 -61.526 -28.255  1.00  0.00    -0.358 N 
ATOM      5  C   UNL     1       9.482 -61.677 -27.004  1.00  0.00     0.021 A 
ATOM      6  C   UNL     1      10.792 -60.383 -28.566  1.00  0.00     0.048 A 
ATOM      7  C   UNL     1       9.834 -60.927 -25.933  1.00  0.00    -0.003 A 
ATOM      8  C   UNL     1       8.397 -62.735 -26.920  1.00  0.00     0.054 C 
ATOM      9  C   UNL     1      11.153 -60.105 -29.889  1.00  0.00     0.027 A 
ATOM     10  C   UNL     1      11.258 -59.551 -27.541  1.00  0.00     0.024 A 
ATOM     11  C   UNL     1       9.099 -61.022 -24.624  1.00  0.00     0.039 C 
ATOM     12  C   UNL     1       7.948 -63.066 -25.500  1.00  0.00     0.007 C 
ATOM     13  C   UNL     1      11.932 -58.984 -30.190  1.00  0.00     0.002 A 
ATOM     14  C   UNL     1      12.045 -58.431 -27.845  1.00  0.00     0.012 A 
ATOM     15  C   UNL     1       7.776 -61.789 -24.696  1.00  0.00     0.005 C 
ATOM     16  C   UNL     1      12.374 -58.146 -29.170  1.00  0.00     0.001 A 
ATOM     17  H   UNL     1       9.559 -61.966 -29.029  1.00  0.00     0.166 HD
ENDBRANCH   2   3
ENDBRANCH   1   2
BRANCH   1  18
ATOM     18  C   UNL     1      11.634 -59.272 -22.777  1.00  0.00     0.139 C 
BRANCH  18  19
ATOM     19  N   UNL     1      11.722 -57.821 -22.765  1.00  0.00    -0.350 N 
ATOM     20  C   UNL     1      10.607 -57.032 -22.946  1.00  0.00     0.251 C 
ATOM     21  H   UNL     1      12.567 -57.411 -22.396  1.00  0.00     0.163 HD
ATOM     22  O   UNL     1       9.485 -57.476 -23.156  1.00  0.00    -0.269 OA
BRANCH  20  23
ATOM     23  C   UNL     1      10.815 -55.562 -22.832  1.00  0.00     0.040 A 
ATOM     24  C   UNL     1      11.418 -54.890 -23.908  1.00  0.00     0.017 A 
ATOM     25  C   UNL     1      10.453 -54.847 -21.681  1.00  0.00     0.017 A 
ATOM     26  C   UNL     1      11.633 -53.513 -23.843  1.00  0.00     0.040 A 
ATOM     27  C   UNL     1      10.672 -53.468 -21.621  1.00  0.00     0.040 A 
ATOM     28  C   UNL     1      11.255 -52.814 -22.701  1.00  0.00     0.123 A 
ATOM     29  F   UNL     1      11.462 -51.493 -22.637  1.00  0.00    -0.207 F 
ENDBRANCH  20  23
ENDBRANCH  18  19
ENDBRANCH   1  18
TORSDOF 5
ENDMDL
MODEL 6
REMARK VINA RESULT:   -10.130      1.868      2.741
REMARK INTER + INTRA:         -13.552
REMARK INTER:                 -13.034
REMARK INTRA:                  -0.519
REMARK UNBOUND:                -0.462
REMARK SMILES O=C(NCCN=c1c2c([nH]c3ccccc13)CCCC2)c1ccc(F)cc1
REMARK SMILES IDX 5 1 6 2 7 3 10 4 9 5 11 6 8 7 17 8 12 9 16 10 20 11 18 12
REMARK SMILES IDX 13 13 15 14 19 15 14 16 4 18 3 19 2 20 1 22 21 23 22 24
REMARK SMILES IDX 27 25 23 26 26 27 24 28 25 29
REMARK H PARENT 10 17 3 21
ROOT
ATOM      1  C   UNL     1      11.817 -56.466 -24.267  1.00  0.00     0.164 C 
ENDROOT
BRANCH   1   2
ATOM      2  N   UNL     1      12.132 -57.845 -23.948  1.00  0.00    -0.282 NA
BRANCH   2   3
ATOM      3  C   UNL     1      11.539 -58.908 -24.351  1.00  0.00     0.072 A 
ATOM      4  N   UNL     1       9.571 -60.842 -24.999  1.00  0.00    -0.358 N 
ATOM      5  C   UNL     1      10.425 -60.382 -25.981  1.00  0.00     0.021 A 
ATOM      6  C   UNL     1       9.867 -60.637 -23.646  1.00  0.00     0.048 A 
ATOM      7  C   UNL     1      11.410 -59.482 -25.751  1.00  0.00    -0.003 A 
ATOM      8  C   UNL     1      10.203 -60.995 -27.352  1.00  0.00     0.054 C 
ATOM      9  C   UNL     1       9.147 -61.306 -22.649  1.00  0.00     0.027 A 
ATOM     10  C   UNL     1      10.834 -59.695 -23.276  1.00  0.00     0.024 A 
ATOM     11  C   UNL     1      12.411 -59.115 -26.812  1.00  0.00     0.039 C 
ATOM     12  C   UNL     1      10.980 -60.318 -28.477  1.00  0.00     0.007 C 
ATOM     13  C   UNL     1       9.420 -61.069 -21.298  1.00  0.00     0.002 A 
ATOM     14  C   UNL     1      11.101 -59.454 -21.920  1.00  0.00     0.012 A 
ATOM     15  C   UNL     1      12.405 -60.038 -28.033  1.00  0.00     0.005 C 
ATOM     16  C   UNL     1      10.399 -60.148 -20.934  1.00  0.00     0.001 A 
ATOM     17  H   UNL     1       9.029 -61.671 -25.218  1.00  0.00     0.166 HD
ENDBRANCH   2   3
ENDBRANCH   1   2
BRANCH   1  18
ATOM     18  C   UNL     1      11.087 -55.790 -23.100  1.00  0.00     0.139 C 
BRANCH  18  19
ATOM     19  N   UNL     1      11.098 -54.340 -23.194  1.00  0.00    -0.350 N 
ATOM     20  C   UNL     1      10.505 -53.553 -22.231  1.00  0.00     0.251 C 
ATOM     21  H   UNL     1      11.741 -53.922 -23.851  1.00  0.00     0.163 HD
ATOM     22  O   UNL     1       9.910 -53.999 -21.258  1.00  0.00    -0.269 OA
BRANCH  20  23
ATOM     23  C   UNL     1      10.655 -52.081 -22.400  1.00  0.00     0.040 A 
ATOM     24  C   UNL     1      11.852 -51.593 -22.948  1.00  0.00     0.017 A 
ATOM     25  C   UNL     1       9.654 -51.181 -22.006  1.00  0.00     0.017 A 
ATOM     26  C   UNL     1      12.035 -50.220 -23.123  1.00  0.00     0.040 A 
ATOM     27  C   UNL     1       9.842 -49.808 -22.182  1.00  0.00     0.040 A 
ATOM     28  C   UNL     1      11.027 -49.341 -22.741  1.00  0.00     0.123 A 
ATOM     29  F   UNL     1      11.202 -48.024 -22.908  1.00  0.00    -0.207 F 
ENDBRANCH  20  23
ENDBRANCH  18  19
ENDBRANCH   1  18
TORSDOF 5
ENDMDL
MODEL 7
REMARK VINA RESULT:    -9.672      5.743      8.907
REMARK INTER + INTRA:         -12.962
REMARK INTER:                 -11.932
REMARK INTRA:                  -1.030
REMARK UNBOUND:                -0.462
REMARK SMILES O=C(NCCN=c1c2c([nH]c3ccccc13)CCCC2)c1ccc(F)cc1
REMARK SMILES IDX 5 1 6 2 7 3 10 4 9 5 11 6 8 7 17 8 12 9 16 10 20 11 18 12
REMARK SMILES IDX 13 13 15 14 19 15 14 16 4 18 3 19 2 20 1 22 21 23 22 24
REMARK SMILES IDX 27 25 23 26 26 27 24 28 25 29
REMARK H PARENT 10 17 3 21
ROOT
ATOM      1  C   UNL     1       9.560 -50.848 -22.017  1.00  0.00     0.164 C 
ENDROOT
BRANCH   1   2
ATOM      2  N   UNL     1      10.951 -51.258 -21.980  1.00  0.00    -0.282 NA
BRANCH   2   3
ATOM      3  C   UNL     1      11.605 -51.924 -22.859  1.00  0.00     0.072 A 
ATOM      4  N   UNL     1      12.299 -53.569 -25.060  1.00  0.00    -0.358 N 
ATOM      5  C   UNL     1      12.791 -52.281 -24.988  1.00  0.00     0.021 A 
ATOM      6  C   UNL     1      11.756 -54.187 -23.927  1.00  0.00     0.048 A 
ATOM      7  C   UNL     1      12.533 -51.440 -23.959  1.00  0.00    -0.003 A 
ATOM      8  C   UNL     1      13.687 -51.880 -26.146  1.00  0.00     0.054 C 
ATOM      9  C   UNL     1      11.486 -55.560 -23.923  1.00  0.00     0.027 A 
ATOM     10  C   UNL     1      11.400 -53.417 -22.812  1.00  0.00     0.024 A 
ATOM     11  C   UNL     1      13.202 -50.099 -23.846  1.00  0.00     0.039 C 
ATOM     12  C   UNL     1      14.032 -50.395 -26.189  1.00  0.00     0.007 C 
ATOM     13  C   UNL     1      10.908 -56.166 -22.804  1.00  0.00     0.002 A 
ATOM     14  C   UNL     1      10.814 -54.026 -21.693  1.00  0.00     0.012 A 
ATOM     15  C   UNL     1      14.385 -49.900 -24.797  1.00  0.00     0.005 C 
ATOM     16  C   UNL     1      10.577 -55.401 -21.688  1.00  0.00     0.001 A 
ATOM     17  H   UNL     1      12.730 -54.184 -25.741  1.00  0.00     0.166 HD
ENDBRANCH   2   3
ENDBRANCH   1   2
BRANCH   1  18
ATOM     18  C   UNL     1       9.441 -49.321 -21.971  1.00  0.00     0.139 C 
BRANCH  18  19
ATOM     19  N   UNL     1      10.522 -48.651 -22.675  1.00  0.00    -0.350 N 
ATOM     20  C   UNL     1      10.748 -47.299 -22.524  1.00  0.00     0.251 C 
ATOM     21  H   UNL     1      11.235 -49.231 -23.091  1.00  0.00     0.163 HD
ATOM     22  O   UNL     1      10.058 -46.566 -21.826  1.00  0.00    -0.269 OA
BRANCH  20  23
ATOM     23  C   UNL     1      11.934 -46.748 -23.236  1.00  0.00     0.040 A 
ATOM     24  C   UNL     1      13.139 -46.626 -22.525  1.00  0.00     0.017 A 
ATOM     25  C   UNL     1      11.871 -46.328 -24.573  1.00  0.00     0.017 A 
ATOM     26  C   UNL     1      14.275 -46.113 -23.153  1.00  0.00     0.040 A 
ATOM     27  C   UNL     1      13.011 -45.815 -25.196  1.00  0.00     0.040 A 
ATOM     28  C   UNL     1      14.202 -45.715 -24.483  1.00  0.00     0.123 A 
ATOM     29  F   UNL     1      15.290 -45.222 -25.086  1.00  0.00    -0.207 F 
ENDBRANCH  20  23
ENDBRANCH  18  19
ENDBRANCH   1  18
TORSDOF 5
ENDMDL
MODEL 8
REMARK VINA RESULT:    -9.627      4.440     10.453
REMARK INTER + INTRA:         -12.903
REMARK INTER:                 -12.555
REMARK INTRA:                  -0.348
REMARK UNBOUND:                -0.462
REMARK SMILES O=C(NCCN=c1c2c([nH]c3ccccc13)CCCC2)c1ccc(F)cc1
REMARK SMILES IDX 5 1 6 2 7 3 10 4 9 5 11 6 8 7 17 8 12 9 16 10 20 11 18 12
REMARK SMILES IDX 13 13 15 14 19 15 14 16 4 18 3 19 2 20 1 22 21 23 22 24
REMARK SMILES IDX 27 25 23 26 26 27 24 28 25 29
REMARK H PARENT 10 17 3 21
ROOT
ATOM      1  C   UNL     1      11.872 -52.661 -23.483  1.00  0.00     0.164 C 
ENDROOT
BRANCH   1   2
ATOM      2  N   UNL     1      12.946 -51.775 -23.082  1.00  0.00    -0.282 NA
BRANCH   2   3
ATOM      3  C   UNL     1      13.316 -50.677 -23.632  1.00  0.00     0.072 A 
ATOM      4  N   UNL     1      14.077 -48.705 -25.520  1.00  0.00    -0.358 N 
ATOM      5  C   UNL     1      13.004 -48.471 -24.684  1.00  0.00     0.021 A 
ATOM      6  C   UNL     1      14.993 -49.725 -25.233  1.00  0.00     0.048 A 
ATOM      7  C   UNL     1      12.592 -49.346 -23.737  1.00  0.00    -0.003 A 
ATOM      8  C   UNL     1      12.329 -47.126 -24.881  1.00  0.00     0.054 C 
ATOM      9  C   UNL     1      16.206 -49.810 -25.925  1.00  0.00     0.027 A 
ATOM     10  C   UNL     1      14.664 -50.720 -24.304  1.00  0.00     0.024 A 
ATOM     11  C   UNL     1      11.512 -48.996 -22.751  1.00  0.00     0.039 C 
ATOM     12  C   UNL     1      11.010 -46.968 -24.132  1.00  0.00     0.007 C 
ATOM     13  C   UNL     1      17.100 -50.852 -25.663  1.00  0.00     0.002 A 
ATOM     14  C   UNL     1      15.560 -51.768 -24.048  1.00  0.00     0.012 A 
ATOM     15  C   UNL     1      11.143 -47.510 -22.719  1.00  0.00     0.005 C 
ATOM     16  C   UNL     1      16.780 -51.827 -24.722  1.00  0.00     0.001 A 
ATOM     17  H   UNL     1      14.442 -47.907 -26.027  1.00  0.00     0.166 HD
ENDBRANCH   2   3
ENDBRANCH   1   2
BRANCH   1  18
ATOM     18  C   UNL     1      10.978 -53.009 -22.287  1.00  0.00     0.139 C 
BRANCH  18  19
ATOM     19  N   UNL     1      10.937 -54.436 -22.011  1.00  0.00    -0.350 N 
ATOM     20  C   UNL     1      10.345 -55.320 -22.887  1.00  0.00     0.251 C 
ATOM     21  H   UNL     1      11.546 -54.786 -21.287  1.00  0.00     0.163 HD
ATOM     22  O   UNL     1       9.793 -54.983 -23.927  1.00  0.00    -0.269 OA
BRANCH  20  23
ATOM     23  C   UNL     1      10.440 -56.763 -22.530  1.00  0.00     0.040 A 
ATOM     24  C   UNL     1       9.533 -57.656 -23.123  1.00  0.00     0.017 A 
ATOM     25  C   UNL     1      11.383 -57.240 -21.608  1.00  0.00     0.017 A 
ATOM     26  C   UNL     1       9.586 -59.017 -22.816  1.00  0.00     0.040 A 
ATOM     27  C   UNL     1      11.431 -58.603 -21.303  1.00  0.00     0.040 A 
ATOM     28  C   UNL     1      10.536 -59.478 -21.911  1.00  0.00     0.123 A 
ATOM     29  F   UNL     1      10.587 -60.782 -21.615  1.00  0.00    -0.207 F 
ENDBRANCH  20  23
ENDBRANCH  18  19
ENDBRANCH   1  18
TORSDOF 5
ENDMDL
MODEL 9
REMARK VINA RESULT:    -9.532      3.301      6.140
REMARK INTER + INTRA:         -12.780
REMARK INTER:                 -12.664
REMARK INTRA:                  -0.115
REMARK UNBOUND:                -0.462
REMARK SMILES O=C(NCCN=c1c2c([nH]c3ccccc13)CCCC2)c1ccc(F)cc1
REMARK SMILES IDX 5 1 6 2 7 3 10 4 9 5 11 6 8 7 17 8 12 9 16 10 20 11 18 12
REMARK SMILES IDX 13 13 15 14 19 15 14 16 4 18 3 19 2 20 1 22 21 23 22 24
REMARK SMILES IDX 27 25 23 26 26 27 24 28 25 29
REMARK H PARENT 10 17 3 21
ROOT
ATOM      1  C   UNL     1      12.524 -55.242 -26.268  1.00  0.00     0.164 C 
ENDROOT
BRANCH   1   2
ATOM      2  N   UNL     1      12.554 -56.345 -25.329  1.00  0.00    -0.282 NA
BRANCH   2   3
ATOM      3  C   UNL     1      11.919 -56.461 -24.220  1.00  0.00     0.072 A 
ATOM      4  N   UNL     1      11.228 -57.023 -21.530  1.00  0.00    -0.358 N 
ATOM      5  C   UNL     1      11.093 -55.738 -22.015  1.00  0.00     0.021 A 
ATOM      6  C   UNL     1      11.369 -58.103 -22.409  1.00  0.00     0.048 A 
ATOM      7  C   UNL     1      11.373 -55.390 -23.293  1.00  0.00    -0.003 A 
ATOM      8  C   UNL     1      10.565 -54.733 -21.007  1.00  0.00     0.054 C 
ATOM      9  C   UNL     1      11.258 -59.420 -21.946  1.00  0.00     0.027 A 
ATOM     10  C   UNL     1      11.706 -57.877 -23.749  1.00  0.00     0.024 A 
ATOM     11  C   UNL     1      11.076 -54.014 -23.822  1.00  0.00     0.039 C 
ATOM     12  C   UNL     1      10.642 -53.280 -21.467  1.00  0.00     0.007 C 
ATOM     13  C   UNL     1      11.438 -60.496 -22.819  1.00  0.00     0.002 A 
ATOM     14  C   UNL     1      11.892 -58.959 -24.622  1.00  0.00     0.012 A 
ATOM     15  C   UNL     1      10.185 -53.165 -22.911  1.00  0.00     0.005 C 
ATOM     16  C   UNL     1      11.750 -60.266 -24.157  1.00  0.00     0.001 A 
ATOM     17  H   UNL     1      10.782 -57.225 -20.642  1.00  0.00     0.166 HD
ENDBRANCH   2   3
ENDBRANCH   1   2
BRANCH   1  18
ATOM     18  C   UNL     1      13.713 -54.301 -26.041  1.00  0.00     0.139 C 
BRANCH  18  19
ATOM     19  N   UNL     1      13.312 -53.005 -25.517  1.00  0.00    -0.350 N 
ATOM     20  C   UNL     1      14.130 -51.901 -25.630  1.00  0.00     0.251 C 
ATOM     21  H   UNL     1      12.340 -52.882 -25.279  1.00  0.00     0.163 HD
ATOM     22  O   UNL     1      15.243 -51.926 -26.140  1.00  0.00    -0.269 OA
BRANCH  20  23
ATOM     23  C   UNL     1      13.572 -50.615 -25.127  1.00  0.00     0.040 A 
ATOM     24  C   UNL     1      12.718 -50.652 -24.012  1.00  0.00     0.017 A 
ATOM     25  C   UNL     1      13.853 -49.389 -25.747  1.00  0.00     0.017 A 
ATOM     26  C   UNL     1      12.172 -49.470 -23.508  1.00  0.00     0.040 A 
ATOM     27  C   UNL     1      13.303 -48.209 -25.239  1.00  0.00     0.040 A 
ATOM     28  C   UNL     1      12.472 -48.260 -24.124  1.00  0.00     0.123 A 
ATOM     29  F   UNL     1      11.948 -47.126 -23.642  1.00  0.00    -0.207 F 
ENDBRANCH  20  23
ENDBRANCH  18  19
ENDBRANCH   1  18
TORSDOF 5
ENDMDL
