MODEL 1
REMARK VINA RESULT:    -9.823      0.000      0.000
REMARK INTER + INTRA:         -14.537
REMARK INTER:                 -13.555
REMARK INTRA:                  -0.982
REMARK UNBOUND:                -0.982
REMARK SMILES COc1cccc([C@@H]2CC(c3cc(F)cc(F)c3)=NN2c2ccc(S(N)(=O)=O)cc2)c1OC
REMARK SMILES IDX 21 1 22 2 23 3 24 4 29 5 30 6 20 7 8 8 9 9 10 10 19 11 7 12
REMARK SMILES IDX 3 13 4 14 31 15 5 16 6 17 2 18 1 19 32 20 33 21 11 22 12 23
REMARK SMILES IDX 18 24 13 25 16 26 15 27 14 28 17 29 25 30 27 31 28 32 26 33
REMARK H PARENT 26 34 26 35
ROOT
ATOM      1  C   UNL     1      12.033 -52.329 -23.642  1.00  0.00     0.060 A 
ATOM      2  C   UNL     1      12.214 -53.325 -24.621  1.00  0.00     0.029 A 
ATOM      3  C   UNL     1      11.794 -54.645 -24.425  1.00  0.00     0.024 A 
ATOM      4  C   UNL     1      11.186 -54.993 -23.222  1.00  0.00     0.082 A 
ATOM      5  C   UNL     1      10.976 -54.034 -22.234  1.00  0.00     0.024 A 
ATOM      6  C   UNL     1      11.400 -52.717 -22.448  1.00  0.00     0.029 A 
ENDROOT
BRANCH   1   7
ATOM      7  N   UNL     1      12.460 -51.022 -23.871  1.00  0.00    -0.257 N 
ATOM      8  C   UNL     1      13.437 -50.602 -24.883  1.00  0.00     0.148 C 
ATOM      9  C   UNL     1      13.224 -49.088 -24.945  1.00  0.00     0.091 C 
ATOM     10  C   UNL     1      12.365 -48.887 -23.727  1.00  0.00     0.071 C 
ATOM     11  N   UNL     1      11.927 -49.976 -23.173  1.00  0.00    -0.176 NA
BRANCH   8  12
ATOM     12  C   UNL     1      14.879 -50.928 -24.521  1.00  0.00     0.023 A 
ATOM     13  C   UNL     1      17.216 -51.216 -25.221  1.00  0.00     0.161 A 
ATOM     14  C   UNL     1      17.574 -51.443 -23.890  1.00  0.00     0.050 A 
ATOM     15  C   UNL     1      15.860 -50.984 -25.533  1.00  0.00     0.166 A 
ATOM     16  C   UNL     1      16.610 -51.407 -22.881  1.00  0.00     0.004 A 
ATOM     17  C   UNL     1      15.279 -51.139 -23.191  1.00  0.00     0.010 A 
BRANCH  13  18
ATOM     18  O   UNL     1      18.108 -51.180 -26.262  1.00  0.00    -0.493 OA
ATOM     19  C   UNL     1      19.361 -51.824 -26.080  1.00  0.00     0.278 C 
ENDBRANCH  13  18
BRANCH  15  20
ATOM     20  O   UNL     1      15.422 -50.718 -26.812  1.00  0.00    -0.492 OA
ATOM     21  C   UNL     1      15.825 -49.435 -27.291  1.00  0.00     0.278 C 
ENDBRANCH  15  20
ENDBRANCH   8  12
BRANCH  10  22
ATOM     22  C   UNL     1      12.020 -47.536 -23.228  1.00  0.00     0.004 A 
ATOM     23  C   UNL     1      12.677 -47.047 -22.092  1.00  0.00     0.049 A 
ATOM     24  C   UNL     1      11.057 -46.746 -23.862  1.00  0.00     0.049 A 
ATOM     25  C   UNL     1      12.366 -45.780 -21.607  1.00  0.00     0.126 A 
ATOM     26  C   UNL     1      10.766 -45.482 -23.354  1.00  0.00     0.126 A 
ATOM     27  C   UNL     1      11.412 -44.988 -22.230  1.00  0.00     0.078 A 
ATOM     28  F   UNL     1      12.996 -45.317 -20.521  1.00  0.00    -0.207 F 
ATOM     29  F   UNL     1       9.841 -44.730 -23.965  1.00  0.00    -0.207 F 
ENDBRANCH  10  22
ENDBRANCH   1   7
BRANCH   4  30
ATOM     30  S   UNL     1      10.650 -56.659 -22.953  1.00  0.00     0.238 S 
ATOM     31  O   UNL     1      11.068 -57.072 -21.634  1.00  0.00    -0.207 OA
ATOM     32  O   UNL     1       9.286 -56.787 -23.411  1.00  0.00    -0.207 OA
BRANCH  30  33
ATOM     33  N   UNL     1      11.588 -57.496 -24.076  1.00  0.00    -0.225 NA
ATOM     34  H   UNL     1      12.538 -57.578 -23.713  1.00  0.00     0.137 HD
ATOM     35  H   UNL     1      11.196 -58.405 -24.322  1.00  0.00     0.137 HD
ENDBRANCH  30  33
ENDBRANCH   4  30
TORSDOF 7
ENDMDL
MODEL 2
REMARK VINA RESULT:    -8.716      4.714      7.626
REMARK INTER + INTRA:         -13.010
REMARK INTER:                 -11.752
REMARK INTRA:                  -1.257
REMARK UNBOUND:                -0.982
REMARK SMILES COc1cccc([C@@H]2CC(c3cc(F)cc(F)c3)=NN2c2ccc(S(N)(=O)=O)cc2)c1OC
REMARK SMILES IDX 21 1 22 2 23 3 24 4 29 5 30 6 20 7 8 8 9 9 10 10 19 11 7 12
REMARK SMILES IDX 3 13 4 14 31 15 5 16 6 17 2 18 1 19 32 20 33 21 11 22 12 23
REMARK SMILES IDX 18 24 13 25 16 26 15 27 14 28 17 29 25 30 27 31 28 32 26 33
REMARK H PARENT 26 34 26 35
ROOT
ATOM      1  C   UNL     1      12.729 -47.518 -23.776  1.00  0.00     0.060 A 
ATOM      2  C   UNL     1      11.452 -47.113 -24.210  1.00  0.00     0.029 A 
ATOM      3  C   UNL     1      11.048 -45.774 -24.181  1.00  0.00     0.024 A 
ATOM      4  C   UNL     1      11.928 -44.808 -23.700  1.00  0.00     0.082 A 
ATOM      5  C   UNL     1      13.205 -45.167 -23.276  1.00  0.00     0.024 A 
ATOM      6  C   UNL     1      13.594 -46.512 -23.314  1.00  0.00     0.029 A 
ENDROOT
BRANCH   1   7
ATOM      7  N   UNL     1      13.101 -48.860 -23.822  1.00  0.00    -0.257 N 
ATOM      8  C   UNL     1      14.476 -49.369 -23.903  1.00  0.00     0.148 C 
ATOM      9  C   UNL     1      14.308 -50.845 -23.534  1.00  0.00     0.091 C 
ATOM     10  C   UNL     1      12.812 -50.972 -23.605  1.00  0.00     0.071 C 
ATOM     11  N   UNL     1      12.167 -49.852 -23.730  1.00  0.00    -0.176 NA
BRANCH   8  12
ATOM     12  C   UNL     1      15.106 -49.228 -25.282  1.00  0.00     0.023 A 
ATOM     13  C   UNL     1      17.106 -48.848 -26.658  1.00  0.00     0.161 A 
ATOM     14  C   UNL     1      16.334 -49.038 -27.808  1.00  0.00     0.050 A 
ATOM     15  C   UNL     1      16.478 -48.919 -25.397  1.00  0.00     0.166 A 
ATOM     16  C   UNL     1      14.973 -49.328 -27.708  1.00  0.00     0.004 A 
ATOM     17  C   UNL     1      14.368 -49.435 -26.458  1.00  0.00     0.010 A 
BRANCH  13  18
ATOM     18  O   UNL     1      18.457 -48.616 -26.667  1.00  0.00    -0.493 OA
ATOM     19  C   UNL     1      19.221 -49.211 -27.706  1.00  0.00     0.278 C 
ENDBRANCH  13  18
BRANCH  15  20
ATOM     20  O   UNL     1      17.165 -48.778 -24.211  1.00  0.00    -0.492 OA
ATOM     21  C   UNL     1      17.917 -49.938 -23.853  1.00  0.00     0.278 C 
ENDBRANCH  15  20
ENDBRANCH   8  12
BRANCH  10  22
ATOM     22  C   UNL     1      12.132 -52.284 -23.502  1.00  0.00     0.004 A 
ATOM     23  C   UNL     1      12.386 -53.255 -24.477  1.00  0.00     0.049 A 
ATOM     24  C   UNL     1      11.246 -52.568 -22.459  1.00  0.00     0.049 A 
ATOM     25  C   UNL     1      11.757 -54.494 -24.397  1.00  0.00     0.126 A 
ATOM     26  C   UNL     1      10.630 -53.816 -22.405  1.00  0.00     0.126 A 
ATOM     27  C   UNL     1      10.876 -54.786 -23.365  1.00  0.00     0.078 A 
ATOM     28  F   UNL     1      12.003 -55.420 -25.332  1.00  0.00    -0.207 F 
ATOM     29  F   UNL     1       9.781 -54.082 -21.403  1.00  0.00    -0.207 F 
ENDBRANCH  10  22
ENDBRANCH   1   7
BRANCH   4  30
ATOM     30  S   UNL     1      11.435 -43.108 -23.652  1.00  0.00     0.238 S 
ATOM     31  O   UNL     1      10.798 -42.847 -22.383  1.00  0.00    -0.207 OA
ATOM     32  O   UNL     1      12.517 -42.297 -24.161  1.00  0.00    -0.207 OA
BRANCH  30  33
ATOM     33  N   UNL     1      10.243 -43.074 -24.843  1.00  0.00    -0.225 NA
ATOM     34  H   UNL     1      10.184 -42.126 -25.220  1.00  0.00     0.137 HD
ATOM     35  H   UNL     1      10.394 -43.765 -25.578  1.00  0.00     0.137 HD
ENDBRANCH  30  33
ENDBRANCH   4  30
TORSDOF 7
ENDMDL
MODEL 3
REMARK VINA RESULT:    -8.572      1.585      2.462
REMARK INTER + INTRA:         -12.811
REMARK INTER:                 -11.673
REMARK INTRA:                  -1.138
REMARK UNBOUND:                -0.982
REMARK SMILES COc1cccc([C@@H]2CC(c3cc(F)cc(F)c3)=NN2c2ccc(S(N)(=O)=O)cc2)c1OC
REMARK SMILES IDX 21 1 22 2 23 3 24 4 29 5 30 6 20 7 8 8 9 9 10 10 19 11 7 12
REMARK SMILES IDX 3 13 4 14 31 15 5 16 6 17 2 18 1 19 32 20 33 21 11 22 12 23
REMARK SMILES IDX 18 24 13 25 16 26 15 27 14 28 17 29 25 30 27 31 28 32 26 33
REMARK H PARENT 26 34 26 35
ROOT
ATOM      1  C   UNL     1      12.108 -50.693 -23.490  1.00  0.00     0.060 A 
ATOM      2  C   UNL     1      11.210 -50.910 -22.427  1.00  0.00     0.029 A 
ATOM      3  C   UNL     1      10.705 -52.180 -22.128  1.00  0.00     0.024 A 
ATOM      4  C   UNL     1      11.092 -53.267 -22.908  1.00  0.00     0.082 A 
ATOM      5  C   UNL     1      11.989 -53.095 -23.959  1.00  0.00     0.024 A 
ATOM      6  C   UNL     1      12.487 -51.817 -24.243  1.00  0.00     0.029 A 
ENDROOT
BRANCH   1   7
ATOM      7  N   UNL     1      12.594 -49.415 -23.759  1.00  0.00    -0.257 N 
ATOM      8  C   UNL     1      13.507 -49.054 -24.851  1.00  0.00     0.148 C 
ATOM      9  C   UNL     1      13.383 -47.530 -24.900  1.00  0.00     0.091 C 
ATOM     10  C   UNL     1      12.643 -47.278 -23.615  1.00  0.00     0.071 C 
ATOM     11  N   UNL     1      12.187 -48.339 -23.023  1.00  0.00    -0.176 NA
BRANCH   8  12
ATOM     12  C   UNL     1      14.952 -49.469 -24.609  1.00  0.00     0.023 A 
ATOM     13  C   UNL     1      17.001 -50.548 -25.428  1.00  0.00     0.161 A 
ATOM     14  C   UNL     1      17.649 -50.187 -24.243  1.00  0.00     0.050 A 
ATOM     15  C   UNL     1      15.643 -50.207 -25.593  1.00  0.00     0.166 A 
ATOM     16  C   UNL     1      16.972 -49.471 -23.255  1.00  0.00     0.004 A 
ATOM     17  C   UNL     1      15.642 -49.104 -23.442  1.00  0.00     0.010 A 
BRANCH  13  18
ATOM     18  O   UNL     1      17.609 -51.202 -26.469  1.00  0.00    -0.493 OA
ATOM     19  C   UNL     1      18.140 -52.495 -26.215  1.00  0.00     0.278 C 
ENDBRANCH  13  18
BRANCH  15  20
ATOM     20  O   UNL     1      14.934 -50.493 -26.739  1.00  0.00    -0.492 OA
ATOM     21  C   UNL     1      15.028 -49.470 -27.731  1.00  0.00     0.278 C 
ENDBRANCH  15  20
ENDBRANCH   8  12
BRANCH  10  22
ATOM     22  C   UNL     1      12.425 -45.909 -23.093  1.00  0.00     0.004 A 
ATOM     23  C   UNL     1      11.214 -45.265 -23.371  1.00  0.00     0.049 A 
ATOM     24  C   UNL     1      13.399 -45.252 -22.336  1.00  0.00     0.049 A 
ATOM     25  C   UNL     1      10.990 -43.978 -22.890  1.00  0.00     0.126 A 
ATOM     26  C   UNL     1      13.148 -43.964 -21.868  1.00  0.00     0.126 A 
ATOM     27  C   UNL     1      11.950 -43.317 -22.137  1.00  0.00     0.078 A 
ATOM     28  F   UNL     1       9.830 -43.366 -23.158  1.00  0.00    -0.207 F 
ATOM     29  F   UNL     1      14.085 -43.338 -21.144  1.00  0.00    -0.207 F 
ENDBRANCH  10  22
ENDBRANCH   1   7
BRANCH   4  30
ATOM     30  S   UNL     1      10.462 -54.882 -22.548  1.00  0.00     0.238 S 
ATOM     31  O   UNL     1      10.038 -55.498 -23.783  1.00  0.00    -0.207 OA
ATOM     32  O   UNL     1      11.360 -55.533 -21.622  1.00  0.00    -0.207 OA
BRANCH  30  33
ATOM     33  N   UNL     1       9.081 -54.509 -21.656  1.00  0.00    -0.225 NA
ATOM     34  H   UNL     1       9.319 -53.791 -20.971  1.00  0.00     0.137 HD
ATOM     35  H   UNL     1       8.294 -54.230 -22.241  1.00  0.00     0.137 HD
ENDBRANCH  30  33
ENDBRANCH   4  30
TORSDOF 7
ENDMDL
MODEL 4
REMARK VINA RESULT:    -8.560      3.586      6.366
REMARK INTER + INTRA:         -12.794
REMARK INTER:                 -11.636
REMARK INTRA:                  -1.158
REMARK UNBOUND:                -0.982
REMARK SMILES COc1cccc([C@@H]2CC(c3cc(F)cc(F)c3)=NN2c2ccc(S(N)(=O)=O)cc2)c1OC
REMARK SMILES IDX 21 1 22 2 23 3 24 4 29 5 30 6 20 7 8 8 9 9 10 10 19 11 7 12
REMARK SMILES IDX 3 13 4 14 31 15 5 16 6 17 2 18 1 19 32 20 33 21 11 22 12 23
REMARK SMILES IDX 18 24 13 25 16 26 15 27 14 28 17 29 25 30 27 31 28 32 26 33
REMARK H PARENT 26 34 26 35
ROOT
ATOM      1  C   UNL     1      12.880 -50.904 -23.739  1.00  0.00     0.060 A 
ATOM      2  C   UNL     1      12.615 -52.170 -24.296  1.00  0.00     0.029 A 
ATOM      3  C   UNL     1      11.846 -53.129 -23.629  1.00  0.00     0.024 A 
ATOM      4  C   UNL     1      11.331 -52.833 -22.369  1.00  0.00     0.082 A 
ATOM      5  C   UNL     1      11.559 -51.586 -21.791  1.00  0.00     0.024 A 
ATOM      6  C   UNL     1      12.329 -50.636 -22.474  1.00  0.00     0.029 A 
ENDROOT
BRANCH   1   7
ATOM      7  N   UNL     1      13.647 -49.970 -24.432  1.00  0.00    -0.257 N 
ATOM      8  C   UNL     1      14.165 -48.708 -23.888  1.00  0.00     0.148 C 
ATOM      9  C   UNL     1      15.218 -48.306 -24.922  1.00  0.00     0.091 C 
ATOM     10  C   UNL     1      14.891 -49.269 -26.030  1.00  0.00     0.071 C 
ATOM     11  N   UNL     1      14.043 -50.202 -25.718  1.00  0.00    -0.176 NA
BRANCH   8  12
ATOM     12  C   UNL     1      13.110 -47.620 -23.744  1.00  0.00     0.023 A 
ATOM     13  C   UNL     1      12.306 -45.602 -22.596  1.00  0.00     0.161 A 
ATOM     14  C   UNL     1      11.231 -45.539 -23.487  1.00  0.00     0.050 A 
ATOM     15  C   UNL     1      13.228 -46.662 -22.714  1.00  0.00     0.166 A 
ATOM     16  C   UNL     1      11.094 -46.490 -24.500  1.00  0.00     0.004 A 
ATOM     17  C   UNL     1      12.031 -47.511 -24.635  1.00  0.00     0.010 A 
BRANCH  13  18
ATOM     18  O   UNL     1      12.543 -44.679 -21.610  1.00  0.00    -0.493 OA
ATOM     19  C   UNL     1      12.974 -43.385 -22.009  1.00  0.00     0.278 C 
ENDBRANCH  13  18
BRANCH  15  20
ATOM     20  O   UNL     1      14.334 -46.785 -21.901  1.00  0.00    -0.492 OA
ATOM     21  C   UNL     1      14.046 -47.398 -20.645  1.00  0.00     0.278 C 
ENDBRANCH  15  20
ENDBRANCH   8  12
BRANCH  10  22
ATOM     22  C   UNL     1      15.525 -49.172 -27.364  1.00  0.00     0.004 A 
ATOM     23  C   UNL     1      14.784 -48.643 -28.428  1.00  0.00     0.049 A 
ATOM     24  C   UNL     1      16.839 -49.597 -27.582  1.00  0.00     0.049 A 
ATOM     25  C   UNL     1      15.363 -48.544 -29.690  1.00  0.00     0.126 A 
ATOM     26  C   UNL     1      17.392 -49.487 -28.856  1.00  0.00     0.126 A 
ATOM     27  C   UNL     1      16.667 -48.963 -29.916  1.00  0.00     0.078 A 
ATOM     28  F   UNL     1      14.651 -48.037 -30.704  1.00  0.00    -0.207 F 
ATOM     29  F   UNL     1      18.650 -49.897 -29.059  1.00  0.00    -0.207 F 
ENDBRANCH  10  22
ENDBRANCH   1   7
BRANCH   4  30
ATOM     30  S   UNL     1      10.359 -54.034 -21.506  1.00  0.00     0.238 S 
ATOM     31  O   UNL     1      10.667 -53.955 -20.098  1.00  0.00    -0.207 OA
ATOM     32  O   UNL     1       9.005 -53.983 -22.010  1.00  0.00    -0.207 OA
BRANCH  30  33
ATOM     33  N   UNL     1      11.008 -55.474 -22.096  1.00  0.00    -0.225 NA
ATOM     34  H   UNL     1      10.590 -56.254 -21.587  1.00  0.00     0.137 HD
ATOM     35  H   UNL     1      10.897 -55.576 -23.105  1.00  0.00     0.137 HD
ENDBRANCH  30  33
ENDBRANCH   4  30
TORSDOF 7
ENDMDL
MODEL 5
REMARK VINA RESULT:    -8.553      4.689      7.266
REMARK INTER + INTRA:         -12.785
REMARK INTER:                 -11.407
REMARK INTRA:                  -1.379
REMARK UNBOUND:                -0.982
REMARK SMILES COc1cccc([C@@H]2CC(c3cc(F)cc(F)c3)=NN2c2ccc(S(N)(=O)=O)cc2)c1OC
REMARK SMILES IDX 21 1 22 2 23 3 24 4 29 5 30 6 20 7 8 8 9 9 10 10 19 11 7 12
REMARK SMILES IDX 3 13 4 14 31 15 5 16 6 17 2 18 1 19 32 20 33 21 11 22 12 23
REMARK SMILES IDX 18 24 13 25 16 26 15 27 14 28 17 29 25 30 27 31 28 32 26 33
REMARK H PARENT 26 34 26 35
ROOT
ATOM      1  C   UNL     1      17.100 -51.204 -25.099  1.00  0.00     0.060 A 
ATOM      2  C   UNL     1      17.905 -52.044 -25.893  1.00  0.00     0.029 A 
ATOM      3  C   UNL     1      19.299 -52.070 -25.770  1.00  0.00     0.024 A 
ATOM      4  C   UNL     1      19.916 -51.234 -24.843  1.00  0.00     0.082 A 
ATOM      5  C   UNL     1      19.153 -50.400 -24.030  1.00  0.00     0.024 A 
ATOM      6  C   UNL     1      17.759 -50.388 -24.163  1.00  0.00     0.029 A 
ENDROOT
BRANCH   1   7
ATOM      7  N   UNL     1      15.714 -51.205 -25.244  1.00  0.00    -0.257 N 
ATOM      8  C   UNL     1      14.975 -50.790 -26.443  1.00  0.00     0.148 C 
ATOM      9  C   UNL     1      13.577 -51.356 -26.186  1.00  0.00     0.091 C 
ATOM     10  C   UNL     1      13.701 -51.735 -24.736  1.00  0.00     0.071 C 
ATOM     11  N   UNL     1      14.904 -51.675 -24.251  1.00  0.00    -0.176 NA
BRANCH   8  12
ATOM     12  C   UNL     1      14.916 -49.281 -26.639  1.00  0.00     0.023 A 
ATOM     13  C   UNL     1      15.315 -47.323 -28.068  1.00  0.00     0.161 A 
ATOM     14  C   UNL     1      14.754 -46.506 -27.083  1.00  0.00     0.050 A 
ATOM     15  C   UNL     1      15.416 -48.709 -27.828  1.00  0.00     0.166 A 
ATOM     16  C   UNL     1      14.271 -47.057 -25.895  1.00  0.00     0.004 A 
ATOM     17  C   UNL     1      14.339 -48.431 -25.681  1.00  0.00     0.010 A 
BRANCH  13  18
ATOM     18  O   UNL     1      15.761 -46.869 -29.282  1.00  0.00    -0.493 OA
ATOM     19  C   UNL     1      14.795 -46.660 -30.304  1.00  0.00     0.278 C 
ENDBRANCH  13  18
BRANCH  15  20
ATOM     20  O   UNL     1      15.923 -49.594 -28.755  1.00  0.00    -0.492 OA
ATOM     21  C   UNL     1      17.350 -49.618 -28.790  1.00  0.00     0.278 C 
ENDBRANCH  15  20
ENDBRANCH   8  12
BRANCH  10  22
ATOM     22  C   UNL     1      12.534 -52.178 -23.940  1.00  0.00     0.004 A 
ATOM     23  C   UNL     1      11.988 -53.443 -24.189  1.00  0.00     0.049 A 
ATOM     24  C   UNL     1      11.969 -51.364 -22.955  1.00  0.00     0.049 A 
ATOM     25  C   UNL     1      10.890 -53.878 -23.451  1.00  0.00     0.126 A 
ATOM     26  C   UNL     1      10.870 -51.824 -22.233  1.00  0.00     0.126 A 
ATOM     27  C   UNL     1      10.323 -53.077 -22.470  1.00  0.00     0.078 A 
ATOM     28  F   UNL     1      10.372 -55.088 -23.692  1.00  0.00    -0.207 F 
ATOM     29  F   UNL     1      10.332 -51.039 -21.291  1.00  0.00    -0.207 F 
ENDBRANCH  10  22
ENDBRANCH   1   7
BRANCH   4  30
ATOM     30  S   UNL     1      21.678 -51.250 -24.675  1.00  0.00     0.238 S 
ATOM     31  O   UNL     1      22.232 -50.217 -25.518  1.00  0.00    -0.207 OA
ATOM     32  O   UNL     1      22.009 -51.370 -23.274  1.00  0.00    -0.207 OA
BRANCH  30  33
ATOM     33  N   UNL     1      22.065 -52.739 -25.363  1.00  0.00    -0.225 NA
ATOM     34  H   UNL     1      22.900 -52.626 -25.940  1.00  0.00     0.137 HD
ATOM     35  H   UNL     1      22.181 -53.479 -24.670  1.00  0.00     0.137 HD
ENDBRANCH  30  33
ENDBRANCH   4  30
TORSDOF 7
ENDMDL
MODEL 6
REMARK VINA RESULT:    -8.538      4.970      7.711
REMARK INTER + INTRA:         -12.764
REMARK INTER:                 -11.505
REMARK INTRA:                  -1.259
REMARK UNBOUND:                -0.982
REMARK SMILES COc1cccc([C@@H]2CC(c3cc(F)cc(F)c3)=NN2c2ccc(S(N)(=O)=O)cc2)c1OC
REMARK SMILES IDX 21 1 22 2 23 3 24 4 29 5 30 6 20 7 8 8 9 9 10 10 19 11 7 12
REMARK SMILES IDX 3 13 4 14 31 15 5 16 6 17 2 18 1 19 32 20 33 21 11 22 12 23
REMARK SMILES IDX 18 24 13 25 16 26 15 27 14 28 17 29 25 30 27 31 28 32 26 33
REMARK H PARENT 26 34 26 35
ROOT
ATOM      1  C   UNL     1      12.539 -47.392 -23.281  1.00  0.00     0.060 A 
ATOM      2  C   UNL     1      12.534 -46.730 -22.037  1.00  0.00     0.029 A 
ATOM      3  C   UNL     1      12.200 -45.377 -21.917  1.00  0.00     0.024 A 
ATOM      4  C   UNL     1      11.870 -44.654 -23.060  1.00  0.00     0.082 A 
ATOM      5  C   UNL     1      11.849 -45.276 -24.306  1.00  0.00     0.024 A 
ATOM      6  C   UNL     1      12.183 -46.632 -24.408  1.00  0.00     0.029 A 
ENDROOT
BRANCH   1   7
ATOM      7  N   UNL     1      12.874 -48.742 -23.364  1.00  0.00    -0.257 N 
ATOM      8  C   UNL     1      14.202 -49.281 -23.683  1.00  0.00     0.148 C 
ATOM      9  C   UNL     1      14.080 -50.746 -23.258  1.00  0.00     0.091 C 
ATOM     10  C   UNL     1      12.593 -50.844 -23.053  1.00  0.00     0.071 C 
ATOM     11  N   UNL     1      11.955 -49.713 -23.082  1.00  0.00    -0.176 NA
BRANCH   8  12
ATOM     12  C   UNL     1      14.573 -49.177 -25.156  1.00  0.00     0.023 A 
ATOM     13  C   UNL     1      15.805 -48.029 -26.944  1.00  0.00     0.161 A 
ATOM     14  C   UNL     1      15.354 -48.989 -27.854  1.00  0.00     0.050 A 
ATOM     15  C   UNL     1      15.389 -48.115 -25.599  1.00  0.00     0.166 A 
ATOM     16  C   UNL     1      14.533 -50.035 -27.431  1.00  0.00     0.004 A 
ATOM     17  C   UNL     1      14.157 -50.136 -26.094  1.00  0.00     0.010 A 
BRANCH  13  18
ATOM     18  O   UNL     1      16.657 -47.004 -27.266  1.00  0.00    -0.493 OA
ATOM     19  C   UNL     1      16.412 -46.298 -28.475  1.00  0.00     0.278 C 
ENDBRANCH  13  18
BRANCH  15  20
ATOM     20  O   UNL     1      15.811 -47.233 -24.628  1.00  0.00    -0.492 OA
ATOM     21  C   UNL     1      17.158 -47.454 -24.212  1.00  0.00     0.278 C 
ENDBRANCH  15  20
ENDBRANCH   8  12
BRANCH  10  22
ATOM     22  C   UNL     1      11.922 -52.139 -22.800  1.00  0.00     0.004 A 
ATOM     23  C   UNL     1      11.400 -52.392 -21.525  1.00  0.00     0.049 A 
ATOM     24  C   UNL     1      11.802 -53.108 -23.800  1.00  0.00     0.049 A 
ATOM     25  C   UNL     1      10.766 -53.603 -21.268  1.00  0.00     0.126 A 
ATOM     26  C   UNL     1      11.163 -54.312 -23.513  1.00  0.00     0.126 A 
ATOM     27  C   UNL     1      10.641 -54.572 -22.254  1.00  0.00     0.078 A 
ATOM     28  F   UNL     1      10.268 -53.841 -20.048  1.00  0.00    -0.207 F 
ATOM     29  F   UNL     1      11.052 -55.238 -24.474  1.00  0.00    -0.207 F 
ENDBRANCH  10  22
ENDBRANCH   1   7
BRANCH   4  30
ATOM     30  S   UNL     1      11.447 -42.940 -22.930  1.00  0.00     0.238 S 
ATOM     31  O   UNL     1      11.819 -42.470 -21.616  1.00  0.00    -0.207 OA
ATOM     32  O   UNL     1      11.859 -42.268 -24.141  1.00  0.00    -0.207 OA
BRANCH  30  33
ATOM     33  N   UNL     1       9.764 -43.006 -22.997  1.00  0.00    -0.225 NA
ATOM     34  H   UNL     1       9.429 -43.593 -22.232  1.00  0.00     0.137 HD
ATOM     35  H   UNL     1       9.329 -42.083 -22.985  1.00  0.00     0.137 HD
ENDBRANCH  30  33
ENDBRANCH   4  30
TORSDOF 7
ENDMDL
MODEL 7
REMARK VINA RESULT:    -8.431      5.286      8.311
REMARK INTER + INTRA:         -12.616
REMARK INTER:                 -11.217
REMARK INTRA:                  -1.399
REMARK UNBOUND:                -0.982
REMARK SMILES COc1cccc([C@@H]2CC(c3cc(F)cc(F)c3)=NN2c2ccc(S(N)(=O)=O)cc2)c1OC
REMARK SMILES IDX 21 1 22 2 23 3 24 4 29 5 30 6 20 7 8 8 9 9 10 10 19 11 7 12
REMARK SMILES IDX 3 13 4 14 31 15 5 16 6 17 2 18 1 19 32 20 33 21 11 22 12 23
REMARK SMILES IDX 18 24 13 25 16 26 15 27 14 28 17 29 25 30 27 31 28 32 26 33
REMARK H PARENT 26 34 26 35
ROOT
ATOM      1  C   UNL     1      15.123 -48.394 -21.891  1.00  0.00     0.060 A 
ATOM      2  C   UNL     1      14.528 -47.569 -20.917  1.00  0.00     0.029 A 
ATOM      3  C   UNL     1      15.276 -46.945 -19.913  1.00  0.00     0.024 A 
ATOM      4  C   UNL     1      16.653 -47.149 -19.865  1.00  0.00     0.082 A 
ATOM      5  C   UNL     1      17.281 -47.947 -20.819  1.00  0.00     0.024 A 
ATOM      6  C   UNL     1      16.516 -48.562 -21.818  1.00  0.00     0.029 A 
ENDROOT
BRANCH   1   7
ATOM      7  N   UNL     1      14.348 -48.998 -22.878  1.00  0.00    -0.257 N 
ATOM      8  C   UNL     1      14.002 -48.410 -24.179  1.00  0.00     0.148 C 
ATOM      9  C   UNL     1      13.499 -49.620 -24.969  1.00  0.00     0.091 C 
ATOM     10  C   UNL     1      13.368 -50.630 -23.863  1.00  0.00     0.071 C 
ATOM     11  N   UNL     1      13.879 -50.271 -22.724  1.00  0.00    -0.176 NA
BRANCH   8  12
ATOM     12  C   UNL     1      12.928 -47.334 -24.103  1.00  0.00     0.023 A 
ATOM     13  C   UNL     1      12.298 -44.967 -24.295  1.00  0.00     0.161 A 
ATOM     14  C   UNL     1      10.966 -45.315 -24.056  1.00  0.00     0.050 A 
ATOM     15  C   UNL     1      13.279 -45.980 -24.292  1.00  0.00     0.166 A 
ATOM     16  C   UNL     1      10.608 -46.649 -23.852  1.00  0.00     0.004 A 
ATOM     17  C   UNL     1      11.577 -47.649 -23.889  1.00  0.00     0.010 A 
BRANCH  13  18
ATOM     18  O   UNL     1      12.724 -43.691 -24.560  1.00  0.00    -0.493 OA
ATOM     19  C   UNL     1      12.597 -43.216 -25.893  1.00  0.00     0.278 C 
ENDBRANCH  13  18
BRANCH  15  20
ATOM     20  O   UNL     1      14.610 -45.734 -24.552  1.00  0.00    -0.492 OA
ATOM     21  C   UNL     1      15.288 -45.101 -23.467  1.00  0.00     0.278 C 
ENDBRANCH  15  20
ENDBRANCH   8  12
BRANCH  10  22
ATOM     22  C   UNL     1      12.734 -51.950 -24.079  1.00  0.00     0.004 A 
ATOM     23  C   UNL     1      11.751 -52.383 -23.181  1.00  0.00     0.049 A 
ATOM     24  C   UNL     1      13.096 -52.769 -25.152  1.00  0.00     0.049 A 
ATOM     25  C   UNL     1      11.143 -53.621 -23.367  1.00  0.00     0.126 A 
ATOM     26  C   UNL     1      12.471 -54.003 -25.313  1.00  0.00     0.126 A 
ATOM     27  C   UNL     1      11.495 -54.440 -24.430  1.00  0.00     0.078 A 
ATOM     28  F   UNL     1      10.203 -54.030 -22.506  1.00  0.00    -0.207 F 
ATOM     29  F   UNL     1      12.823 -54.784 -26.343  1.00  0.00    -0.207 F 
ENDBRANCH  10  22
ENDBRANCH   1   7
BRANCH   4  30
ATOM     30  S   UNL     1      17.618 -46.371 -18.601  1.00  0.00     0.238 S 
ATOM     31  O   UNL     1      18.371 -47.386 -17.903  1.00  0.00    -0.207 OA
ATOM     32  O   UNL     1      18.236 -45.187 -19.153  1.00  0.00    -0.207 OA
BRANCH  30  33
ATOM     33  N   UNL     1      16.416 -45.813 -17.560  1.00  0.00    -0.225 NA
ATOM     34  H   UNL     1      15.644 -46.482 -17.563  1.00  0.00     0.137 HD
ATOM     35  H   UNL     1      16.759 -45.635 -16.616  1.00  0.00     0.137 HD
ENDBRANCH  30  33
ENDBRANCH   4  30
TORSDOF 7
ENDMDL
MODEL 8
REMARK VINA RESULT:    -8.222      4.920      7.645
REMARK INTER + INTRA:         -12.328
REMARK INTER:                 -11.079
REMARK INTRA:                  -1.249
REMARK UNBOUND:                -0.982
REMARK SMILES COc1cccc([C@@H]2CC(c3cc(F)cc(F)c3)=NN2c2ccc(S(N)(=O)=O)cc2)c1OC
REMARK SMILES IDX 21 1 22 2 23 3 24 4 29 5 30 6 20 7 8 8 9 9 10 10 19 11 7 12
REMARK SMILES IDX 3 13 4 14 31 15 5 16 6 17 2 18 1 19 32 20 33 21 11 22 12 23
REMARK SMILES IDX 18 24 13 25 16 26 15 27 14 28 17 29 25 30 27 31 28 32 26 33
REMARK H PARENT 26 34 26 35
ROOT
ATOM      1  C   UNL     1      14.146 -49.170 -25.987  1.00  0.00     0.060 A 
ATOM      2  C   UNL     1      14.617 -49.882 -27.108  1.00  0.00     0.029 A 
ATOM      3  C   UNL     1      15.117 -49.235 -28.243  1.00  0.00     0.024 A 
ATOM      4  C   UNL     1      15.144 -47.843 -28.275  1.00  0.00     0.082 A 
ATOM      5  C   UNL     1      14.701 -47.104 -27.181  1.00  0.00     0.024 A 
ATOM      6  C   UNL     1      14.206 -47.768 -26.052  1.00  0.00     0.029 A 
ENDROOT
BRANCH   1   7
ATOM      7  N   UNL     1      13.658 -49.847 -24.871  1.00  0.00    -0.257 N 
ATOM      8  C   UNL     1      13.681 -49.354 -23.488  1.00  0.00     0.148 C 
ATOM      9  C   UNL     1      12.699 -50.290 -22.783  1.00  0.00     0.091 C 
ATOM     10  C   UNL     1      12.523 -51.344 -23.841  1.00  0.00     0.071 C 
ATOM     11  N   UNL     1      13.035 -51.055 -24.999  1.00  0.00    -0.176 NA
BRANCH   8  12
ATOM     12  C   UNL     1      15.054 -49.421 -22.833  1.00  0.00     0.023 A 
ATOM     13  C   UNL     1      16.736 -48.413 -21.354  1.00  0.00     0.161 A 
ATOM     14  C   UNL     1      17.548 -49.537 -21.532  1.00  0.00     0.050 A 
ATOM     15  C   UNL     1      15.500 -48.351 -22.029  1.00  0.00     0.166 A 
ATOM     16  C   UNL     1      17.126 -50.595 -22.337  1.00  0.00     0.004 A 
ATOM     17  C   UNL     1      15.886 -50.544 -22.970  1.00  0.00     0.010 A 
BRANCH  13  18
ATOM     18  O   UNL     1      17.052 -47.358 -20.537  1.00  0.00    -0.493 OA
ATOM     19  C   UNL     1      18.382 -46.859 -20.589  1.00  0.00     0.278 C 
ENDBRANCH  13  18
BRANCH  15  20
ATOM     20  O   UNL     1      14.622 -47.299 -21.886  1.00  0.00    -0.492 OA
ATOM     21  C   UNL     1      13.875 -47.348 -20.671  1.00  0.00     0.278 C 
ENDBRANCH  15  20
ENDBRANCH   8  12
BRANCH  10  22
ATOM     22  C   UNL     1      11.785 -52.601 -23.579  1.00  0.00     0.004 A 
ATOM     23  C   UNL     1      12.169 -53.764 -24.257  1.00  0.00     0.049 A 
ATOM     24  C   UNL     1      10.718 -52.648 -22.677  1.00  0.00     0.049 A 
ATOM     25  C   UNL     1      11.487 -54.955 -24.025  1.00  0.00     0.126 A 
ATOM     26  C   UNL     1      10.053 -53.853 -22.465  1.00  0.00     0.126 A 
ATOM     27  C   UNL     1      10.427 -55.012 -23.131  1.00  0.00     0.078 A 
ATOM     28  F   UNL     1      11.858 -56.065 -24.675  1.00  0.00    -0.207 F 
ATOM     29  F   UNL     1       9.031 -53.892 -21.601  1.00  0.00    -0.207 F 
ENDBRANCH  10  22
ENDBRANCH   1   7
BRANCH   4  30
ATOM     30  S   UNL     1      15.770 -47.004 -29.704  1.00  0.00     0.238 S 
ATOM     31  O   UNL     1      16.610 -45.913 -29.269  1.00  0.00    -0.207 OA
ATOM     32  O   UNL     1      16.211 -47.990 -30.663  1.00  0.00    -0.207 OA
BRANCH  30  33
ATOM     33  N   UNL     1      14.359 -46.344 -30.347  1.00  0.00    -0.225 NA
ATOM     34  H   UNL     1      14.222 -45.414 -29.948  1.00  0.00     0.137 HD
ATOM     35  H   UNL     1      14.359 -46.323 -31.367  1.00  0.00     0.137 HD
ENDBRANCH  30  33
ENDBRANCH   4  30
TORSDOF 7
ENDMDL
MODEL 9
REMARK VINA RESULT:    -7.964      5.009      7.809
REMARK INTER + INTRA:         -11.972
REMARK INTER:                 -10.622
REMARK INTRA:                  -1.350
REMARK UNBOUND:                -0.982
REMARK SMILES COc1cccc([C@@H]2CC(c3cc(F)cc(F)c3)=NN2c2ccc(S(N)(=O)=O)cc2)c1OC
REMARK SMILES IDX 21 1 22 2 23 3 24 4 29 5 30 6 20 7 8 8 9 9 10 10 19 11 7 12
REMARK SMILES IDX 3 13 4 14 31 15 5 16 6 17 2 18 1 19 32 20 33 21 11 22 12 23
REMARK SMILES IDX 18 24 13 25 16 26 15 27 14 28 17 29 25 30 27 31 28 32 26 33
REMARK H PARENT 26 34 26 35
ROOT
ATOM      1  C   UNL     1      13.195 -47.270 -24.333  1.00  0.00     0.060 A 
ATOM      2  C   UNL     1      12.382 -46.605 -23.395  1.00  0.00     0.029 A 
ATOM      3  C   UNL     1      11.981 -45.276 -23.570  1.00  0.00     0.024 A 
ATOM      4  C   UNL     1      12.403 -44.581 -24.700  1.00  0.00     0.082 A 
ATOM      5  C   UNL     1      13.196 -45.209 -25.658  1.00  0.00     0.024 A 
ATOM      6  C   UNL     1      13.586 -46.540 -25.469  1.00  0.00     0.029 A 
ENDROOT
BRANCH   1   7
ATOM      7  N   UNL     1      13.573 -48.596 -24.130  1.00  0.00    -0.257 N 
ATOM      8  C   UNL     1      14.854 -49.049 -23.572  1.00  0.00     0.148 C 
ATOM      9  C   UNL     1      14.568 -50.511 -23.224  1.00  0.00     0.091 C 
ATOM     10  C   UNL     1      13.256 -50.706 -23.932  1.00  0.00     0.071 C 
ATOM     11  N   UNL     1      12.711 -49.621 -24.394  1.00  0.00    -0.176 NA
BRANCH   8  12
ATOM     12  C   UNL     1      16.021 -48.945 -24.544  1.00  0.00     0.023 A 
ATOM     13  C   UNL     1      18.202 -47.976 -25.124  1.00  0.00     0.161 A 
ATOM     14  C   UNL     1      18.241 -48.779 -26.268  1.00  0.00     0.050 A 
ATOM     15  C   UNL     1      17.075 -48.046 -24.280  1.00  0.00     0.166 A 
ATOM     16  C   UNL     1      17.196 -49.660 -26.550  1.00  0.00     0.004 A 
ATOM     17  C   UNL     1      16.105 -49.753 -25.690  1.00  0.00     0.010 A 
BRANCH  13  18
ATOM     18  O   UNL     1      19.210 -47.126 -24.747  1.00  0.00    -0.493 OA
ATOM     19  C   UNL     1      20.506 -47.362 -25.279  1.00  0.00     0.278 C 
ENDBRANCH  13  18
BRANCH  15  20
ATOM     20  O   UNL     1      16.967 -47.317 -23.115  1.00  0.00    -0.492 OA
ATOM     21  C   UNL     1      16.517 -45.979 -23.327  1.00  0.00     0.278 C 
ENDBRANCH  15  20
ENDBRANCH   8  12
BRANCH  10  22
ATOM     22  C   UNL     1      12.624 -52.039 -24.055  1.00  0.00     0.004 A 
ATOM     23  C   UNL     1      11.704 -52.443 -23.080  1.00  0.00     0.049 A 
ATOM     24  C   UNL     1      12.926 -52.897 -25.117  1.00  0.00     0.049 A 
ATOM     25  C   UNL     1      11.099 -53.693 -23.178  1.00  0.00     0.126 A 
ATOM     26  C   UNL     1      12.306 -54.142 -25.189  1.00  0.00     0.126 A 
ATOM     27  C   UNL     1      11.392 -54.551 -24.228  1.00  0.00     0.078 A 
ATOM     28  F   UNL     1      10.220 -54.075 -22.243  1.00  0.00    -0.207 F 
ATOM     29  F   UNL     1      12.600 -54.960 -26.207  1.00  0.00    -0.207 F 
ENDBRANCH  10  22
ENDBRANCH   1   7
BRANCH   4  30
ATOM     30  S   UNL     1      11.910 -42.897 -24.938  1.00  0.00     0.238 S 
ATOM     31  O   UNL     1      12.232 -42.148 -23.747  1.00  0.00    -0.207 OA
ATOM     32  O   UNL     1      12.322 -42.476 -26.257  1.00  0.00    -0.207 OA
BRANCH  30  33
ATOM     33  N   UNL     1      10.233 -43.050 -25.013  1.00  0.00    -0.225 NA
ATOM     34  H   UNL     1       9.893 -43.379 -24.108  1.00  0.00     0.137 HD
ATOM     35  H   UNL     1       9.768 -42.189 -25.302  1.00  0.00     0.137 HD
ENDBRANCH  30  33
ENDBRANCH   4  30
TORSDOF 7
ENDMDL
