MODEL 1
REMARK VINA RESULT:    -7.442      0.000      0.000
REMARK INTER + INTRA:          -9.748
REMARK INTER:                  -9.400
REMARK INTRA:                  -0.348
REMARK UNBOUND:                -0.348
REMARK SMILES COc1ccc([C@H](C)NS(N)(=O)=O)cc1
REMARK SMILES IDX 7 1 8 2 6 3 3 4 4 5 15 6 5 7 14 8 2 9 1 10 9 11 10 13 12 14
REMARK SMILES IDX 13 15 11 16
REMARK H PARENT 9 12 11 17 11 18
ROOT
ATOM      1  C   UNL     1       9.169 -61.726 -22.771  1.00  0.00     0.097 C 
ATOM      2  C   UNL     1      10.275 -62.779 -22.689  1.00  0.00     0.031 C 
ENDROOT
BRANCH   1   3
ATOM      3  C   UNL     1       9.738 -60.342 -22.500  1.00  0.00    -0.030 A 
ATOM      4  C   UNL     1      10.854 -57.800 -21.974  1.00  0.00     0.118 A 
ATOM      5  C   UNL     1      10.015 -57.994 -23.070  1.00  0.00     0.047 A 
ATOM      6  C   UNL     1      11.140 -58.879 -21.139  1.00  0.00     0.047 A 
ATOM      7  C   UNL     1       9.463 -59.250 -23.337  1.00  0.00     0.009 A 
ATOM      8  C   UNL     1      10.589 -60.139 -21.402  1.00  0.00     0.009 A 
BRANCH   4   9
ATOM      9  O   UNL     1      11.325 -56.524 -21.831  1.00  0.00    -0.497 OA
ATOM     10  C   UNL     1      11.074 -55.621 -22.899  1.00  0.00     0.278 C 
ENDBRANCH   4   9
ENDBRANCH   1   3
BRANCH   1  11
ATOM     11  N   UNL     1       8.517 -61.796 -24.098  1.00  0.00    -0.195 NA
ATOM     12  H   UNL     1       9.027 -62.373 -24.766  1.00  0.00     0.143 HD
BRANCH  11  13
ATOM     13  S   UNL     1       6.902 -62.187 -24.154  1.00  0.00     0.274 S 
ATOM     14  O   UNL     1       6.174 -60.965 -23.935  1.00  0.00    -0.195 OA
ATOM     15  O   UNL     1       6.673 -63.067 -25.267  1.00  0.00    -0.195 OA
BRANCH  13  16
ATOM     16  N   UNL     1       6.841 -63.073 -22.759  1.00  0.00    -0.216 NA
ATOM     17  H   UNL     1       5.945 -63.540 -22.651  1.00  0.00     0.138 HD
ATOM     18  H   UNL     1       7.186 -62.578 -21.944  1.00  0.00     0.138 HD
ENDBRANCH  13  16
ENDBRANCH  11  13
ENDBRANCH   1  11
TORSDOF 5
ENDMDL
MODEL 2
REMARK VINA RESULT:    -7.377      4.227      5.566
REMARK INTER + INTRA:          -9.665
REMARK INTER:                  -9.388
REMARK INTRA:                  -0.277
REMARK UNBOUND:                -0.348
REMARK SMILES COc1ccc([C@H](C)NS(N)(=O)=O)cc1
REMARK SMILES IDX 7 1 8 2 6 3 3 4 4 5 15 6 5 7 14 8 2 9 1 10 9 11 10 13 12 14
REMARK SMILES IDX 13 15 11 16
REMARK H PARENT 9 12 11 17 11 18
ROOT
ATOM      1  C   UNL     1      11.003 -57.025 -22.983  1.00  0.00     0.097 C 
ATOM      2  C   UNL     1      11.334 -57.767 -21.687  1.00  0.00     0.031 C 
ENDROOT
BRANCH   1   3
ATOM      3  C   UNL     1      11.010 -55.522 -22.747  1.00  0.00    -0.030 A 
ATOM      4  C   UNL     1      11.044 -52.742 -22.242  1.00  0.00     0.118 A 
ATOM      5  C   UNL     1      11.408 -53.242 -23.492  1.00  0.00     0.047 A 
ATOM      6  C   UNL     1      10.665 -53.634 -21.240  1.00  0.00     0.047 A 
ATOM      7  C   UNL     1      11.396 -54.617 -23.745  1.00  0.00     0.009 A 
ATOM      8  C   UNL     1      10.651 -55.011 -21.490  1.00  0.00     0.009 A 
BRANCH   4   9
ATOM      9  O   UNL     1      11.101 -51.381 -22.130  1.00  0.00    -0.497 OA
ATOM     10  C   UNL     1       9.866 -50.695 -21.972  1.00  0.00     0.278 C 
ENDBRANCH   4   9
ENDBRANCH   1   3
BRANCH   1  11
ATOM     11  N   UNL     1      11.967 -57.415 -24.036  1.00  0.00    -0.195 NA
ATOM     12  H   UNL     1      12.936 -57.220 -23.785  1.00  0.00     0.143 HD
BRANCH  11  13
ATOM     13  S   UNL     1      11.858 -58.950 -24.665  1.00  0.00     0.274 S 
ATOM     14  O   UNL     1      12.898 -59.725 -24.042  1.00  0.00    -0.195 OA
ATOM     15  O   UNL     1      10.476 -59.344 -24.698  1.00  0.00    -0.195 OA
BRANCH  13  16
ATOM     16  N   UNL     1      12.341 -58.591 -26.205  1.00  0.00    -0.216 NA
ATOM     17  H   UNL     1      11.831 -57.797 -26.582  1.00  0.00     0.138 HD
ATOM     18  H   UNL     1      12.413 -59.402 -26.810  1.00  0.00     0.138 HD
ENDBRANCH  13  16
ENDBRANCH  11  13
ENDBRANCH   1  11
TORSDOF 5
ENDMDL
MODEL 3
REMARK VINA RESULT:    -7.212      4.311      6.122
REMARK INTER + INTRA:          -9.457
REMARK INTER:                  -9.088
REMARK INTRA:                  -0.370
REMARK UNBOUND:                -0.348
REMARK SMILES COc1ccc([C@H](C)NS(N)(=O)=O)cc1
REMARK SMILES IDX 7 1 8 2 6 3 3 4 4 5 15 6 5 7 14 8 2 9 1 10 9 11 10 13 12 14
REMARK SMILES IDX 13 15 11 16
REMARK H PARENT 9 12 11 17 11 18
ROOT
ATOM      1  C   UNL     1      11.866 -59.717 -25.621  1.00  0.00     0.097 C 
ATOM      2  C   UNL     1      12.100 -58.549 -24.663  1.00  0.00     0.031 C 
ENDROOT
BRANCH   1   3
ATOM      3  C   UNL     1      11.039 -60.799 -24.943  1.00  0.00    -0.030 A 
ATOM      4  C   UNL     1       9.485 -62.834 -23.748  1.00  0.00     0.118 A 
ATOM      5  C   UNL     1      10.656 -62.383 -23.139  1.00  0.00     0.047 A 
ATOM      6  C   UNL     1       9.091 -62.269 -24.961  1.00  0.00     0.047 A 
ATOM      7  C   UNL     1      11.429 -61.379 -23.728  1.00  0.00     0.009 A 
ATOM      8  C   UNL     1       9.863 -61.263 -25.553  1.00  0.00     0.009 A 
BRANCH   4   9
ATOM      9  O   UNL     1       8.826 -63.819 -23.067  1.00  0.00    -0.497 OA
ATOM     10  C   UNL     1       7.521 -64.153 -23.519  1.00  0.00     0.278 C 
ENDBRANCH   4   9
ENDBRANCH   1   3
BRANCH   1  11
ATOM     11  N   UNL     1      11.211 -59.224 -26.853  1.00  0.00    -0.195 NA
ATOM     12  H   UNL     1      10.959 -58.236 -26.805  1.00  0.00     0.143 HD
BRANCH  11  13
ATOM     13  S   UNL     1      11.950 -59.534 -28.309  1.00  0.00     0.274 S 
ATOM     14  O   UNL     1      11.886 -58.316 -29.072  1.00  0.00    -0.195 OA
ATOM     15  O   UNL     1      13.164 -60.266 -28.069  1.00  0.00    -0.195 OA
BRANCH  13  16
ATOM     16  N   UNL     1      10.817 -60.575 -28.914  1.00  0.00    -0.216 NA
ATOM     17  H   UNL     1       9.894 -60.389 -28.529  1.00  0.00     0.138 HD
ATOM     18  H   UNL     1      11.111 -61.546 -28.913  1.00  0.00     0.138 HD
ENDBRANCH  13  16
ENDBRANCH  11  13
ENDBRANCH   1  11
TORSDOF 5
ENDMDL
MODEL 4
REMARK VINA RESULT:    -7.110      3.354      5.725
REMARK INTER + INTRA:          -9.329
REMARK INTER:                  -8.947
REMARK INTRA:                  -0.382
REMARK UNBOUND:                -0.348
REMARK SMILES COc1ccc([C@H](C)NS(N)(=O)=O)cc1
REMARK SMILES IDX 7 1 8 2 6 3 3 4 4 5 15 6 5 7 14 8 2 9 1 10 9 11 10 13 12 14
REMARK SMILES IDX 13 15 11 16
REMARK H PARENT 9 12 11 17 11 18
ROOT
ATOM      1  C   UNL     1      10.876 -60.131 -22.416  1.00  0.00     0.097 C 
ATOM      2  C   UNL     1      10.578 -59.683 -20.984  1.00  0.00     0.031 C 
ENDROOT
BRANCH   1   3
ATOM      3  C   UNL     1       9.688 -60.889 -22.989  1.00  0.00    -0.030 A 
ATOM      4  C   UNL     1       7.457 -62.235 -24.083  1.00  0.00     0.118 A 
ATOM      5  C   UNL     1       8.699 -62.864 -24.006  1.00  0.00     0.047 A 
ATOM      6  C   UNL     1       7.330 -60.927 -23.617  1.00  0.00     0.047 A 
ATOM      7  C   UNL     1       9.806 -62.201 -23.469  1.00  0.00     0.009 A 
ATOM      8  C   UNL     1       8.436 -60.261 -23.077  1.00  0.00     0.009 A 
BRANCH   4   9
ATOM      9  O   UNL     1       6.462 -62.995 -24.631  1.00  0.00    -0.497 OA
ATOM     10  C   UNL     1       6.849 -63.967 -25.593  1.00  0.00     0.278 C 
ENDBRANCH   4   9
ENDBRANCH   1   3
BRANCH   1  11
ATOM     11  N   UNL     1      11.219 -58.952 -23.242  1.00  0.00    -0.195 NA
ATOM     12  H   UNL     1      11.668 -58.207 -22.710  1.00  0.00     0.143 HD
BRANCH  11  13
ATOM     13  S   UNL     1      12.061 -59.206 -24.653  1.00  0.00     0.274 S 
ATOM     14  O   UNL     1      13.211 -59.999 -24.309  1.00  0.00    -0.195 OA
ATOM     15  O   UNL     1      11.133 -59.551 -25.695  1.00  0.00    -0.195 OA
BRANCH  13  16
ATOM     16  N   UNL     1      12.566 -57.650 -24.890  1.00  0.00    -0.216 NA
ATOM     17  H   UNL     1      12.171 -57.253 -25.739  1.00  0.00     0.138 HD
ATOM     18  H   UNL     1      13.564 -57.519 -24.761  1.00  0.00     0.138 HD
ENDBRANCH  13  16
ENDBRANCH  11  13
ENDBRANCH   1  11
TORSDOF 5
ENDMDL
MODEL 5
REMARK VINA RESULT:    -6.946      3.561      5.045
REMARK INTER + INTRA:          -9.121
REMARK INTER:                  -9.000
REMARK INTRA:                  -0.121
REMARK UNBOUND:                -0.348
REMARK SMILES COc1ccc([C@H](C)NS(N)(=O)=O)cc1
REMARK SMILES IDX 7 1 8 2 6 3 3 4 4 5 15 6 5 7 14 8 2 9 1 10 9 11 10 13 12 14
REMARK SMILES IDX 13 15 11 16
REMARK H PARENT 9 12 11 17 11 18
ROOT
ATOM      1  C   UNL     1      10.319 -56.884 -22.772  1.00  0.00     0.097 C 
ATOM      2  C   UNL     1      11.452 -57.664 -23.439  1.00  0.00     0.031 C 
ENDROOT
BRANCH   1   3
ATOM      3  C   UNL     1      10.671 -55.406 -22.692  1.00  0.00    -0.030 A 
ATOM      4  C   UNL     1      11.313 -52.655 -22.614  1.00  0.00     0.118 A 
ATOM      5  C   UNL     1      10.687 -53.270 -21.530  1.00  0.00     0.047 A 
ATOM      6  C   UNL     1      11.615 -53.415 -23.743  1.00  0.00     0.047 A 
ATOM      7  C   UNL     1      10.365 -54.630 -21.566  1.00  0.00     0.009 A 
ATOM      8  C   UNL     1      11.295 -54.777 -23.782  1.00  0.00     0.009 A 
BRANCH   4   9
ATOM      9  O   UNL     1      11.569 -51.323 -22.448  1.00  0.00    -0.497 OA
ATOM     10  C   UNL     1      10.479 -50.501 -22.053  1.00  0.00     0.278 C 
ENDBRANCH   4   9
ENDBRANCH   1   3
BRANCH   1  11
ATOM     11  N   UNL     1       9.061 -57.102 -23.521  1.00  0.00    -0.195 NA
ATOM     12  H   UNL     1       9.041 -56.622 -24.421  1.00  0.00     0.143 HD
BRANCH  11  13
ATOM     13  S   UNL     1       8.531 -58.665 -23.719  1.00  0.00     0.274 S 
ATOM     14  O   UNL     1       8.991 -59.096 -25.012  1.00  0.00    -0.195 OA
ATOM     15  O   UNL     1       8.765 -59.395 -22.502  1.00  0.00    -0.195 OA
BRANCH  13  16
ATOM     16  N   UNL     1       6.915 -58.337 -23.835  1.00  0.00    -0.216 NA
ATOM     17  H   UNL     1       6.359 -58.995 -23.295  1.00  0.00     0.138 HD
ATOM     18  H   UNL     1       6.601 -58.163 -24.784  1.00  0.00     0.138 HD
ENDBRANCH  13  16
ENDBRANCH  11  13
ENDBRANCH   1  11
TORSDOF 5
ENDMDL
MODEL 6
REMARK VINA RESULT:    -6.939      5.346      6.969
REMARK INTER + INTRA:          -9.113
REMARK INTER:                  -8.743
REMARK INTRA:                  -0.370
REMARK UNBOUND:                -0.348
REMARK SMILES COc1ccc([C@H](C)NS(N)(=O)=O)cc1
REMARK SMILES IDX 7 1 8 2 6 3 3 4 4 5 15 6 5 7 14 8 2 9 1 10 9 11 10 13 12 14
REMARK SMILES IDX 13 15 11 16
REMARK H PARENT 9 12 11 17 11 18
ROOT
ATOM      1  C   UNL     1      10.614 -54.791 -23.037  1.00  0.00     0.097 C 
ATOM      2  C   UNL     1      10.060 -53.942 -21.893  1.00  0.00     0.031 C 
ENDROOT
BRANCH   1   3
ATOM      3  C   UNL     1      11.543 -53.960 -23.909  1.00  0.00    -0.030 A 
ATOM      4  C   UNL     1      13.293 -52.383 -25.470  1.00  0.00     0.118 A 
ATOM      5  C   UNL     1      13.013 -53.702 -25.828  1.00  0.00     0.047 A 
ATOM      6  C   UNL     1      12.700 -51.852 -24.325  1.00  0.00     0.047 A 
ATOM      7  C   UNL     1      12.151 -54.486 -25.057  1.00  0.00     0.009 A 
ATOM      8  C   UNL     1      11.835 -52.634 -23.552  1.00  0.00     0.009 A 
BRANCH   4   9
ATOM      9  O   UNL     1      14.152 -51.731 -26.309  1.00  0.00    -0.497 OA
ATOM     10  C   UNL     1      14.041 -50.315 -26.372  1.00  0.00     0.278 C 
ENDBRANCH   4   9
ENDBRANCH   1   3
BRANCH   1  11
ATOM     11  N   UNL     1      11.305 -55.977 -22.483  1.00  0.00    -0.195 NA
ATOM     12  H   UNL     1      11.478 -55.909 -21.480  1.00  0.00     0.143 HD
BRANCH  11  13
ATOM     13  S   UNL     1      10.682 -57.478 -22.834  1.00  0.00     0.274 S 
ATOM     14  O   UNL     1      10.922 -58.303 -21.680  1.00  0.00    -0.195 OA
ATOM     15  O   UNL     1       9.393 -57.316 -23.449  1.00  0.00    -0.195 OA
BRANCH  13  16
ATOM     16  N   UNL     1      11.774 -57.903 -24.000  1.00  0.00    -0.216 NA
ATOM     17  H   UNL     1      12.710 -58.007 -23.617  1.00  0.00     0.138 HD
ATOM     18  H   UNL     1      11.700 -57.353 -24.850  1.00  0.00     0.138 HD
ENDBRANCH  13  16
ENDBRANCH  11  13
ENDBRANCH   1  11
TORSDOF 5
ENDMDL
MODEL 7
REMARK VINA RESULT:    -6.853      3.612      4.912
REMARK INTER + INTRA:          -9.004
REMARK INTER:                  -8.637
REMARK INTRA:                  -0.367
REMARK UNBOUND:                -0.348
REMARK SMILES COc1ccc([C@H](C)NS(N)(=O)=O)cc1
REMARK SMILES IDX 7 1 8 2 6 3 3 4 4 5 15 6 5 7 14 8 2 9 1 10 9 11 10 13 12 14
REMARK SMILES IDX 13 15 11 16
REMARK H PARENT 9 12 11 17 11 18
ROOT
ATOM      1  C   UNL     1      10.322 -61.413 -23.770  1.00  0.00     0.097 C 
ATOM      2  C   UNL     1      10.228 -62.692 -22.937  1.00  0.00     0.031 C 
ENDROOT
BRANCH   1   3
ATOM      3  C   UNL     1       9.057 -60.584 -23.609  1.00  0.00    -0.030 A 
ATOM      4  C   UNL     1       6.738 -58.990 -23.348  1.00  0.00     0.118 A 
ATOM      5  C   UNL     1       6.639 -60.376 -23.465  1.00  0.00     0.047 A 
ATOM      6  C   UNL     1       8.000 -58.397 -23.367  1.00  0.00     0.047 A 
ATOM      7  C   UNL     1       7.783 -61.168 -23.597  1.00  0.00     0.009 A 
ATOM      8  C   UNL     1       9.148 -59.187 -23.498  1.00  0.00     0.009 A 
BRANCH   4   9
ATOM      9  O   UNL     1       5.543 -58.337 -23.226  1.00  0.00    -0.497 OA
ATOM     10  C   UNL     1       4.533 -58.980 -22.460  1.00  0.00     0.278 C 
ENDBRANCH   4   9
ENDBRANCH   1   3
BRANCH   1  11
ATOM     11  N   UNL     1      11.526 -60.650 -23.372  1.00  0.00    -0.195 NA
ATOM     12  H   UNL     1      12.021 -61.065 -22.582  1.00  0.00     0.143 HD
BRANCH  11  13
ATOM     13  S   UNL     1      12.621 -60.245 -24.556  1.00  0.00     0.274 S 
ATOM     14  O   UNL     1      13.909 -60.692 -24.097  1.00  0.00    -0.195 OA
ATOM     15  O   UNL     1      12.067 -60.583 -25.839  1.00  0.00    -0.195 OA
BRANCH  13  16
ATOM     16  N   UNL     1      12.553 -58.604 -24.367  1.00  0.00    -0.216 NA
ATOM     17  H   UNL     1      11.604 -58.254 -24.472  1.00  0.00     0.138 HD
ATOM     18  H   UNL     1      13.271 -58.103 -24.878  1.00  0.00     0.138 HD
ENDBRANCH  13  16
ENDBRANCH  11  13
ENDBRANCH   1  11
TORSDOF 5
ENDMDL
MODEL 8
REMARK VINA RESULT:    -6.848      3.646      4.236
REMARK INTER + INTRA:          -8.998
REMARK INTER:                  -8.644
REMARK INTRA:                  -0.353
REMARK UNBOUND:                -0.348
REMARK SMILES COc1ccc([C@H](C)NS(N)(=O)=O)cc1
REMARK SMILES IDX 7 1 8 2 6 3 3 4 4 5 15 6 5 7 14 8 2 9 1 10 9 11 10 13 12 14
REMARK SMILES IDX 13 15 11 16
REMARK H PARENT 9 12 11 17 11 18
ROOT
ATOM      1  C   UNL     1       9.562 -61.705 -24.226  1.00  0.00     0.097 C 
ATOM      2  C   UNL     1      10.714 -61.985 -23.261  1.00  0.00     0.031 C 
ENDROOT
BRANCH   1   3
ATOM      3  C   UNL     1      10.094 -61.138 -25.534  1.00  0.00    -0.030 A 
ATOM      4  C   UNL     1      11.149 -60.080 -27.932  1.00  0.00     0.118 A 
ATOM      5  C   UNL     1      10.140 -61.041 -27.963  1.00  0.00     0.047 A 
ATOM      6  C   UNL     1      11.637 -59.648 -26.700  1.00  0.00     0.047 A 
ATOM      7  C   UNL     1       9.617 -61.570 -26.779  1.00  0.00     0.009 A 
ATOM      8  C   UNL     1      11.115 -60.174 -25.512  1.00  0.00     0.009 A 
BRANCH   4   9
ATOM      9  O   UNL     1      11.569 -59.649 -29.160  1.00  0.00    -0.497 OA
ATOM     10  C   UNL     1      12.022 -58.305 -29.252  1.00  0.00     0.278 C 
ENDBRANCH   4   9
ENDBRANCH   1   3
BRANCH   1  11
ATOM     11  N   UNL     1       8.788 -62.947 -24.448  1.00  0.00    -0.195 NA
ATOM     12  H   UNL     1       9.123 -63.733 -23.891  1.00  0.00     0.143 HD
BRANCH  11  13
ATOM     13  S   UNL     1       7.131 -62.864 -24.343  1.00  0.00     0.274 S 
ATOM     14  O   UNL     1       6.802 -61.484 -24.107  1.00  0.00    -0.195 OA
ATOM     15  O   UNL     1       6.557 -63.656 -25.397  1.00  0.00    -0.195 OA
BRANCH  13  16
ATOM     16  N   UNL     1       6.961 -63.681 -22.916  1.00  0.00    -0.216 NA
ATOM     17  H   UNL     1       6.568 -64.607 -23.059  1.00  0.00     0.138 HD
ATOM     18  H   UNL     1       6.539 -63.128 -22.176  1.00  0.00     0.138 HD
ENDBRANCH  13  16
ENDBRANCH  11  13
ENDBRANCH   1  11
TORSDOF 5
ENDMDL
MODEL 9
REMARK VINA RESULT:    -6.834      3.549      5.836
REMARK INTER + INTRA:          -8.980
REMARK INTER:                  -8.673
REMARK INTRA:                  -0.307
REMARK UNBOUND:                -0.348
REMARK SMILES COc1ccc([C@H](C)NS(N)(=O)=O)cc1
REMARK SMILES IDX 7 1 8 2 6 3 3 4 4 5 15 6 5 7 14 8 2 9 1 10 9 11 10 13 12 14
REMARK SMILES IDX 13 15 11 16
REMARK H PARENT 9 12 11 17 11 18
ROOT
ATOM      1  C   UNL     1      11.933 -60.057 -24.348  1.00  0.00     0.097 C 
ATOM      2  C   UNL     1      13.294 -60.723 -24.553  1.00  0.00     0.031 C 
ENDROOT
BRANCH   1   3
ATOM      3  C   UNL     1      10.832 -61.106 -24.307  1.00  0.00    -0.030 A 
ATOM      4  C   UNL     1       8.784 -63.048 -24.159  1.00  0.00     0.118 A 
ATOM      5  C   UNL     1       8.872 -62.190 -25.255  1.00  0.00     0.047 A 
ATOM      6  C   UNL     1       9.719 -62.934 -23.131  1.00  0.00     0.047 A 
ATOM      7  C   UNL     1       9.882 -61.226 -25.330  1.00  0.00     0.009 A 
ATOM      8  C   UNL     1      10.732 -61.970 -23.204  1.00  0.00     0.009 A 
BRANCH   4   9
ATOM      9  O   UNL     1       7.750 -63.941 -24.212  1.00  0.00    -0.497 OA
ATOM     10  C   UNL     1       6.936 -63.915 -25.376  1.00  0.00     0.278 C 
ENDBRANCH   4   9
ENDBRANCH   1   3
BRANCH   1  11
ATOM     11  N   UNL     1      11.959 -59.249 -23.108  1.00  0.00    -0.195 NA
ATOM     12  H   UNL     1      12.901 -59.100 -22.746  1.00  0.00     0.143 HD
BRANCH  11  13
ATOM     13  S   UNL     1      11.131 -57.808 -23.097  1.00  0.00     0.274 S 
ATOM     14  O   UNL     1       9.807 -58.089 -23.584  1.00  0.00    -0.195 OA
ATOM     15  O   UNL     1      11.402 -57.122 -21.863  1.00  0.00    -0.195 OA
BRANCH  13  16
ATOM     16  N   UNL     1      11.972 -57.062 -24.310  1.00  0.00    -0.216 NA
ATOM     17  H   UNL     1      12.445 -56.226 -23.978  1.00  0.00     0.138 HD
ATOM     18  H   UNL     1      11.447 -56.964 -25.172  1.00  0.00     0.138 HD
ENDBRANCH  13  16
ENDBRANCH  11  13
ENDBRANCH   1  11
TORSDOF 5
ENDMDL
