MODEL 1
REMARK VINA RESULT:    -9.510      0.000      0.000
REMARK INTER + INTRA:         -14.203
REMARK INTER:                 -13.124
REMARK INTRA:                  -1.080
REMARK UNBOUND:                -1.080
REMARK SMILES COc1ccc([C@H]2CC(c3cc(F)ccc3F)=NN2c2ccc(S(N)(=O)=O)cc2)c(OC)c1
REMARK SMILES IDX 20 1 21 2 22 3 23 4 28 5 29 6 19 7 7 8 8 9 9 10 18 11 6 12
REMARK SMILES IDX 3 13 4 14 33 15 5 16 30 17 2 18 1 19 31 20 32 21 10 22 11 23
REMARK SMILES IDX 16 24 12 25 15 26 14 27 17 28 13 29 24 30 26 31 27 32 25 33
REMARK H PARENT 25 34 25 35
ROOT
ATOM      1  C   UNL     1      13.123 -48.771 -24.800  1.00  0.00     0.060 A 
ATOM      2  C   UNL     1      13.987 -47.987 -25.581  1.00  0.00     0.029 A 
ATOM      3  C   UNL     1      13.904 -46.588 -25.600  1.00  0.00     0.024 A 
ATOM      4  C   UNL     1      12.943 -45.946 -24.824  1.00  0.00     0.082 A 
ATOM      5  C   UNL     1      12.054 -46.687 -24.051  1.00  0.00     0.024 A 
ATOM      6  C   UNL     1      12.154 -48.082 -24.043  1.00  0.00     0.029 A 
ENDROOT
BRANCH   1   7
ATOM      7  N   UNL     1      13.197 -50.161 -24.756  1.00  0.00    -0.257 N 
ATOM      8  C   UNL     1      13.968 -51.028 -25.658  1.00  0.00     0.148 C 
ATOM      9  C   UNL     1      13.350 -52.408 -25.432  1.00  0.00     0.091 C 
ATOM     10  C   UNL     1      12.459 -52.118 -24.257  1.00  0.00     0.074 C 
ATOM     11  N   UNL     1      12.359 -50.864 -23.934  1.00  0.00    -0.176 NA
BRANCH   8  12
ATOM     12  C   UNL     1      15.468 -50.995 -25.396  1.00  0.00     0.019 A 
ATOM     13  C   UNL     1      18.237 -50.966 -24.777  1.00  0.00     0.122 A 
ATOM     14  C   UNL     1      17.316 -51.446 -23.849  1.00  0.00     0.047 A 
ATOM     15  C   UNL     1      17.777 -50.496 -26.006  1.00  0.00     0.093 A 
ATOM     16  C   UNL     1      15.949 -51.452 -24.153  1.00  0.00     0.013 A 
ATOM     17  C   UNL     1      16.413 -50.522 -26.319  1.00  0.00     0.127 A 
BRANCH  13  18
ATOM     18  O   UNL     1      19.590 -50.892 -24.604  1.00  0.00    -0.497 OA
ATOM     19  C   UNL     1      20.388 -51.786 -25.371  1.00  0.00     0.278 C 
ENDBRANCH  13  18
BRANCH  17  20
ATOM     20  O   UNL     1      15.998 -49.989 -27.510  1.00  0.00    -0.496 OA
ATOM     21  C   UNL     1      17.078 -49.330 -28.176  1.00  0.00     0.278 C 
ENDBRANCH  17  20
ENDBRANCH   8  12
BRANCH  10  22
ATOM     22  C   UNL     1      11.730 -53.183 -23.534  1.00  0.00     0.037 A 
ATOM     23  C   UNL     1      11.386 -52.969 -22.193  1.00  0.00     0.052 A 
ATOM     24  C   UNL     1      11.376 -54.391 -24.142  1.00  0.00     0.132 A 
ATOM     25  C   UNL     1      10.707 -53.959 -21.489  1.00  0.00     0.124 A 
ATOM     26  C   UNL     1      10.695 -55.379 -23.429  1.00  0.00     0.043 A 
ATOM     27  C   UNL     1      10.359 -55.162 -22.094  1.00  0.00     0.042 A 
ATOM     28  F   UNL     1      11.665 -54.636 -25.427  1.00  0.00    -0.206 F 
ATOM     29  F   UNL     1      10.385 -53.752 -20.206  1.00  0.00    -0.207 F 
ENDBRANCH  10  22
ENDBRANCH   1   7
BRANCH   4  30
ATOM     30  S   UNL     1      12.829 -44.180 -24.828  1.00  0.00     0.238 S 
ATOM     31  O   UNL     1      11.524 -43.800 -24.337  1.00  0.00    -0.207 OA
ATOM     32  O   UNL     1      14.052 -43.638 -24.287  1.00  0.00    -0.207 OA
BRANCH  30  33
ATOM     33  N   UNL     1      12.799 -43.850 -26.481  1.00  0.00    -0.225 NA
ATOM     34  H   UNL     1      12.475 -42.890 -26.617  1.00  0.00     0.137 HD
ATOM     35  H   UNL     1      12.243 -44.519 -27.012  1.00  0.00     0.137 HD
ENDBRANCH  30  33
ENDBRANCH   4  30
TORSDOF 7
ENDMDL
MODEL 2
REMARK VINA RESULT:    -9.397      0.811      1.513
REMARK INTER + INTRA:         -14.048
REMARK INTER:                 -12.824
REMARK INTRA:                  -1.223
REMARK UNBOUND:                -1.080
REMARK SMILES COc1ccc([C@H]2CC(c3cc(F)ccc3F)=NN2c2ccc(S(N)(=O)=O)cc2)c(OC)c1
REMARK SMILES IDX 20 1 21 2 22 3 23 4 28 5 29 6 19 7 7 8 8 9 9 10 18 11 6 12
REMARK SMILES IDX 3 13 4 14 33 15 5 16 30 17 2 18 1 19 31 20 32 21 10 22 11 23
REMARK SMILES IDX 16 24 12 25 15 26 14 27 17 28 13 29 24 30 26 31 27 32 25 33
REMARK H PARENT 25 34 25 35
ROOT
ATOM      1  C   UNL     1      12.906 -48.694 -24.535  1.00  0.00     0.060 A 
ATOM      2  C   UNL     1      13.801 -47.962 -25.332  1.00  0.00     0.029 A 
ATOM      3  C   UNL     1      13.738 -46.566 -25.427  1.00  0.00     0.024 A 
ATOM      4  C   UNL     1      12.765 -45.872 -24.712  1.00  0.00     0.082 A 
ATOM      5  C   UNL     1      11.846 -46.560 -23.926  1.00  0.00     0.024 A 
ATOM      6  C   UNL     1      11.927 -47.954 -23.842  1.00  0.00     0.029 A 
ENDROOT
BRANCH   1   7
ATOM      7  N   UNL     1      12.960 -50.081 -24.416  1.00  0.00    -0.257 N 
ATOM      8  C   UNL     1      13.710 -51.006 -25.276  1.00  0.00     0.148 C 
ATOM      9  C   UNL     1      13.073 -52.363 -24.970  1.00  0.00     0.091 C 
ATOM     10  C   UNL     1      12.198 -51.996 -23.804  1.00  0.00     0.074 C 
ATOM     11  N   UNL     1      12.120 -50.724 -23.550  1.00  0.00    -0.176 NA
BRANCH   8  12
ATOM     12  C   UNL     1      15.212 -50.982 -25.029  1.00  0.00     0.019 A 
ATOM     13  C   UNL     1      17.987 -50.950 -24.436  1.00  0.00     0.122 A 
ATOM     14  C   UNL     1      17.062 -51.276 -23.447  1.00  0.00     0.047 A 
ATOM     15  C   UNL     1      17.528 -50.636 -25.714  1.00  0.00     0.093 A 
ATOM     16  C   UNL     1      15.692 -51.283 -23.739  1.00  0.00     0.013 A 
ATOM     17  C   UNL     1      16.161 -50.665 -26.013  1.00  0.00     0.127 A 
BRANCH  13  18
ATOM     18  O   UNL     1      19.343 -50.894 -24.283  1.00  0.00    -0.497 OA
ATOM     19  C   UNL     1      20.134 -51.468 -25.316  1.00  0.00     0.278 C 
ENDBRANCH  13  18
BRANCH  17  20
ATOM     20  O   UNL     1      15.749 -50.283 -27.262  1.00  0.00    -0.496 OA
ATOM     21  C   UNL     1      16.455 -49.117 -27.696  1.00  0.00     0.278 C 
ENDBRANCH  17  20
ENDBRANCH   8  12
BRANCH  10  22
ATOM     22  C   UNL     1      11.460 -53.008 -23.018  1.00  0.00     0.037 A 
ATOM     23  C   UNL     1      11.093 -54.207 -23.644  1.00  0.00     0.052 A 
ATOM     24  C   UNL     1      11.118 -52.810 -21.678  1.00  0.00     0.132 A 
ATOM     25  C   UNL     1      10.391 -55.172 -22.928  1.00  0.00     0.124 A 
ATOM     26  C   UNL     1      10.414 -53.783 -20.966  1.00  0.00     0.043 A 
ATOM     27  C   UNL     1      10.047 -54.971 -21.596  1.00  0.00     0.042 A 
ATOM     28  F   UNL     1      11.462 -51.690 -21.029  1.00  0.00    -0.206 F 
ATOM     29  F   UNL     1      10.039 -56.313 -23.532  1.00  0.00    -0.207 F 
ENDBRANCH  10  22
ENDBRANCH   1   7
BRANCH   4  30
ATOM     30  S   UNL     1      12.675 -44.107 -24.812  1.00  0.00     0.238 S 
ATOM     31  O   UNL     1      11.338 -43.691 -24.456  1.00  0.00    -0.207 OA
ATOM     32  O   UNL     1      13.854 -43.550 -24.194  1.00  0.00    -0.207 OA
BRANCH  30  33
ATOM     33  N   UNL     1      12.792 -43.860 -26.476  1.00  0.00    -0.225 NA
ATOM     34  H   UNL     1      13.780 -43.857 -26.738  1.00  0.00     0.137 HD
ATOM     35  H   UNL     1      12.313 -43.017 -26.789  1.00  0.00     0.137 HD
ENDBRANCH  30  33
ENDBRANCH   4  30
TORSDOF 7
ENDMDL
MODEL 3
REMARK VINA RESULT:    -9.224      3.059      5.631
REMARK INTER + INTRA:         -13.808
REMARK INTER:                 -12.725
REMARK INTRA:                  -1.084
REMARK UNBOUND:                -1.080
REMARK SMILES COc1ccc([C@H]2CC(c3cc(F)ccc3F)=NN2c2ccc(S(N)(=O)=O)cc2)c(OC)c1
REMARK SMILES IDX 20 1 21 2 22 3 23 4 28 5 29 6 19 7 7 8 8 9 9 10 18 11 6 12
REMARK SMILES IDX 3 13 4 14 33 15 5 16 30 17 2 18 1 19 31 20 32 21 10 22 11 23
REMARK SMILES IDX 16 24 12 25 15 26 14 27 17 28 13 29 24 30 26 31 27 32 25 33
REMARK H PARENT 25 34 25 35
ROOT
ATOM      1  C   UNL     1      14.394 -48.732 -26.422  1.00  0.00     0.060 A 
ATOM      2  C   UNL     1      14.636 -47.352 -26.493  1.00  0.00     0.029 A 
ATOM      3  C   UNL     1      15.197 -46.755 -27.630  1.00  0.00     0.024 A 
ATOM      4  C   UNL     1      15.526 -47.545 -28.729  1.00  0.00     0.082 A 
ATOM      5  C   UNL     1      15.320 -48.921 -28.692  1.00  0.00     0.024 A 
ATOM      6  C   UNL     1      14.756 -49.497 -27.549  1.00  0.00     0.029 A 
ENDROOT
BRANCH   1   7
ATOM      7  N   UNL     1      13.824 -49.343 -25.307  1.00  0.00    -0.257 N 
ATOM      8  C   UNL     1      13.929 -48.894 -23.912  1.00  0.00     0.148 C 
ATOM      9  C   UNL     1      13.508 -50.130 -23.114  1.00  0.00     0.091 C 
ATOM     10  C   UNL     1      13.020 -51.018 -24.224  1.00  0.00     0.074 C 
ATOM     11  N   UNL     1      13.248 -50.578 -25.425  1.00  0.00    -0.176 NA
BRANCH   8  12
ATOM     12  C   UNL     1      13.082 -47.667 -23.603  1.00  0.00     0.019 A 
ATOM     13  C   UNL     1      11.422 -45.415 -23.132  1.00  0.00     0.122 A 
ATOM     14  C   UNL     1      11.023 -46.405 -24.026  1.00  0.00     0.047 A 
ATOM     15  C   UNL     1      12.648 -45.546 -22.480  1.00  0.00     0.093 A 
ATOM     16  C   UNL     1      11.847 -47.512 -24.264  1.00  0.00     0.013 A 
ATOM     17  C   UNL     1      13.462 -46.663 -22.700  1.00  0.00     0.127 A 
BRANCH  13  18
ATOM     18  O   UNL     1      10.723 -44.284 -22.819  1.00  0.00    -0.497 OA
ATOM     19  C   UNL     1      10.680 -43.259 -23.803  1.00  0.00     0.278 C 
ENDBRANCH  13  18
BRANCH  17  20
ATOM     20  O   UNL     1      14.687 -46.717 -22.092  1.00  0.00    -0.496 OA
ATOM     21  C   UNL     1      14.556 -47.076 -20.714  1.00  0.00     0.278 C 
ENDBRANCH  17  20
ENDBRANCH   8  12
BRANCH  10  22
ATOM     22  C   UNL     1      12.349 -52.310 -23.967  1.00  0.00     0.037 A 
ATOM     23  C   UNL     1      11.618 -52.463 -22.782  1.00  0.00     0.052 A 
ATOM     24  C   UNL     1      12.422 -53.381 -24.862  1.00  0.00     0.132 A 
ATOM     25  C   UNL     1      10.983 -53.672 -22.513  1.00  0.00     0.124 A 
ATOM     26  C   UNL     1      11.782 -54.591 -24.586  1.00  0.00     0.043 A 
ATOM     27  C   UNL     1      11.060 -54.738 -23.404  1.00  0.00     0.042 A 
ATOM     28  F   UNL     1      13.092 -53.280 -26.018  1.00  0.00    -0.206 F 
ATOM     29  F   UNL     1      10.290 -53.814 -21.377  1.00  0.00    -0.207 F 
ENDBRANCH  10  22
ENDBRANCH   1   7
BRANCH   4  30
ATOM     30  S   UNL     1      16.227 -46.809 -30.177  1.00  0.00     0.238 S 
ATOM     31  O   UNL     1      16.868 -45.569 -29.801  1.00  0.00    -0.207 OA
ATOM     32  O   UNL     1      16.902 -47.834 -30.935  1.00  0.00    -0.207 OA
BRANCH  30  33
ATOM     33  N   UNL     1      14.843 -46.357 -31.027  1.00  0.00    -0.225 NA
ATOM     34  H   UNL     1      14.130 -46.062 -30.358  1.00  0.00     0.137 HD
ATOM     35  H   UNL     1      14.501 -47.087 -31.651  1.00  0.00     0.137 HD
ENDBRANCH  30  33
ENDBRANCH   4  30
TORSDOF 7
ENDMDL
MODEL 4
REMARK VINA RESULT:    -9.028      4.399      7.367
REMARK INTER + INTRA:         -13.538
REMARK INTER:                 -12.033
REMARK INTRA:                  -1.505
REMARK UNBOUND:                -1.080
REMARK SMILES COc1ccc([C@H]2CC(c3cc(F)ccc3F)=NN2c2ccc(S(N)(=O)=O)cc2)c(OC)c1
REMARK SMILES IDX 20 1 21 2 22 3 23 4 28 5 29 6 19 7 7 8 8 9 9 10 18 11 6 12
REMARK SMILES IDX 3 13 4 14 33 15 5 16 30 17 2 18 1 19 31 20 32 21 10 22 11 23
REMARK SMILES IDX 16 24 12 25 15 26 14 27 17 28 13 29 24 30 26 31 27 32 25 33
REMARK H PARENT 25 34 25 35
ROOT
ATOM      1  C   UNL     1      12.179 -50.535 -23.055  1.00  0.00     0.060 A 
ATOM      2  C   UNL     1      12.418 -51.620 -23.913  1.00  0.00     0.029 A 
ATOM      3  C   UNL     1      11.855 -52.883 -23.686  1.00  0.00     0.024 A 
ATOM      4  C   UNL     1      11.029 -53.078 -22.582  1.00  0.00     0.082 A 
ATOM      5  C   UNL     1      10.783 -52.034 -21.695  1.00  0.00     0.024 A 
ATOM      6  C   UNL     1      11.352 -50.780 -21.941  1.00  0.00     0.029 A 
ENDROOT
BRANCH   1   7
ATOM      7  N   UNL     1      12.718 -49.268 -23.270  1.00  0.00    -0.257 N 
ATOM      8  C   UNL     1      14.119 -48.867 -23.079  1.00  0.00     0.148 C 
ATOM      9  C   UNL     1      14.043 -47.340 -23.035  1.00  0.00     0.091 C 
ATOM     10  C   UNL     1      12.609 -47.127 -23.433  1.00  0.00     0.074 C 
ATOM     11  N   UNL     1      11.891 -48.207 -23.512  1.00  0.00    -0.176 NA
BRANCH   8  12
ATOM     12  C   UNL     1      15.053 -49.388 -24.164  1.00  0.00     0.019 A 
ATOM     13  C   UNL     1      16.731 -50.274 -26.273  1.00  0.00     0.122 A 
ATOM     14  C   UNL     1      15.898 -49.173 -26.454  1.00  0.00     0.047 A 
ATOM     15  C   UNL     1      16.720 -50.935 -25.045  1.00  0.00     0.093 A 
ATOM     16  C   UNL     1      15.064 -48.741 -25.415  1.00  0.00     0.013 A 
ATOM     17  C   UNL     1      15.904 -50.491 -23.998  1.00  0.00     0.127 A 
BRANCH  13  18
ATOM     18  O   UNL     1      17.580 -50.805 -27.203  1.00  0.00    -0.497 OA
ATOM     19  C   UNL     1      18.955 -50.461 -27.091  1.00  0.00     0.278 C 
ENDBRANCH  13  18
BRANCH  17  20
ATOM     20  O   UNL     1      15.875 -51.209 -22.833  1.00  0.00    -0.496 OA
ATOM     21  C   UNL     1      17.141 -51.160 -22.172  1.00  0.00     0.278 C 
ENDBRANCH  17  20
ENDBRANCH   8  12
BRANCH  10  22
ATOM     22  C   UNL     1      12.051 -45.783 -23.694  1.00  0.00     0.037 A 
ATOM     23  C   UNL     1      12.636 -44.996 -24.695  1.00  0.00     0.052 A 
ATOM     24  C   UNL     1      10.967 -45.272 -22.976  1.00  0.00     0.132 A 
ATOM     25  C   UNL     1      12.134 -43.724 -24.954  1.00  0.00     0.124 A 
ATOM     26  C   UNL     1      10.469 -43.995 -23.242  1.00  0.00     0.043 A 
ATOM     27  C   UNL     1      11.057 -43.216 -24.235  1.00  0.00     0.042 A 
ATOM     28  F   UNL     1      10.360 -45.991 -22.022  1.00  0.00    -0.206 F 
ATOM     29  F   UNL     1      12.700 -42.975 -25.908  1.00  0.00    -0.207 F 
ENDBRANCH  10  22
ENDBRANCH   1   7
BRANCH   4  30
ATOM     30  S   UNL     1      10.301 -54.663 -22.283  1.00  0.00     0.238 S 
ATOM     31  O   UNL     1      11.323 -55.555 -21.785  1.00  0.00    -0.207 OA
ATOM     32  O   UNL     1       9.040 -54.472 -21.609  1.00  0.00    -0.207 OA
BRANCH  30  33
ATOM     33  N   UNL     1       9.979 -55.185 -23.854  1.00  0.00    -0.225 NA
ATOM     34  H   UNL     1       9.665 -56.157 -23.818  1.00  0.00     0.137 HD
ATOM     35  H   UNL     1      10.770 -55.063 -24.485  1.00  0.00     0.137 HD
ENDBRANCH  30  33
ENDBRANCH   4  30
TORSDOF 7
ENDMDL
MODEL 5
REMARK VINA RESULT:    -8.976      4.311      7.221
REMARK INTER + INTRA:         -13.467
REMARK INTER:                 -11.846
REMARK INTRA:                  -1.620
REMARK UNBOUND:                -1.080
REMARK SMILES COc1ccc([C@H]2CC(c3cc(F)ccc3F)=NN2c2ccc(S(N)(=O)=O)cc2)c(OC)c1
REMARK SMILES IDX 20 1 21 2 22 3 23 4 28 5 29 6 19 7 7 8 8 9 9 10 18 11 6 12
REMARK SMILES IDX 3 13 4 14 33 15 5 16 30 17 2 18 1 19 31 20 32 21 10 22 11 23
REMARK SMILES IDX 16 24 12 25 15 26 14 27 17 28 13 29 24 30 26 31 27 32 25 33
REMARK H PARENT 25 34 25 35
ROOT
ATOM      1  C   UNL     1      12.612 -50.636 -23.283  1.00  0.00     0.060 A 
ATOM      2  C   UNL     1      11.795 -50.730 -22.146  1.00  0.00     0.029 A 
ATOM      3  C   UNL     1      11.093 -51.902 -21.831  1.00  0.00     0.024 A 
ATOM      4  C   UNL     1      11.204 -53.013 -22.664  1.00  0.00     0.082 A 
ATOM      5  C   UNL     1      11.988 -52.955 -23.812  1.00  0.00     0.024 A 
ATOM      6  C   UNL     1      12.682 -51.777 -24.107  1.00  0.00     0.029 A 
ENDROOT
BRANCH   1   7
ATOM      7  N   UNL     1      13.328 -49.486 -23.606  1.00  0.00    -0.257 N 
ATOM      8  C   UNL     1      14.740 -49.218 -23.303  1.00  0.00     0.148 C 
ATOM      9  C   UNL     1      14.856 -47.704 -23.483  1.00  0.00     0.091 C 
ATOM     10  C   UNL     1      13.512 -47.396 -24.081  1.00  0.00     0.074 C 
ATOM     11  N   UNL     1      12.673 -48.389 -24.095  1.00  0.00    -0.176 NA
BRANCH   8  12
ATOM     12  C   UNL     1      15.709 -50.000 -24.180  1.00  0.00     0.019 A 
ATOM     13  C   UNL     1      17.459 -51.396 -25.922  1.00  0.00     0.122 A 
ATOM     14  C   UNL     1      16.672 -50.354 -26.406  1.00  0.00     0.047 A 
ATOM     15  C   UNL     1      17.368 -51.744 -24.575  1.00  0.00     0.093 A 
ATOM     16  C   UNL     1      15.802 -49.671 -25.546  1.00  0.00     0.013 A 
ATOM     17  C   UNL     1      16.516 -51.048 -23.711  1.00  0.00     0.127 A 
BRANCH  13  18
ATOM     18  O   UNL     1      18.335 -52.149 -26.652  1.00  0.00    -0.497 OA
ATOM     19  C   UNL     1      19.717 -52.003 -26.351  1.00  0.00     0.278 C 
ENDBRANCH  13  18
BRANCH  17  20
ATOM     20  O   UNL     1      16.407 -51.466 -22.411  1.00  0.00    -0.496 OA
ATOM     21  C   UNL     1      17.555 -51.078 -21.653  1.00  0.00     0.278 C 
ENDBRANCH  17  20
ENDBRANCH   8  12
BRANCH  10  22
ATOM     22  C   UNL     1      13.161 -46.055 -24.594  1.00  0.00     0.037 A 
ATOM     23  C   UNL     1      12.329 -45.236 -23.820  1.00  0.00     0.052 A 
ATOM     24  C   UNL     1      13.628 -45.580 -25.822  1.00  0.00     0.132 A 
ATOM     25  C   UNL     1      11.978 -43.972 -24.285  1.00  0.00     0.124 A 
ATOM     26  C   UNL     1      13.273 -44.310 -26.282  1.00  0.00     0.043 A 
ATOM     27  C   UNL     1      12.441 -43.503 -25.510  1.00  0.00     0.042 A 
ATOM     28  F   UNL     1      14.442 -46.316 -26.591  1.00  0.00    -0.206 F 
ATOM     29  F   UNL     1      11.179 -43.196 -23.543  1.00  0.00    -0.207 F 
ENDBRANCH  10  22
ENDBRANCH   1   7
BRANCH   4  30
ATOM     30  S   UNL     1      10.333 -54.505 -22.278  1.00  0.00     0.238 S 
ATOM     31  O   UNL     1      11.282 -55.482 -21.796  1.00  0.00    -0.207 OA
ATOM     32  O   UNL     1       9.133 -54.163 -21.555  1.00  0.00    -0.207 OA
BRANCH  30  33
ATOM     33  N   UNL     1       9.884 -55.036 -23.814  1.00  0.00    -0.225 NA
ATOM     34  H   UNL     1      10.687 -55.493 -24.250  1.00  0.00     0.137 HD
ATOM     35  H   UNL     1       9.504 -54.293 -24.399  1.00  0.00     0.137 HD
ENDBRANCH  30  33
ENDBRANCH   4  30
TORSDOF 7
ENDMDL
MODEL 6
REMARK VINA RESULT:    -8.969      4.187      7.219
REMARK INTER + INTRA:         -13.457
REMARK INTER:                 -12.175
REMARK INTRA:                  -1.282
REMARK UNBOUND:                -1.080
REMARK SMILES COc1ccc([C@H]2CC(c3cc(F)ccc3F)=NN2c2ccc(S(N)(=O)=O)cc2)c(OC)c1
REMARK SMILES IDX 20 1 21 2 22 3 23 4 28 5 29 6 19 7 7 8 8 9 9 10 18 11 6 12
REMARK SMILES IDX 3 13 4 14 33 15 5 16 30 17 2 18 1 19 31 20 32 21 10 22 11 23
REMARK SMILES IDX 16 24 12 25 15 26 14 27 17 28 13 29 24 30 26 31 27 32 25 33
REMARK H PARENT 25 34 25 35
ROOT
ATOM      1  C   UNL     1      12.573 -50.859 -23.652  1.00  0.00     0.060 A 
ATOM      2  C   UNL     1      12.884 -51.786 -24.659  1.00  0.00     0.029 A 
ATOM      3  C   UNL     1      12.408 -53.103 -24.628  1.00  0.00     0.024 A 
ATOM      4  C   UNL     1      11.599 -53.516 -23.572  1.00  0.00     0.082 A 
ATOM      5  C   UNL     1      11.283 -52.635 -22.543  1.00  0.00     0.024 A 
ATOM      6  C   UNL     1      11.766 -51.323 -22.594  1.00  0.00     0.029 A 
ENDROOT
BRANCH   1   7
ATOM      7  N   UNL     1      13.025 -49.542 -23.671  1.00  0.00    -0.257 N 
ATOM      8  C   UNL     1      14.424 -49.094 -23.681  1.00  0.00     0.148 C 
ATOM      9  C   UNL     1      14.326 -47.625 -23.268  1.00  0.00     0.091 C 
ATOM     10  C   UNL     1      12.835 -47.431 -23.304  1.00  0.00     0.074 C 
ATOM     11  N   UNL     1      12.141 -48.515 -23.484  1.00  0.00    -0.176 NA
BRANCH   8  12
ATOM     12  C   UNL     1      15.115 -49.292 -25.024  1.00  0.00     0.019 A 
ATOM     13  C   UNL     1      16.290 -49.610 -27.587  1.00  0.00     0.122 A 
ATOM     14  C   UNL     1      15.098 -48.906 -27.444  1.00  0.00     0.047 A 
ATOM     15  C   UNL     1      16.890 -50.160 -26.454  1.00  0.00     0.093 A 
ATOM     16  C   UNL     1      14.514 -48.756 -26.180  1.00  0.00     0.013 A 
ATOM     17  C   UNL     1      16.320 -49.992 -25.187  1.00  0.00     0.127 A 
BRANCH  13  18
ATOM     18  O   UNL     1      16.956 -49.840 -28.758  1.00  0.00    -0.497 OA
ATOM     19  C   UNL     1      16.551 -49.080 -29.889  1.00  0.00     0.278 C 
ENDBRANCH  13  18
BRANCH  17  20
ATOM     20  O   UNL     1      16.906 -50.606 -24.112  1.00  0.00    -0.496 OA
ATOM     21  C   UNL     1      16.583 -51.998 -24.083  1.00  0.00     0.278 C 
ENDBRANCH  17  20
ENDBRANCH   8  12
BRANCH  10  22
ATOM     22  C   UNL     1      12.205 -46.106 -23.125  1.00  0.00     0.037 A 
ATOM     23  C   UNL     1      12.819 -45.180 -22.271  1.00  0.00     0.052 A 
ATOM     24  C   UNL     1      11.020 -45.749 -23.774  1.00  0.00     0.132 A 
ATOM     25  C   UNL     1      12.241 -43.929 -22.080  1.00  0.00     0.124 A 
ATOM     26  C   UNL     1      10.446 -44.491 -23.577  1.00  0.00     0.043 A 
ATOM     27  C   UNL     1      11.059 -43.577 -22.724  1.00  0.00     0.042 A 
ATOM     28  F   UNL     1      10.404 -46.590 -24.615  1.00  0.00    -0.206 F 
ATOM     29  F   UNL     1      12.829 -43.050 -21.260  1.00  0.00    -0.207 F 
ENDBRANCH  10  22
ENDBRANCH   1   7
BRANCH   4  30
ATOM     30  S   UNL     1      10.980 -55.173 -23.520  1.00  0.00     0.238 S 
ATOM     31  O   UNL     1       9.559 -55.144 -23.782  1.00  0.00    -0.207 OA
ATOM     32  O   UNL     1      11.887 -56.027 -24.248  1.00  0.00    -0.207 OA
BRANCH  30  33
ATOM     33  N   UNL     1      11.126 -55.534 -21.880  1.00  0.00    -0.225 NA
ATOM     34  H   UNL     1      11.977 -55.095 -21.522  1.00  0.00     0.137 HD
ATOM     35  H   UNL     1      11.103 -56.535 -21.687  1.00  0.00     0.137 HD
ENDBRANCH  30  33
ENDBRANCH   4  30
TORSDOF 7
ENDMDL
MODEL 7
REMARK VINA RESULT:    -8.784      3.063      5.822
REMARK INTER + INTRA:         -13.202
REMARK INTER:                 -11.942
REMARK INTRA:                  -1.260
REMARK UNBOUND:                -1.080
REMARK SMILES COc1ccc([C@H]2CC(c3cc(F)ccc3F)=NN2c2ccc(S(N)(=O)=O)cc2)c(OC)c1
REMARK SMILES IDX 20 1 21 2 22 3 23 4 28 5 29 6 19 7 7 8 8 9 9 10 18 11 6 12
REMARK SMILES IDX 3 13 4 14 33 15 5 16 30 17 2 18 1 19 31 20 32 21 10 22 11 23
REMARK SMILES IDX 16 24 12 25 15 26 14 27 17 28 13 29 24 30 26 31 27 32 25 33
REMARK H PARENT 25 34 25 35
ROOT
ATOM      1  C   UNL     1      14.126 -48.849 -26.085  1.00  0.00     0.060 A 
ATOM      2  C   UNL     1      14.515 -49.721 -27.114  1.00  0.00     0.029 A 
ATOM      3  C   UNL     1      15.167 -49.264 -28.267  1.00  0.00     0.024 A 
ATOM      4  C   UNL     1      15.446 -47.906 -28.405  1.00  0.00     0.082 A 
ATOM      5  C   UNL     1      15.060 -47.005 -27.418  1.00  0.00     0.024 A 
ATOM      6  C   UNL     1      14.412 -47.482 -26.274  1.00  0.00     0.029 A 
ENDROOT
BRANCH   1   7
ATOM      7  N   UNL     1      13.490 -49.284 -24.925  1.00  0.00    -0.257 N 
ATOM      8  C   UNL     1      13.562 -48.660 -23.598  1.00  0.00     0.148 C 
ATOM      9  C   UNL     1      13.059 -49.762 -22.664  1.00  0.00     0.091 C 
ATOM     10  C   UNL     1      12.574 -50.770 -23.668  1.00  0.00     0.074 C 
ATOM     11  N   UNL     1      12.865 -50.501 -24.906  1.00  0.00    -0.176 NA
BRANCH   8  12
ATOM     12  C   UNL     1      12.758 -47.372 -23.488  1.00  0.00     0.019 A 
ATOM     13  C   UNL     1      11.163 -45.028 -23.361  1.00  0.00     0.122 A 
ATOM     14  C   UNL     1      10.641 -46.204 -23.894  1.00  0.00     0.047 A 
ATOM     15  C   UNL     1      12.478 -45.021 -22.899  1.00  0.00     0.093 A 
ATOM     16  C   UNL     1      11.432 -47.358 -23.964  1.00  0.00     0.013 A 
ATOM     17  C   UNL     1      13.262 -46.179 -22.947  1.00  0.00     0.127 A 
BRANCH  13  18
ATOM     18  O   UNL     1      10.507 -43.835 -23.246  1.00  0.00    -0.497 OA
ATOM     19  C   UNL     1      11.008 -42.747 -24.012  1.00  0.00     0.278 C 
ENDBRANCH  13  18
BRANCH  17  20
ATOM     20  O   UNL     1      14.570 -46.109 -22.545  1.00  0.00    -0.496 OA
ATOM     21  C   UNL     1      15.292 -45.154 -23.327  1.00  0.00     0.278 C 
ENDBRANCH  17  20
ENDBRANCH   8  12
BRANCH  10  22
ATOM     22  C   UNL     1      11.839 -51.990 -23.274  1.00  0.00     0.037 A 
ATOM     23  C   UNL     1      12.134 -53.193 -23.929  1.00  0.00     0.052 A 
ATOM     24  C   UNL     1      10.862 -51.984 -22.275  1.00  0.00     0.132 A 
ATOM     25  C   UNL     1      11.450 -54.354 -23.582  1.00  0.00     0.124 A 
ATOM     26  C   UNL     1      10.180 -53.153 -21.931  1.00  0.00     0.043 A 
ATOM     27  C   UNL     1      10.475 -54.345 -22.590  1.00  0.00     0.042 A 
ATOM     28  F   UNL     1      10.557 -50.865 -21.605  1.00  0.00    -0.206 F 
ATOM     29  F   UNL     1      11.733 -55.500 -24.214  1.00  0.00    -0.207 F 
ENDBRANCH  10  22
ENDBRANCH   1   7
BRANCH   4  30
ATOM     30  S   UNL     1      16.277 -47.311 -29.850  1.00  0.00     0.238 S 
ATOM     31  O   UNL     1      17.349 -46.434 -29.438  1.00  0.00    -0.207 OA
ATOM     32  O   UNL     1      16.481 -48.417 -30.753  1.00  0.00    -0.207 OA
BRANCH  30  33
ATOM     33  N   UNL     1      15.104 -46.300 -30.519  1.00  0.00    -0.225 NA
ATOM     34  H   UNL     1      14.195 -46.761 -30.446  1.00  0.00     0.137 HD
ATOM     35  H   UNL     1      15.315 -46.023 -31.477  1.00  0.00     0.137 HD
ENDBRANCH  30  33
ENDBRANCH   4  30
TORSDOF 7
ENDMDL
MODEL 8
REMARK VINA RESULT:    -8.712      4.325      7.872
REMARK INTER + INTRA:         -13.103
REMARK INTER:                 -11.748
REMARK INTRA:                  -1.355
REMARK UNBOUND:                -1.080
REMARK SMILES COc1ccc([C@H]2CC(c3cc(F)ccc3F)=NN2c2ccc(S(N)(=O)=O)cc2)c(OC)c1
REMARK SMILES IDX 20 1 21 2 22 3 23 4 28 5 29 6 19 7 7 8 8 9 9 10 18 11 6 12
REMARK SMILES IDX 3 13 4 14 33 15 5 16 30 17 2 18 1 19 31 20 32 21 10 22 11 23
REMARK SMILES IDX 16 24 12 25 15 26 14 27 17 28 13 29 24 30 26 31 27 32 25 33
REMARK H PARENT 25 34 25 35
ROOT
ATOM      1  C   UNL     1      12.930 -51.633 -24.626  1.00  0.00     0.060 A 
ATOM      2  C   UNL     1      12.891 -52.913 -25.200  1.00  0.00     0.029 A 
ATOM      3  C   UNL     1      12.146 -53.957 -24.637  1.00  0.00     0.024 A 
ATOM      4  C   UNL     1      11.415 -53.728 -23.473  1.00  0.00     0.082 A 
ATOM      5  C   UNL     1      11.442 -52.479 -22.860  1.00  0.00     0.024 A 
ATOM      6  C   UNL     1      12.190 -51.450 -23.440  1.00  0.00     0.029 A 
ENDROOT
BRANCH   1   7
ATOM      7  N   UNL     1      13.653 -50.578 -25.177  1.00  0.00    -0.257 N 
ATOM      8  C   UNL     1      13.318 -49.149 -25.099  1.00  0.00     0.148 C 
ATOM      9  C   UNL     1      14.172 -48.528 -26.206  1.00  0.00     0.091 C 
ATOM     10  C   UNL     1      15.024 -49.707 -26.587  1.00  0.00     0.074 C 
ATOM     11  N   UNL     1      14.686 -50.834 -26.037  1.00  0.00    -0.176 NA
BRANCH   8  12
ATOM     12  C   UNL     1      13.580 -48.539 -23.729  1.00  0.00     0.019 A 
ATOM     13  C   UNL     1      14.188 -47.466 -21.173  1.00  0.00     0.122 A 
ATOM     14  C   UNL     1      15.162 -48.150 -21.897  1.00  0.00     0.047 A 
ATOM     15  C   UNL     1      12.913 -47.324 -21.721  1.00  0.00     0.093 A 
ATOM     16  C   UNL     1      14.858 -48.686 -23.155  1.00  0.00     0.013 A 
ATOM     17  C   UNL     1      12.615 -47.840 -22.988  1.00  0.00     0.127 A 
BRANCH  13  18
ATOM     18  O   UNL     1      14.347 -46.908 -19.937  1.00  0.00    -0.497 OA
ATOM     19  C   UNL     1      15.445 -46.021 -19.765  1.00  0.00     0.278 C 
ENDBRANCH  13  18
BRANCH  17  20
ATOM     20  O   UNL     1      11.333 -47.737 -23.458  1.00  0.00    -0.496 OA
ATOM     21  C   UNL     1      11.056 -46.404 -23.892  1.00  0.00     0.278 C 
ENDBRANCH  17  20
ENDBRANCH   8  12
BRANCH  10  22
ATOM     22  C   UNL     1      16.151 -49.595 -27.537  1.00  0.00     0.037 A 
ATOM     23  C   UNL     1      17.439 -49.923 -27.092  1.00  0.00     0.052 A 
ATOM     24  C   UNL     1      15.977 -49.172 -28.857  1.00  0.00     0.132 A 
ATOM     25  C   UNL     1      18.518 -49.819 -27.965  1.00  0.00     0.124 A 
ATOM     26  C   UNL     1      17.064 -49.070 -29.727  1.00  0.00     0.043 A 
ATOM     27  C   UNL     1      18.342 -49.394 -29.278  1.00  0.00     0.042 A 
ATOM     28  F   UNL     1      14.764 -48.865 -29.337  1.00  0.00    -0.206 F 
ATOM     29  F   UNL     1      19.746 -50.129 -27.533  1.00  0.00    -0.207 F 
ENDBRANCH  10  22
ENDBRANCH   1   7
BRANCH   4  30
ATOM     30  S   UNL     1      10.460 -55.032 -22.751  1.00  0.00     0.238 S 
ATOM     31  O   UNL     1       9.550 -55.545 -23.749  1.00  0.00    -0.207 OA
ATOM     32  O   UNL     1      11.343 -55.884 -21.993  1.00  0.00    -0.207 OA
BRANCH  30  33
ATOM     33  N   UNL     1       9.496 -54.178 -21.663  1.00  0.00    -0.225 NA
ATOM     34  H   UNL     1       8.943 -53.494 -22.183  1.00  0.00     0.137 HD
ATOM     35  H   UNL     1      10.031 -53.744 -20.911  1.00  0.00     0.137 HD
ENDBRANCH  30  33
ENDBRANCH   4  30
TORSDOF 7
ENDMDL
MODEL 9
REMARK VINA RESULT:    -8.501      4.420      7.764
REMARK INTER + INTRA:         -12.811
REMARK INTER:                 -11.269
REMARK INTRA:                  -1.542
REMARK UNBOUND:                -1.080
REMARK SMILES COc1ccc([C@H]2CC(c3cc(F)ccc3F)=NN2c2ccc(S(N)(=O)=O)cc2)c(OC)c1
REMARK SMILES IDX 20 1 21 2 22 3 23 4 28 5 29 6 19 7 7 8 8 9 9 10 18 11 6 12
REMARK SMILES IDX 3 13 4 14 33 15 5 16 30 17 2 18 1 19 31 20 32 21 10 22 11 23
REMARK SMILES IDX 16 24 12 25 15 26 14 27 17 28 13 29 24 30 26 31 27 32 25 33
REMARK H PARENT 25 34 25 35
ROOT
ATOM      1  C   UNL     1      15.480 -48.726 -22.332  1.00  0.00     0.060 A 
ATOM      2  C   UNL     1      15.943 -48.026 -21.207  1.00  0.00     0.029 A 
ATOM      3  C   UNL     1      17.086 -48.426 -20.503  1.00  0.00     0.024 A 
ATOM      4  C   UNL     1      17.794 -49.549 -20.924  1.00  0.00     0.082 A 
ATOM      5  C   UNL     1      17.358 -50.283 -22.023  1.00  0.00     0.024 A 
ATOM      6  C   UNL     1      16.216 -49.866 -22.713  1.00  0.00     0.029 A 
ENDROOT
BRANCH   1   7
ATOM      7  N   UNL     1      14.354 -48.337 -23.054  1.00  0.00    -0.257 N 
ATOM      8  C   UNL     1      13.726 -49.070 -24.161  1.00  0.00     0.148 C 
ATOM      9  C   UNL     1      12.847 -48.011 -24.828  1.00  0.00     0.091 C 
ATOM     10  C   UNL     1      12.966 -46.891 -23.833  1.00  0.00     0.074 C 
ATOM     11  N   UNL     1      13.838 -47.081 -22.889  1.00  0.00    -0.176 NA
BRANCH   8  12
ATOM     12  C   UNL     1      12.944 -50.297 -23.711  1.00  0.00     0.019 A 
ATOM     13  C   UNL     1      11.469 -52.523 -22.752  1.00  0.00     0.122 A 
ATOM     14  C   UNL     1      11.509 -51.340 -22.019  1.00  0.00     0.047 A 
ATOM     15  C   UNL     1      12.169 -52.597 -23.956  1.00  0.00     0.093 A 
ATOM     16  C   UNL     1      12.244 -50.244 -22.490  1.00  0.00     0.013 A 
ATOM     17  C   UNL     1      12.886 -51.496 -24.438  1.00  0.00     0.127 A 
BRANCH  13  18
ATOM     18  O   UNL     1      10.804 -53.665 -22.403  1.00  0.00    -0.497 OA
ATOM     19  C   UNL     1      10.376 -54.511 -23.462  1.00  0.00     0.278 C 
ENDBRANCH  13  18
BRANCH  17  20
ATOM     20  O   UNL     1      13.614 -51.635 -25.590  1.00  0.00    -0.496 OA
ATOM     21  C   UNL     1      14.722 -52.515 -25.389  1.00  0.00     0.278 C 
ENDBRANCH  17  20
ENDBRANCH   8  12
BRANCH  10  22
ATOM     22  C   UNL     1      12.164 -45.653 -23.934  1.00  0.00     0.037 A 
ATOM     23  C   UNL     1      12.652 -44.599 -24.717  1.00  0.00     0.052 A 
ATOM     24  C   UNL     1      10.942 -45.499 -23.275  1.00  0.00     0.132 A 
ATOM     25  C   UNL     1      11.920 -43.421 -24.822  1.00  0.00     0.124 A 
ATOM     26  C   UNL     1      10.212 -44.314 -23.385  1.00  0.00     0.043 A 
ATOM     27  C   UNL     1      10.705 -43.268 -24.162  1.00  0.00     0.042 A 
ATOM     28  F   UNL     1      10.422 -46.483 -22.529  1.00  0.00    -0.206 F 
ATOM     29  F   UNL     1      12.393 -42.415 -25.569  1.00  0.00    -0.207 F 
ENDBRANCH  10  22
ENDBRANCH   1   7
BRANCH   4  30
ATOM     30  S   UNL     1      19.246 -50.065 -20.053  1.00  0.00     0.238 S 
ATOM     31  O   UNL     1      20.028 -50.915 -20.921  1.00  0.00    -0.207 OA
ATOM     32  O   UNL     1      19.806 -48.922 -19.373  1.00  0.00    -0.207 OA
BRANCH  30  33
ATOM     33  N   UNL     1      18.591 -51.095 -18.890  1.00  0.00    -0.225 NA
ATOM     34  H   UNL     1      17.571 -51.041 -18.942  1.00  0.00     0.137 HD
ATOM     35  H   UNL     1      18.935 -50.905 -17.949  1.00  0.00     0.137 HD
ENDBRANCH  30  33
ENDBRANCH   4  30
TORSDOF 7
ENDMDL
