MODEL 1
REMARK VINA RESULT:   -10.051      0.000      0.000
REMARK INTER + INTRA:         -10.345
REMARK INTER:                 -10.345
REMARK INTRA:                   0.000
REMARK UNBOUND:                 0.000
REMARK SMILES CC1=C[C@H]2Cc3nc4cc(Cl)ccc4c(N)c3[C@@H](C1)C2
REMARK SMILES IDX 15 1 17 2 6 3 7 4 8 5 9 6 10 7 11 8 12 9 13 10 14 11 5 12
REMARK SMILES IDX 4 13 3 14 2 15 1 16 19 17 18 18 20 19 16 20
REMARK H PARENT 16 21 16 22
ROOT
ATOM      1  C   UNL     1      11.396 -57.817 -21.933  1.00  0.00     0.046 A 
ATOM      2  C   UNL     1      11.788 -58.597 -23.036  1.00  0.00     0.001 A 
ATOM      3  C   UNL     1      11.906 -57.962 -24.276  1.00  0.00     0.047 A 
ATOM      4  N   UNL     1      11.723 -56.630 -24.443  1.00  0.00    -0.252 NA
ATOM      5  C   UNL     1      11.410 -55.880 -23.380  1.00  0.00     0.074 A 
ATOM      6  C   UNL     1      11.257 -54.516 -23.584  1.00  0.00     0.049 A 
ATOM      7  C   UNL     1      10.955 -53.656 -22.532  1.00  0.00     0.043 A 
ATOM      8  Cl  UNL     1      10.777 -51.971 -22.824  1.00  0.00    -0.084 Cl
ATOM      9  C   UNL     1      10.803 -54.153 -21.246  1.00  0.00     0.021 A 
ATOM     10  C   UNL     1      10.948 -55.522 -21.022  1.00  0.00     0.014 A 
ATOM     11  C   UNL     1      11.248 -56.412 -22.083  1.00  0.00     0.024 A 
ATOM     12  C   UNL     1      12.307 -58.716 -25.526  1.00  0.00     0.064 C 
ATOM     13  C   UNL     1      12.261 -60.242 -25.371  1.00  0.00     0.018 C 
ATOM     14  C   UNL     1      10.839 -60.752 -25.450  1.00  0.00    -0.024 C 
ATOM     15  C   UNL     1      10.105 -61.050 -24.361  1.00  0.00    -0.076 C 
ATOM     16  C   UNL     1       8.703 -61.573 -24.456  1.00  0.00     0.039 C 
ATOM     17  C   UNL     1      10.653 -60.861 -22.959  1.00  0.00     0.039 C 
ATOM     18  C   UNL     1      12.001 -60.102 -22.912  1.00  0.00     0.028 C 
ATOM     19  C   UNL     1      12.908 -60.617 -24.035  1.00  0.00     0.017 C 
ENDROOT
BRANCH   1  20
ATOM     20  N   UNL     1      11.365 -58.429 -20.653  1.00  0.00    -0.398 N 
ATOM     21  H   UNL     1      10.491 -58.938 -20.530  1.00  0.00     0.156 HD
ATOM     22  H   UNL     1      12.150 -59.053 -20.494  1.00  0.00     0.156 HD
ENDBRANCH   1  20
TORSDOF 1
ENDMDL
MODEL 2
REMARK VINA RESULT:    -9.596      4.414      8.033
REMARK INTER + INTRA:          -9.877
REMARK INTER:                  -9.877
REMARK INTRA:                   0.000
REMARK UNBOUND:                 0.000
REMARK SMILES CC1=C[C@H]2Cc3nc4cc(Cl)ccc4c(N)c3[C@@H](C1)C2
REMARK SMILES IDX 15 1 17 2 6 3 7 4 8 5 9 6 10 7 11 8 12 9 13 10 14 11 5 12
REMARK SMILES IDX 4 13 3 14 2 15 1 16 19 17 18 18 20 19 16 20
REMARK H PARENT 16 21 16 22
ROOT
ATOM      1  C   UNL     1      12.076 -51.484 -22.666  1.00  0.00     0.046 A 
ATOM      2  C   UNL     1      12.777 -51.053 -23.806  1.00  0.00     0.001 A 
ATOM      3  C   UNL     1      12.945 -51.964 -24.854  1.00  0.00     0.047 A 
ATOM      4  N   UNL     1      12.411 -53.209 -24.840  1.00  0.00    -0.252 NA
ATOM      5  C   UNL     1      11.692 -53.596 -23.780  1.00  0.00     0.074 A 
ATOM      6  C   UNL     1      11.138 -54.867 -23.813  1.00  0.00     0.049 A 
ATOM      7  C   UNL     1      10.357 -55.344 -22.765  1.00  0.00     0.043 A 
ATOM      8  Cl  UNL     1       9.684 -56.925 -22.845  1.00  0.00    -0.084 Cl
ATOM      9  C   UNL     1      10.113 -54.547 -21.657  1.00  0.00     0.021 A 
ATOM     10  C   UNL     1      10.665 -53.267 -21.603  1.00  0.00     0.014 A 
ATOM     11  C   UNL     1      11.469 -52.769 -22.658  1.00  0.00     0.024 A 
ATOM     12  C   UNL     1      13.696 -51.602 -26.116  1.00  0.00     0.064 C 
ATOM     13  C   UNL     1      14.498 -50.297 -26.008  1.00  0.00     0.018 C 
ATOM     14  C   UNL     1      15.783 -50.514 -25.237  1.00  0.00    -0.024 C 
ATOM     15  C   UNL     1      15.917 -50.201 -23.935  1.00  0.00    -0.076 C 
ATOM     16  C   UNL     1      17.202 -50.404 -23.189  1.00  0.00     0.039 C 
ATOM     17  C   UNL     1      14.763 -49.632 -23.132  1.00  0.00     0.039 C 
ATOM     18  C   UNL     1      13.406 -49.665 -23.877  1.00  0.00     0.028 C 
ATOM     19  C   UNL     1      13.622 -49.239 -25.334  1.00  0.00     0.017 C 
ENDROOT
BRANCH   1  20
ATOM     20  N   UNL     1      11.816 -50.540 -21.638  1.00  0.00    -0.398 N 
ATOM     21  H   UNL     1      11.008 -50.833 -21.091  1.00  0.00     0.156 HD
ATOM     22  H   UNL     1      12.611 -50.394 -21.025  1.00  0.00     0.156 HD
ENDBRANCH   1  20
TORSDOF 1
ENDMDL
MODEL 3
REMARK VINA RESULT:    -9.364      4.357      5.967
REMARK INTER + INTRA:          -9.638
REMARK INTER:                  -9.638
REMARK INTRA:                   0.000
REMARK UNBOUND:                 0.000
REMARK SMILES CC1=C[C@H]2Cc3nc4cc(Cl)ccc4c(N)c3[C@@H](C1)C2
REMARK SMILES IDX 15 1 17 2 6 3 7 4 8 5 9 6 10 7 11 8 12 9 13 10 14 11 5 12
REMARK SMILES IDX 4 13 3 14 2 15 1 16 19 17 18 18 20 19 16 20
REMARK H PARENT 16 21 16 22
ROOT
ATOM      1  C   UNL     1      10.909 -59.956 -25.136  1.00  0.00     0.046 A 
ATOM      2  C   UNL     1       9.982 -60.906 -24.669  1.00  0.00     0.001 A 
ATOM      3  C   UNL     1       9.292 -61.667 -25.617  1.00  0.00     0.047 A 
ATOM      4  N   UNL     1       9.525 -61.572 -26.948  1.00  0.00    -0.252 NA
ATOM      5  C   UNL     1      10.451 -60.712 -27.386  1.00  0.00     0.074 A 
ATOM      6  C   UNL     1      10.681 -60.662 -28.754  1.00  0.00     0.049 A 
ATOM      7  C   UNL     1      11.642 -59.814 -29.295  1.00  0.00     0.043 A 
ATOM      8  Cl  UNL     1      11.901 -59.784 -30.996  1.00  0.00    -0.084 Cl
ATOM      9  C   UNL     1      12.398 -58.996 -28.469  1.00  0.00     0.021 A 
ATOM     10  C   UNL     1      12.178 -59.029 -27.092  1.00  0.00     0.014 A 
ATOM     11  C   UNL     1      11.198 -59.881 -26.525  1.00  0.00     0.024 A 
ATOM     12  C   UNL     1       8.265 -62.703 -25.217  1.00  0.00     0.064 C 
ATOM     13  C   UNL     1       7.837 -62.618 -23.745  1.00  0.00     0.018 C 
ATOM     14  C   UNL     1       6.860 -61.482 -23.530  1.00  0.00    -0.024 C 
ATOM     15  C   UNL     1       7.228 -60.281 -23.047  1.00  0.00    -0.076 C 
ATOM     16  C   UNL     1       6.245 -59.170 -22.822  1.00  0.00     0.039 C 
ATOM     17  C   UNL     1       8.674 -59.969 -22.712  1.00  0.00     0.039 C 
ATOM     18  C   UNL     1       9.673 -61.053 -23.182  1.00  0.00     0.028 C 
ATOM     19  C   UNL     1       9.089 -62.439 -22.883  1.00  0.00     0.017 C 
ENDROOT
BRANCH   1  20
ATOM     20  N   UNL     1      11.684 -59.247 -24.181  1.00  0.00    -0.398 N 
ATOM     21  H   UNL     1      11.824 -58.286 -24.491  1.00  0.00     0.156 HD
ATOM     22  H   UNL     1      11.271 -59.251 -23.254  1.00  0.00     0.156 HD
ENDBRANCH   1  20
TORSDOF 1
ENDMDL
MODEL 4
REMARK VINA RESULT:    -9.298      3.660      6.779
REMARK INTER + INTRA:          -9.570
REMARK INTER:                  -9.570
REMARK INTRA:                   0.000
REMARK UNBOUND:                 0.000
REMARK SMILES CC1=C[C@H]2Cc3nc4cc(Cl)ccc4c(N)c3[C@@H](C1)C2
REMARK SMILES IDX 15 1 17 2 6 3 7 4 8 5 9 6 10 7 11 8 12 9 13 10 14 11 5 12
REMARK SMILES IDX 4 13 3 14 2 15 1 16 19 17 18 18 20 19 16 20
REMARK H PARENT 16 21 16 22
ROOT
ATOM      1  C   UNL     1      10.465 -60.629 -25.310  1.00  0.00     0.046 A 
ATOM      2  C   UNL     1      10.835 -60.205 -24.021  1.00  0.00     0.001 A 
ATOM      3  C   UNL     1      10.079 -60.669 -22.939  1.00  0.00     0.047 A 
ATOM      4  N   UNL     1       9.060 -61.550 -23.076  1.00  0.00    -0.252 NA
ATOM      5  C   UNL     1       8.749 -61.999 -24.298  1.00  0.00     0.074 A 
ATOM      6  C   UNL     1       7.717 -62.921 -24.397  1.00  0.00     0.049 A 
ATOM      7  C   UNL     1       7.342 -63.459 -25.625  1.00  0.00     0.043 A 
ATOM      8  Cl  UNL     1       6.060 -64.602 -25.706  1.00  0.00    -0.084 Cl
ATOM      9  C   UNL     1       8.003 -63.081 -26.784  1.00  0.00     0.021 A 
ATOM     10  C   UNL     1       9.041 -62.153 -26.705  1.00  0.00     0.014 A 
ATOM     11  C   UNL     1       9.429 -61.589 -25.464  1.00  0.00     0.024 A 
ATOM     12  C   UNL     1      10.387 -60.261 -21.515  1.00  0.00     0.064 C 
ATOM     13  C   UNL     1      11.366 -59.083 -21.405  1.00  0.00     0.018 C 
ATOM     14  C   UNL     1      10.669 -57.771 -21.693  1.00  0.00    -0.024 C 
ATOM     15  C   UNL     1      10.733 -57.154 -22.887  1.00  0.00    -0.076 C 
ATOM     16  C   UNL     1      10.052 -55.844 -23.152  1.00  0.00     0.039 C 
ATOM     17  C   UNL     1      11.491 -57.758 -24.053  1.00  0.00     0.039 C 
ATOM     18  C   UNL     1      11.969 -59.209 -23.804  1.00  0.00     0.028 C 
ATOM     19  C   UNL     1      12.524 -59.318 -22.378  1.00  0.00     0.017 C 
ENDROOT
BRANCH   1  20
ATOM     20  N   UNL     1      11.282 -60.242 -26.405  1.00  0.00    -0.398 N 
ATOM     21  H   UNL     1      12.257 -60.197 -26.114  1.00  0.00     0.156 HD
ATOM     22  H   UNL     1      11.190 -60.859 -27.205  1.00  0.00     0.156 HD
ENDBRANCH   1  20
TORSDOF 1
ENDMDL
MODEL 5
REMARK VINA RESULT:    -9.231      1.858      2.695
REMARK INTER + INTRA:          -9.501
REMARK INTER:                  -9.501
REMARK INTRA:                   0.000
REMARK UNBOUND:                 0.000
REMARK SMILES CC1=C[C@H]2Cc3nc4cc(Cl)ccc4c(N)c3[C@@H](C1)C2
REMARK SMILES IDX 15 1 17 2 6 3 7 4 8 5 9 6 10 7 11 8 12 9 13 10 14 11 5 12
REMARK SMILES IDX 4 13 3 14 2 15 1 16 19 17 18 18 20 19 16 20
REMARK H PARENT 16 21 16 22
ROOT
ATOM      1  C   UNL     1      11.268 -59.108 -23.253  1.00  0.00     0.046 A 
ATOM      2  C   UNL     1      10.477 -59.898 -24.108  1.00  0.00     0.001 A 
ATOM      3  C   UNL     1       9.230 -59.397 -24.494  1.00  0.00     0.047 A 
ATOM      4  N   UNL     1       8.787 -58.169 -24.134  1.00  0.00    -0.252 NA
ATOM      5  C   UNL     1       9.567 -57.393 -23.372  1.00  0.00     0.074 A 
ATOM      6  C   UNL     1       9.091 -56.132 -23.046  1.00  0.00     0.049 A 
ATOM      7  C   UNL     1       9.845 -55.250 -22.278  1.00  0.00     0.043 A 
ATOM      8  Cl  UNL     1       9.222 -53.692 -21.899  1.00  0.00    -0.084 Cl
ATOM      9  C   UNL     1      11.100 -55.620 -21.820  1.00  0.00     0.021 A 
ATOM     10  C   UNL     1      11.594 -56.886 -22.133  1.00  0.00     0.014 A 
ATOM     11  C   UNL     1      10.836 -57.799 -22.908  1.00  0.00     0.024 A 
ATOM     12  C   UNL     1       8.300 -60.176 -25.398  1.00  0.00     0.064 C 
ATOM     13  C   UNL     1       8.703 -61.646 -25.583  1.00  0.00     0.018 C 
ATOM     14  C   UNL     1       8.313 -62.470 -24.375  1.00  0.00    -0.024 C 
ATOM     15  C   UNL     1       9.182 -62.802 -23.403  1.00  0.00    -0.076 C 
ATOM     16  C   UNL     1       8.786 -63.636 -22.221  1.00  0.00     0.039 C 
ATOM     17  C   UNL     1      10.626 -62.337 -23.436  1.00  0.00     0.039 C 
ATOM     18  C   UNL     1      10.921 -61.292 -24.540  1.00  0.00     0.028 C 
ATOM     19  C   UNL     1      10.211 -61.712 -25.833  1.00  0.00     0.017 C 
ENDROOT
BRANCH   1  20
ATOM     20  N   UNL     1      12.573 -59.563 -22.932  1.00  0.00    -0.398 N 
ATOM     21  H   UNL     1      12.526 -60.273 -22.204  1.00  0.00     0.156 HD
ATOM     22  H   UNL     1      13.073 -59.929 -23.736  1.00  0.00     0.156 HD
ENDBRANCH   1  20
TORSDOF 1
ENDMDL
MODEL 6
REMARK VINA RESULT:    -8.792      5.354      9.809
REMARK INTER + INTRA:          -9.049
REMARK INTER:                  -9.049
REMARK INTRA:                   0.000
REMARK UNBOUND:                 0.000
REMARK SMILES CC1=C[C@H]2Cc3nc4cc(Cl)ccc4c(N)c3[C@@H](C1)C2
REMARK SMILES IDX 15 1 17 2 6 3 7 4 8 5 9 6 10 7 11 8 12 9 13 10 14 11 5 12
REMARK SMILES IDX 4 13 3 14 2 15 1 16 19 17 18 18 20 19 16 20
REMARK H PARENT 16 21 16 22
ROOT
ATOM      1  C   UNL     1      10.452 -49.882 -22.498  1.00  0.00     0.046 A 
ATOM      2  C   UNL     1      11.357 -49.071 -23.207  1.00  0.00     0.001 A 
ATOM      3  C   UNL     1      12.430 -49.696 -23.851  1.00  0.00     0.047 A 
ATOM      4  N   UNL     1      12.594 -51.040 -23.872  1.00  0.00    -0.252 NA
ATOM      5  C   UNL     1      11.697 -51.814 -23.249  1.00  0.00     0.074 A 
ATOM      6  C   UNL     1      11.883 -53.187 -23.315  1.00  0.00     0.049 A 
ATOM      7  C   UNL     1      10.987 -54.068 -22.716  1.00  0.00     0.043 A 
ATOM      8  Cl  UNL     1      11.250 -55.765 -22.823  1.00  0.00    -0.084 Cl
ATOM      9  C   UNL     1       9.880 -53.584 -22.037  1.00  0.00     0.021 A 
ATOM     10  C   UNL     1       9.678 -52.206 -21.955  1.00  0.00     0.014 A 
ATOM     11  C   UNL     1      10.585 -51.296 -22.553  1.00  0.00     0.024 A 
ATOM     12  C   UNL     1      13.465 -48.911 -24.626  1.00  0.00     0.064 C 
ATOM     13  C   UNL     1      13.407 -47.397 -24.381  1.00  0.00     0.018 C 
ATOM     14  C   UNL     1      14.044 -47.038 -23.056  1.00  0.00    -0.024 C 
ATOM     15  C   UNL     1      13.331 -46.813 -21.937  1.00  0.00    -0.076 C 
ATOM     16  C   UNL     1      13.974 -46.440 -20.635  1.00  0.00     0.039 C 
ATOM     17  C   UNL     1      11.819 -46.937 -21.921  1.00  0.00     0.039 C 
ATOM     18  C   UNL     1      11.228 -47.551 -23.214  1.00  0.00     0.028 C 
ATOM     19  C   UNL     1      11.944 -46.949 -24.429  1.00  0.00     0.017 C 
ENDROOT
BRANCH   1  20
ATOM     20  N   UNL     1       9.308 -49.269 -21.923  1.00  0.00    -0.398 N 
ATOM     21  H   UNL     1       8.771 -49.958 -21.398  1.00  0.00     0.156 HD
ATOM     22  H   UNL     1       9.540 -48.485 -21.322  1.00  0.00     0.156 HD
ENDBRANCH   1  20
TORSDOF 1
ENDMDL
MODEL 7
REMARK VINA RESULT:    -8.700      3.408      5.908
REMARK INTER + INTRA:          -8.954
REMARK INTER:                  -8.954
REMARK INTRA:                   0.000
REMARK UNBOUND:                 0.000
REMARK SMILES CC1=C[C@H]2Cc3nc4cc(Cl)ccc4c(N)c3[C@@H](C1)C2
REMARK SMILES IDX 15 1 17 2 6 3 7 4 8 5 9 6 10 7 11 8 12 9 13 10 14 11 5 12
REMARK SMILES IDX 4 13 3 14 2 15 1 16 19 17 18 18 20 19 16 20
REMARK H PARENT 16 21 16 22
ROOT
ATOM      1  C   UNL     1      12.459 -60.124 -25.040  1.00  0.00     0.046 A 
ATOM      2  C   UNL     1      11.301 -59.984 -24.254  1.00  0.00     0.001 A 
ATOM      3  C   UNL     1      10.094 -59.717 -24.909  1.00  0.00     0.047 A 
ATOM      4  N   UNL     1       9.987 -59.654 -26.258  1.00  0.00    -0.252 NA
ATOM      5  C   UNL     1      11.079 -59.850 -27.007  1.00  0.00     0.074 A 
ATOM      6  C   UNL     1      10.926 -59.805 -28.385  1.00  0.00     0.049 A 
ATOM      7  C   UNL     1      12.002 -60.020 -29.240  1.00  0.00     0.043 A 
ATOM      8  Cl  UNL     1      11.771 -59.960 -30.944  1.00  0.00    -0.084 Cl
ATOM      9  C   UNL     1      13.261 -60.289 -28.725  1.00  0.00     0.021 A 
ATOM     10  C   UNL     1      13.436 -60.333 -27.342  1.00  0.00     0.014 A 
ATOM     11  C   UNL     1      12.352 -60.109 -26.457  1.00  0.00     0.024 A 
ATOM     12  C   UNL     1       8.797 -59.535 -24.153  1.00  0.00     0.064 C 
ATOM     13  C   UNL     1       8.980 -59.358 -22.640  1.00  0.00     0.018 C 
ATOM     14  C   UNL     1       9.437 -57.954 -22.309  1.00  0.00    -0.024 C 
ATOM     15  C   UNL     1      10.724 -57.639 -22.068  1.00  0.00    -0.076 C 
ATOM     16  C   UNL     1      11.159 -56.246 -21.724  1.00  0.00     0.039 C 
ATOM     17  C   UNL     1      11.823 -58.682 -22.144  1.00  0.00     0.039 C 
ATOM     18  C   UNL     1      11.360 -60.037 -22.731  1.00  0.00     0.028 C 
ATOM     19  C   UNL     1       9.990 -60.397 -22.145  1.00  0.00     0.017 C 
ENDROOT
BRANCH   1  20
ATOM     20  N   UNL     1      13.670 -60.489 -24.395  1.00  0.00    -0.398 N 
ATOM     21  H   UNL     1      14.306 -60.917 -25.065  1.00  0.00     0.156 HD
ATOM     22  H   UNL     1      14.126 -59.706 -23.939  1.00  0.00     0.156 HD
ENDBRANCH   1  20
TORSDOF 1
ENDMDL
MODEL 8
REMARK VINA RESULT:    -8.498      1.825      2.493
REMARK INTER + INTRA:          -8.746
REMARK INTER:                  -8.746
REMARK INTRA:                   0.000
REMARK UNBOUND:                 0.000
REMARK SMILES CC1=C[C@H]2Cc3nc4cc(Cl)ccc4c(N)c3[C@@H](C1)C2
REMARK SMILES IDX 15 1 17 2 6 3 7 4 8 5 9 6 10 7 11 8 12 9 13 10 14 11 5 12
REMARK SMILES IDX 4 13 3 14 2 15 1 16 19 17 18 18 20 19 16 20
REMARK H PARENT 16 21 16 22
ROOT
ATOM      1  C   UNL     1       8.870 -57.994 -23.090  1.00  0.00     0.046 A 
ATOM      2  C   UNL     1       9.562 -59.216 -23.011  1.00  0.00     0.001 A 
ATOM      3  C   UNL     1      10.951 -59.192 -23.174  1.00  0.00     0.047 A 
ATOM      4  N   UNL     1      11.654 -58.046 -23.339  1.00  0.00    -0.252 NA
ATOM      5  C   UNL     1      11.000 -56.879 -23.351  1.00  0.00     0.074 A 
ATOM      6  C   UNL     1      11.755 -55.724 -23.495  1.00  0.00     0.049 A 
ATOM      7  C   UNL     1      11.161 -54.465 -23.496  1.00  0.00     0.043 A 
ATOM      8  Cl  UNL     1      12.133 -53.057 -23.671  1.00  0.00    -0.084 Cl
ATOM      9  C   UNL     1       9.788 -54.341 -23.349  1.00  0.00     0.021 A 
ATOM     10  C   UNL     1       9.010 -55.491 -23.209  1.00  0.00     0.014 A 
ATOM     11  C   UNL     1       9.599 -56.780 -23.214  1.00  0.00     0.024 A 
ATOM     12  C   UNL     1      11.784 -60.453 -23.121  1.00  0.00     0.064 C 
ATOM     13  C   UNL     1      10.958 -61.746 -23.189  1.00  0.00     0.018 C 
ATOM     14  C   UNL     1      10.513 -62.030 -24.607  1.00  0.00    -0.024 C 
ATOM     15  C   UNL     1       9.284 -61.729 -25.064  1.00  0.00    -0.076 C 
ATOM     16  C   UNL     1       8.850 -62.034 -26.467  1.00  0.00     0.039 C 
ATOM     17  C   UNL     1       8.256 -61.043 -24.184  1.00  0.00     0.039 C 
ATOM     18  C   UNL     1       8.825 -60.539 -22.835  1.00  0.00     0.028 C 
ATOM     19  C   UNL     1       9.756 -61.608 -22.251  1.00  0.00     0.017 C 
ENDROOT
BRANCH   1  20
ATOM     20  N   UNL     1       7.474 -57.993 -22.832  1.00  0.00    -0.398 N 
ATOM     21  H   UNL     1       6.974 -58.412 -23.615  1.00  0.00     0.156 HD
ATOM     22  H   UNL     1       7.231 -58.475 -21.973  1.00  0.00     0.156 HD
ENDBRANCH   1  20
TORSDOF 1
ENDMDL
MODEL 9
REMARK VINA RESULT:    -8.125      5.447      9.700
REMARK INTER + INTRA:          -8.362
REMARK INTER:                  -8.362
REMARK INTRA:                   0.000
REMARK UNBOUND:                 0.000
REMARK SMILES CC1=C[C@H]2Cc3nc4cc(Cl)ccc4c(N)c3[C@@H](C1)C2
REMARK SMILES IDX 15 1 17 2 6 3 7 4 8 5 9 6 10 7 11 8 12 9 13 10 14 11 5 12
REMARK SMILES IDX 4 13 3 14 2 15 1 16 19 17 18 18 20 19 16 20
REMARK H PARENT 16 21 16 22
ROOT
ATOM      1  C   UNL     1      11.942 -50.676 -23.086  1.00  0.00     0.046 A 
ATOM      2  C   UNL     1      12.469 -49.490 -23.628  1.00  0.00     0.001 A 
ATOM      3  C   UNL     1      13.231 -49.587 -24.796  1.00  0.00     0.047 A 
ATOM      4  N   UNL     1      13.426 -50.755 -25.453  1.00  0.00    -0.252 NA
ATOM      5  C   UNL     1      12.873 -51.873 -24.970  1.00  0.00     0.074 A 
ATOM      6  C   UNL     1      13.072 -53.045 -25.684  1.00  0.00     0.049 A 
ATOM      7  C   UNL     1      12.514 -54.250 -25.267  1.00  0.00     0.043 A 
ATOM      8  Cl  UNL     1      12.780 -55.682 -26.183  1.00  0.00    -0.084 Cl
ATOM      9  C   UNL     1      11.738 -54.301 -24.119  1.00  0.00     0.021 A 
ATOM     10  C   UNL     1      11.530 -53.134 -23.385  1.00  0.00     0.014 A 
ATOM     11  C   UNL     1      12.098 -51.900 -23.791  1.00  0.00     0.024 A 
ATOM     12  C   UNL     1      13.853 -48.372 -25.449  1.00  0.00     0.064 C 
ATOM     13  C   UNL     1      13.836 -47.116 -24.566  1.00  0.00     0.018 C 
ATOM     14  C   UNL     1      14.923 -47.179 -23.514  1.00  0.00    -0.024 C 
ATOM     15  C   UNL     1      14.691 -47.553 -22.242  1.00  0.00    -0.076 C 
ATOM     16  C   UNL     1      15.774 -47.593 -21.206  1.00  0.00     0.039 C 
ATOM     17  C   UNL     1      13.309 -47.976 -21.778  1.00  0.00     0.039 C 
ATOM     18  C   UNL     1      12.288 -48.146 -22.929  1.00  0.00     0.028 C 
ATOM     19  C   UNL     1      12.453 -46.989 -23.923  1.00  0.00     0.017 C 
ENDROOT
BRANCH   1  20
ATOM     20  N   UNL     1      11.088 -50.578 -21.956  1.00  0.00    -0.398 N 
ATOM     21  H   UNL     1      10.272 -51.175 -22.084  1.00  0.00     0.156 HD
ATOM     22  H   UNL     1      11.554 -50.815 -21.087  1.00  0.00     0.156 HD
ENDBRANCH   1  20
TORSDOF 1
ENDMDL
