MODEL 1
REMARK VINA RESULT:   -12.320      0.000      0.000
REMARK INTER + INTRA:         -18.130
REMARK INTER:                 -17.362
REMARK INTRA:                  -0.768
REMARK UNBOUND:                -0.768
REMARK SMILES COc1cc2c(cc1OC)C(=O)/C(=C/c1cc[n+](Cc3cccc([N+](=O)[O-])c3)cc1)C2
REMARK SMILES IDX 15 1 16 2 17 3 18 4 29 5 30 6 14 7 13 8 3 9 4 10 8 11 5 12
REMARK SMILES IDX 7 13 6 14 31 15 11 16 12 17 2 18 1 19 9 20 10 21 19 22 20 23
REMARK SMILES IDX 21 24 28 25 22 26 24 27 23 28 25 29 26 30 27 31
REMARK H PARENT
ROOT
ATOM      1  C   UNL     1      10.433 -57.177 -22.815  1.00  0.00    -0.013 A 
ATOM      2  C   UNL     1      11.721 -57.703 -22.828  1.00  0.00     0.079 A 
ATOM      3  C   UNL     1      11.946 -58.954 -23.392  1.00  0.00     0.309 A 
ATOM      4  N   UNL     1      10.927 -59.662 -23.936  1.00  0.00    -0.201 N 
ATOM      5  C   UNL     1       9.669 -59.165 -23.934  1.00  0.00     0.309 A 
ATOM      6  C   UNL     1       9.400 -57.918 -23.383  1.00  0.00     0.079 A 
ENDROOT
BRANCH   1   7
ATOM      7  C   UNL     1      10.148 -55.847 -22.277  1.00  0.00     0.016 C 
BRANCH   7   8
ATOM      8  C   UNL     1      10.711 -54.707 -22.698  1.00  0.00     0.005 C 
ATOM      9  C   UNL     1      12.893 -50.821 -24.221  1.00  0.00     0.161 A 
ATOM     10  C   UNL     1      12.558 -52.117 -24.639  1.00  0.00     0.055 A 
ATOM     11  C   UNL     1      12.463 -50.348 -22.962  1.00  0.00     0.161 A 
ATOM     12  C   UNL     1      11.853 -52.937 -23.771  1.00  0.00    -0.028 A 
ATOM     13  C   UNL     1      11.772 -51.182 -22.080  1.00  0.00     0.063 A 
ATOM     14  C   UNL     1      11.480 -52.461 -22.513  1.00  0.00     0.030 A 
ATOM     15  C   UNL     1      11.403 -54.348 -23.990  1.00  0.00     0.076 C 
ATOM     16  C   UNL     1      10.761 -53.513 -21.794  1.00  0.00     0.189 C 
ATOM     17  O   UNL     1      10.293 -53.436 -20.676  1.00  0.00    -0.289 OA
BRANCH   9  18
ATOM     18  O   UNL     1      13.594 -50.088 -25.143  1.00  0.00    -0.493 OA
ATOM     19  C   UNL     1      13.906 -50.795 -26.342  1.00  0.00     0.278 C 
ENDBRANCH   9  18
BRANCH  11  20
ATOM     20  O   UNL     1      12.730 -49.073 -22.537  1.00  0.00    -0.493 OA
ATOM     21  C   UNL     1      11.576 -48.248 -22.711  1.00  0.00     0.278 C 
ENDBRANCH  11  20
ENDBRANCH   7   8
ENDBRANCH   1   7
BRANCH   4  22
ATOM     22  C   UNL     1      11.197 -60.996 -24.530  1.00  0.00     0.393 C 
BRANCH  22  23
ATOM     23  C   UNL     1      10.151 -62.002 -24.109  1.00  0.00     0.024 A 
ATOM     24  C   UNL     1      10.226 -62.622 -22.851  1.00  0.00     0.011 A 
ATOM     25  C   UNL     1       9.081 -62.327 -24.959  1.00  0.00     0.095 A 
ATOM     26  C   UNL     1       9.261 -63.556 -22.455  1.00  0.00     0.008 A 
ATOM     27  C   UNL     1       8.117 -63.268 -24.556  1.00  0.00     0.269 A 
ATOM     28  C   UNL     1       8.207 -63.886 -23.305  1.00  0.00     0.085 A 
BRANCH  27  29
ATOM     29  N   UNL     1       7.013 -63.607 -25.464  1.00  0.00     0.062 N 
ATOM     30  O   UNL     1       5.865 -63.553 -24.997  1.00  0.00    -0.258 OA
ATOM     31  O   UNL     1       7.295 -63.916 -26.628  1.00  0.00    -0.258 OA
ENDBRANCH  27  29
ENDBRANCH  22  23
ENDBRANCH   4  22
TORSDOF 7
ENDMDL
MODEL 2
REMARK VINA RESULT:   -11.866      1.705      2.048
REMARK INTER + INTRA:         -17.490
REMARK INTER:                 -16.763
REMARK INTRA:                  -0.727
REMARK UNBOUND:                -0.768
REMARK SMILES COc1cc2c(cc1OC)C(=O)/C(=C/c1cc[n+](Cc3cccc([N+](=O)[O-])c3)cc1)C2
REMARK SMILES IDX 15 1 16 2 17 3 18 4 29 5 30 6 14 7 13 8 3 9 4 10 8 11 5 12
REMARK SMILES IDX 7 13 6 14 31 15 11 16 12 17 2 18 1 19 9 20 10 21 19 22 20 23
REMARK SMILES IDX 21 24 28 25 22 26 24 27 23 28 25 29 26 30 27 31
REMARK H PARENT
ROOT
ATOM      1  C   UNL     1      10.151 -56.937 -22.671  1.00  0.00    -0.013 A 
ATOM      2  C   UNL     1      11.398 -57.504 -22.426  1.00  0.00     0.079 A 
ATOM      3  C   UNL     1      11.581 -58.869 -22.618  1.00  0.00     0.309 A 
ATOM      4  N   UNL     1      10.562 -59.651 -23.048  1.00  0.00    -0.201 N 
ATOM      5  C   UNL     1       9.343 -59.116 -23.293  1.00  0.00     0.309 A 
ATOM      6  C   UNL     1       9.117 -57.756 -23.118  1.00  0.00     0.079 A 
ENDROOT
BRANCH   1   7
ATOM      7  C   UNL     1       9.915 -55.500 -22.532  1.00  0.00     0.016 C 
BRANCH   7   8
ATOM      8  C   UNL     1      10.678 -54.537 -23.066  1.00  0.00     0.005 C 
ATOM      9  C   UNL     1      13.543 -51.306 -24.947  1.00  0.00     0.161 A 
ATOM     10  C   UNL     1      13.043 -52.594 -25.191  1.00  0.00     0.055 A 
ATOM     11  C   UNL     1      13.099 -50.574 -23.824  1.00  0.00     0.161 A 
ATOM     12  C   UNL     1      12.157 -53.149 -24.281  1.00  0.00    -0.028 A 
ATOM     13  C   UNL     1      12.224 -51.144 -22.897  1.00  0.00     0.063 A 
ATOM     14  C   UNL     1      11.770 -52.423 -23.154  1.00  0.00     0.030 A 
ATOM     15  C   UNL     1      11.511 -54.500 -24.323  1.00  0.00     0.076 C 
ATOM     16  C   UNL     1      10.845 -53.229 -22.356  1.00  0.00     0.189 C 
ATOM     17  O   UNL     1      10.314 -52.900 -21.315  1.00  0.00    -0.289 OA
BRANCH   9  18
ATOM     18  O   UNL     1      14.415 -50.844 -25.897  1.00  0.00    -0.493 OA
ATOM     19  C   UNL     1      15.788 -51.110 -25.614  1.00  0.00     0.278 C 
ENDBRANCH   9  18
BRANCH  11  20
ATOM     20  O   UNL     1      13.529 -49.297 -23.577  1.00  0.00    -0.493 OA
ATOM     21  C   UNL     1      12.666 -48.358 -24.222  1.00  0.00     0.278 C 
ENDBRANCH  11  20
ENDBRANCH   7   8
ENDBRANCH   1   7
BRANCH   4  22
ATOM     22  C   UNL     1      10.786 -61.106 -23.242  1.00  0.00     0.393 C 
BRANCH  22  23
ATOM     23  C   UNL     1       9.937 -61.642 -24.371  1.00  0.00     0.024 A 
ATOM     24  C   UNL     1       8.902 -62.557 -24.112  1.00  0.00     0.011 A 
ATOM     25  C   UNL     1      10.156 -61.230 -25.696  1.00  0.00     0.095 A 
ATOM     26  C   UNL     1       8.113 -63.058 -25.153  1.00  0.00     0.008 A 
ATOM     27  C   UNL     1       9.361 -61.740 -26.737  1.00  0.00     0.269 A 
ATOM     28  C   UNL     1       8.340 -62.656 -26.469  1.00  0.00     0.085 A 
BRANCH  27  29
ATOM     29  N   UNL     1       9.615 -61.308 -28.118  1.00  0.00     0.062 N 
ATOM     30  O   UNL     1       8.815 -61.695 -28.984  1.00  0.00    -0.258 OA
ATOM     31  O   UNL     1      10.598 -60.588 -28.329  1.00  0.00    -0.258 OA
ENDBRANCH  27  29
ENDBRANCH  22  23
ENDBRANCH   4  22
TORSDOF 7
ENDMDL
MODEL 3
REMARK VINA RESULT:   -11.592      0.972      2.104
REMARK INTER + INTRA:         -17.104
REMARK INTER:                 -16.689
REMARK INTRA:                  -0.415
REMARK UNBOUND:                -0.768
REMARK SMILES COc1cc2c(cc1OC)C(=O)/C(=C/c1cc[n+](Cc3cccc([N+](=O)[O-])c3)cc1)C2
REMARK SMILES IDX 15 1 16 2 17 3 18 4 29 5 30 6 14 7 13 8 3 9 4 10 8 11 5 12
REMARK SMILES IDX 7 13 6 14 31 15 11 16 12 17 2 18 1 19 9 20 10 21 19 22 20 23
REMARK SMILES IDX 21 24 28 25 22 26 24 27 23 28 25 29 26 30 27 31
REMARK H PARENT
ROOT
ATOM      1  C   UNL     1      10.180 -56.990 -22.741  1.00  0.00    -0.013 A 
ATOM      2  C   UNL     1      11.381 -57.495 -22.251  1.00  0.00     0.079 A 
ATOM      3  C   UNL     1      11.782 -58.778 -22.603  1.00  0.00     0.309 A 
ATOM      4  N   UNL     1      11.020 -59.540 -23.425  1.00  0.00    -0.201 N 
ATOM      5  C   UNL     1       9.851 -59.065 -23.913  1.00  0.00     0.309 A 
ATOM      6  C   UNL     1       9.414 -57.787 -23.589  1.00  0.00     0.079 A 
ENDROOT
BRANCH   1   7
ATOM      7  C   UNL     1       9.734 -55.631 -22.441  1.00  0.00     0.016 C 
BRANCH   7   8
ATOM      8  C   UNL     1      10.477 -54.525 -22.584  1.00  0.00     0.005 C 
ATOM      9  C   UNL     1      12.888 -50.507 -23.058  1.00  0.00     0.161 A 
ATOM     10  C   UNL     1      12.034 -51.166 -22.162  1.00  0.00     0.055 A 
ATOM     11  C   UNL     1      13.302 -51.149 -24.246  1.00  0.00     0.161 A 
ATOM     12  C   UNL     1      11.562 -52.426 -22.494  1.00  0.00    -0.028 A 
ATOM     13  C   UNL     1      12.808 -52.409 -24.589  1.00  0.00     0.063 A 
ATOM     14  C   UNL     1      11.949 -53.019 -23.696  1.00  0.00     0.030 A 
ATOM     15  C   UNL     1      10.636 -53.305 -21.710  1.00  0.00     0.076 C 
ATOM     16  C   UNL     1      11.311 -54.332 -23.813  1.00  0.00     0.189 C 
ATOM     17  O   UNL     1      11.434 -55.116 -24.731  1.00  0.00    -0.289 OA
BRANCH   9  18
ATOM     18  O   UNL     1      13.298 -49.266 -22.647  1.00  0.00    -0.493 OA
ATOM     19  C   UNL     1      12.350 -48.226 -22.880  1.00  0.00     0.278 C 
ENDBRANCH   9  18
BRANCH  11  20
ATOM     20  O   UNL     1      14.172 -50.557 -25.123  1.00  0.00    -0.493 OA
ATOM     21  C   UNL     1      13.862 -50.956 -26.461  1.00  0.00     0.278 C 
ENDBRANCH  11  20
ENDBRANCH   7   8
ENDBRANCH   1   7
BRANCH   4  22
ATOM     22  C   UNL     1      11.472 -60.909 -23.783  1.00  0.00     0.393 C 
BRANCH  22  23
ATOM     23  C   UNL     1      10.337 -61.901 -23.687  1.00  0.00     0.024 A 
ATOM     24  C   UNL     1      10.101 -62.601 -22.492  1.00  0.00     0.011 A 
ATOM     25  C   UNL     1       9.490 -62.134 -24.783  1.00  0.00     0.095 A 
ATOM     26  C   UNL     1       9.052 -63.522 -22.397  1.00  0.00     0.008 A 
ATOM     27  C   UNL     1       8.439 -63.063 -24.681  1.00  0.00     0.269 A 
ATOM     28  C   UNL     1       8.220 -63.760 -23.489  1.00  0.00     0.085 A 
BRANCH  27  29
ATOM     29  N   UNL     1       7.572 -63.304 -25.843  1.00  0.00     0.062 N 
ATOM     30  O   UNL     1       8.044 -63.044 -26.960  1.00  0.00    -0.258 OA
ATOM     31  O   UNL     1       6.438 -63.753 -25.636  1.00  0.00    -0.258 OA
ENDBRANCH  27  29
ENDBRANCH  22  23
ENDBRANCH   4  22
TORSDOF 7
ENDMDL
MODEL 4
REMARK VINA RESULT:   -11.091      2.182      3.150
REMARK INTER + INTRA:         -16.398
REMARK INTER:                 -15.939
REMARK INTRA:                  -0.459
REMARK UNBOUND:                -0.768
REMARK SMILES COc1cc2c(cc1OC)C(=O)/C(=C/c1cc[n+](Cc3cccc([N+](=O)[O-])c3)cc1)C2
REMARK SMILES IDX 15 1 16 2 17 3 18 4 29 5 30 6 14 7 13 8 3 9 4 10 8 11 5 12
REMARK SMILES IDX 7 13 6 14 31 15 11 16 12 17 2 18 1 19 9 20 10 21 19 22 20 23
REMARK SMILES IDX 21 24 28 25 22 26 24 27 23 28 25 29 26 30 27 31
REMARK H PARENT
ROOT
ATOM      1  C   UNL     1      10.096 -55.995 -22.654  1.00  0.00    -0.013 A 
ATOM      2  C   UNL     1      11.245 -56.525 -22.074  1.00  0.00     0.079 A 
ATOM      3  C   UNL     1      11.409 -57.904 -22.012  1.00  0.00     0.309 A 
ATOM      4  N   UNL     1      10.469 -58.737 -22.518  1.00  0.00    -0.201 N 
ATOM      5  C   UNL     1       9.347 -58.240 -23.089  1.00  0.00     0.309 A 
ATOM      6  C   UNL     1       9.143 -56.867 -23.174  1.00  0.00     0.079 A 
ENDROOT
BRANCH   1   7
ATOM      7  C   UNL     1       9.893 -54.553 -22.787  1.00  0.00     0.016 C 
BRANCH   7   8
ATOM      8  C   UNL     1      10.848 -53.664 -23.092  1.00  0.00     0.005 C 
ATOM      9  C   UNL     1      14.036 -50.367 -24.167  1.00  0.00     0.161 A 
ATOM     10  C   UNL     1      13.063 -50.669 -23.203  1.00  0.00     0.055 A 
ATOM     11  C   UNL     1      14.310 -51.281 -25.208  1.00  0.00     0.161 A 
ATOM     12  C   UNL     1      12.342 -51.846 -23.328  1.00  0.00    -0.028 A 
ATOM     13  C   UNL     1      13.567 -52.456 -25.346  1.00  0.00     0.063 A 
ATOM     14  C   UNL     1      12.600 -52.710 -24.393  1.00  0.00     0.030 A 
ATOM     15  C   UNL     1      11.254 -52.366 -22.439  1.00  0.00     0.076 C 
ATOM     16  C   UNL     1      11.706 -53.866 -24.304  1.00  0.00     0.189 C 
ATOM     17  O   UNL     1      11.665 -54.810 -25.066  1.00  0.00    -0.289 OA
BRANCH   9  18
ATOM     18  O   UNL     1      14.692 -49.182 -23.963  1.00  0.00    -0.493 OA
ATOM     19  C   UNL     1      15.757 -49.254 -23.017  1.00  0.00     0.278 C 
ENDBRANCH   9  18
BRANCH  11  20
ATOM     20  O   UNL     1      15.284 -51.043 -26.142  1.00  0.00    -0.493 OA
ATOM     21  C   UNL     1      16.518 -51.627 -25.719  1.00  0.00     0.278 C 
ENDBRANCH  11  20
ENDBRANCH   7   8
ENDBRANCH   1   7
BRANCH   4  22
ATOM     22  C   UNL     1      10.670 -60.207 -22.438  1.00  0.00     0.393 C 
BRANCH  22  23
ATOM     23  C   UNL     1      10.139 -60.898 -23.672  1.00  0.00     0.024 A 
ATOM     24  C   UNL     1       9.375 -62.072 -23.558  1.00  0.00     0.011 A 
ATOM     25  C   UNL     1      10.389 -60.377 -24.952  1.00  0.00     0.095 A 
ATOM     26  C   UNL     1       8.882 -62.718 -24.696  1.00  0.00     0.008 A 
ATOM     27  C   UNL     1       9.892 -61.034 -26.092  1.00  0.00     0.269 A 
ATOM     28  C   UNL     1       9.140 -62.205 -25.967  1.00  0.00     0.085 A 
BRANCH  27  29
ATOM     29  N   UNL     1      10.175 -60.482 -27.424  1.00  0.00     0.062 N 
ATOM     30  O   UNL     1      10.655 -59.339 -27.469  1.00  0.00    -0.258 OA
ATOM     31  O   UNL     1       9.923 -61.188 -28.409  1.00  0.00    -0.258 OA
ENDBRANCH  27  29
ENDBRANCH  22  23
ENDBRANCH   4  22
TORSDOF 7
ENDMDL
MODEL 5
REMARK VINA RESULT:   -11.079      2.536      3.811
REMARK INTER + INTRA:         -16.381
REMARK INTER:                 -15.655
REMARK INTRA:                  -0.726
REMARK UNBOUND:                -0.768
REMARK SMILES COc1cc2c(cc1OC)C(=O)/C(=C/c1cc[n+](Cc3cccc([N+](=O)[O-])c3)cc1)C2
REMARK SMILES IDX 15 1 16 2 17 3 18 4 29 5 30 6 14 7 13 8 3 9 4 10 8 11 5 12
REMARK SMILES IDX 7 13 6 14 31 15 11 16 12 17 2 18 1 19 9 20 10 21 19 22 20 23
REMARK SMILES IDX 21 24 28 25 22 26 24 27 23 28 25 29 26 30 27 31
REMARK H PARENT
ROOT
ATOM      1  C   UNL     1      10.715 -53.804 -22.273  1.00  0.00    -0.013 A 
ATOM      2  C   UNL     1      10.982 -54.130 -23.599  1.00  0.00     0.079 A 
ATOM      3  C   UNL     1      11.325 -55.437 -23.929  1.00  0.00     0.309 A 
ATOM      4  N   UNL     1      11.394 -56.396 -22.976  1.00  0.00    -0.201 N 
ATOM      5  C   UNL     1      11.136 -56.097 -21.681  1.00  0.00     0.309 A 
ATOM      6  C   UNL     1      10.787 -54.805 -21.308  1.00  0.00     0.079 A 
ENDROOT
BRANCH   1   7
ATOM      7  C   UNL     1      10.304 -52.457 -21.877  1.00  0.00     0.016 C 
BRANCH   7   8
ATOM      8  C   UNL     1      10.826 -51.319 -22.354  1.00  0.00     0.005 C 
ATOM      9  C   UNL     1      12.857 -47.358 -23.894  1.00  0.00     0.161 A 
ATOM     10  C   UNL     1      13.084 -48.740 -23.816  1.00  0.00     0.055 A 
ATOM     11  C   UNL     1      11.633 -46.814 -23.445  1.00  0.00     0.161 A 
ATOM     12  C   UNL     1      12.112 -49.545 -23.241  1.00  0.00    -0.028 A 
ATOM     13  C   UNL     1      10.665 -47.623 -22.846  1.00  0.00     0.063 A 
ATOM     14  C   UNL     1      10.931 -48.976 -22.764  1.00  0.00     0.030 A 
ATOM     15  C   UNL     1      12.139 -51.028 -23.038  1.00  0.00     0.076 C 
ATOM     16  C   UNL     1      10.083 -50.028 -22.201  1.00  0.00     0.189 C 
ATOM     17  O   UNL     1       8.985 -49.883 -21.704  1.00  0.00    -0.289 OA
BRANCH   9  18
ATOM     18  O   UNL     1      13.874 -46.645 -24.472  1.00  0.00    -0.493 OA
ATOM     19  C   UNL     1      14.675 -45.909 -23.549  1.00  0.00     0.278 C 
ENDBRANCH   9  18
BRANCH  11  20
ATOM     20  O   UNL     1      11.356 -45.476 -23.546  1.00  0.00    -0.493 OA
ATOM     21  C   UNL     1      10.300 -45.127 -22.648  1.00  0.00     0.278 C 
ENDBRANCH  11  20
ENDBRANCH   7   8
ENDBRANCH   1   7
BRANCH   4  22
ATOM     22  C   UNL     1      11.765 -57.783 -23.357  1.00  0.00     0.393 C 
BRANCH  22  23
ATOM     23  C   UNL     1      10.694 -58.766 -22.944  1.00  0.00     0.024 A 
ATOM     24  C   UNL     1      10.974 -59.772 -22.004  1.00  0.00     0.011 A 
ATOM     25  C   UNL     1       9.399 -58.687 -23.481  1.00  0.00     0.095 A 
ATOM     26  C   UNL     1       9.988 -60.686 -21.619  1.00  0.00     0.008 A 
ATOM     27  C   UNL     1       8.413 -59.611 -23.092  1.00  0.00     0.269 A 
ATOM     28  C   UNL     1       8.706 -60.613 -22.162  1.00  0.00     0.085 A 
BRANCH  27  29
ATOM     29  N   UNL     1       7.068 -59.522 -23.675  1.00  0.00     0.062 N 
ATOM     30  O   UNL     1       6.679 -58.396 -24.021  1.00  0.00    -0.258 OA
ATOM     31  O   UNL     1       6.415 -60.566 -23.787  1.00  0.00    -0.258 OA
ENDBRANCH  27  29
ENDBRANCH  22  23
ENDBRANCH   4  22
TORSDOF 7
ENDMDL
MODEL 6
REMARK VINA RESULT:   -10.953      1.862      2.362
REMARK INTER + INTRA:         -16.203
REMARK INTER:                 -16.102
REMARK INTRA:                  -0.101
REMARK UNBOUND:                -0.768
REMARK SMILES COc1cc2c(cc1OC)C(=O)/C(=C/c1cc[n+](Cc3cccc([N+](=O)[O-])c3)cc1)C2
REMARK SMILES IDX 15 1 16 2 17 3 18 4 29 5 30 6 14 7 13 8 3 9 4 10 8 11 5 12
REMARK SMILES IDX 7 13 6 14 31 15 11 16 12 17 2 18 1 19 9 20 10 21 19 22 20 23
REMARK SMILES IDX 21 24 28 25 22 26 24 27 23 28 25 29 26 30 27 31
REMARK H PARENT
ROOT
ATOM      1  C   UNL     1      11.179 -55.959 -22.680  1.00  0.00    -0.013 A 
ATOM      2  C   UNL     1      11.156 -56.778 -21.555  1.00  0.00     0.079 A 
ATOM      3  C   UNL     1      11.421 -58.136 -21.689  1.00  0.00     0.309 A 
ATOM      4  N   UNL     1      11.710 -58.669 -22.900  1.00  0.00    -0.201 N 
ATOM      5  C   UNL     1      11.739 -57.887 -24.005  1.00  0.00     0.309 A 
ATOM      6  C   UNL     1      11.483 -56.524 -23.915  1.00  0.00     0.079 A 
ENDROOT
BRANCH   1   7
ATOM      7  C   UNL     1      10.954 -54.517 -22.589  1.00  0.00     0.016 C 
BRANCH   7   8
ATOM      8  C   UNL     1      11.561 -53.591 -23.344  1.00  0.00     0.005 C 
ATOM      9  C   UNL     1      13.893 -50.474 -25.995  1.00  0.00     0.161 A 
ATOM     10  C   UNL     1      13.520 -51.826 -25.976  1.00  0.00     0.055 A 
ATOM     11  C   UNL     1      13.463 -49.606 -24.967  1.00  0.00     0.161 A 
ATOM     12  C   UNL     1      12.776 -52.299 -24.907  1.00  0.00    -0.028 A 
ATOM     13  C   UNL     1      12.732 -50.088 -23.879  1.00  0.00     0.063 A 
ATOM     14  C   UNL     1      12.403 -51.430 -23.881  1.00  0.00     0.030 A 
ATOM     15  C   UNL     1      12.282 -53.691 -24.666  1.00  0.00     0.076 C 
ATOM     16  C   UNL     1      11.639 -52.171 -22.876  1.00  0.00     0.189 C 
ATOM     17  O   UNL     1      11.160 -51.721 -21.855  1.00  0.00    -0.289 OA
BRANCH   9  18
ATOM     18  O   UNL     1      14.631 -50.100 -27.087  1.00  0.00    -0.493 OA
ATOM     19  C   UNL     1      16.022 -49.921 -26.824  1.00  0.00     0.278 C 
ENDBRANCH   9  18
BRANCH  11  20
ATOM     20  O   UNL     1      13.768 -48.270 -24.973  1.00  0.00    -0.493 OA
ATOM     21  C   UNL     1      12.585 -47.498 -24.755  1.00  0.00     0.278 C 
ENDBRANCH  11  20
ENDBRANCH   7   8
ENDBRANCH   1   7
BRANCH   4  22
ATOM     22  C   UNL     1      11.988 -60.124 -23.014  1.00  0.00     0.393 C 
BRANCH  22  23
ATOM     23  C   UNL     1      10.707 -60.915 -23.142  1.00  0.00     0.024 A 
ATOM     24  C   UNL     1      10.743 -62.316 -23.242  1.00  0.00     0.011 A 
ATOM     25  C   UNL     1       9.460 -60.270 -23.151  1.00  0.00     0.095 A 
ATOM     26  C   UNL     1       9.561 -63.055 -23.362  1.00  0.00     0.008 A 
ATOM     27  C   UNL     1       8.276 -61.018 -23.275  1.00  0.00     0.269 A 
ATOM     28  C   UNL     1       8.324 -62.412 -23.383  1.00  0.00     0.085 A 
BRANCH  27  29
ATOM     29  N   UNL     1       6.981 -60.325 -23.297  1.00  0.00     0.062 N 
ATOM     30  O   UNL     1       6.064 -60.868 -23.932  1.00  0.00    -0.258 OA
ATOM     31  O   UNL     1       6.886 -59.255 -22.684  1.00  0.00    -0.258 OA
ENDBRANCH  27  29
ENDBRANCH  22  23
ENDBRANCH   4  22
TORSDOF 7
ENDMDL
MODEL 7
REMARK VINA RESULT:   -10.770      3.520     10.505
REMARK INTER + INTRA:         -15.946
REMARK INTER:                 -15.128
REMARK INTRA:                  -0.818
REMARK UNBOUND:                -0.768
REMARK SMILES COc1cc2c(cc1OC)C(=O)/C(=C/c1cc[n+](Cc3cccc([N+](=O)[O-])c3)cc1)C2
REMARK SMILES IDX 15 1 16 2 17 3 18 4 29 5 30 6 14 7 13 8 3 9 4 10 8 11 5 12
REMARK SMILES IDX 7 13 6 14 31 15 11 16 12 17 2 18 1 19 9 20 10 21 19 22 20 23
REMARK SMILES IDX 21 24 28 25 22 26 24 27 23 28 25 29 26 30 27 31
REMARK H PARENT
ROOT
ATOM      1  C   UNL     1      10.811 -54.436 -23.049  1.00  0.00    -0.013 A 
ATOM      2  C   UNL     1      11.481 -54.730 -24.233  1.00  0.00     0.079 A 
ATOM      3  C   UNL     1      12.262 -53.753 -24.841  1.00  0.00     0.309 A 
ATOM      4  N   UNL     1      12.383 -52.522 -24.290  1.00  0.00    -0.201 N 
ATOM      5  C   UNL     1      11.741 -52.219 -23.138  1.00  0.00     0.309 A 
ATOM      6  C   UNL     1      10.952 -53.167 -22.495  1.00  0.00     0.079 A 
ENDROOT
BRANCH   1   7
ATOM      7  C   UNL     1      10.015 -55.440 -22.344  1.00  0.00     0.016 C 
BRANCH   7   8
ATOM      8  C   UNL     1       9.812 -56.697 -22.760  1.00  0.00     0.005 C 
ATOM      9  C   UNL     1       8.874 -61.103 -24.136  1.00  0.00     0.161 A 
ATOM     10  C   UNL     1       8.401 -59.791 -24.284  1.00  0.00     0.055 A 
ATOM     11  C   UNL     1      10.048 -61.353 -23.392  1.00  0.00     0.161 A 
ATOM     12  C   UNL     1       9.073 -58.762 -23.642  1.00  0.00    -0.028 A 
ATOM     13  C   UNL     1      10.711 -60.319 -22.727  1.00  0.00     0.063 A 
ATOM     14  C   UNL     1      10.204 -59.043 -22.874  1.00  0.00     0.030 A 
ATOM     15  C   UNL     1       8.747 -57.301 -23.642  1.00  0.00     0.076 C 
ATOM     16  C   UNL     1      10.717 -57.798 -22.299  1.00  0.00     0.189 C 
ATOM     17  O   UNL     1      11.690 -57.679 -21.584  1.00  0.00    -0.289 OA
BRANCH   9  18
ATOM     18  O   UNL     1       8.144 -62.051 -24.802  1.00  0.00    -0.493 OA
ATOM     19  C   UNL     1       8.612 -62.336 -26.119  1.00  0.00     0.278 C 
ENDBRANCH   9  18
BRANCH  11  20
ATOM     20  O   UNL     1      10.567 -62.614 -23.261  1.00  0.00    -0.493 OA
ATOM     21  C   UNL     1       9.749 -63.391 -22.383  1.00  0.00     0.278 C 
ENDBRANCH  11  20
ENDBRANCH   7   8
ENDBRANCH   1   7
BRANCH   4  22
ATOM     22  C   UNL     1      13.223 -51.497 -24.962  1.00  0.00     0.393 C 
BRANCH  22  23
ATOM     23  C   UNL     1      14.667 -51.609 -24.534  1.00  0.00     0.024 A 
ATOM     24  C   UNL     1      15.045 -51.308 -23.214  1.00  0.00     0.011 A 
ATOM     25  C   UNL     1      15.656 -52.027 -25.440  1.00  0.00     0.095 A 
ATOM     26  C   UNL     1      16.381 -51.409 -22.812  1.00  0.00     0.008 A 
ATOM     27  C   UNL     1      16.998 -52.124 -25.029  1.00  0.00     0.269 A 
ATOM     28  C   UNL     1      17.363 -51.813 -23.716  1.00  0.00     0.085 A 
BRANCH  27  29
ATOM     29  N   UNL     1      18.020 -52.549 -25.994  1.00  0.00     0.062 N 
ATOM     30  O   UNL     1      19.119 -51.976 -25.938  1.00  0.00    -0.258 OA
ATOM     31  O   UNL     1      17.726 -53.446 -26.793  1.00  0.00    -0.258 OA
ENDBRANCH  27  29
ENDBRANCH  22  23
ENDBRANCH   4  22
TORSDOF 7
ENDMDL
MODEL 8
REMARK VINA RESULT:   -10.334      1.877      3.162
REMARK INTER + INTRA:         -15.331
REMARK INTER:                 -14.920
REMARK INTRA:                  -0.411
REMARK UNBOUND:                -0.768
REMARK SMILES COc1cc2c(cc1OC)C(=O)/C(=C/c1cc[n+](Cc3cccc([N+](=O)[O-])c3)cc1)C2
REMARK SMILES IDX 15 1 16 2 17 3 18 4 29 5 30 6 14 7 13 8 3 9 4 10 8 11 5 12
REMARK SMILES IDX 7 13 6 14 31 15 11 16 12 17 2 18 1 19 9 20 10 21 19 22 20 23
REMARK SMILES IDX 21 24 28 25 22 26 24 27 23 28 25 29 26 30 27 31
REMARK H PARENT
ROOT
ATOM      1  C   UNL     1      11.644 -55.780 -24.001  1.00  0.00    -0.013 A 
ATOM      2  C   UNL     1      12.029 -57.056 -24.402  1.00  0.00     0.079 A 
ATOM      3  C   UNL     1      11.754 -58.145 -23.583  1.00  0.00     0.309 A 
ATOM      4  N   UNL     1      11.109 -57.980 -22.404  1.00  0.00    -0.201 N 
ATOM      5  C   UNL     1      10.724 -56.747 -21.999  1.00  0.00     0.309 A 
ATOM      6  C   UNL     1      10.976 -55.631 -22.788  1.00  0.00     0.079 A 
ENDROOT
BRANCH   1   7
ATOM      7  C   UNL     1      11.866 -54.606 -24.844  1.00  0.00     0.016 C 
BRANCH   7   8
ATOM      8  C   UNL     1      12.076 -53.362 -24.395  1.00  0.00     0.005 C 
ATOM      9  C   UNL     1      12.580 -48.949 -22.828  1.00  0.00     0.161 A 
ATOM     10  C   UNL     1      11.909 -50.142 -22.526  1.00  0.00     0.055 A 
ATOM     11  C   UNL     1      13.487 -48.899 -23.910  1.00  0.00     0.161 A 
ATOM     12  C   UNL     1      12.110 -51.246 -23.341  1.00  0.00    -0.028 A 
ATOM     13  C   UNL     1      13.671 -50.005 -24.743  1.00  0.00     0.063 A 
ATOM     14  C   UNL     1      12.976 -51.157 -24.431  1.00  0.00     0.030 A 
ATOM     15  C   UNL     1      11.496 -52.607 -23.225  1.00  0.00     0.076 C 
ATOM     16  C   UNL     1      13.004 -52.443 -25.129  1.00  0.00     0.189 C 
ATOM     17  O   UNL     1      13.656 -52.716 -26.117  1.00  0.00    -0.289 OA
BRANCH   9  18
ATOM     18  O   UNL     1      12.316 -47.913 -21.972  1.00  0.00    -0.493 OA
ATOM     19  C   UNL     1      11.223 -47.086 -22.369  1.00  0.00     0.278 C 
ENDBRANCH   9  18
BRANCH  11  20
ATOM     20  O   UNL     1      14.196 -47.766 -24.209  1.00  0.00    -0.493 OA
ATOM     21  C   UNL     1      15.592 -48.066 -24.275  1.00  0.00     0.278 C 
ENDBRANCH  11  20
ENDBRANCH   7   8
ENDBRANCH   1   7
BRANCH   4  22
ATOM     22  C   UNL     1      10.829 -59.162 -21.548  1.00  0.00     0.393 C 
BRANCH  22  23
ATOM     23  C   UNL     1      10.216 -60.284 -22.352  1.00  0.00     0.024 A 
ATOM     24  C   UNL     1      11.008 -61.354 -22.801  1.00  0.00     0.011 A 
ATOM     25  C   UNL     1       8.845 -60.286 -22.657  1.00  0.00     0.095 A 
ATOM     26  C   UNL     1      10.447 -62.396 -23.547  1.00  0.00     0.008 A 
ATOM     27  C   UNL     1       8.288 -61.335 -23.410  1.00  0.00     0.269 A 
ATOM     28  C   UNL     1       9.088 -62.391 -23.858  1.00  0.00     0.085 A 
BRANCH  27  29
ATOM     29  N   UNL     1       6.855 -61.313 -23.730  1.00  0.00     0.062 N 
ATOM     30  O   UNL     1       6.409 -62.273 -24.377  1.00  0.00    -0.258 OA
ATOM     31  O   UNL     1       6.187 -60.350 -23.335  1.00  0.00    -0.258 OA
ENDBRANCH  27  29
ENDBRANCH  22  23
ENDBRANCH   4  22
TORSDOF 7
ENDMDL
MODEL 9
REMARK VINA RESULT:   -10.246      2.808     10.427
REMARK INTER + INTRA:         -15.208
REMARK INTER:                 -14.340
REMARK INTRA:                  -0.868
REMARK UNBOUND:                -0.768
REMARK SMILES COc1cc2c(cc1OC)C(=O)/C(=C/c1cc[n+](Cc3cccc([N+](=O)[O-])c3)cc1)C2
REMARK SMILES IDX 15 1 16 2 17 3 18 4 29 5 30 6 14 7 13 8 3 9 4 10 8 11 5 12
REMARK SMILES IDX 7 13 6 14 31 15 11 16 12 17 2 18 1 19 9 20 10 21 19 22 20 23
REMARK SMILES IDX 21 24 28 25 22 26 24 27 23 28 25 29 26 30 27 31
REMARK H PARENT
ROOT
ATOM      1  C   UNL     1      10.492 -57.577 -22.423  1.00  0.00    -0.013 A 
ATOM      2  C   UNL     1       9.445 -56.969 -23.110  1.00  0.00     0.079 A 
ATOM      3  C   UNL     1       9.264 -55.595 -23.009  1.00  0.00     0.309 A 
ATOM      4  N   UNL     1      10.099 -54.839 -22.256  1.00  0.00    -0.201 N 
ATOM      5  C   UNL     1      11.123 -55.412 -21.583  1.00  0.00     0.309 A 
ATOM      6  C   UNL     1      11.343 -56.782 -21.658  1.00  0.00     0.079 A 
ENDROOT
BRANCH   1   7
ATOM      7  C   UNL     1      10.758 -59.010 -22.531  1.00  0.00     0.016 C 
BRANCH   7   8
ATOM      8  C   UNL     1      10.132 -59.851 -23.366  1.00  0.00     0.005 C 
ATOM      9  C   UNL     1       8.001 -62.986 -26.160  1.00  0.00     0.161 A 
ATOM     10  C   UNL     1       8.013 -62.544 -24.830  1.00  0.00     0.055 A 
ATOM     11  C   UNL     1       8.807 -62.347 -27.128  1.00  0.00     0.161 A 
ATOM     12  C   UNL     1       8.871 -61.514 -24.477  1.00  0.00    -0.028 A 
ATOM     13  C   UNL     1       9.686 -61.324 -26.766  1.00  0.00     0.063 A 
ATOM     14  C   UNL     1       9.692 -60.930 -25.442  1.00  0.00     0.030 A 
ATOM     15  C   UNL     1       9.068 -60.893 -23.128  1.00  0.00     0.076 C 
ATOM     16  C   UNL     1      10.501 -59.883 -24.818  1.00  0.00     0.189 C 
ATOM     17  O   UNL     1      11.317 -59.174 -25.369  1.00  0.00    -0.289 OA
BRANCH   9  18
ATOM     18  O   UNL     1       7.126 -64.011 -26.413  1.00  0.00    -0.493 OA
ATOM     19  C   UNL     1       6.472 -64.524 -25.254  1.00  0.00     0.278 C 
ENDBRANCH   9  18
BRANCH  11  20
ATOM     20  O   UNL     1       8.788 -62.719 -28.446  1.00  0.00    -0.493 OA
ATOM     21  C   UNL     1       9.594 -61.825 -29.218  1.00  0.00     0.278 C 
ENDBRANCH  11  20
ENDBRANCH   7   8
ENDBRANCH   1   7
BRANCH   4  22
ATOM     22  C   UNL     1       9.880 -53.373 -22.166  1.00  0.00     0.393 C 
BRANCH  22  23
ATOM     23  C   UNL     1      11.035 -52.611 -22.771  1.00  0.00     0.024 A 
ATOM     24  C   UNL     1      11.448 -51.386 -22.220  1.00  0.00     0.011 A 
ATOM     25  C   UNL     1      11.725 -53.115 -23.886  1.00  0.00     0.095 A 
ATOM     26  C   UNL     1      12.517 -50.675 -22.777  1.00  0.00     0.008 A 
ATOM     27  C   UNL     1      12.797 -52.394 -24.442  1.00  0.00     0.269 A 
ATOM     28  C   UNL     1      13.193 -51.171 -23.890  1.00  0.00     0.085 A 
BRANCH  27  29
ATOM     29  N   UNL     1      13.497 -52.930 -25.616  1.00  0.00     0.062 N 
ATOM     30  O   UNL     1      14.420 -52.244 -26.081  1.00  0.00    -0.258 OA
ATOM     31  O   UNL     1      13.130 -54.024 -26.061  1.00  0.00    -0.258 OA
ENDBRANCH  27  29
ENDBRANCH  22  23
ENDBRANCH   4  22
TORSDOF 7
ENDMDL
