MODEL 1
REMARK VINA RESULT:   -10.260      0.000      0.000
REMARK INTER + INTRA:         -11.241
REMARK INTER:                 -11.159
REMARK INTRA:                  -0.082
REMARK UNBOUND:                -0.082
REMARK SMILES CCC1=C[C@H]2Cc3[nH]c4cc(Cl)ccc4c(=N)c3[C@@H](C1)C2
REMARK SMILES IDX 8 1 7 2 18 3 16 4 15 5 14 6 13 7 11 8 12 9 10 10 9 11 19 12
REMARK SMILES IDX 20 13 3 14 4 15 5 16 6 17 21 18 17 20 2 22 1 23
REMARK H PARENT 8 19 17 21
ROOT
ATOM      1  N   UNL     1      11.889 -56.666 -24.481  1.00  0.00    -0.358 N 
ATOM      2  C   UNL     1      11.979 -58.034 -24.352  1.00  0.00     0.021 A 
ATOM      3  C   UNL     1      11.779 -58.678 -23.182  1.00  0.00     0.000 A 
ATOM      4  C   UNL     1      11.428 -57.872 -21.964  1.00  0.00     0.068 A 
ATOM      5  C   UNL     1      11.249 -56.393 -22.144  1.00  0.00     0.023 A 
ATOM      6  C   UNL     1      10.859 -55.555 -21.090  1.00  0.00     0.014 A 
ATOM      7  C   UNL     1      10.714 -54.181 -21.302  1.00  0.00     0.021 A 
ATOM      8  C   UNL     1      10.958 -53.644 -22.563  1.00  0.00     0.043 A 
ATOM      9  Cl  UNL     1      10.788 -51.951 -22.818  1.00  0.00    -0.084 Cl
ATOM     10  C   UNL     1      11.341 -54.468 -23.620  1.00  0.00     0.047 A 
ATOM     11  C   UNL     1      11.473 -55.848 -23.423  1.00  0.00     0.049 A 
ATOM     12  C   UNL     1      11.910 -60.185 -23.027  1.00  0.00     0.028 C 
ATOM     13  C   UNL     1      10.524 -60.868 -23.089  1.00  0.00     0.039 C 
ATOM     14  C   UNL     1       9.969 -61.031 -24.501  1.00  0.00    -0.074 C 
ATOM     15  C   UNL     1      10.738 -60.767 -25.576  1.00  0.00    -0.024 C 
ATOM     16  C   UNL     1      12.189 -60.336 -25.480  1.00  0.00     0.018 C 
ATOM     17  C   UNL     1      12.313 -58.806 -25.621  1.00  0.00     0.062 C 
ATOM     18  C   UNL     1      12.793 -60.763 -24.140  1.00  0.00     0.017 C 
ATOM     19  H   UNL     1      11.893 -56.281 -25.417  1.00  0.00     0.166 HD
ENDROOT
BRANCH   4  20
ATOM     20  N   UNL     1      11.292 -58.480 -20.825  1.00  0.00    -0.300 NA
ATOM     21  H   UNL     1      10.356 -58.850 -20.676  1.00  0.00     0.188 HD
ENDBRANCH   4  20
BRANCH  14  22
ATOM     22  C   UNL     1       8.526 -61.487 -24.550  1.00  0.00     0.027 C 
ATOM     23  C   UNL     1       8.206 -62.679 -25.445  1.00  0.00     0.008 C 
ENDBRANCH  14  22
TORSDOF 2
ENDMDL
MODEL 2
REMARK VINA RESULT:    -9.575      4.124      5.930
REMARK INTER + INTRA:         -10.496
REMARK INTER:                 -10.415
REMARK INTRA:                  -0.081
REMARK UNBOUND:                -0.082
REMARK SMILES CCC1=C[C@H]2Cc3[nH]c4cc(Cl)ccc4c(=N)c3[C@@H](C1)C2
REMARK SMILES IDX 8 1 7 2 18 3 16 4 15 5 14 6 13 7 11 8 12 9 10 10 9 11 19 12
REMARK SMILES IDX 20 13 3 14 4 15 5 16 6 17 21 18 17 20 2 22 1 23
REMARK H PARENT 8 19 17 21
ROOT
ATOM      1  N   UNL     1       9.604 -61.524 -26.920  1.00  0.00    -0.358 N 
ATOM      2  C   UNL     1       9.325 -61.535 -25.572  1.00  0.00     0.021 A 
ATOM      3  C   UNL     1       9.980 -60.762 -24.679  1.00  0.00     0.000 A 
ATOM      4  C   UNL     1      11.054 -59.836 -25.173  1.00  0.00     0.068 A 
ATOM      5  C   UNL     1      11.283 -59.775 -26.655  1.00  0.00     0.023 A 
ATOM      6  C   UNL     1      12.215 -58.900 -27.230  1.00  0.00     0.014 A 
ATOM      7  C   UNL     1      12.401 -58.884 -28.616  1.00  0.00     0.021 A 
ATOM      8  C   UNL     1      11.661 -59.741 -29.425  1.00  0.00     0.043 A 
ATOM      9  Cl  UNL     1      11.899 -59.727 -31.129  1.00  0.00    -0.084 Cl
ATOM     10  C   UNL     1      10.727 -60.612 -28.865  1.00  0.00     0.047 A 
ATOM     11  C   UNL     1      10.520 -60.624 -27.480  1.00  0.00     0.049 A 
ATOM     12  C   UNL     1       9.698 -60.795 -23.185  1.00  0.00     0.028 C 
ATOM     13  C   UNL     1       8.759 -59.637 -22.776  1.00  0.00     0.039 C 
ATOM     14  C   UNL     1       7.286 -59.885 -23.089  1.00  0.00    -0.074 C 
ATOM     15  C   UNL     1       6.867 -61.098 -23.505  1.00  0.00    -0.024 C 
ATOM     16  C   UNL     1       7.787 -62.293 -23.654  1.00  0.00     0.018 C 
ATOM     17  C   UNL     1       8.212 -62.473 -25.126  1.00  0.00     0.062 C 
ATOM     18  C   UNL     1       9.041 -62.124 -22.792  1.00  0.00     0.017 C 
ATOM     19  H   UNL     1       8.964 -62.008 -27.537  1.00  0.00     0.166 HD
ENDROOT
BRANCH   4  20
ATOM     20  N   UNL     1      11.726 -59.135 -24.311  1.00  0.00    -0.300 NA
ATOM     21  H   UNL     1      11.258 -59.047 -23.412  1.00  0.00     0.188 HD
ENDBRANCH   4  20
BRANCH  14  22
ATOM     22  C   UNL     1       6.400 -58.672 -22.901  1.00  0.00     0.027 C 
ATOM     23  C   UNL     1       4.992 -58.918 -22.370  1.00  0.00     0.008 C 
ENDBRANCH  14  22
TORSDOF 2
ENDMDL
MODEL 3
REMARK VINA RESULT:    -9.337      3.499      6.895
REMARK INTER + INTRA:         -10.237
REMARK INTER:                 -10.150
REMARK INTRA:                  -0.087
REMARK UNBOUND:                -0.082
REMARK SMILES CCC1=C[C@H]2Cc3[nH]c4cc(Cl)ccc4c(=N)c3[C@@H](C1)C2
REMARK SMILES IDX 8 1 7 2 18 3 16 4 15 5 14 6 13 7 11 8 12 9 10 10 9 11 19 12
REMARK SMILES IDX 20 13 3 14 4 15 5 16 6 17 21 18 17 20 2 22 1 23
REMARK H PARENT 8 19 17 21
ROOT
ATOM      1  N   UNL     1       9.127 -61.607 -22.933  1.00  0.00    -0.358 N 
ATOM      2  C   UNL     1      10.123 -60.673 -22.755  1.00  0.00     0.021 A 
ATOM      3  C   UNL     1      10.891 -60.214 -23.766  1.00  0.00     0.000 A 
ATOM      4  C   UNL     1      10.643 -60.732 -25.154  1.00  0.00     0.068 A 
ATOM      5  C   UNL     1       9.498 -61.683 -25.341  1.00  0.00     0.023 A 
ATOM      6  C   UNL     1       9.138 -62.178 -26.603  1.00  0.00     0.014 A 
ATOM      7  C   UNL     1       8.069 -63.070 -26.728  1.00  0.00     0.021 A 
ATOM      8  C   UNL     1       7.361 -63.468 -25.598  1.00  0.00     0.043 A 
ATOM      9  Cl  UNL     1       6.052 -64.573 -25.754  1.00  0.00    -0.084 Cl
ATOM     10  C   UNL     1       7.707 -62.978 -24.339  1.00  0.00     0.047 A 
ATOM     11  C   UNL     1       8.765 -62.071 -24.204  1.00  0.00     0.049 A 
ATOM     12  C   UNL     1      12.013 -59.207 -23.569  1.00  0.00     0.028 C 
ATOM     13  C   UNL     1      11.539 -57.778 -23.918  1.00  0.00     0.039 C 
ATOM     14  C   UNL     1      10.708 -57.110 -22.826  1.00  0.00    -0.074 C 
ATOM     15  C   UNL     1      10.590 -57.677 -21.608  1.00  0.00    -0.024 C 
ATOM     16  C   UNL     1      11.284 -58.968 -21.218  1.00  0.00     0.018 C 
ATOM     17  C   UNL     1      10.316 -60.163 -21.333  1.00  0.00     0.062 C 
ATOM     18  C   UNL     1      12.498 -59.223 -22.114  1.00  0.00     0.017 C 
ATOM     19  H   UNL     1       8.497 -61.776 -22.159  1.00  0.00     0.166 HD
ENDROOT
BRANCH   4  20
ATOM     20  N   UNL     1      11.417 -60.338 -26.120  1.00  0.00    -0.300 NA
ATOM     21  H   UNL     1      11.975 -61.089 -26.520  1.00  0.00     0.188 HD
ENDBRANCH   4  20
BRANCH  14  22
ATOM     22  C   UNL     1      10.055 -55.811 -23.251  1.00  0.00     0.027 C 
ATOM     23  C   UNL     1      10.969 -54.607 -23.445  1.00  0.00     0.008 C 
ENDBRANCH  14  22
TORSDOF 2
ENDMDL
MODEL 4
REMARK VINA RESULT:    -9.315      4.608      8.640
REMARK INTER + INTRA:         -10.213
REMARK INTER:                 -10.102
REMARK INTRA:                  -0.111
REMARK UNBOUND:                -0.082
REMARK SMILES CCC1=C[C@H]2Cc3[nH]c4cc(Cl)ccc4c(=N)c3[C@@H](C1)C2
REMARK SMILES IDX 8 1 7 2 18 3 16 4 15 5 14 6 13 7 11 8 12 9 10 10 9 11 19 12
REMARK SMILES IDX 20 13 3 14 4 15 5 16 6 17 21 18 17 20 2 22 1 23
REMARK H PARENT 8 19 17 21
ROOT
ATOM      1  N   UNL     1      12.353 -53.060 -24.893  1.00  0.00    -0.358 N 
ATOM      2  C   UNL     1      12.877 -51.786 -24.889  1.00  0.00     0.021 A 
ATOM      3  C   UNL     1      12.706 -50.925 -23.863  1.00  0.00     0.000 A 
ATOM      4  C   UNL     1      11.923 -51.374 -22.664  1.00  0.00     0.068 A 
ATOM      5  C   UNL     1      11.435 -52.792 -22.651  1.00  0.00     0.023 A 
ATOM      6  C   UNL     1      10.749 -53.335 -21.555  1.00  0.00     0.014 A 
ATOM      7  C   UNL     1      10.305 -54.660 -21.591  1.00  0.00     0.021 A 
ATOM      8  C   UNL     1      10.542 -55.441 -22.718  1.00  0.00     0.043 A 
ATOM      9  Cl  UNL     1       9.986 -57.069 -22.764  1.00  0.00    -0.084 Cl
ATOM     10  C   UNL     1      11.228 -54.914 -23.811  1.00  0.00     0.047 A 
ATOM     11  C   UNL     1      11.693 -53.594 -23.779  1.00  0.00     0.049 A 
ATOM     12  C   UNL     1      13.255 -49.506 -23.868  1.00  0.00     0.028 C 
ATOM     13  C   UNL     1      14.586 -49.427 -23.084  1.00  0.00     0.039 C 
ATOM     14  C   UNL     1      15.799 -49.931 -23.860  1.00  0.00    -0.074 C 
ATOM     15  C   UNL     1      15.703 -50.224 -25.173  1.00  0.00    -0.024 C 
ATOM     16  C   UNL     1      14.429 -50.047 -25.976  1.00  0.00     0.018 C 
ATOM     17  C   UNL     1      13.684 -51.390 -26.118  1.00  0.00     0.062 C 
ATOM     18  C   UNL     1      13.501 -49.032 -25.305  1.00  0.00     0.017 C 
ATOM     19  H   UNL     1      12.660 -53.692 -25.622  1.00  0.00     0.166 HD
ENDROOT
BRANCH   4  20
ATOM     20  N   UNL     1      11.707 -50.529 -21.701  1.00  0.00    -0.300 NA
ATOM     21  H   UNL     1      12.371 -49.758 -21.686  1.00  0.00     0.188 HD
ENDBRANCH   4  20
BRANCH  14  22
ATOM     22  C   UNL     1      17.055 -50.068 -23.025  1.00  0.00     0.027 C 
ATOM     23  C   UNL     1      17.199 -51.337 -22.194  1.00  0.00     0.008 C 
ENDBRANCH  14  22
TORSDOF 2
ENDMDL
MODEL 5
REMARK VINA RESULT:    -8.762      3.383      6.117
REMARK INTER + INTRA:          -9.612
REMARK INTER:                  -9.530
REMARK INTRA:                  -0.083
REMARK UNBOUND:                -0.082
REMARK SMILES CCC1=C[C@H]2Cc3[nH]c4cc(Cl)ccc4c(=N)c3[C@@H](C1)C2
REMARK SMILES IDX 8 1 7 2 18 3 16 4 15 5 14 6 13 7 11 8 12 9 10 10 9 11 19 12
REMARK SMILES IDX 20 13 3 14 4 15 5 16 6 17 21 18 17 20 2 22 1 23
REMARK H PARENT 8 19 17 21
ROOT
ATOM      1  N   UNL     1       9.809 -59.693 -26.363  1.00  0.00    -0.358 N 
ATOM      2  C   UNL     1       9.884 -59.639 -24.989  1.00  0.00     0.021 A 
ATOM      3  C   UNL     1      11.036 -59.816 -24.308  1.00  0.00     0.000 A 
ATOM      4  C   UNL     1      12.300 -60.069 -25.078  1.00  0.00     0.068 A 
ATOM      5  C   UNL     1      12.213 -60.037 -26.576  1.00  0.00     0.023 A 
ATOM      6  C   UNL     1      13.341 -60.198 -27.393  1.00  0.00     0.014 A 
ATOM      7  C   UNL     1      13.211 -60.170 -28.784  1.00  0.00     0.021 A 
ATOM      8  C   UNL     1      11.957 -59.985 -29.360  1.00  0.00     0.043 A 
ATOM      9  Cl  UNL     1      11.798 -59.961 -31.073  1.00  0.00    -0.084 Cl
ATOM     10  C   UNL     1      10.829 -59.819 -28.558  1.00  0.00     0.047 A 
ATOM     11  C   UNL     1      10.950 -59.828 -27.163  1.00  0.00     0.049 A 
ATOM     12  C   UNL     1      11.118 -59.790 -22.790  1.00  0.00     0.028 C 
ATOM     13  C   UNL     1      11.592 -58.407 -22.287  1.00  0.00     0.039 C 
ATOM     14  C   UNL     1      10.503 -57.338 -22.275  1.00  0.00    -0.074 C 
ATOM     15  C   UNL     1       9.215 -57.667 -22.505  1.00  0.00    -0.024 C 
ATOM     16  C   UNL     1       8.747 -59.088 -22.748  1.00  0.00     0.018 C 
ATOM     17  C   UNL     1       8.579 -59.355 -24.258  1.00  0.00     0.062 C 
ATOM     18  C   UNL     1       9.747 -60.094 -22.174  1.00  0.00     0.017 C 
ATOM     19  H   UNL     1       8.946 -59.392 -26.799  1.00  0.00     0.166 HD
ENDROOT
BRANCH   4  20
ATOM     20  N   UNL     1      13.399 -60.298 -24.426  1.00  0.00    -0.300 NA
ATOM     21  H   UNL     1      13.277 -60.937 -23.644  1.00  0.00     0.188 HD
ENDBRANCH   4  20
BRANCH  14  22
ATOM     22  C   UNL     1      11.012 -55.938 -22.004  1.00  0.00     0.027 C 
ATOM     23  C   UNL     1      10.031 -54.791 -22.217  1.00  0.00     0.008 C 
ENDBRANCH  14  22
TORSDOF 2
ENDMDL
MODEL 6
REMARK VINA RESULT:    -8.435      1.830      2.498
REMARK INTER + INTRA:          -9.257
REMARK INTER:                  -9.171
REMARK INTRA:                  -0.086
REMARK UNBOUND:                -0.082
REMARK SMILES CCC1=C[C@H]2Cc3[nH]c4cc(Cl)ccc4c(=N)c3[C@@H](C1)C2
REMARK SMILES IDX 8 1 7 2 18 3 16 4 15 5 14 6 13 7 11 8 12 9 10 10 9 11 19 12
REMARK SMILES IDX 20 13 3 14 4 15 5 16 6 17 21 18 17 20 2 22 1 23
REMARK H PARENT 8 19 17 21
ROOT
ATOM      1  N   UNL     1      11.571 -58.117 -23.058  1.00  0.00    -0.358 N 
ATOM      2  C   UNL     1      10.853 -59.292 -23.044  1.00  0.00     0.021 A 
ATOM      3  C   UNL     1       9.503 -59.330 -23.044  1.00  0.00     0.000 A 
ATOM      4  C   UNL     1       8.744 -58.035 -23.073  1.00  0.00     0.068 A 
ATOM      5  C   UNL     1       9.543 -56.770 -23.175  1.00  0.00     0.023 A 
ATOM      6  C   UNL     1       8.935 -55.509 -23.273  1.00  0.00     0.014 A 
ATOM      7  C   UNL     1       9.720 -54.356 -23.357  1.00  0.00     0.021 A 
ATOM      8  C   UNL     1      11.108 -54.459 -23.341  1.00  0.00     0.043 A 
ATOM      9  Cl  UNL     1      12.072 -53.037 -23.435  1.00  0.00    -0.084 Cl
ATOM     10  C   UNL     1      11.724 -55.707 -23.249  1.00  0.00     0.047 A 
ATOM     11  C   UNL     1      10.947 -56.870 -23.182  1.00  0.00     0.049 A 
ATOM     12  C   UNL     1       8.707 -60.624 -22.996  1.00  0.00     0.028 C 
ATOM     13  C   UNL     1       8.239 -61.037 -24.411  1.00  0.00     0.039 C 
ATOM     14  C   UNL     1       9.321 -61.700 -25.258  1.00  0.00    -0.074 C 
ATOM     15  C   UNL     1      10.504 -62.050 -24.712  1.00  0.00    -0.024 C 
ATOM     16  C   UNL     1      10.836 -61.857 -23.246  1.00  0.00     0.018 C 
ATOM     17  C   UNL     1      11.671 -60.577 -23.040  1.00  0.00     0.062 C 
ATOM     18  C   UNL     1       9.558 -61.757 -22.409  1.00  0.00     0.017 C 
ATOM     19  H   UNL     1      12.568 -58.178 -23.220  1.00  0.00     0.166 HD
ENDROOT
BRANCH   4  20
ATOM     20  N   UNL     1       7.447 -58.065 -23.013  1.00  0.00    -0.300 NA
ATOM     21  H   UNL     1       7.079 -58.963 -22.707  1.00  0.00     0.188 HD
ENDBRANCH   4  20
BRANCH  14  22
ATOM     22  C   UNL     1       8.937 -61.897 -26.710  1.00  0.00     0.027 C 
ATOM     23  C   UNL     1       8.092 -63.120 -27.043  1.00  0.00     0.008 C 
ENDBRANCH  14  22
TORSDOF 2
ENDMDL
MODEL 7
REMARK VINA RESULT:    -8.385      5.251      9.991
REMARK INTER + INTRA:          -9.202
REMARK INTER:                  -9.094
REMARK INTRA:                  -0.109
REMARK UNBOUND:                -0.082
REMARK SMILES CCC1=C[C@H]2Cc3[nH]c4cc(Cl)ccc4c(=N)c3[C@@H](C1)C2
REMARK SMILES IDX 8 1 7 2 18 3 16 4 15 5 14 6 13 7 11 8 12 9 10 10 9 11 19 12
REMARK SMILES IDX 20 13 3 14 4 15 5 16 6 17 21 18 17 20 2 22 1 23
REMARK H PARENT 8 19 17 21
ROOT
ATOM      1  N   UNL     1      12.612 -51.574 -24.234  1.00  0.00    -0.358 N 
ATOM      2  C   UNL     1      12.609 -50.201 -24.136  1.00  0.00     0.021 A 
ATOM      3  C   UNL     1      11.750 -49.521 -23.346  1.00  0.00     0.000 A 
ATOM      4  C   UNL     1      10.759 -50.293 -22.524  1.00  0.00     0.068 A 
ATOM      5  C   UNL     1      10.836 -51.790 -22.578  1.00  0.00     0.023 A 
ATOM      6  C   UNL     1      10.002 -52.608 -21.802  1.00  0.00     0.014 A 
ATOM      7  C   UNL     1      10.102 -54.000 -21.892  1.00  0.00     0.021 A 
ATOM      8  C   UNL     1      11.031 -54.574 -22.755  1.00  0.00     0.043 A 
ATOM      9  Cl  UNL     1      11.147 -56.286 -22.871  1.00  0.00    -0.084 Cl
ATOM     10  C   UNL     1      11.870 -53.770 -23.527  1.00  0.00     0.047 A 
ATOM     11  C   UNL     1      11.789 -52.376 -23.432  1.00  0.00     0.049 A 
ATOM     12  C   UNL     1      11.722 -48.003 -23.260  1.00  0.00     0.028 C 
ATOM     13  C   UNL     1      12.503 -47.506 -22.022  1.00  0.00     0.039 C 
ATOM     14  C   UNL     1      14.018 -47.497 -22.200  1.00  0.00    -0.074 C 
ATOM     15  C   UNL     1      14.569 -47.723 -23.410  1.00  0.00    -0.024 C 
ATOM     16  C   UNL     1      13.755 -47.960 -24.667  1.00  0.00     0.018 C 
ATOM     17  C   UNL     1      13.650 -49.468 -24.972  1.00  0.00     0.062 C 
ATOM     18  C   UNL     1      12.346 -47.383 -24.517  1.00  0.00     0.017 C 
ATOM     19  H   UNL     1      13.386 -52.009 -24.719  1.00  0.00     0.166 HD
ENDROOT
BRANCH   4  20
ATOM     20  N   UNL     1       9.893 -49.641 -21.808  1.00  0.00    -0.300 NA
ATOM     21  H   UNL     1       9.977 -49.824 -20.810  1.00  0.00     0.188 HD
ENDBRANCH   4  20
BRANCH  14  22
ATOM     22  C   UNL     1      14.791 -47.232 -20.925  1.00  0.00     0.027 C 
ATOM     23  C   UNL     1      13.976 -46.995 -19.658  1.00  0.00     0.008 C 
ENDBRANCH  14  22
TORSDOF 2
ENDMDL
MODEL 8
REMARK VINA RESULT:    -7.856      6.270      9.272
REMARK INTER + INTRA:          -8.626
REMARK INTER:                  -8.544
REMARK INTRA:                  -0.082
REMARK UNBOUND:                -0.082
REMARK SMILES CCC1=C[C@H]2Cc3[nH]c4cc(Cl)ccc4c(=N)c3[C@@H](C1)C2
REMARK SMILES IDX 8 1 7 2 18 3 16 4 15 5 14 6 13 7 11 8 12 9 10 10 9 11 19 12
REMARK SMILES IDX 20 13 3 14 4 15 5 16 6 17 21 18 17 20 2 22 1 23
REMARK H PARENT 8 19 17 21
ROOT
ATOM      1  N   UNL     1      12.770 -47.773 -25.024  1.00  0.00    -0.358 N 
ATOM      2  C   UNL     1      13.261 -48.987 -24.599  1.00  0.00     0.021 A 
ATOM      3  C   UNL     1      13.417 -49.302 -23.295  1.00  0.00     0.000 A 
ATOM      4  C   UNL     1      13.026 -48.292 -22.255  1.00  0.00     0.068 A 
ATOM      5  C   UNL     1      12.412 -47.011 -22.736  1.00  0.00     0.023 A 
ATOM      6  C   UNL     1      11.953 -46.025 -21.850  1.00  0.00     0.014 A 
ATOM      7  C   UNL     1      11.396 -44.841 -22.344  1.00  0.00     0.021 A 
ATOM      8  C   UNL     1      11.300 -44.640 -23.718  1.00  0.00     0.043 A 
ATOM      9  Cl  UNL     1      10.623 -43.179 -24.322  1.00  0.00    -0.084 Cl
ATOM     10  C   UNL     1      11.748 -45.615 -24.608  1.00  0.00     0.047 A 
ATOM     11  C   UNL     1      12.292 -46.812 -24.124  1.00  0.00     0.049 A 
ATOM     12  C   UNL     1      13.989 -50.629 -22.822  1.00  0.00     0.028 C 
ATOM     13  C   UNL     1      12.859 -51.609 -22.429  1.00  0.00     0.039 C 
ATOM     14  C   UNL     1      12.181 -52.290 -23.614  1.00  0.00    -0.074 C 
ATOM     15  C   UNL     1      12.686 -52.167 -24.859  1.00  0.00    -0.024 C 
ATOM     16  C   UNL     1      13.954 -51.397 -25.172  1.00  0.00     0.018 C 
ATOM     17  C   UNL     1      13.619 -49.985 -25.692  1.00  0.00     0.062 C 
ATOM     18  C   UNL     1      14.835 -51.273 -23.927  1.00  0.00     0.017 C 
ATOM     19  H   UNL     1      12.534 -47.678 -26.003  1.00  0.00     0.166 HD
ENDROOT
BRANCH   4  20
ATOM     20  N   UNL     1      13.228 -48.568 -21.002  1.00  0.00    -0.300 NA
ATOM     21  H   UNL     1      14.109 -49.049 -20.835  1.00  0.00     0.188 HD
ENDBRANCH   4  20
BRANCH  14  22
ATOM     22  C   UNL     1      10.934 -53.068 -23.251  1.00  0.00     0.027 C 
ATOM     23  C   UNL     1      10.871 -54.524 -23.700  1.00  0.00     0.008 C 
ENDBRANCH  14  22
TORSDOF 2
ENDMDL
MODEL 9
REMARK VINA RESULT:    -7.789      3.193      6.464
REMARK INTER + INTRA:          -8.554
REMARK INTER:                  -8.468
REMARK INTRA:                  -0.086
REMARK UNBOUND:                -0.082
REMARK SMILES CCC1=C[C@H]2Cc3[nH]c4cc(Cl)ccc4c(=N)c3[C@@H](C1)C2
REMARK SMILES IDX 8 1 7 2 18 3 16 4 15 5 14 6 13 7 11 8 12 9 10 10 9 11 19 12
REMARK SMILES IDX 20 13 3 14 4 15 5 16 6 17 21 18 17 20 2 22 1 23
REMARK H PARENT 8 19 17 21
ROOT
ATOM      1  N   UNL     1       8.408 -58.566 -23.507  1.00  0.00    -0.358 N 
ATOM      2  C   UNL     1       9.306 -57.595 -23.123  1.00  0.00     0.021 A 
ATOM      3  C   UNL     1      10.631 -57.824 -23.005  1.00  0.00     0.000 A 
ATOM      4  C   UNL     1      11.159 -59.194 -23.318  1.00  0.00     0.068 A 
ATOM      5  C   UNL     1      10.178 -60.213 -23.817  1.00  0.00     0.023 A 
ATOM      6  C   UNL     1      10.572 -61.504 -24.199  1.00  0.00     0.014 A 
ATOM      7  C   UNL     1       9.621 -62.424 -24.651  1.00  0.00     0.021 A 
ATOM      8  C   UNL     1       8.280 -62.058 -24.719  1.00  0.00     0.043 A 
ATOM      9  Cl  UNL     1       7.110 -63.195 -25.266  1.00  0.00    -0.084 Cl
ATOM     10  C   UNL     1       7.877 -60.776 -24.347  1.00  0.00     0.047 A 
ATOM     11  C   UNL     1       8.823 -59.841 -23.910  1.00  0.00     0.049 A 
ATOM     12  C   UNL     1      11.622 -56.764 -22.550  1.00  0.00     0.028 C 
ATOM     13  C   UNL     1      12.330 -56.114 -23.761  1.00  0.00     0.039 C 
ATOM     14  C   UNL     1      11.493 -55.063 -24.484  1.00  0.00    -0.074 C 
ATOM     15  C   UNL     1      10.326 -54.634 -23.961  1.00  0.00    -0.024 C 
ATOM     16  C   UNL     1       9.781 -55.115 -22.631  1.00  0.00     0.018 C 
ATOM     17  C   UNL     1       8.723 -56.217 -22.842  1.00  0.00     0.062 C 
ATOM     18  C   UNL     1      10.906 -55.667 -21.752  1.00  0.00     0.017 C 
ATOM     19  H   UNL     1       7.465 -58.273 -23.726  1.00  0.00     0.166 HD
ENDROOT
BRANCH   4  20
ATOM     20  N   UNL     1      12.424 -59.435 -23.149  1.00  0.00    -0.300 NA
ATOM     21  H   UNL     1      12.666 -59.655 -22.185  1.00  0.00     0.188 HD
ENDBRANCH   4  20
BRANCH  14  22
ATOM     22  C   UNL     1      12.087 -54.592 -25.796  1.00  0.00     0.027 C 
ATOM     23  C   UNL     1      13.193 -53.547 -25.719  1.00  0.00     0.008 C 
ENDBRANCH  14  22
TORSDOF 2
ENDMDL
