MODEL 1
REMARK VINA RESULT:   -10.233      0.000      0.000
REMARK INTER + INTRA:         -15.994
REMARK INTER:                 -15.317
REMARK INTRA:                  -0.677
REMARK UNBOUND:                -0.677
REMARK SMILES COc1cc2c(cc1OC)SC(=C(O)CCc1cc[n+](Cc3ccsc3)cc1)C2
REMARK SMILES IDX 15 1 13 2 14 3 12 5 29 6 11 7 5 8 6 9 4 10 7 11 3 12 8 13
REMARK SMILES IDX 2 14 1 15 9 16 10 17 16 18 17 19 18 20 28 21 19 22 27 23
REMARK SMILES IDX 20 24 21 25 22 26 23 27 26 28 24 29 25 30
REMARK H PARENT 14 4
ROOT
ATOM      1  C   UNL     1      10.863 -55.213 -22.596  1.00  0.00     0.080 C 
ENDROOT
BRANCH   1   2
ATOM      2  C   UNL     1      10.794 -53.813 -22.014  1.00  0.00     0.103 C 
BRANCH   2   3
ATOM      3  O   UNL     1      10.265 -53.799 -20.731  1.00  0.00    -0.511 OA
ATOM      4  H   UNL     1       9.487 -54.381 -20.693  1.00  0.00     0.293 HD
ENDBRANCH   2   3
BRANCH   2   5
ATOM      5  C   UNL     1      11.218 -52.689 -22.628  1.00  0.00     0.032 C 
ATOM      6  C   UNL     1      12.136 -52.651 -23.840  1.00  0.00     0.083 C 
ATOM      7  S   UNL     1      10.816 -51.076 -22.047  1.00  0.00    -0.090 SA
ATOM      8  C   UNL     1      12.492 -51.216 -24.099  1.00  0.00    -0.025 A 
ATOM      9  C   UNL     1      11.871 -50.305 -23.247  1.00  0.00     0.020 A 
ATOM     10  C   UNL     1      13.358 -50.775 -25.096  1.00  0.00     0.055 A 
ATOM     11  C   UNL     1      12.100 -48.940 -23.364  1.00  0.00     0.066 A 
ATOM     12  C   UNL     1      13.601 -49.402 -25.230  1.00  0.00     0.161 A 
ATOM     13  C   UNL     1      12.970 -48.480 -24.359  1.00  0.00     0.161 A 
BRANCH  12  14
ATOM     14  O   UNL     1      14.443 -48.857 -26.169  1.00  0.00    -0.493 OA
ATOM     15  C   UNL     1      14.730 -49.624 -27.329  1.00  0.00     0.278 C 
ENDBRANCH  12  14
BRANCH  13  16
ATOM     16  O   UNL     1      13.278 -47.157 -24.565  1.00  0.00    -0.493 OA
ATOM     17  C   UNL     1      12.201 -46.239 -24.696  1.00  0.00     0.278 C 
ENDBRANCH  13  16
ENDBRANCH   2   5
ENDBRANCH   1   2
BRANCH   1  18
ATOM     18  C   UNL     1      11.096 -56.315 -21.552  1.00  0.00     0.044 C 
BRANCH  18  19
ATOM     19  C   UNL     1      11.214 -57.703 -22.140  1.00  0.00    -0.036 A 
ATOM     20  C   UNL     1      10.959 -58.832 -21.362  1.00  0.00     0.074 A 
ATOM     21  C   UNL     1      11.547 -57.879 -23.482  1.00  0.00     0.074 A 
ATOM     22  C   UNL     1      11.028 -60.094 -21.937  1.00  0.00     0.308 A 
ATOM     23  C   UNL     1      11.608 -59.160 -24.014  1.00  0.00     0.308 A 
ATOM     24  N   UNL     1      11.345 -60.241 -23.244  1.00  0.00    -0.201 N 
BRANCH  24  25
ATOM     25  C   UNL     1      11.401 -61.596 -23.843  1.00  0.00     0.394 C 
BRANCH  25  26
ATOM     26  C   UNL     1      10.036 -62.214 -23.859  1.00  0.00     0.027 A 
ATOM     27  C   UNL     1       9.551 -63.141 -22.874  1.00  0.00     0.022 A 
ATOM     28  C   UNL     1       9.064 -61.971 -24.815  1.00  0.00     0.075 A 
ATOM     29  C   UNL     1       8.266 -63.564 -23.129  1.00  0.00     0.065 A 
ATOM     30  S   UNL     1       7.627 -62.857 -24.544  1.00  0.00    -0.152 S 
ENDBRANCH  25  26
ENDBRANCH  24  25
ENDBRANCH  18  19
ENDBRANCH   1  18
TORSDOF 9
ENDMDL
MODEL 2
REMARK VINA RESULT:   -10.052      1.086      1.991
REMARK INTER + INTRA:         -15.724
REMARK INTER:                 -15.005
REMARK INTRA:                  -0.720
REMARK UNBOUND:                -0.677
REMARK SMILES COc1cc2c(cc1OC)SC(=C(O)CCc1cc[n+](Cc3ccsc3)cc1)C2
REMARK SMILES IDX 15 1 13 2 14 3 12 5 29 6 11 7 5 8 6 9 4 10 7 11 3 12 8 13
REMARK SMILES IDX 2 14 1 15 9 16 10 17 16 18 17 19 18 20 28 21 19 22 27 23
REMARK SMILES IDX 20 24 21 25 22 26 23 27 26 28 24 29 25 30
REMARK H PARENT 14 4
ROOT
ATOM      1  C   UNL     1      10.629 -55.217 -22.830  1.00  0.00     0.080 C 
ENDROOT
BRANCH   1   2
ATOM      2  C   UNL     1      10.879 -53.766 -22.466  1.00  0.00     0.103 C 
BRANCH   2   3
ATOM      3  O   UNL     1      10.271 -53.408 -21.270  1.00  0.00    -0.511 OA
ATOM      4  H   UNL     1       9.305 -53.454 -21.370  1.00  0.00     0.293 HD
ENDBRANCH   2   3
BRANCH   2   5
ATOM      5  C   UNL     1      11.627 -52.897 -23.178  1.00  0.00     0.032 C 
ATOM      6  C   UNL     1      11.770 -51.415 -22.869  1.00  0.00     0.083 C 
ATOM      7  S   UNL     1      12.496 -53.361 -24.637  1.00  0.00    -0.090 SA
ATOM      8  C   UNL     1      12.547 -50.788 -23.991  1.00  0.00    -0.025 A 
ATOM      9  C   UNL     1      12.984 -51.686 -24.963  1.00  0.00     0.020 A 
ATOM     10  C   UNL     1      12.841 -49.431 -24.099  1.00  0.00     0.055 A 
ATOM     11  C   UNL     1      13.716 -51.257 -26.062  1.00  0.00     0.066 A 
ATOM     12  C   UNL     1      13.580 -48.979 -25.200  1.00  0.00     0.161 A 
ATOM     13  C   UNL     1      14.018 -49.896 -26.187  1.00  0.00     0.161 A 
BRANCH  12  14
ATOM     14  O   UNL     1      13.918 -47.665 -25.413  1.00  0.00    -0.493 OA
ATOM     15  C   UNL     1      14.801 -47.048 -24.488  1.00  0.00     0.278 C 
ENDBRANCH  12  14
BRANCH  13  16
ATOM     16  O   UNL     1      14.728 -49.355 -27.231  1.00  0.00    -0.493 OA
ATOM     17  C   UNL     1      16.116 -49.647 -27.311  1.00  0.00     0.278 C 
ENDBRANCH  13  16
ENDBRANCH   2   5
ENDBRANCH   1   2
BRANCH   1  18
ATOM     18  C   UNL     1      11.115 -56.222 -21.775  1.00  0.00     0.044 C 
BRANCH  18  19
ATOM     19  C   UNL     1      11.226 -57.641 -22.282  1.00  0.00    -0.036 A 
ATOM     20  C   UNL     1      10.954 -58.722 -21.445  1.00  0.00     0.074 A 
ATOM     21  C   UNL     1      11.572 -57.894 -23.608  1.00  0.00     0.074 A 
ATOM     22  C   UNL     1      11.018 -60.016 -21.948  1.00  0.00     0.308 A 
ATOM     23  C   UNL     1      11.628 -59.204 -24.067  1.00  0.00     0.308 A 
ATOM     24  N   UNL     1      11.348 -60.238 -23.241  1.00  0.00    -0.201 N 
BRANCH  24  25
ATOM     25  C   UNL     1      11.399 -61.625 -23.762  1.00  0.00     0.394 C 
BRANCH  25  26
ATOM     26  C   UNL     1      10.033 -62.241 -23.736  1.00  0.00     0.027 A 
ATOM     27  C   UNL     1       9.587 -63.188 -22.752  1.00  0.00     0.022 A 
ATOM     28  C   UNL     1       9.023 -61.976 -24.646  1.00  0.00     0.075 A 
ATOM     29  C   UNL     1       8.291 -63.603 -22.963  1.00  0.00     0.065 A 
ATOM     30  S   UNL     1       7.596 -62.865 -24.335  1.00  0.00    -0.152 S 
ENDBRANCH  25  26
ENDBRANCH  24  25
ENDBRANCH  18  19
ENDBRANCH   1  18
TORSDOF 9
ENDMDL
MODEL 3
REMARK VINA RESULT:    -9.842      1.212      2.170
REMARK INTER + INTRA:         -15.409
REMARK INTER:                 -14.731
REMARK INTRA:                  -0.678
REMARK UNBOUND:                -0.677
REMARK SMILES COc1cc2c(cc1OC)SC(=C(O)CCc1cc[n+](Cc3ccsc3)cc1)C2
REMARK SMILES IDX 15 1 13 2 14 3 12 5 29 6 11 7 5 8 6 9 4 10 7 11 3 12 8 13
REMARK SMILES IDX 2 14 1 15 9 16 10 17 16 18 17 19 18 20 28 21 19 22 27 23
REMARK SMILES IDX 20 24 21 25 22 26 23 27 26 28 24 29 25 30
REMARK H PARENT 14 4
ROOT
ATOM      1  C   UNL     1      11.035 -55.169 -22.824  1.00  0.00     0.080 C 
ENDROOT
BRANCH   1   2
ATOM      2  C   UNL     1      10.455 -53.876 -22.281  1.00  0.00     0.103 C 
BRANCH   2   3
ATOM      3  O   UNL     1       9.385 -54.095 -21.425  1.00  0.00    -0.511 OA
ATOM      4  H   UNL     1       9.126 -53.256 -21.007  1.00  0.00     0.293 HD
ENDBRANCH   2   3
BRANCH   2   5
ATOM      5  C   UNL     1      10.917 -52.637 -22.549  1.00  0.00     0.032 C 
ATOM      6  C   UNL     1      10.246 -51.344 -22.114  1.00  0.00     0.083 C 
ATOM      7  S   UNL     1      12.352 -52.345 -23.528  1.00  0.00    -0.090 SA
ATOM      8  C   UNL     1      10.986 -50.206 -22.755  1.00  0.00    -0.025 A 
ATOM      9  C   UNL     1      12.096 -50.590 -23.505  1.00  0.00     0.020 A 
ATOM     10  C   UNL     1      10.641 -48.862 -22.640  1.00  0.00     0.055 A 
ATOM     11  C   UNL     1      12.883 -49.650 -24.158  1.00  0.00     0.066 A 
ATOM     12  C   UNL     1      11.423 -47.899 -23.290  1.00  0.00     0.161 A 
ATOM     13  C   UNL     1      12.549 -48.295 -24.054  1.00  0.00     0.161 A 
BRANCH  12  14
ATOM     14  O   UNL     1      11.171 -46.549 -23.253  1.00  0.00    -0.493 OA
ATOM     15  C   UNL     1      11.335 -45.876 -22.014  1.00  0.00     0.278 C 
ENDBRANCH  12  14
BRANCH  13  16
ATOM     16  O   UNL     1      13.247 -47.279 -24.660  1.00  0.00    -0.493 OA
ATOM     17  C   UNL     1      14.540 -46.971 -24.157  1.00  0.00     0.278 C 
ENDBRANCH  13  16
ENDBRANCH   2   5
ENDBRANCH   1   2
BRANCH   1  18
ATOM     18  C   UNL     1      11.297 -56.237 -21.753  1.00  0.00     0.044 C 
BRANCH  18  19
ATOM     19  C   UNL     1      11.344 -57.649 -22.292  1.00  0.00    -0.036 A 
ATOM     20  C   UNL     1      10.967 -58.730 -21.496  1.00  0.00     0.074 A 
ATOM     21  C   UNL     1      11.732 -57.892 -23.608  1.00  0.00     0.074 A 
ATOM     22  C   UNL     1      10.974 -60.013 -22.029  1.00  0.00     0.308 A 
ATOM     23  C   UNL     1      11.728 -59.192 -24.098  1.00  0.00     0.308 A 
ATOM     24  N   UNL     1      11.348 -60.226 -23.312  1.00  0.00    -0.201 N 
BRANCH  24  25
ATOM     25  C   UNL     1      11.336 -61.600 -23.867  1.00  0.00     0.394 C 
BRANCH  25  26
ATOM     26  C   UNL     1       9.961 -62.187 -23.775  1.00  0.00     0.027 A 
ATOM     27  C   UNL     1       9.555 -63.160 -22.798  1.00  0.00     0.022 A 
ATOM     28  C   UNL     1       8.902 -61.867 -24.608  1.00  0.00     0.075 A 
ATOM     29  C   UNL     1       8.239 -63.539 -22.940  1.00  0.00     0.065 A 
ATOM     30  S   UNL     1       7.477 -62.736 -24.238  1.00  0.00    -0.152 S 
ENDBRANCH  25  26
ENDBRANCH  24  25
ENDBRANCH  18  19
ENDBRANCH   1  18
TORSDOF 9
ENDMDL
MODEL 4
REMARK VINA RESULT:    -9.624      1.539      2.305
REMARK INTER + INTRA:         -15.084
REMARK INTER:                 -14.751
REMARK INTRA:                  -0.332
REMARK UNBOUND:                -0.677
REMARK SMILES COc1cc2c(cc1OC)SC(=C(O)CCc1cc[n+](Cc3ccsc3)cc1)C2
REMARK SMILES IDX 15 1 13 2 14 3 12 5 29 6 11 7 5 8 6 9 4 10 7 11 3 12 8 13
REMARK SMILES IDX 2 14 1 15 9 16 10 17 16 18 17 19 18 20 28 21 19 22 27 23
REMARK SMILES IDX 20 24 21 25 22 26 23 27 26 28 24 29 25 30
REMARK H PARENT 14 4
ROOT
ATOM      1  C   UNL     1      11.211 -57.127 -21.909  1.00  0.00     0.080 C 
ENDROOT
BRANCH   1   2
ATOM      2  C   UNL     1      10.498 -56.156 -22.833  1.00  0.00     0.103 C 
BRANCH   2   3
ATOM      3  O   UNL     1       9.390 -56.726 -23.446  1.00  0.00    -0.511 OA
ATOM      4  H   UNL     1       9.538 -57.680 -23.564  1.00  0.00     0.293 HD
ENDBRANCH   2   3
BRANCH   2   5
ATOM      5  C   UNL     1      10.849 -54.870 -23.039  1.00  0.00     0.032 C 
ATOM      6  C   UNL     1      11.648 -54.366 -24.230  1.00  0.00     0.083 C 
ATOM      7  S   UNL     1      10.487 -53.587 -21.889  1.00  0.00    -0.090 SA
ATOM      8  C   UNL     1      11.962 -52.918 -23.990  1.00  0.00    -0.025 A 
ATOM      9  C   UNL     1      11.414 -52.395 -22.819  1.00  0.00     0.020 A 
ATOM     10  C   UNL     1      12.725 -52.114 -24.833  1.00  0.00     0.055 A 
ATOM     11  C   UNL     1      11.616 -51.069 -22.461  1.00  0.00     0.066 A 
ATOM     12  C   UNL     1      12.938 -50.773 -24.489  1.00  0.00     0.161 A 
ATOM     13  C   UNL     1      12.382 -50.248 -23.296  1.00  0.00     0.161 A 
BRANCH  12  14
ATOM     14  O   UNL     1      13.681 -49.894 -25.239  1.00  0.00    -0.493 OA
ATOM     15  C   UNL     1      14.824 -50.398 -25.915  1.00  0.00     0.278 C 
ENDBRANCH  12  14
BRANCH  13  16
ATOM     16  O   UNL     1      12.654 -48.926 -23.041  1.00  0.00    -0.493 OA
ATOM     17  C   UNL     1      11.657 -47.969 -23.370  1.00  0.00     0.278 C 
ENDBRANCH  13  16
ENDBRANCH   2   5
ENDBRANCH   1   2
BRANCH   1  18
ATOM     18  C   UNL     1      12.005 -58.220 -22.639  1.00  0.00     0.044 C 
BRANCH  18  19
ATOM     19  C   UNL     1      11.355 -59.584 -22.595  1.00  0.00    -0.036 A 
ATOM     20  C   UNL     1      10.358 -59.871 -21.662  1.00  0.00     0.074 A 
ATOM     21  C   UNL     1      11.717 -60.571 -23.509  1.00  0.00     0.074 A 
ATOM     22  C   UNL     1       9.744 -61.116 -21.672  1.00  0.00     0.308 A 
ATOM     23  C   UNL     1      11.079 -61.804 -23.480  1.00  0.00     0.308 A 
ATOM     24  N   UNL     1      10.106 -62.058 -22.574  1.00  0.00    -0.201 N 
BRANCH  24  25
ATOM     25  C   UNL     1       9.429 -63.377 -22.578  1.00  0.00     0.394 C 
BRANCH  25  26
ATOM     26  C   UNL     1       8.509 -63.486 -23.755  1.00  0.00     0.027 A 
ATOM     27  C   UNL     1       8.644 -62.725 -24.966  1.00  0.00     0.022 A 
ATOM     28  C   UNL     1       7.417 -64.334 -23.835  1.00  0.00     0.075 A 
ATOM     29  C   UNL     1       7.661 -63.011 -25.886  1.00  0.00     0.065 A 
ATOM     30  S   UNL     1       6.570 -64.192 -25.313  1.00  0.00    -0.152 S 
ENDBRANCH  25  26
ENDBRANCH  24  25
ENDBRANCH  18  19
ENDBRANCH   1  18
TORSDOF 9
ENDMDL
MODEL 5
REMARK VINA RESULT:    -9.517      1.110      1.548
REMARK INTER + INTRA:         -14.924
REMARK INTER:                 -14.334
REMARK INTRA:                  -0.589
REMARK UNBOUND:                -0.677
REMARK SMILES COc1cc2c(cc1OC)SC(=C(O)CCc1cc[n+](Cc3ccsc3)cc1)C2
REMARK SMILES IDX 15 1 13 2 14 3 12 5 29 6 11 7 5 8 6 9 4 10 7 11 3 12 8 13
REMARK SMILES IDX 2 14 1 15 9 16 10 17 16 18 17 19 18 20 28 21 19 22 27 23
REMARK SMILES IDX 20 24 21 25 22 26 23 27 26 28 24 29 25 30
REMARK H PARENT 14 4
ROOT
ATOM      1  C   UNL     1      10.190 -55.133 -22.282  1.00  0.00     0.080 C 
ENDROOT
BRANCH   1   2
ATOM      2  C   UNL     1      10.673 -53.804 -21.732  1.00  0.00     0.103 C 
BRANCH   2   3
ATOM      3  O   UNL     1      10.594 -53.744 -20.347  1.00  0.00    -0.511 OA
ATOM      4  H   UNL     1      10.751 -54.628 -19.974  1.00  0.00     0.293 HD
ENDBRANCH   2   3
BRANCH   2   5
ATOM      5  C   UNL     1      11.162 -52.784 -22.467  1.00  0.00     0.032 C 
ATOM      6  C   UNL     1      11.971 -52.941 -23.745  1.00  0.00     0.083 C 
ATOM      7  S   UNL     1      10.988 -51.097 -21.993  1.00  0.00    -0.090 SA
ATOM      8  C   UNL     1      12.457 -51.579 -24.148  1.00  0.00    -0.025 A 
ATOM      9  C   UNL     1      12.013 -50.542 -23.330  1.00  0.00     0.020 A 
ATOM     10  C   UNL     1      13.277 -51.314 -25.242  1.00  0.00     0.055 A 
ATOM     11  C   UNL     1      12.377 -49.224 -23.576  1.00  0.00     0.066 A 
ATOM     12  C   UNL     1      13.654 -49.991 -25.508  1.00  0.00     0.161 A 
ATOM     13  C   UNL     1      13.203 -48.941 -24.670  1.00  0.00     0.161 A 
BRANCH  12  14
ATOM     14  O   UNL     1      14.467 -49.617 -26.550  1.00  0.00    -0.493 OA
ATOM     15  C   UNL     1      15.839 -49.978 -26.486  1.00  0.00     0.278 C 
ENDBRANCH  12  14
BRANCH  13  16
ATOM     16  O   UNL     1      13.633 -47.681 -25.007  1.00  0.00    -0.493 OA
ATOM     17  C   UNL     1      13.917 -46.773 -23.951  1.00  0.00     0.278 C 
ENDBRANCH  13  16
ENDBRANCH   2   5
ENDBRANCH   1   2
BRANCH   1  18
ATOM     18  C   UNL     1      11.269 -56.226 -22.320  1.00  0.00     0.044 C 
BRANCH  18  19
ATOM     19  C   UNL     1      10.718 -57.631 -22.387  1.00  0.00    -0.036 A 
ATOM     20  C   UNL     1       9.500 -57.892 -23.014  1.00  0.00     0.074 A 
ATOM     21  C   UNL     1      11.435 -58.700 -21.851  1.00  0.00     0.074 A 
ATOM     22  C   UNL     1       9.037 -59.199 -23.104  1.00  0.00     0.308 A 
ATOM     23  C   UNL     1      10.932 -59.990 -21.960  1.00  0.00     0.308 A 
ATOM     24  N   UNL     1       9.753 -60.222 -22.583  1.00  0.00    -0.201 N 
BRANCH  24  25
ATOM     25  C   UNL     1       9.250 -61.611 -22.700  1.00  0.00     0.394 C 
BRANCH  25  26
ATOM     26  C   UNL     1       9.011 -61.959 -24.138  1.00  0.00     0.027 A 
ATOM     27  C   UNL     1       9.849 -61.538 -25.226  1.00  0.00     0.022 A 
ATOM     28  C   UNL     1       7.962 -62.733 -24.606  1.00  0.00     0.075 A 
ATOM     29  C   UNL     1       9.401 -61.988 -26.448  1.00  0.00     0.065 A 
ATOM     30  S   UNL     1       7.977 -62.917 -26.306  1.00  0.00    -0.152 S 
ENDBRANCH  25  26
ENDBRANCH  24  25
ENDBRANCH  18  19
ENDBRANCH   1  18
TORSDOF 9
ENDMDL
MODEL 6
REMARK VINA RESULT:    -9.005      1.638      2.070
REMARK INTER + INTRA:         -14.157
REMARK INTER:                 -13.567
REMARK INTRA:                  -0.590
REMARK UNBOUND:                -0.677
REMARK SMILES COc1cc2c(cc1OC)SC(=C(O)CCc1cc[n+](Cc3ccsc3)cc1)C2
REMARK SMILES IDX 15 1 13 2 14 3 12 5 29 6 11 7 5 8 6 9 4 10 7 11 3 12 8 13
REMARK SMILES IDX 2 14 1 15 9 16 10 17 16 18 17 19 18 20 28 21 19 22 27 23
REMARK SMILES IDX 20 24 21 25 22 26 23 27 26 28 24 29 25 30
REMARK H PARENT 14 4
ROOT
ATOM      1  C   UNL     1      10.896 -55.335 -22.384  1.00  0.00     0.080 C 
ENDROOT
BRANCH   1   2
ATOM      2  C   UNL     1      11.430 -54.451 -23.496  1.00  0.00     0.103 C 
BRANCH   2   3
ATOM      3  O   UNL     1      11.793 -55.178 -24.621  1.00  0.00    -0.511 OA
ATOM      4  H   UNL     1      10.994 -55.439 -25.111  1.00  0.00     0.293 HD
ENDBRANCH   2   3
BRANCH   2   5
ATOM      5  C   UNL     1      11.528 -53.106 -23.448  1.00  0.00     0.032 C 
ATOM      6  C   UNL     1      12.528 -52.278 -24.238  1.00  0.00     0.083 C 
ATOM      7  S   UNL     1      10.538 -52.116 -22.381  1.00  0.00    -0.090 SA
ATOM      8  C   UNL     1      12.413 -50.855 -23.772  1.00  0.00    -0.025 A 
ATOM      9  C   UNL     1      11.418 -50.639 -22.820  1.00  0.00     0.020 A 
ATOM     10  C   UNL     1      13.201 -49.800 -24.222  1.00  0.00     0.055 A 
ATOM     11  C   UNL     1      11.189 -49.375 -22.293  1.00  0.00     0.066 A 
ATOM     12  C   UNL     1      12.985 -48.516 -23.703  1.00  0.00     0.161 A 
ATOM     13  C   UNL     1      11.975 -48.303 -22.733  1.00  0.00     0.161 A 
BRANCH  12  14
ATOM     14  O   UNL     1      13.708 -47.407 -24.067  1.00  0.00    -0.493 OA
ATOM     15  C   UNL     1      14.028 -47.242 -25.440  1.00  0.00     0.278 C 
ENDBRANCH  12  14
BRANCH  13  16
ATOM     16  O   UNL     1      11.845 -47.013 -22.280  1.00  0.00    -0.493 OA
ATOM     17  C   UNL     1      10.600 -46.359 -22.489  1.00  0.00     0.278 C 
ENDBRANCH  13  16
ENDBRANCH   2   5
ENDBRANCH   1   2
BRANCH   1  18
ATOM     18  C   UNL     1       9.611 -56.093 -22.748  1.00  0.00     0.044 C 
BRANCH  18  19
ATOM     19  C   UNL     1       9.813 -57.575 -22.963  1.00  0.00    -0.036 A 
ATOM     20  C   UNL     1      11.093 -58.128 -22.977  1.00  0.00     0.074 A 
ATOM     21  C   UNL     1       8.718 -58.424 -23.119  1.00  0.00     0.074 A 
ATOM     22  C   UNL     1      11.250 -59.499 -23.130  1.00  0.00     0.308 A 
ATOM     23  C   UNL     1       8.922 -59.789 -23.273  1.00  0.00     0.308 A 
ATOM     24  N   UNL     1      10.173 -60.306 -23.272  1.00  0.00    -0.201 N 
BRANCH  24  25
ATOM     25  C   UNL     1      10.359 -61.769 -23.421  1.00  0.00     0.394 C 
BRANCH  25  26
ATOM     26  C   UNL     1       9.321 -62.335 -24.341  1.00  0.00     0.027 A 
ATOM     27  C   UNL     1       9.297 -62.133 -25.763  1.00  0.00     0.022 A 
ATOM     28  C   UNL     1       8.257 -63.130 -23.947  1.00  0.00     0.075 A 
ATOM     29  C   UNL     1       8.230 -62.756 -26.371  1.00  0.00     0.065 A 
ATOM     30  S   UNL     1       7.250 -63.588 -25.250  1.00  0.00    -0.152 S 
ENDBRANCH  25  26
ENDBRANCH  24  25
ENDBRANCH  18  19
ENDBRANCH   1  18
TORSDOF 9
ENDMDL
MODEL 7
REMARK VINA RESULT:    -8.502      1.889      2.703
REMARK INTER + INTRA:         -13.404
REMARK INTER:                 -12.894
REMARK INTRA:                  -0.510
REMARK UNBOUND:                -0.677
REMARK SMILES COc1cc2c(cc1OC)SC(=C(O)CCc1cc[n+](Cc3ccsc3)cc1)C2
REMARK SMILES IDX 15 1 13 2 14 3 12 5 29 6 11 7 5 8 6 9 4 10 7 11 3 12 8 13
REMARK SMILES IDX 2 14 1 15 9 16 10 17 16 18 17 19 18 20 28 21 19 22 27 23
REMARK SMILES IDX 20 24 21 25 22 26 23 27 26 28 24 29 25 30
REMARK H PARENT 14 4
ROOT
ATOM      1  C   UNL     1      11.208 -54.568 -24.492  1.00  0.00     0.080 C 
ENDROOT
BRANCH   1   2
ATOM      2  C   UNL     1      12.407 -53.760 -24.952  1.00  0.00     0.103 C 
BRANCH   2   3
ATOM      3  O   UNL     1      13.283 -54.508 -25.727  1.00  0.00    -0.511 OA
ATOM      4  H   UNL     1      12.997 -54.485 -26.656  1.00  0.00     0.293 HD
ENDBRANCH   2   3
BRANCH   2   5
ATOM      5  C   UNL     1      12.618 -52.454 -24.689  1.00  0.00     0.032 C 
ATOM      6  C   UNL     1      12.007 -51.691 -23.525  1.00  0.00     0.083 C 
ATOM      7  S   UNL     1      13.591 -51.417 -25.727  1.00  0.00    -0.090 SA
ATOM      8  C   UNL     1      12.359 -50.241 -23.693  1.00  0.00    -0.025 A 
ATOM      9  C   UNL     1      13.178 -49.970 -24.787  1.00  0.00     0.020 A 
ATOM     10  C   UNL     1      11.938 -49.213 -22.853  1.00  0.00     0.055 A 
ATOM     11  C   UNL     1      13.591 -48.675 -25.073  1.00  0.00     0.066 A 
ATOM     12  C   UNL     1      12.345 -47.900 -23.124  1.00  0.00     0.161 A 
ATOM     13  C   UNL     1      13.175 -47.630 -24.241  1.00  0.00     0.161 A 
BRANCH  12  14
ATOM     14  O   UNL     1      11.982 -46.811 -22.371  1.00  0.00    -0.493 OA
ATOM     15  C   UNL     1      10.597 -46.542 -22.216  1.00  0.00     0.278 C 
ENDBRANCH  12  14
BRANCH  13  16
ATOM     16  O   UNL     1      13.513 -46.312 -24.428  1.00  0.00    -0.493 OA
ATOM     17  C   UNL     1      13.061 -45.674 -25.614  1.00  0.00     0.278 C 
ENDBRANCH  13  16
ENDBRANCH   2   5
ENDBRANCH   1   2
BRANCH   1  18
ATOM     18  C   UNL     1      11.382 -55.220 -23.113  1.00  0.00     0.044 C 
BRANCH  18  19
ATOM     19  C   UNL     1      11.549 -56.722 -23.160  1.00  0.00    -0.036 A 
ATOM     20  C   UNL     1      11.211 -57.513 -22.063  1.00  0.00     0.074 A 
ATOM     21  C   UNL     1      12.013 -57.348 -24.316  1.00  0.00     0.074 A 
ATOM     22  C   UNL     1      11.328 -58.894 -22.146  1.00  0.00     0.308 A 
ATOM     23  C   UNL     1      12.119 -58.732 -24.354  1.00  0.00     0.308 A 
ATOM     24  N   UNL     1      11.774 -59.482 -23.281  1.00  0.00    -0.201 N 
BRANCH  24  25
ATOM     25  C   UNL     1      11.880 -60.958 -23.356  1.00  0.00     0.394 C 
BRANCH  25  26
ATOM     26  C   UNL     1      10.701 -61.529 -24.083  1.00  0.00     0.027 A 
ATOM     27  C   UNL     1       9.787 -62.486 -23.524  1.00  0.00     0.022 A 
ATOM     28  C   UNL     1      10.332 -61.206 -25.379  1.00  0.00     0.075 A 
ATOM     29  C   UNL     1       8.795 -62.852 -24.406  1.00  0.00     0.065 A 
ATOM     30  S   UNL     1       8.946 -62.056 -25.907  1.00  0.00    -0.152 S 
ENDBRANCH  25  26
ENDBRANCH  24  25
ENDBRANCH  18  19
ENDBRANCH   1  18
TORSDOF 9
ENDMDL
MODEL 8
REMARK VINA RESULT:    -8.449      3.767     11.433
REMARK INTER + INTRA:         -13.325
REMARK INTER:                 -12.932
REMARK INTRA:                  -0.393
REMARK UNBOUND:                -0.677
REMARK SMILES COc1cc2c(cc1OC)SC(=C(O)CCc1cc[n+](Cc3ccsc3)cc1)C2
REMARK SMILES IDX 15 1 13 2 14 3 12 5 29 6 11 7 5 8 6 9 4 10 7 11 3 12 8 13
REMARK SMILES IDX 2 14 1 15 9 16 10 17 16 18 17 19 18 20 28 21 19 22 27 23
REMARK SMILES IDX 20 24 21 25 22 26 23 27 26 28 24 29 25 30
REMARK H PARENT 14 4
ROOT
ATOM      1  C   UNL     1      10.533 -53.675 -22.875  1.00  0.00     0.080 C 
ENDROOT
BRANCH   1   2
ATOM      2  C   UNL     1      10.591 -54.943 -22.043  1.00  0.00     0.103 C 
BRANCH   2   3
ATOM      3  O   UNL     1      10.920 -54.692 -20.718  1.00  0.00    -0.511 OA
ATOM      4  H   UNL     1      10.191 -54.214 -20.287  1.00  0.00     0.293 HD
ENDBRANCH   2   3
BRANCH   2   5
ATOM      5  C   UNL     1      10.328 -56.188 -22.494  1.00  0.00     0.032 C 
ATOM      6  C   UNL     1       9.028 -56.618 -23.153  1.00  0.00     0.083 C 
ATOM      7  S   UNL     1      11.454 -57.528 -22.304  1.00  0.00    -0.090 SA
ATOM      8  C   UNL     1       9.084 -58.105 -23.348  1.00  0.00    -0.025 A 
ATOM      9  C   UNL     1      10.286 -58.693 -22.957  1.00  0.00     0.020 A 
ATOM     10  C   UNL     1       8.057 -58.882 -23.877  1.00  0.00     0.055 A 
ATOM     11  C   UNL     1      10.490 -60.062 -23.077  1.00  0.00     0.066 A 
ATOM     12  C   UNL     1       8.244 -60.265 -24.007  1.00  0.00     0.161 A 
ATOM     13  C   UNL     1       9.466 -60.858 -23.604  1.00  0.00     0.161 A 
BRANCH  12  14
ATOM     14  O   UNL     1       7.297 -61.126 -24.505  1.00  0.00    -0.493 OA
ATOM     15  C   UNL     1       6.655 -62.006 -23.593  1.00  0.00     0.278 C 
ENDBRANCH  12  14
BRANCH  13  16
ATOM     16  O   UNL     1       9.551 -62.219 -23.763  1.00  0.00    -0.493 OA
ATOM     17  C   UNL     1      10.180 -62.969 -22.733  1.00  0.00     0.278 C 
ENDBRANCH  13  16
ENDBRANCH   2   5
ENDBRANCH   1   2
BRANCH   1  18
ATOM     18  C   UNL     1      11.716 -53.503 -23.839  1.00  0.00     0.044 C 
BRANCH  18  19
ATOM     19  C   UNL     1      12.281 -52.101 -23.874  1.00  0.00    -0.036 A 
ATOM     20  C   UNL     1      12.891 -51.605 -25.026  1.00  0.00     0.074 A 
ATOM     21  C   UNL     1      12.172 -51.265 -22.764  1.00  0.00     0.074 A 
ATOM     22  C   UNL     1      13.360 -50.298 -25.048  1.00  0.00     0.308 A 
ATOM     23  C   UNL     1      12.659 -49.966 -22.830  1.00  0.00     0.308 A 
ATOM     24  N   UNL     1      13.237 -49.501 -23.962  1.00  0.00    -0.201 N 
BRANCH  24  25
ATOM     25  C   UNL     1      13.732 -48.105 -24.009  1.00  0.00     0.394 C 
BRANCH  25  26
ATOM     26  C   UNL     1      12.638 -47.152 -23.635  1.00  0.00     0.027 A 
ATOM     27  C   UNL     1      11.465 -46.909 -24.429  1.00  0.00     0.022 A 
ATOM     28  C   UNL     1      12.608 -46.389 -22.480  1.00  0.00     0.075 A 
ATOM     29  C   UNL     1      10.622 -45.980 -23.861  1.00  0.00     0.065 A 
ATOM     30  S   UNL     1      11.223 -45.393 -22.376  1.00  0.00    -0.152 S 
ENDBRANCH  25  26
ENDBRANCH  24  25
ENDBRANCH  18  19
ENDBRANCH   1  18
TORSDOF 9
ENDMDL
MODEL 9
REMARK VINA RESULT:    -8.283      4.255     11.252
REMARK INTER + INTRA:         -13.076
REMARK INTER:                 -12.352
REMARK INTRA:                  -0.724
REMARK UNBOUND:                -0.677
REMARK SMILES COc1cc2c(cc1OC)SC(=C(O)CCc1cc[n+](Cc3ccsc3)cc1)C2
REMARK SMILES IDX 15 1 13 2 14 3 12 5 29 6 11 7 5 8 6 9 4 10 7 11 3 12 8 13
REMARK SMILES IDX 2 14 1 15 9 16 10 17 16 18 17 19 18 20 28 21 19 22 27 23
REMARK SMILES IDX 20 24 21 25 22 26 23 27 26 28 24 29 25 30
REMARK H PARENT 14 4
ROOT
ATOM      1  C   UNL     1       9.631 -56.588 -23.275  1.00  0.00     0.080 C 
ENDROOT
BRANCH   1   2
ATOM      2  C   UNL     1      10.073 -57.992 -22.905  1.00  0.00     0.103 C 
BRANCH   2   3
ATOM      3  O   UNL     1      11.013 -57.998 -21.882  1.00  0.00    -0.511 OA
ATOM      4  H   UNL     1      11.055 -58.885 -21.485  1.00  0.00     0.293 HD
ENDBRANCH   2   3
BRANCH   2   5
ATOM      5  C   UNL     1       9.608 -59.131 -23.459  1.00  0.00     0.032 C 
ATOM      6  C   UNL     1      10.071 -59.704 -24.789  1.00  0.00     0.083 C 
ATOM      7  S   UNL     1       8.318 -60.085 -22.735  1.00  0.00    -0.090 SA
ATOM      8  C   UNL     1       9.190 -60.876 -25.112  1.00  0.00    -0.025 A 
ATOM      9  C   UNL     1       8.249 -61.180 -24.130  1.00  0.00     0.020 A 
ATOM     10  C   UNL     1       9.265 -61.636 -26.276  1.00  0.00     0.055 A 
ATOM     11  C   UNL     1       7.363 -62.238 -24.284  1.00  0.00     0.066 A 
ATOM     12  C   UNL     1       8.381 -62.709 -26.450  1.00  0.00     0.161 A 
ATOM     13  C   UNL     1       7.424 -63.010 -25.449  1.00  0.00     0.161 A 
BRANCH  12  14
ATOM     14  O   UNL     1       8.359 -63.517 -27.561  1.00  0.00    -0.493 OA
ATOM     15  C   UNL     1       8.806 -62.967 -28.791  1.00  0.00     0.278 C 
ENDBRANCH  12  14
BRANCH  13  16
ATOM     16  O   UNL     1       6.597 -64.074 -25.715  1.00  0.00    -0.493 OA
ATOM     17  C   UNL     1       6.791 -65.267 -24.968  1.00  0.00     0.278 C 
ENDBRANCH  13  16
ENDBRANCH   2   5
ENDBRANCH   1   2
BRANCH   1  18
ATOM     18  C   UNL     1      10.142 -55.498 -22.322  1.00  0.00     0.044 C 
BRANCH  18  19
ATOM     19  C   UNL     1      10.990 -54.442 -22.995  1.00  0.00    -0.036 A 
ATOM     20  C   UNL     1      11.601 -54.692 -24.223  1.00  0.00     0.074 A 
ATOM     21  C   UNL     1      11.148 -53.185 -22.414  1.00  0.00     0.074 A 
ATOM     22  C   UNL     1      12.336 -53.690 -24.843  1.00  0.00     0.308 A 
ATOM     23  C   UNL     1      11.895 -52.214 -23.068  1.00  0.00     0.308 A 
ATOM     24  N   UNL     1      12.470 -52.474 -24.265  1.00  0.00    -0.201 N 
BRANCH  24  25
ATOM     25  C   UNL     1      13.248 -51.413 -24.949  1.00  0.00     0.394 C 
BRANCH  25  26
ATOM     26  C   UNL     1      14.693 -51.496 -24.563  1.00  0.00     0.027 A 
ATOM     27  C   UNL     1      15.234 -51.001 -23.327  1.00  0.00     0.022 A 
ATOM     28  C   UNL     1      15.692 -52.064 -25.335  1.00  0.00     0.075 A 
ATOM     29  C   UNL     1      16.593 -51.195 -23.226  1.00  0.00     0.065 A 
ATOM     30  S   UNL     1      17.234 -51.973 -24.602  1.00  0.00    -0.152 S 
ENDBRANCH  25  26
ENDBRANCH  24  25
ENDBRANCH  18  19
ENDBRANCH   1  18
TORSDOF 9
ENDMDL
