MODEL 1
REMARK VINA RESULT:   -11.286      0.000      0.000
REMARK INTER + INTRA:         -14.022
REMARK INTER:                 -13.925
REMARK INTRA:                  -0.097
REMARK UNBOUND:                -0.097
REMARK SMILES CCc1ccccc1NC(=O)Oc1ccc2c(c1)[C@]1(C)CC[N@@H+](C)[C@@H]1N2C
REMARK SMILES IDX 10 1 9 2 11 3 12 5 13 6 22 7 23 8 21 9 25 10 19 11 26 12
REMARK SMILES IDX 17 13 16 14 18 15 15 16 14 17 24 18 20 20 27 21 8 22 7 23
REMARK SMILES IDX 3 24 6 25 4 26 5 27 2 28 1 29
REMARK H PARENT 9 4 23 19
ROOT
ATOM      1  C   UNL     1      10.876 -54.561 -21.930  1.00  0.00     0.417 C 
ATOM      2  N   UNL     1      11.328 -53.554 -22.742  1.00  0.00    -0.291 N 
ATOM      3  O   UNL     1      10.135 -54.472 -20.960  1.00  0.00    -0.224 OA
ATOM      4  H   UNL     1      11.930 -53.882 -23.482  1.00  0.00     0.173 HD
ENDROOT
BRANCH   1   5
ATOM      5  O   UNL     1      11.408 -55.763 -22.401  1.00  0.00    -0.410 OA
BRANCH   5   6
ATOM      6  C   UNL     1      10.476 -56.773 -22.676  1.00  0.00     0.133 A 
ATOM      7  C   UNL     1      10.032 -62.348 -23.919  1.00  0.00     0.265 C 
ATOM      8  N   UNL     1       8.652 -61.804 -24.080  1.00  0.00    -0.317 N 
ATOM      9  C   UNL     1      10.803 -61.203 -23.303  1.00  0.00     0.081 C 
ATOM     10  C   UNL     1       8.388 -60.935 -22.907  1.00  0.00     0.296 C 
ATOM     11  C   UNL     1       9.791 -60.516 -22.379  1.00  0.00     0.072 C 
ATOM     12  N   UNL     1       7.713 -59.799 -23.517  1.00  0.00    -0.325 N 
ATOM     13  C   UNL     1       9.750 -59.037 -22.609  1.00  0.00    -0.007 A 
ATOM     14  C   UNL     1       8.557 -58.688 -23.250  1.00  0.00     0.045 A 
ATOM     15  C   UNL     1      10.716 -58.092 -22.296  1.00  0.00     0.054 A 
ATOM     16  C   UNL     1       8.316 -57.364 -23.596  1.00  0.00     0.030 A 
ATOM     17  C   UNL     1       9.283 -56.397 -23.301  1.00  0.00     0.049 A 
ATOM     18  C   UNL     1       7.612 -62.815 -24.386  1.00  0.00     0.334 C 
ATOM     19  H   UNL     1       8.645 -61.100 -24.832  1.00  0.00     0.349 HD
ATOM     20  C   UNL     1       9.977 -60.888 -20.911  1.00  0.00     0.025 C 
ATOM     21  C   UNL     1       6.328 -59.555 -23.104  1.00  0.00     0.150 C 
ENDBRANCH   5   6
ENDBRANCH   1   5
BRANCH   2  22
ATOM     22  C   UNL     1      11.064 -52.168 -22.671  1.00  0.00     0.047 A 
ATOM     23  C   UNL     1       9.897 -51.669 -22.076  1.00  0.00     0.026 A 
ATOM     24  C   UNL     1      12.011 -51.261 -23.215  1.00  0.00    -0.025 A 
ATOM     25  C   UNL     1       9.652 -50.297 -22.013  1.00  0.00     0.002 A 
ATOM     26  C   UNL     1      11.739 -49.880 -23.138  1.00  0.00     0.006 A 
ATOM     27  C   UNL     1      10.571 -49.404 -22.544  1.00  0.00     0.000 A 
BRANCH  24  28
ATOM     28  C   UNL     1      13.288 -51.764 -23.865  1.00  0.00     0.034 C 
ATOM     29  C   UNL     1      13.297 -51.939 -25.380  1.00  0.00     0.009 C 
ENDBRANCH  24  28
ENDBRANCH   2  22
TORSDOF 4
ENDMDL
MODEL 2
REMARK VINA RESULT:   -11.273      2.025      9.300
REMARK INTER + INTRA:         -14.006
REMARK INTER:                 -13.909
REMARK INTRA:                  -0.097
REMARK UNBOUND:                -0.097
REMARK SMILES CCc1ccccc1NC(=O)Oc1ccc2c(c1)[C@]1(C)CC[N@@H+](C)[C@@H]1N2C
REMARK SMILES IDX 10 1 9 2 11 3 12 5 13 6 22 7 23 8 21 9 25 10 19 11 26 12
REMARK SMILES IDX 17 13 16 14 18 15 15 16 14 17 24 18 20 20 27 21 8 22 7 23
REMARK SMILES IDX 3 24 6 25 4 26 5 27 2 28 1 29
REMARK H PARENT 9 4 23 19
ROOT
ATOM      1  C   UNL     1      10.608 -55.865 -22.993  1.00  0.00     0.417 C 
ATOM      2  N   UNL     1       9.926 -56.977 -23.414  1.00  0.00    -0.291 N 
ATOM      3  O   UNL     1      11.332 -55.750 -22.015  1.00  0.00    -0.224 OA
ATOM      4  H   UNL     1       9.395 -56.820 -24.257  1.00  0.00     0.173 HD
ENDROOT
BRANCH   1   5
ATOM      5  O   UNL     1      10.344 -54.834 -23.897  1.00  0.00    -0.410 OA
BRANCH   5   6
ATOM      6  C   UNL     1      10.924 -53.594 -23.591  1.00  0.00     0.133 A 
ATOM      7  C   UNL     1      15.932 -50.816 -23.456  1.00  0.00     0.265 C 
ATOM      8  N   UNL     1      14.958 -49.890 -22.811  1.00  0.00    -0.317 N 
ATOM      9  C   UNL     1      15.066 -51.924 -24.010  1.00  0.00     0.081 C 
ATOM     10  C   UNL     1      13.740 -49.880 -23.658  1.00  0.00     0.296 C 
ATOM     11  C   UNL     1      13.781 -51.216 -24.455  1.00  0.00     0.072 C 
ATOM     12  N   UNL     1      12.678 -49.912 -22.663  1.00  0.00    -0.325 N 
ATOM     13  C   UNL     1      12.562 -51.902 -23.922  1.00  0.00    -0.007 A 
ATOM     14  C   UNL     1      11.979 -51.122 -22.918  1.00  0.00     0.045 A 
ATOM     15  C   UNL     1      12.040 -53.134 -24.287  1.00  0.00     0.054 A 
ATOM     16  C   UNL     1      10.848 -51.579 -22.252  1.00  0.00     0.030 A 
ATOM     17  C   UNL     1      10.313 -52.825 -22.596  1.00  0.00     0.049 A 
ATOM     18  C   UNL     1      15.505 -48.561 -22.445  1.00  0.00     0.334 C 
ATOM     19  H   UNL     1      14.580 -50.326 -21.957  1.00  0.00     0.349 HD
ATOM     20  C   UNL     1      13.723 -50.979 -25.961  1.00  0.00     0.025 C 
ATOM     21  C   UNL     1      11.783 -48.753 -22.617  1.00  0.00     0.150 C 
ENDBRANCH   5   6
ENDBRANCH   1   5
BRANCH   2  22
ATOM     22  C   UNL     1       9.877 -58.262 -22.832  1.00  0.00     0.047 A 
ATOM     23  C   UNL     1      10.963 -58.790 -22.119  1.00  0.00     0.026 A 
ATOM     24  C   UNL     1       8.695 -59.036 -22.973  1.00  0.00    -0.025 A 
ATOM     25  C   UNL     1      10.899 -60.063 -21.549  1.00  0.00     0.002 A 
ATOM     26  C   UNL     1       8.657 -60.317 -22.388  1.00  0.00     0.006 A 
ATOM     27  C   UNL     1       9.748 -60.825 -21.684  1.00  0.00     0.000 A 
BRANCH  24  28
ATOM     28  C   UNL     1       7.498 -58.496 -23.736  1.00  0.00     0.034 C 
ATOM     29  C   UNL     1       6.108 -58.759 -23.163  1.00  0.00     0.009 C 
ENDBRANCH  24  28
ENDBRANCH   2  22
TORSDOF 4
ENDMDL
MODEL 3
REMARK VINA RESULT:   -11.229      2.066      3.285
REMARK INTER + INTRA:         -13.952
REMARK INTER:                 -13.588
REMARK INTRA:                  -0.364
REMARK UNBOUND:                -0.097
REMARK SMILES CCc1ccccc1NC(=O)Oc1ccc2c(c1)[C@]1(C)CC[N@@H+](C)[C@@H]1N2C
REMARK SMILES IDX 10 1 9 2 11 3 12 5 13 6 22 7 23 8 21 9 25 10 19 11 26 12
REMARK SMILES IDX 17 13 16 14 18 15 15 16 14 17 24 18 20 20 27 21 8 22 7 23
REMARK SMILES IDX 3 24 6 25 4 26 5 27 2 28 1 29
REMARK H PARENT 9 4 23 19
ROOT
ATOM      1  C   UNL     1      10.436 -56.118 -22.786  1.00  0.00     0.417 C 
ATOM      2  N   UNL     1      10.333 -55.071 -23.665  1.00  0.00    -0.291 N 
ATOM      3  O   UNL     1      11.442 -56.545 -22.237  1.00  0.00    -0.224 OA
ATOM      4  H   UNL     1       9.388 -54.910 -23.980  1.00  0.00     0.173 HD
ENDROOT
BRANCH   1   5
ATOM      5  O   UNL     1       9.157 -56.646 -22.597  1.00  0.00    -0.410 OA
BRANCH   5   6
ATOM      6  C   UNL     1       8.893 -57.849 -23.266  1.00  0.00     0.133 A 
ATOM      7  C   UNL     1      10.434 -60.963 -27.821  1.00  0.00     0.265 C 
ATOM      8  N   UNL     1       9.247 -61.666 -27.255  1.00  0.00    -0.317 N 
ATOM      9  C   UNL     1      10.759 -59.911 -26.786  1.00  0.00     0.081 C 
ATOM     10  C   UNL     1       9.441 -61.733 -25.786  1.00  0.00     0.296 C 
ATOM     11  C   UNL     1      10.429 -60.579 -25.447  1.00  0.00     0.072 C 
ATOM     12  N   UNL     1       8.108 -61.425 -25.290  1.00  0.00    -0.325 N 
ATOM     13  C   UNL     1       9.562 -59.706 -24.594  1.00  0.00    -0.007 A 
ATOM     14  C   UNL     1       8.267 -60.231 -24.538  1.00  0.00     0.045 A 
ATOM     15  C   UNL     1       9.902 -58.525 -23.951  1.00  0.00     0.054 A 
ATOM     16  C   UNL     1       7.277 -59.563 -23.827  1.00  0.00     0.030 A 
ATOM     17  C   UNL     1       7.596 -58.364 -23.180  1.00  0.00     0.049 A 
ATOM     18  C   UNL     1       8.898 -62.943 -27.922  1.00  0.00     0.334 C 
ATOM     19  H   UNL     1       8.425 -61.047 -27.301  1.00  0.00     0.349 HD
ATOM     20  C   UNL     1      11.666 -61.090 -24.715  1.00  0.00     0.025 C 
ATOM     21  C   UNL     1       7.430 -62.475 -24.525  1.00  0.00     0.150 C 
ENDBRANCH   5   6
ENDBRANCH   1   5
BRANCH   2  22
ATOM     22  C   UNL     1      11.348 -54.226 -24.164  1.00  0.00     0.047 A 
ATOM     23  C   UNL     1      12.132 -54.587 -25.268  1.00  0.00     0.026 A 
ATOM     24  C   UNL     1      11.576 -52.977 -23.528  1.00  0.00    -0.025 A 
ATOM     25  C   UNL     1      13.132 -53.741 -25.750  1.00  0.00     0.002 A 
ATOM     26  C   UNL     1      12.592 -52.141 -24.034  1.00  0.00     0.006 A 
ATOM     27  C   UNL     1      13.361 -52.520 -25.132  1.00  0.00     0.000 A 
BRANCH  24  28
ATOM     28  C   UNL     1      10.746 -52.549 -22.330  1.00  0.00     0.034 C 
ATOM     29  C   UNL     1      11.096 -51.228 -21.653  1.00  0.00     0.009 C 
ENDBRANCH  24  28
ENDBRANCH   2  22
TORSDOF 4
ENDMDL
MODEL 4
REMARK VINA RESULT:   -11.120      1.350      3.044
REMARK INTER + INTRA:         -13.817
REMARK INTER:                 -13.427
REMARK INTRA:                  -0.390
REMARK UNBOUND:                -0.097
REMARK SMILES CCc1ccccc1NC(=O)Oc1ccc2c(c1)[C@]1(C)CC[N@@H+](C)[C@@H]1N2C
REMARK SMILES IDX 10 1 9 2 11 3 12 5 13 6 22 7 23 8 21 9 25 10 19 11 26 12
REMARK SMILES IDX 17 13 16 14 18 15 15 16 14 17 24 18 20 20 27 21 8 22 7 23
REMARK SMILES IDX 3 24 6 25 4 26 5 27 2 28 1 29
REMARK H PARENT 9 4 23 19
ROOT
ATOM      1  C   UNL     1      10.345 -54.526 -23.230  1.00  0.00     0.417 C 
ATOM      2  N   UNL     1      11.400 -53.728 -22.874  1.00  0.00    -0.291 N 
ATOM      3  O   UNL     1       9.730 -54.537 -24.287  1.00  0.00    -0.224 OA
ATOM      4  H   UNL     1      11.740 -53.912 -21.943  1.00  0.00     0.173 HD
ENDROOT
BRANCH   1   5
ATOM      5  O   UNL     1      10.066 -55.372 -22.154  1.00  0.00    -0.410 OA
BRANCH   5   6
ATOM      6  C   UNL     1      10.193 -56.744 -22.412  1.00  0.00     0.133 A 
ATOM      7  C   UNL     1       7.149 -61.507 -23.343  1.00  0.00     0.265 C 
ATOM      8  N   UNL     1       8.562 -61.968 -23.218  1.00  0.00    -0.317 N 
ATOM      9  C   UNL     1       7.261 -60.000 -23.376  1.00  0.00     0.081 C 
ATOM     10  C   UNL     1       9.394 -61.044 -24.026  1.00  0.00     0.296 C 
ATOM     11  C   UNL     1       8.564 -59.732 -24.139  1.00  0.00     0.072 C 
ATOM     12  N   UNL     1      10.549 -60.843 -23.163  1.00  0.00    -0.325 N 
ATOM     13  C   UNL     1       9.447 -58.774 -23.403  1.00  0.00    -0.007 A 
ATOM     14  C   UNL     1      10.551 -59.452 -22.876  1.00  0.00     0.045 A 
ATOM     15  C   UNL     1       9.258 -57.415 -23.198  1.00  0.00     0.054 A 
ATOM     16  C   UNL     1      11.492 -58.765 -22.120  1.00  0.00     0.030 A 
ATOM     17  C   UNL     1      11.314 -57.397 -21.891  1.00  0.00     0.049 A 
ATOM     18  C   UNL     1       8.772 -63.415 -23.464  1.00  0.00     0.334 C 
ATOM     19  H   UNL     1       8.913 -61.750 -22.274  1.00  0.00     0.349 HD
ATOM     20  C   UNL     1       8.331 -59.333 -25.593  1.00  0.00     0.025 C 
ATOM     21  C   UNL     1      11.842 -61.306 -23.674  1.00  0.00     0.150 C 
ENDBRANCH   5   6
ENDBRANCH   1   5
BRANCH   2  22
ATOM     22  C   UNL     1      12.043 -52.718 -23.624  1.00  0.00     0.047 A 
ATOM     23  C   UNL     1      12.746 -53.008 -24.801  1.00  0.00     0.026 A 
ATOM     24  C   UNL     1      11.970 -51.375 -23.170  1.00  0.00    -0.025 A 
ATOM     25  C   UNL     1      13.377 -51.999 -25.531  1.00  0.00     0.002 A 
ATOM     26  C   UNL     1      12.615 -50.375 -23.925  1.00  0.00     0.006 A 
ATOM     27  C   UNL     1      13.311 -50.684 -25.093  1.00  0.00     0.000 A 
BRANCH  24  28
ATOM     28  C   UNL     1      11.215 -51.021 -21.900  1.00  0.00     0.034 C 
ATOM     29  C   UNL     1       9.850 -50.356 -22.043  1.00  0.00     0.009 C 
ENDBRANCH  24  28
ENDBRANCH   2  22
TORSDOF 4
ENDMDL
MODEL 5
REMARK VINA RESULT:   -10.751      1.770      2.129
REMARK INTER + INTRA:         -13.362
REMARK INTER:                 -12.897
REMARK INTRA:                  -0.465
REMARK UNBOUND:                -0.097
REMARK SMILES CCc1ccccc1NC(=O)Oc1ccc2c(c1)[C@]1(C)CC[N@@H+](C)[C@@H]1N2C
REMARK SMILES IDX 10 1 9 2 11 3 12 5 13 6 22 7 23 8 21 9 25 10 19 11 26 12
REMARK SMILES IDX 17 13 16 14 18 15 15 16 14 17 24 18 20 20 27 21 8 22 7 23
REMARK SMILES IDX 3 24 6 25 4 26 5 27 2 28 1 29
REMARK H PARENT 9 4 23 19
ROOT
ATOM      1  C   UNL     1      10.957 -54.579 -23.141  1.00  0.00     0.417 C 
ATOM      2  N   UNL     1      11.330 -53.561 -22.301  1.00  0.00    -0.291 N 
ATOM      3  O   UNL     1      10.367 -54.496 -24.209  1.00  0.00    -0.224 OA
ATOM      4  H   UNL     1      11.812 -53.885 -21.476  1.00  0.00     0.173 HD
ENDROOT
BRANCH   1   5
ATOM      5  O   UNL     1      11.379 -55.781 -22.570  1.00  0.00    -0.410 OA
BRANCH   5   6
ATOM      6  C   UNL     1      10.775 -56.939 -23.079  1.00  0.00     0.133 A 
ATOM      7  C   UNL     1      10.949 -60.614 -27.471  1.00  0.00     0.265 C 
ATOM      8  N   UNL     1       9.738 -61.000 -26.691  1.00  0.00    -0.317 N 
ATOM      9  C   UNL     1      11.634 -59.591 -26.594  1.00  0.00     0.081 C 
ATOM     10  C   UNL     1      10.127 -61.009 -25.260  1.00  0.00     0.296 C 
ATOM     11  C   UNL     1      11.372 -60.080 -25.165  1.00  0.00     0.072 C 
ATOM     12  N   UNL     1       8.975 -60.383 -24.628  1.00  0.00    -0.325 N 
ATOM     13  C   UNL     1      10.841 -58.982 -24.296  1.00  0.00    -0.007 A 
ATOM     14  C   UNL     1       9.488 -59.205 -24.023  1.00  0.00     0.045 A 
ATOM     15  C   UNL     1      11.509 -57.864 -23.820  1.00  0.00     0.054 A 
ATOM     16  C   UNL     1       8.774 -58.290 -23.258  1.00  0.00     0.030 A 
ATOM     17  C   UNL     1       9.426 -57.150 -22.777  1.00  0.00     0.049 A 
ATOM     18  C   UNL     1       9.037 -62.211 -27.181  1.00  0.00     0.334 C 
ATOM     19  H   UNL     1       9.065 -60.220 -26.690  1.00  0.00     0.349 HD
ATOM     20  C   UNL     1      12.570 -60.799 -24.552  1.00  0.00     0.025 C 
ATOM     21  C   UNL     1       8.213 -61.205 -23.684  1.00  0.00     0.150 C 
ENDBRANCH   5   6
ENDBRANCH   1   5
BRANCH   2  22
ATOM     22  C   UNL     1      11.128 -52.171 -22.445  1.00  0.00     0.047 A 
ATOM     23  C   UNL     1      10.010 -51.528 -21.895  1.00  0.00     0.026 A 
ATOM     24  C   UNL     1      12.085 -51.409 -23.164  1.00  0.00    -0.025 A 
ATOM     25  C   UNL     1       9.824 -50.153 -22.045  1.00  0.00     0.002 A 
ATOM     26  C   UNL     1      11.874 -50.022 -23.302  1.00  0.00     0.006 A 
ATOM     27  C   UNL     1      10.755 -49.402 -22.748  1.00  0.00     0.000 A 
BRANCH  24  28
ATOM     28  C   UNL     1      13.310 -52.070 -23.773  1.00  0.00     0.034 C 
ATOM     29  C   UNL     1      13.258 -52.448 -25.249  1.00  0.00     0.009 C 
ENDBRANCH  24  28
ENDBRANCH   2  22
TORSDOF 4
ENDMDL
MODEL 6
REMARK VINA RESULT:   -10.647      2.147      9.298
REMARK INTER + INTRA:         -13.234
REMARK INTER:                 -13.603
REMARK INTRA:                   0.369
REMARK UNBOUND:                -0.097
REMARK SMILES CCc1ccccc1NC(=O)Oc1ccc2c(c1)[C@]1(C)CC[N@@H+](C)[C@@H]1N2C
REMARK SMILES IDX 10 1 9 2 11 3 12 5 13 6 22 7 23 8 21 9 25 10 19 11 26 12
REMARK SMILES IDX 17 13 16 14 18 15 15 16 14 17 24 18 20 20 27 21 8 22 7 23
REMARK SMILES IDX 3 24 6 25 4 26 5 27 2 28 1 29
REMARK H PARENT 9 4 23 19
ROOT
ATOM      1  C   UNL     1      11.214 -56.383 -23.278  1.00  0.00     0.417 C 
ATOM      2  N   UNL     1      10.877 -57.586 -23.842  1.00  0.00    -0.291 N 
ATOM      3  O   UNL     1      11.420 -56.135 -22.098  1.00  0.00    -0.224 OA
ATOM      4  H   UNL     1      10.763 -57.536 -24.843  1.00  0.00     0.173 HD
ENDROOT
BRANCH   1   5
ATOM      5  O   UNL     1      11.297 -55.438 -24.302  1.00  0.00    -0.410 OA
BRANCH   5   6
ATOM      6  C   UNL     1      11.474 -54.110 -23.890  1.00  0.00     0.133 A 
ATOM      7  C   UNL     1      15.456 -50.055 -23.168  1.00  0.00     0.265 C 
ATOM      8  N   UNL     1      14.210 -49.484 -22.578  1.00  0.00    -0.317 N 
ATOM      9  C   UNL     1      14.988 -51.321 -23.847  1.00  0.00     0.081 C 
ATOM     10  C   UNL     1      13.110 -49.759 -23.535  1.00  0.00     0.296 C 
ATOM     11  C   UNL     1      13.593 -50.974 -24.380  1.00  0.00     0.072 C 
ATOM     12  N   UNL     1      12.027 -50.155 -22.647  1.00  0.00    -0.325 N 
ATOM     13  C   UNL     1      12.582 -52.008 -23.994  1.00  0.00    -0.007 A 
ATOM     14  C   UNL     1      11.724 -51.492 -23.017  1.00  0.00     0.045 A 
ATOM     15  C   UNL     1      12.463 -53.309 -24.458  1.00  0.00     0.054 A 
ATOM     16  C   UNL     1      10.722 -52.291 -22.480  1.00  0.00     0.030 A 
ATOM     17  C   UNL     1      10.593 -53.611 -22.926  1.00  0.00     0.049 A 
ATOM     18  C   UNL     1      14.325 -48.083 -22.107  1.00  0.00     0.334 C 
ATOM     19  H   UNL     1      13.907 -50.065 -21.783  1.00  0.00     0.349 HD
ATOM     20  C   UNL     1      13.587 -50.661 -25.874  1.00  0.00     0.025 C 
ATOM     21  C   UNL     1      10.838 -49.299 -22.636  1.00  0.00     0.150 C 
ENDBRANCH   5   6
ENDBRANCH   1   5
BRANCH   2  22
ATOM     22  C   UNL     1      10.677 -58.836 -23.216  1.00  0.00     0.047 A 
ATOM     23  C   UNL     1      10.471 -58.944 -21.833  1.00  0.00     0.026 A 
ATOM     24  C   UNL     1      10.683 -60.012 -24.012  1.00  0.00    -0.025 A 
ATOM     25  C   UNL     1      10.274 -60.187 -21.229  1.00  0.00     0.002 A 
ATOM     26  C   UNL     1      10.482 -61.254 -23.377  1.00  0.00     0.006 A 
ATOM     27  C   UNL     1      10.280 -61.340 -22.001  1.00  0.00     0.000 A 
BRANCH  24  28
ATOM     28  C   UNL     1      10.901 -59.934 -25.513  1.00  0.00     0.034 C 
ATOM     29  C   UNL     1       9.827 -60.525 -26.422  1.00  0.00     0.009 C 
ENDBRANCH  24  28
ENDBRANCH   2  22
TORSDOF 4
ENDMDL
MODEL 7
REMARK VINA RESULT:   -10.477      2.403      9.236
REMARK INTER + INTRA:         -13.023
REMARK INTER:                 -12.606
REMARK INTRA:                  -0.418
REMARK UNBOUND:                -0.097
REMARK SMILES CCc1ccccc1NC(=O)Oc1ccc2c(c1)[C@]1(C)CC[N@@H+](C)[C@@H]1N2C
REMARK SMILES IDX 10 1 9 2 11 3 12 5 13 6 22 7 23 8 21 9 25 10 19 11 26 12
REMARK SMILES IDX 17 13 16 14 18 15 15 16 14 17 24 18 20 20 27 21 8 22 7 23
REMARK SMILES IDX 3 24 6 25 4 26 5 27 2 28 1 29
REMARK H PARENT 9 4 23 19
ROOT
ATOM      1  C   UNL     1      10.370 -55.709 -22.915  1.00  0.00     0.417 C 
ATOM      2  N   UNL     1       9.934 -56.882 -23.474  1.00  0.00    -0.291 N 
ATOM      3  O   UNL     1      10.829 -55.531 -21.795  1.00  0.00    -0.224 OA
ATOM      4  H   UNL     1       9.601 -56.770 -24.419  1.00  0.00     0.173 HD
ENDROOT
BRANCH   1   5
ATOM      5  O   UNL     1      10.211 -54.697 -23.865  1.00  0.00    -0.410 OA
BRANCH   5   6
ATOM      6  C   UNL     1      11.397 -54.117 -24.338  1.00  0.00     0.133 A 
ATOM      7  C   UNL     1      13.863 -49.073 -25.475  1.00  0.00     0.265 C 
ATOM      8  N   UNL     1      14.812 -50.096 -26.003  1.00  0.00    -0.317 N 
ATOM      9  C   UNL     1      12.838 -49.886 -24.718  1.00  0.00     0.081 C 
ATOM     10  C   UNL     1      14.937 -51.150 -24.966  1.00  0.00     0.296 C 
ATOM     11  C   UNL     1      13.643 -51.040 -24.108  1.00  0.00     0.072 C 
ATOM     12  N   UNL     1      14.917 -52.366 -25.765  1.00  0.00    -0.325 N 
ATOM     13  C   UNL     1      13.004 -52.365 -24.387  1.00  0.00    -0.007 A 
ATOM     14  C   UNL     1      13.765 -53.071 -25.325  1.00  0.00     0.045 A 
ATOM     15  C   UNL     1      11.825 -52.877 -23.867  1.00  0.00     0.054 A 
ATOM     16  C   UNL     1      13.342 -54.320 -25.764  1.00  0.00     0.030 A 
ATOM     17  C   UNL     1      12.150 -54.850 -25.260  1.00  0.00     0.049 A 
ATOM     18  C   UNL     1      16.086 -49.554 -26.534  1.00  0.00     0.334 C 
ATOM     19  H   UNL     1      14.356 -50.635 -26.753  1.00  0.00     0.349 HD
ATOM     20  C   UNL     1      13.959 -50.829 -22.630  1.00  0.00     0.025 C 
ATOM     21  C   UNL     1      16.123 -53.197 -25.730  1.00  0.00     0.150 C 
ENDBRANCH   5   6
ENDBRANCH   1   5
BRANCH   2  22
ATOM     22  C   UNL     1       9.895 -58.175 -22.908  1.00  0.00     0.047 A 
ATOM     23  C   UNL     1      11.000 -58.721 -22.240  1.00  0.00     0.026 A 
ATOM     24  C   UNL     1       8.703 -58.938 -23.019  1.00  0.00    -0.025 A 
ATOM     25  C   UNL     1      10.946 -60.001 -21.686  1.00  0.00     0.002 A 
ATOM     26  C   UNL     1       8.675 -60.227 -22.451  1.00  0.00     0.006 A 
ATOM     27  C   UNL     1       9.784 -60.752 -21.791  1.00  0.00     0.000 A 
BRANCH  24  28
ATOM     28  C   UNL     1       7.484 -58.379 -23.733  1.00  0.00     0.034 C 
ATOM     29  C   UNL     1       6.125 -58.543 -23.062  1.00  0.00     0.009 C 
ENDBRANCH  24  28
ENDBRANCH   2  22
TORSDOF 4
ENDMDL
MODEL 8
REMARK VINA RESULT:   -10.315      1.964      9.101
REMARK INTER + INTRA:         -12.824
REMARK INTER:                 -12.313
REMARK INTRA:                  -0.512
REMARK UNBOUND:                -0.097
REMARK SMILES CCc1ccccc1NC(=O)Oc1ccc2c(c1)[C@]1(C)CC[N@@H+](C)[C@@H]1N2C
REMARK SMILES IDX 10 1 9 2 11 3 12 5 13 6 22 7 23 8 21 9 25 10 19 11 26 12
REMARK SMILES IDX 17 13 16 14 18 15 15 16 14 17 24 18 20 20 27 21 8 22 7 23
REMARK SMILES IDX 3 24 6 25 4 26 5 27 2 28 1 29
REMARK H PARENT 9 4 23 19
ROOT
ATOM      1  C   UNL     1      10.481 -56.849 -23.130  1.00  0.00     0.417 C 
ATOM      2  N   UNL     1       9.847 -57.963 -23.614  1.00  0.00    -0.291 N 
ATOM      3  O   UNL     1      11.393 -56.794 -22.317  1.00  0.00    -0.224 OA
ATOM      4  H   UNL     1       9.123 -57.747 -24.283  1.00  0.00     0.173 HD
ENDROOT
BRANCH   1   5
ATOM      5  O   UNL     1       9.907 -55.731 -23.737  1.00  0.00    -0.410 OA
BRANCH   5   6
ATOM      6  C   UNL     1      10.728 -54.598 -23.824  1.00  0.00     0.133 A 
ATOM      7  C   UNL     1      10.820 -48.952 -22.860  1.00  0.00     0.265 C 
ATOM      8  N   UNL     1      12.100 -49.245 -23.567  1.00  0.00    -0.317 N 
ATOM      9  C   UNL     1      10.247 -50.319 -22.565  1.00  0.00     0.081 C 
ATOM     10  C   UNL     1      12.677 -50.457 -22.937  1.00  0.00     0.296 C 
ATOM     11  C   UNL     1      11.475 -51.190 -22.275  1.00  0.00     0.072 C 
ATOM     12  N   UNL     1      13.155 -51.202 -24.093  1.00  0.00    -0.325 N 
ATOM     13  C   UNL     1      11.448 -52.461 -23.066  1.00  0.00    -0.007 A 
ATOM     14  C   UNL     1      12.416 -52.414 -24.074  1.00  0.00     0.045 A 
ATOM     15  C   UNL     1      10.604 -53.552 -22.912  1.00  0.00     0.054 A 
ATOM     16  C   UNL     1      12.549 -53.477 -24.959  1.00  0.00     0.030 A 
ATOM     17  C   UNL     1      11.701 -54.582 -24.828  1.00  0.00     0.049 A 
ATOM     18  C   UNL     1      13.016 -48.088 -23.709  1.00  0.00     0.334 C 
ATOM     19  H   UNL     1      11.898 -49.609 -24.509  1.00  0.00     0.349 HD
ATOM     20  C   UNL     1      11.702 -51.420 -20.783  1.00  0.00     0.025 C 
ATOM     21  C   UNL     1      14.599 -51.433 -24.176  1.00  0.00     0.150 C 
ENDBRANCH   5   6
ENDBRANCH   1   5
BRANCH   2  22
ATOM     22  C   UNL     1      10.073 -59.321 -23.302  1.00  0.00     0.047 A 
ATOM     23  C   UNL     1       9.637 -59.883 -22.094  1.00  0.00     0.026 A 
ATOM     24  C   UNL     1      10.760 -60.136 -24.241  1.00  0.00    -0.025 A 
ATOM     25  C   UNL     1       9.869 -61.228 -21.800  1.00  0.00     0.002 A 
ATOM     26  C   UNL     1      10.981 -61.490 -23.919  1.00  0.00     0.006 A 
ATOM     27  C   UNL     1      10.540 -62.030 -22.711  1.00  0.00     0.000 A 
BRANCH  24  28
ATOM     28  C   UNL     1      11.246 -59.564 -25.561  1.00  0.00     0.034 C 
ATOM     29  C   UNL     1      12.540 -60.120 -26.147  1.00  0.00     0.009 C 
ENDBRANCH  24  28
ENDBRANCH   2  22
TORSDOF 4
ENDMDL
MODEL 9
REMARK VINA RESULT:   -10.293      2.590      9.256
REMARK INTER + INTRA:         -12.797
REMARK INTER:                 -12.417
REMARK INTRA:                  -0.381
REMARK UNBOUND:                -0.097
REMARK SMILES CCc1ccccc1NC(=O)Oc1ccc2c(c1)[C@]1(C)CC[N@@H+](C)[C@@H]1N2C
REMARK SMILES IDX 10 1 9 2 11 3 12 5 13 6 22 7 23 8 21 9 25 10 19 11 26 12
REMARK SMILES IDX 17 13 16 14 18 15 15 16 14 17 24 18 20 20 27 21 8 22 7 23
REMARK SMILES IDX 3 24 6 25 4 26 5 27 2 28 1 29
REMARK H PARENT 9 4 23 19
ROOT
ATOM      1  C   UNL     1      10.561 -55.384 -22.929  1.00  0.00     0.417 C 
ATOM      2  N   UNL     1      11.370 -56.435 -22.585  1.00  0.00    -0.291 N 
ATOM      3  O   UNL     1       9.909 -55.238 -23.954  1.00  0.00    -0.224 OA
ATOM      4  H   UNL     1      11.800 -56.324 -21.680  1.00  0.00     0.173 HD
ENDROOT
BRANCH   1   5
ATOM      5  O   UNL     1      10.588 -54.462 -21.881  1.00  0.00    -0.410 OA
BRANCH   5   6
ATOM      6  C   UNL     1      11.010 -53.169 -22.220  1.00  0.00     0.133 A 
ATOM      7  C   UNL     1      15.612 -50.151 -23.813  1.00  0.00     0.265 C 
ATOM      8  N   UNL     1      14.548 -49.135 -23.568  1.00  0.00    -0.317 N 
ATOM      9  C   UNL     1      14.880 -51.470 -23.726  1.00  0.00     0.081 C 
ATOM     10  C   UNL     1      13.310 -49.637 -24.213  1.00  0.00     0.296 C 
ATOM     11  C   UNL     1      13.498 -51.178 -24.322  1.00  0.00     0.072 C 
ATOM     12  N   UNL     1      12.298 -49.316 -23.217  1.00  0.00    -0.325 N 
ATOM     13  C   UNL     1      12.399 -51.662 -23.428  1.00  0.00    -0.007 A 
ATOM     14  C   UNL     1      11.755 -50.571 -22.834  1.00  0.00     0.045 A 
ATOM     15  C   UNL     1      12.031 -52.969 -23.148  1.00  0.00     0.054 A 
ATOM     16  C   UNL     1      10.718 -50.783 -21.933  1.00  0.00     0.030 A 
ATOM     17  C   UNL     1      10.339 -52.094 -21.628  1.00  0.00     0.049 A 
ATOM     18  C   UNL     1      14.928 -47.739 -23.892  1.00  0.00     0.334 C 
ATOM     19  H   UNL     1      14.262 -49.166 -22.579  1.00  0.00     0.349 HD
ATOM     20  C   UNL     1      13.355 -51.666 -25.761  1.00  0.00     0.025 C 
ATOM     21  C   UNL     1      11.260 -48.362 -23.617  1.00  0.00     0.150 C 
ENDBRANCH   5   6
ENDBRANCH   1   5
BRANCH   2  22
ATOM     22  C   UNL     1      11.663 -57.607 -23.317  1.00  0.00     0.047 A 
ATOM     23  C   UNL     1      12.115 -57.555 -24.643  1.00  0.00     0.026 A 
ATOM     24  C   UNL     1      11.497 -58.869 -22.687  1.00  0.00    -0.025 A 
ATOM     25  C   UNL     1      12.401 -58.722 -25.353  1.00  0.00     0.002 A 
ATOM     26  C   UNL     1      11.793 -60.032 -23.426  1.00  0.00     0.006 A 
ATOM     27  C   UNL     1      12.240 -59.959 -24.744  1.00  0.00     0.000 A 
BRANCH  24  28
ATOM     28  C   UNL     1      11.013 -58.965 -21.251  1.00  0.00     0.034 C 
ATOM     29  C   UNL     1      10.182 -60.183 -20.858  1.00  0.00     0.009 C 
ENDBRANCH  24  28
ENDBRANCH   2  22
TORSDOF 4
ENDMDL
