MODEL 1
REMARK VINA RESULT:    -9.053      0.000      0.000
REMARK INTER + INTRA:         -13.604
REMARK INTER:                 -12.493
REMARK INTRA:                  -1.110
REMARK UNBOUND:                -1.110
REMARK SMILES COc1cccc([C@H]2C=C(c3cc(F)cc(F)c3)NN2c2ccc(S(N)(=O)=O)cc2)c1OC
REMARK SMILES IDX 21 1 22 2 23 3 24 4 29 5 30 6 20 7 19 8 10 9 9 10 8 11 11 13
REMARK SMILES IDX 12 14 18 15 13 16 16 17 15 18 14 19 17 20 7 21 6 22 31 23
REMARK SMILES IDX 5 24 3 25 4 26 32 27 33 28 2 29 1 30 25 31 27 32 28 33 26 34
REMARK H PARENT 19 12 26 35 26 36
ROOT
ATOM      1  C   UNL     1      12.614 -48.173 -24.427  1.00  0.00     0.058 A 
ATOM      2  C   UNL     1      13.541 -47.301 -25.014  1.00  0.00     0.029 A 
ATOM      3  C   UNL     1      13.340 -45.914 -25.031  1.00  0.00     0.024 A 
ATOM      4  C   UNL     1      12.188 -45.377 -24.459  1.00  0.00     0.082 A 
ATOM      5  C   UNL     1      11.251 -46.212 -23.855  1.00  0.00     0.024 A 
ATOM      6  C   UNL     1      11.467 -47.594 -23.849  1.00  0.00     0.029 A 
ENDROOT
BRANCH   1   7
ATOM      7  N   UNL     1      12.787 -49.554 -24.398  1.00  0.00    -0.276 N 
ATOM      8  N   UNL     1      12.131 -50.414 -23.527  1.00  0.00    -0.297 N 
ATOM      9  C   UNL     1      12.353 -51.731 -23.907  1.00  0.00     0.060 C 
ATOM     10  C   UNL     1      13.183 -51.774 -24.963  1.00  0.00     0.033 C 
ATOM     11  C   UNL     1      13.551 -50.364 -25.390  1.00  0.00     0.165 C 
ATOM     12  H   UNL     1      11.149 -50.208 -23.353  1.00  0.00     0.188 HD
BRANCH   9  13
ATOM     13  C   UNL     1      11.738 -52.867 -23.222  1.00  0.00     0.005 A 
ATOM     14  C   UNL     1      11.325 -52.776 -21.886  1.00  0.00     0.049 A 
ATOM     15  C   UNL     1      11.568 -54.088 -23.891  1.00  0.00     0.049 A 
ATOM     16  C   UNL     1      10.750 -53.877 -21.253  1.00  0.00     0.126 A 
ATOM     17  C   UNL     1      10.993 -55.175 -23.237  1.00  0.00     0.126 A 
ATOM     18  C   UNL     1      10.578 -55.082 -21.917  1.00  0.00     0.078 A 
ATOM     19  F   UNL     1      10.355 -53.767 -19.978  1.00  0.00    -0.207 F 
ATOM     20  F   UNL     1      10.839 -56.332 -23.895  1.00  0.00    -0.207 F 
ENDBRANCH   9  13
BRANCH  11  21
ATOM     21  C   UNL     1      15.048 -50.108 -25.413  1.00  0.00     0.026 A 
ATOM     22  C   UNL     1      15.738 -50.090 -24.182  1.00  0.00     0.010 A 
ATOM     23  C   UNL     1      15.794 -49.878 -26.587  1.00  0.00     0.166 A 
ATOM     24  C   UNL     1      17.116 -49.868 -24.121  1.00  0.00     0.004 A 
ATOM     25  C   UNL     1      17.169 -49.597 -26.514  1.00  0.00     0.161 A 
ATOM     26  C   UNL     1      17.831 -49.629 -25.288  1.00  0.00     0.050 A 
BRANCH  23  27
ATOM     27  O   UNL     1      15.153 -49.873 -27.799  1.00  0.00    -0.492 OA
ATOM     28  C   UNL     1      14.951 -48.533 -28.254  1.00  0.00     0.278 C 
ENDBRANCH  23  27
BRANCH  25  29
ATOM     29  O   UNL     1      17.946 -49.318 -27.609  1.00  0.00    -0.493 OA
ATOM     30  C   UNL     1      19.028 -50.241 -27.736  1.00  0.00     0.278 C 
ENDBRANCH  25  29
ENDBRANCH  11  21
ENDBRANCH   1   7
BRANCH   4  31
ATOM     31  S   UNL     1      11.944 -43.627 -24.445  1.00  0.00     0.238 S 
ATOM     32  O   UNL     1      12.432 -43.088 -23.197  1.00  0.00    -0.207 OA
ATOM     33  O   UNL     1      12.323 -43.081 -25.727  1.00  0.00    -0.207 OA
BRANCH  31  34
ATOM     34  N   UNL     1      10.270 -43.511 -24.374  1.00  0.00    -0.225 NA
ATOM     35  H   UNL     1       9.887 -43.498 -25.319  1.00  0.00     0.137 HD
ATOM     36  H   UNL     1      10.006 -42.703 -23.812  1.00  0.00     0.137 HD
ENDBRANCH  31  34
ENDBRANCH   4  31
TORSDOF 7
ENDMDL
MODEL 2
REMARK VINA RESULT:    -8.682      3.857      5.986
REMARK INTER + INTRA:         -13.091
REMARK INTER:                 -11.635
REMARK INTRA:                  -1.456
REMARK UNBOUND:                -1.110
REMARK SMILES COc1cccc([C@H]2C=C(c3cc(F)cc(F)c3)NN2c2ccc(S(N)(=O)=O)cc2)c1OC
REMARK SMILES IDX 21 1 22 2 23 3 24 4 29 5 30 6 20 7 19 8 10 9 9 10 8 11 11 13
REMARK SMILES IDX 12 14 18 15 13 16 16 17 15 18 14 19 17 20 7 21 6 22 31 23
REMARK SMILES IDX 5 24 3 25 4 26 32 27 33 28 2 29 1 30 25 31 27 32 28 33 26 34
REMARK H PARENT 19 12 26 35 26 36
ROOT
ATOM      1  C   UNL     1      14.581 -47.759 -21.221  1.00  0.00     0.058 A 
ATOM      2  C   UNL     1      15.971 -47.798 -21.401  1.00  0.00     0.029 A 
ATOM      3  C   UNL     1      16.847 -47.141 -20.527  1.00  0.00     0.024 A 
ATOM      4  C   UNL     1      16.334 -46.419 -19.451  1.00  0.00     0.082 A 
ATOM      5  C   UNL     1      14.959 -46.368 -19.232  1.00  0.00     0.024 A 
ATOM      6  C   UNL     1      14.100 -47.029 -20.116  1.00  0.00     0.029 A 
ENDROOT
BRANCH   1   7
ATOM      7  N   UNL     1      13.688 -48.401 -22.075  1.00  0.00    -0.276 N 
ATOM      8  N   UNL     1      13.722 -49.755 -22.379  1.00  0.00    -0.297 N 
ATOM      9  C   UNL     1      12.572 -50.113 -23.069  1.00  0.00     0.060 C 
ATOM     10  C   UNL     1      11.806 -49.031 -23.284  1.00  0.00     0.033 C 
ATOM     11  C   UNL     1      12.452 -47.807 -22.661  1.00  0.00     0.165 C 
ATOM     12  H   UNL     1      13.935 -50.380 -21.604  1.00  0.00     0.188 HD
BRANCH   9  13
ATOM     13  C   UNL     1      12.286 -51.490 -23.471  1.00  0.00     0.005 A 
ATOM     14  C   UNL     1      12.874 -52.054 -24.611  1.00  0.00     0.049 A 
ATOM     15  C   UNL     1      11.393 -52.273 -22.725  1.00  0.00     0.049 A 
ATOM     16  C   UNL     1      12.576 -53.365 -24.978  1.00  0.00     0.126 A 
ATOM     17  C   UNL     1      11.110 -53.580 -23.112  1.00  0.00     0.126 A 
ATOM     18  C   UNL     1      11.697 -54.139 -24.237  1.00  0.00     0.078 A 
ATOM     19  F   UNL     1      13.155 -53.888 -26.067  1.00  0.00    -0.207 F 
ATOM     20  F   UNL     1      10.254 -54.310 -22.385  1.00  0.00    -0.207 F 
ENDBRANCH   9  13
BRANCH  11  21
ATOM     21  C   UNL     1      12.689 -46.676 -23.648  1.00  0.00     0.026 A 
ATOM     22  C   UNL     1      13.365 -46.974 -24.851  1.00  0.00     0.010 A 
ATOM     23  C   UNL     1      12.283 -45.343 -23.436  1.00  0.00     0.166 A 
ATOM     24  C   UNL     1      13.613 -45.990 -25.811  1.00  0.00     0.004 A 
ATOM     25  C   UNL     1      12.589 -44.346 -24.378  1.00  0.00     0.161 A 
ATOM     26  C   UNL     1      13.218 -44.679 -25.576  1.00  0.00     0.050 A 
BRANCH  23  27
ATOM     27  O   UNL     1      11.638 -45.015 -22.271  1.00  0.00    -0.492 OA
ATOM     28  C   UNL     1      10.229 -45.208 -22.406  1.00  0.00     0.278 C 
ENDBRANCH  23  27
BRANCH  25  29
ATOM     29  O   UNL     1      12.267 -43.023 -24.216  1.00  0.00    -0.493 OA
ATOM     30  C   UNL     1      11.394 -42.563 -25.249  1.00  0.00     0.278 C 
ENDBRANCH  25  29
ENDBRANCH  11  21
ENDBRANCH   1   7
BRANCH   4  31
ATOM     31  S   UNL     1      17.433 -45.616 -18.324  1.00  0.00     0.238 S 
ATOM     32  O   UNL     1      18.672 -46.355 -18.259  1.00  0.00    -0.207 OA
ATOM     33  O   UNL     1      17.390 -44.190 -18.548  1.00  0.00    -0.207 OA
BRANCH  31  34
ATOM     34  N   UNL     1      16.666 -45.871 -16.851  1.00  0.00    -0.225 NA
ATOM     35  H   UNL     1      15.674 -46.046 -17.007  1.00  0.00     0.137 HD
ATOM     36  H   UNL     1      16.853 -45.087 -16.227  1.00  0.00     0.137 HD
ENDBRANCH  31  34
ENDBRANCH   4  31
TORSDOF 7
ENDMDL
MODEL 3
REMARK VINA RESULT:    -8.676      2.644      5.456
REMARK INTER + INTRA:         -13.083
REMARK INTER:                 -12.064
REMARK INTRA:                  -1.020
REMARK UNBOUND:                -1.110
REMARK SMILES COc1cccc([C@H]2C=C(c3cc(F)cc(F)c3)NN2c2ccc(S(N)(=O)=O)cc2)c1OC
REMARK SMILES IDX 21 1 22 2 23 3 24 4 29 5 30 6 20 7 19 8 10 9 9 10 8 11 11 13
REMARK SMILES IDX 12 14 18 15 13 16 16 17 15 18 14 19 17 20 7 21 6 22 31 23
REMARK SMILES IDX 5 24 3 25 4 26 32 27 33 28 2 29 1 30 25 31 27 32 28 33 26 34
REMARK H PARENT 19 12 26 35 26 36
ROOT
ATOM      1  C   UNL     1      14.033 -48.942 -25.925  1.00  0.00     0.058 A 
ATOM      2  C   UNL     1      14.414 -49.743 -27.011  1.00  0.00     0.029 A 
ATOM      3  C   UNL     1      15.076 -49.210 -28.125  1.00  0.00     0.024 A 
ATOM      4  C   UNL     1      15.364 -47.847 -28.168  1.00  0.00     0.082 A 
ATOM      5  C   UNL     1      15.013 -47.022 -27.103  1.00  0.00     0.024 A 
ATOM      6  C   UNL     1      14.350 -47.571 -26.000  1.00  0.00     0.029 A 
ENDROOT
BRANCH   1   7
ATOM      7  N   UNL     1      13.372 -49.444 -24.808  1.00  0.00    -0.276 N 
ATOM      8  N   UNL     1      12.799 -50.707 -24.732  1.00  0.00    -0.297 N 
ATOM      9  C   UNL     1      12.426 -50.978 -23.422  1.00  0.00     0.060 C 
ATOM     10  C   UNL     1      12.678 -49.915 -22.640  1.00  0.00     0.033 C 
ATOM     11  C   UNL     1      13.318 -48.809 -23.460  1.00  0.00     0.165 C 
ATOM     12  H   UNL     1      13.328 -51.463 -25.162  1.00  0.00     0.188 HD
BRANCH   9  13
ATOM     13  C   UNL     1      11.853 -52.259 -23.012  1.00  0.00     0.005 A 
ATOM     14  C   UNL     1      11.311 -52.439 -21.732  1.00  0.00     0.049 A 
ATOM     15  C   UNL     1      11.855 -53.349 -23.894  1.00  0.00     0.049 A 
ATOM     16  C   UNL     1      10.781 -53.674 -21.362  1.00  0.00     0.126 A 
ATOM     17  C   UNL     1      11.321 -54.574 -23.502  1.00  0.00     0.126 A 
ATOM     18  C   UNL     1      10.779 -54.749 -22.237  1.00  0.00     0.078 A 
ATOM     19  F   UNL     1      10.261 -53.823 -20.137  1.00  0.00    -0.207 F 
ATOM     20  F   UNL     1      11.331 -55.602 -24.361  1.00  0.00    -0.207 F 
ENDBRANCH   9  13
BRANCH  11  21
ATOM     21  C   UNL     1      12.562 -47.493 -23.399  1.00  0.00     0.026 A 
ATOM     22  C   UNL     1      11.381 -47.369 -24.164  1.00  0.00     0.010 A 
ATOM     23  C   UNL     1      12.968 -46.381 -22.635  1.00  0.00     0.166 A 
ATOM     24  C   UNL     1      10.627 -46.194 -24.155  1.00  0.00     0.004 A 
ATOM     25  C   UNL     1      12.237 -45.181 -22.677  1.00  0.00     0.161 A 
ATOM     26  C   UNL     1      11.052 -45.104 -23.406  1.00  0.00     0.050 A 
BRANCH  23  27
ATOM     27  O   UNL     1      14.119 -46.461 -21.893  1.00  0.00    -0.492 OA
ATOM     28  C   UNL     1      13.822 -46.831 -20.545  1.00  0.00     0.278 C 
ENDBRANCH  23  27
BRANCH  25  29
ATOM     29  O   UNL     1      12.599 -44.047 -21.997  1.00  0.00    -0.493 OA
ATOM     30  C   UNL     1      11.810 -42.923 -22.390  1.00  0.00     0.278 C 
ENDBRANCH  25  29
ENDBRANCH  11  21
ENDBRANCH   1   7
BRANCH   4  31
ATOM     31  S   UNL     1      16.231 -47.173 -29.552  1.00  0.00     0.238 S 
ATOM     32  O   UNL     1      17.217 -46.228 -29.083  1.00  0.00    -0.207 OA
ATOM     33  O   UNL     1      16.551 -48.233 -30.479  1.00  0.00    -0.207 OA
BRANCH  31  34
ATOM     34  N   UNL     1      15.035 -46.258 -30.298  1.00  0.00    -0.225 NA
ATOM     35  H   UNL     1      14.446 -45.820 -29.590  1.00  0.00     0.137 HD
ATOM     36  H   UNL     1      14.521 -46.840 -30.960  1.00  0.00     0.137 HD
ENDBRANCH  31  34
ENDBRANCH   4  31
TORSDOF 7
ENDMDL
MODEL 4
REMARK VINA RESULT:    -8.665      4.439      7.382
REMARK INTER + INTRA:         -13.068
REMARK INTER:                 -11.946
REMARK INTRA:                  -1.122
REMARK UNBOUND:                -1.110
REMARK SMILES COc1cccc([C@H]2C=C(c3cc(F)cc(F)c3)NN2c2ccc(S(N)(=O)=O)cc2)c1OC
REMARK SMILES IDX 21 1 22 2 23 3 24 4 29 5 30 6 20 7 19 8 10 9 9 10 8 11 11 13
REMARK SMILES IDX 12 14 18 15 13 16 16 17 15 18 14 19 17 20 7 21 6 22 31 23
REMARK SMILES IDX 5 24 3 25 4 26 32 27 33 28 2 29 1 30 25 31 27 32 28 33 26 34
REMARK H PARENT 19 12 26 35 26 36
ROOT
ATOM      1  C   UNL     1      12.359 -51.948 -23.435  1.00  0.00     0.058 A 
ATOM      2  C   UNL     1      11.613 -52.428 -22.349  1.00  0.00     0.029 A 
ATOM      3  C   UNL     1      11.106 -53.734 -22.323  1.00  0.00     0.024 A 
ATOM      4  C   UNL     1      11.336 -54.585 -23.403  1.00  0.00     0.082 A 
ATOM      5  C   UNL     1      12.084 -54.147 -24.493  1.00  0.00     0.024 A 
ATOM      6  C   UNL     1      12.581 -52.839 -24.503  1.00  0.00     0.029 A 
ENDROOT
BRANCH   1   7
ATOM      7  N   UNL     1      12.873 -50.655 -23.487  1.00  0.00    -0.276 N 
ATOM      8  N   UNL     1      12.150 -49.533 -23.867  1.00  0.00    -0.297 N 
ATOM      9  C   UNL     1      12.882 -48.385 -23.595  1.00  0.00     0.060 C 
ATOM     10  C   UNL     1      14.088 -48.711 -23.102  1.00  0.00     0.033 C 
ATOM     11  C   UNL     1      14.207 -50.220 -22.982  1.00  0.00     0.165 C 
ATOM     12  H   UNL     1      11.191 -49.486 -23.530  1.00  0.00     0.188 HD
BRANCH   9  13
ATOM     13  C   UNL     1      12.357 -47.039 -23.825  1.00  0.00     0.005 A 
ATOM     14  C   UNL     1      11.197 -46.589 -23.181  1.00  0.00     0.049 A 
ATOM     15  C   UNL     1      13.002 -46.173 -24.719  1.00  0.00     0.049 A 
ATOM     16  C   UNL     1      10.712 -45.305 -23.425  1.00  0.00     0.126 A 
ATOM     17  C   UNL     1      12.498 -44.895 -24.949  1.00  0.00     0.126 A 
ATOM     18  C   UNL     1      11.354 -44.448 -24.306  1.00  0.00     0.078 A 
ATOM     19  F   UNL     1       9.606 -44.892 -22.794  1.00  0.00    -0.207 F 
ATOM     20  F   UNL     1      13.130 -44.083 -25.807  1.00  0.00    -0.207 F 
ENDBRANCH   9  13
BRANCH  11  21
ATOM     21  C   UNL     1      15.397 -50.796 -23.730  1.00  0.00     0.026 A 
ATOM     22  C   UNL     1      16.258 -51.674 -23.035  1.00  0.00     0.010 A 
ATOM     23  C   UNL     1      15.705 -50.505 -25.074  1.00  0.00     0.166 A 
ATOM     24  C   UNL     1      17.368 -52.250 -23.655  1.00  0.00     0.004 A 
ATOM     25  C   UNL     1      16.856 -51.041 -25.675  1.00  0.00     0.161 A 
ATOM     26  C   UNL     1      17.662 -51.939 -24.977  1.00  0.00     0.050 A 
BRANCH  23  27
ATOM     27  O   UNL     1      14.899 -49.645 -25.775  1.00  0.00    -0.492 OA
ATOM     28  C   UNL     1      14.141 -50.354 -26.757  1.00  0.00     0.278 C 
ENDBRANCH  23  27
BRANCH  25  29
ATOM     29  O   UNL     1      17.241 -50.765 -26.962  1.00  0.00    -0.493 OA
ATOM     30  C   UNL     1      18.400 -49.931 -26.997  1.00  0.00     0.278 C 
ENDBRANCH  25  29
ENDBRANCH  11  21
ENDBRANCH   1   7
BRANCH   4  31
ATOM     31  S   UNL     1      10.730 -56.244 -23.364  1.00  0.00     0.238 S 
ATOM     32  O   UNL     1       9.287 -56.226 -23.429  1.00  0.00    -0.207 OA
ATOM     33  O   UNL     1      11.536 -57.068 -24.233  1.00  0.00    -0.207 OA
BRANCH  31  34
ATOM     34  N   UNL     1      11.114 -56.716 -21.799  1.00  0.00    -0.225 NA
ATOM     35  H   UNL     1      10.517 -56.224 -21.135  1.00  0.00     0.137 HD
ATOM     36  H   UNL     1      12.111 -56.581 -21.634  1.00  0.00     0.137 HD
ENDBRANCH  31  34
ENDBRANCH   4  31
TORSDOF 7
ENDMDL
MODEL 5
REMARK VINA RESULT:    -8.604      4.636      7.519
REMARK INTER + INTRA:         -12.984
REMARK INTER:                 -11.640
REMARK INTRA:                  -1.345
REMARK UNBOUND:                -1.110
REMARK SMILES COc1cccc([C@H]2C=C(c3cc(F)cc(F)c3)NN2c2ccc(S(N)(=O)=O)cc2)c1OC
REMARK SMILES IDX 21 1 22 2 23 3 24 4 29 5 30 6 20 7 19 8 10 9 9 10 8 11 11 13
REMARK SMILES IDX 12 14 18 15 13 16 16 17 15 18 14 19 17 20 7 21 6 22 31 23
REMARK SMILES IDX 5 24 3 25 4 26 32 27 33 28 2 29 1 30 25 31 27 32 28 33 26 34
REMARK H PARENT 19 12 26 35 26 36
ROOT
ATOM      1  C   UNL     1      12.471 -50.839 -23.140  1.00  0.00     0.058 A 
ATOM      2  C   UNL     1      11.699 -51.336 -22.080  1.00  0.00     0.029 A 
ATOM      3  C   UNL     1      11.174 -52.635 -22.096  1.00  0.00     0.024 A 
ATOM      4  C   UNL     1      11.413 -53.462 -23.192  1.00  0.00     0.082 A 
ATOM      5  C   UNL     1      12.186 -53.008 -24.257  1.00  0.00     0.024 A 
ATOM      6  C   UNL     1      12.700 -51.707 -24.226  1.00  0.00     0.029 A 
ENDROOT
BRANCH   1   7
ATOM      7  N   UNL     1      13.003 -49.553 -23.151  1.00  0.00    -0.276 N 
ATOM      8  N   UNL     1      12.249 -48.387 -23.182  1.00  0.00    -0.297 N 
ATOM      9  C   UNL     1      13.068 -47.289 -22.956  1.00  0.00     0.060 C 
ATOM     10  C   UNL     1      14.347 -47.682 -22.837  1.00  0.00     0.033 C 
ATOM     11  C   UNL     1      14.437 -49.193 -22.952  1.00  0.00     0.165 C 
ATOM     12  H   UNL     1      11.409 -48.385 -22.607  1.00  0.00     0.188 HD
BRANCH   9  13
ATOM     13  C   UNL     1      12.553 -45.923 -22.864  1.00  0.00     0.005 A 
ATOM     14  C   UNL     1      13.151 -44.974 -22.024  1.00  0.00     0.049 A 
ATOM     15  C   UNL     1      11.427 -45.541 -23.607  1.00  0.00     0.049 A 
ATOM     16  C   UNL     1      12.634 -43.682 -21.947  1.00  0.00     0.126 A 
ATOM     17  C   UNL     1      10.927 -44.245 -23.512  1.00  0.00     0.126 A 
ATOM     18  C   UNL     1      11.523 -43.304 -22.685  1.00  0.00     0.078 A 
ATOM     19  F   UNL     1      13.224 -42.787 -21.144  1.00  0.00    -0.207 F 
ATOM     20  F   UNL     1       9.851 -43.900 -24.231  1.00  0.00    -0.207 F 
ENDBRANCH   9  13
BRANCH  11  21
ATOM     21  C   UNL     1      15.376 -49.665 -24.050  1.00  0.00     0.026 A 
ATOM     22  C   UNL     1      15.366 -48.968 -25.277  1.00  0.00     0.010 A 
ATOM     23  C   UNL     1      16.252 -50.761 -23.925  1.00  0.00     0.166 A 
ATOM     24  C   UNL     1      16.205 -49.335 -26.332  1.00  0.00     0.004 A 
ATOM     25  C   UNL     1      17.051 -51.163 -25.009  1.00  0.00     0.161 A 
ATOM     26  C   UNL     1      17.052 -50.429 -26.193  1.00  0.00     0.050 A 
BRANCH  23  27
ATOM     27  O   UNL     1      16.276 -51.471 -22.752  1.00  0.00    -0.492 OA
ATOM     28  C   UNL     1      17.355 -51.033 -21.922  1.00  0.00     0.278 C 
ENDBRANCH  23  27
BRANCH  25  29
ATOM     29  O   UNL     1      17.891 -52.247 -24.974  1.00  0.00    -0.493 OA
ATOM     30  C   UNL     1      18.935 -52.135 -25.942  1.00  0.00     0.278 C 
ENDBRANCH  25  29
ENDBRANCH  11  21
ENDBRANCH   1   7
BRANCH   4  31
ATOM     31  S   UNL     1      10.784 -55.113 -23.205  1.00  0.00     0.238 S 
ATOM     32  O   UNL     1      11.035 -55.728 -21.922  1.00  0.00    -0.207 OA
ATOM     33  O   UNL     1       9.482 -55.124 -23.830  1.00  0.00    -0.207 OA
BRANCH  31  34
ATOM     34  N   UNL     1      11.819 -55.870 -24.289  1.00  0.00    -0.225 NA
ATOM     35  H   UNL     1      12.601 -55.251 -24.507  1.00  0.00     0.137 HD
ATOM     36  H   UNL     1      11.295 -56.174 -25.109  1.00  0.00     0.137 HD
ENDBRANCH  31  34
ENDBRANCH   4  31
TORSDOF 7
ENDMDL
MODEL 6
REMARK VINA RESULT:    -8.546      4.826      7.678
REMARK INTER + INTRA:         -12.903
REMARK INTER:                 -11.601
REMARK INTRA:                  -1.302
REMARK UNBOUND:                -1.110
REMARK SMILES COc1cccc([C@H]2C=C(c3cc(F)cc(F)c3)NN2c2ccc(S(N)(=O)=O)cc2)c1OC
REMARK SMILES IDX 21 1 22 2 23 3 24 4 29 5 30 6 20 7 19 8 10 9 9 10 8 11 11 13
REMARK SMILES IDX 12 14 18 15 13 16 16 17 15 18 14 19 17 20 7 21 6 22 31 23
REMARK SMILES IDX 5 24 3 25 4 26 32 27 33 28 2 29 1 30 25 31 27 32 28 33 26 34
REMARK H PARENT 19 12 26 35 26 36
ROOT
ATOM      1  C   UNL     1      13.264 -51.085 -24.538  1.00  0.00     0.058 A 
ATOM      2  C   UNL     1      12.975 -52.420 -24.855  1.00  0.00     0.029 A 
ATOM      3  C   UNL     1      12.026 -53.160 -24.137  1.00  0.00     0.024 A 
ATOM      4  C   UNL     1      11.351 -52.566 -23.072  1.00  0.00     0.082 A 
ATOM      5  C   UNL     1      11.602 -51.238 -22.736  1.00  0.00     0.024 A 
ATOM      6  C   UNL     1      12.555 -50.515 -23.463  1.00  0.00     0.029 A 
ENDROOT
BRANCH   1   7
ATOM      7  N   UNL     1      14.203 -50.328 -25.233  1.00  0.00    -0.276 N 
ATOM      8  N   UNL     1      14.452 -50.435 -26.595  1.00  0.00    -0.297 N 
ATOM      9  C   UNL     1      15.272 -49.395 -27.009  1.00  0.00     0.060 C 
ATOM     10  C   UNL     1      15.623 -48.636 -25.957  1.00  0.00     0.033 C 
ATOM     11  C   UNL     1      14.965 -49.165 -24.695  1.00  0.00     0.165 C 
ATOM     12  H   UNL     1      13.634 -50.561 -27.188  1.00  0.00     0.188 HD
BRANCH   9  13
ATOM     13  C   UNL     1      15.658 -49.198 -28.406  1.00  0.00     0.005 A 
ATOM     14  C   UNL     1      14.766 -48.650 -29.338  1.00  0.00     0.049 A 
ATOM     15  C   UNL     1      16.933 -49.578 -28.846  1.00  0.00     0.049 A 
ATOM     16  C   UNL     1      15.156 -48.484 -30.666  1.00  0.00     0.126 A 
ATOM     17  C   UNL     1      17.299 -49.404 -30.179  1.00  0.00     0.126 A 
ATOM     18  C   UNL     1      16.419 -48.855 -31.099  1.00  0.00     0.078 A 
ATOM     19  F   UNL     1      14.292 -47.951 -31.540  1.00  0.00    -0.207 F 
ATOM     20  F   UNL     1      18.523 -49.773 -30.579  1.00  0.00    -0.207 F 
ENDBRANCH   9  13
BRANCH  11  21
ATOM     21  C   UNL     1      15.953 -49.499 -23.590  1.00  0.00     0.026 A 
ATOM     22  C   UNL     1      16.672 -50.710 -23.686  1.00  0.00     0.010 A 
ATOM     23  C   UNL     1      16.192 -48.682 -22.467  1.00  0.00     0.166 A 
ATOM     24  C   UNL     1      17.603 -51.085 -22.714  1.00  0.00     0.004 A 
ATOM     25  C   UNL     1      17.085 -49.092 -21.463  1.00  0.00     0.161 A 
ATOM     26  C   UNL     1      17.813 -50.271 -21.607  1.00  0.00     0.050 A 
BRANCH  23  27
ATOM     27  O   UNL     1      15.499 -47.506 -22.334  1.00  0.00    -0.492 OA
ATOM     28  C   UNL     1      14.301 -47.712 -21.582  1.00  0.00     0.278 C 
ENDBRANCH  23  27
BRANCH  25  29
ATOM     29  O   UNL     1      17.331 -48.370 -20.323  1.00  0.00    -0.493 OA
ATOM     30  C   UNL     1      18.405 -48.930 -19.566  1.00  0.00     0.278 C 
ENDBRANCH  25  29
ENDBRANCH  11  21
ENDBRANCH   1   7
BRANCH   4  31
ATOM     31  S   UNL     1      10.128 -53.480 -22.184  1.00  0.00     0.238 S 
ATOM     32  O   UNL     1       9.775 -54.661 -22.937  1.00  0.00    -0.207 OA
ATOM     33  O   UNL     1      10.489 -53.530 -20.786  1.00  0.00    -0.207 OA
BRANCH  31  34
ATOM     34  N   UNL     1       8.797 -52.460 -22.276  1.00  0.00    -0.225 NA
ATOM     35  H   UNL     1       7.939 -53.008 -22.211  1.00  0.00     0.137 HD
ATOM     36  H   UNL     1       8.859 -51.892 -23.120  1.00  0.00     0.137 HD
ENDBRANCH  31  34
ENDBRANCH   4  31
TORSDOF 7
ENDMDL
MODEL 7
REMARK VINA RESULT:    -8.495      4.554      7.431
REMARK INTER + INTRA:         -12.833
REMARK INTER:                 -11.723
REMARK INTRA:                  -1.110
REMARK UNBOUND:                -1.110
REMARK SMILES COc1cccc([C@H]2C=C(c3cc(F)cc(F)c3)NN2c2ccc(S(N)(=O)=O)cc2)c1OC
REMARK SMILES IDX 21 1 22 2 23 3 24 4 29 5 30 6 20 7 19 8 10 9 9 10 8 11 11 13
REMARK SMILES IDX 12 14 18 15 13 16 16 17 15 18 14 19 17 20 7 21 6 22 31 23
REMARK SMILES IDX 5 24 3 25 4 26 32 27 33 28 2 29 1 30 25 31 27 32 28 33 26 34
REMARK H PARENT 19 12 26 35 26 36
ROOT
ATOM      1  C   UNL     1      12.457 -50.770 -23.094  1.00  0.00     0.058 A 
ATOM      2  C   UNL     1      11.668 -50.926 -21.945  1.00  0.00     0.029 A 
ATOM      3  C   UNL     1      10.989 -52.122 -21.673  1.00  0.00     0.024 A 
ATOM      4  C   UNL     1      11.087 -53.188 -22.565  1.00  0.00     0.082 A 
ATOM      5  C   UNL     1      11.872 -53.074 -23.710  1.00  0.00     0.024 A 
ATOM      6  C   UNL     1      12.541 -51.872 -23.967  1.00  0.00     0.029 A 
ENDROOT
BRANCH   1   7
ATOM      7  N   UNL     1      13.140 -49.593 -23.389  1.00  0.00    -0.276 N 
ATOM      8  N   UNL     1      12.559 -48.463 -23.949  1.00  0.00    -0.297 N 
ATOM      9  C   UNL     1      13.453 -47.402 -23.903  1.00  0.00     0.060 C 
ATOM     10  C   UNL     1      14.625 -47.806 -23.387  1.00  0.00     0.033 C 
ATOM     11  C   UNL     1      14.543 -49.271 -23.000  1.00  0.00     0.165 C 
ATOM     12  H   UNL     1      11.633 -48.221 -23.604  1.00  0.00     0.188 HD
BRANCH   9  13
ATOM     13  C   UNL     1      13.107 -46.056 -24.359  1.00  0.00     0.005 A 
ATOM     14  C   UNL     1      13.956 -45.334 -25.209  1.00  0.00     0.049 A 
ATOM     15  C   UNL     1      11.917 -45.449 -23.932  1.00  0.00     0.049 A 
ATOM     16  C   UNL     1      13.607 -44.048 -25.620  1.00  0.00     0.126 A 
ATOM     17  C   UNL     1      11.591 -44.163 -24.355  1.00  0.00     0.126 A 
ATOM     18  C   UNL     1      12.428 -43.452 -25.201  1.00  0.00     0.078 A 
ATOM     19  F   UNL     1      14.428 -43.377 -26.439  1.00  0.00    -0.207 F 
ATOM     20  F   UNL     1      10.449 -43.602 -23.935  1.00  0.00    -0.207 F 
ENDBRANCH   9  13
BRANCH  11  21
ATOM     21  C   UNL     1      15.606 -50.134 -23.659  1.00  0.00     0.026 A 
ATOM     22  C   UNL     1      16.405 -50.953 -22.831  1.00  0.00     0.010 A 
ATOM     23  C   UNL     1      15.854 -50.165 -25.046  1.00  0.00     0.166 A 
ATOM     24  C   UNL     1      17.398 -51.779 -23.361  1.00  0.00     0.004 A 
ATOM     25  C   UNL     1      16.893 -50.953 -25.568  1.00  0.00     0.161 A 
ATOM     26  C   UNL     1      17.636 -51.784 -24.731  1.00  0.00     0.050 A 
BRANCH  23  27
ATOM     27  O   UNL     1      15.108 -49.370 -25.878  1.00  0.00    -0.492 OA
ATOM     28  C   UNL     1      14.204 -50.164 -26.651  1.00  0.00     0.278 C 
ENDBRANCH  23  27
BRANCH  25  29
ATOM     29  O   UNL     1      17.221 -50.996 -26.899  1.00  0.00    -0.493 OA
ATOM     30  C   UNL     1      18.401 -50.240 -27.176  1.00  0.00     0.278 C 
ENDBRANCH  25  29
ENDBRANCH  11  21
ENDBRANCH   1   7
BRANCH   4  31
ATOM     31  S   UNL     1      10.264 -54.711 -22.213  1.00  0.00     0.238 S 
ATOM     32  O   UNL     1      11.212 -55.649 -21.661  1.00  0.00    -0.207 OA
ATOM     33  O   UNL     1       8.992 -54.433 -21.586  1.00  0.00    -0.207 OA
BRANCH  31  34
ATOM     34  N   UNL     1       9.901 -55.273 -23.753  1.00  0.00    -0.225 NA
ATOM     35  H   UNL     1       9.675 -56.267 -23.711  1.00  0.00     0.137 HD
ATOM     36  H   UNL     1      10.667 -55.052 -24.389  1.00  0.00     0.137 HD
ENDBRANCH  31  34
ENDBRANCH   4  31
TORSDOF 7
ENDMDL
MODEL 8
REMARK VINA RESULT:    -8.001      3.645      4.900
REMARK INTER + INTRA:         -12.152
REMARK INTER:                 -10.949
REMARK INTRA:                  -1.203
REMARK UNBOUND:                -1.110
REMARK SMILES COc1cccc([C@H]2C=C(c3cc(F)cc(F)c3)NN2c2ccc(S(N)(=O)=O)cc2)c1OC
REMARK SMILES IDX 21 1 22 2 23 3 24 4 29 5 30 6 20 7 19 8 10 9 9 10 8 11 11 13
REMARK SMILES IDX 12 14 18 15 13 16 16 17 15 18 14 19 17 20 7 21 6 22 31 23
REMARK SMILES IDX 5 24 3 25 4 26 32 27 33 28 2 29 1 30 25 31 27 32 28 33 26 34
REMARK H PARENT 19 12 26 35 26 36
ROOT
ATOM      1  C   UNL     1      14.734 -48.062 -21.621  1.00  0.00     0.058 A 
ATOM      2  C   UNL     1      16.123 -48.114 -21.808  1.00  0.00     0.029 A 
ATOM      3  C   UNL     1      17.007 -47.426 -20.966  1.00  0.00     0.024 A 
ATOM      4  C   UNL     1      16.503 -46.659 -19.917  1.00  0.00     0.082 A 
ATOM      5  C   UNL     1      15.130 -46.593 -19.693  1.00  0.00     0.024 A 
ATOM      6  C   UNL     1      14.263 -47.285 -20.544  1.00  0.00     0.029 A 
ENDROOT
BRANCH   1   7
ATOM      7  N   UNL     1      13.834 -48.734 -22.443  1.00  0.00    -0.276 N 
ATOM      8  N   UNL     1      13.717 -50.115 -22.523  1.00  0.00    -0.297 N 
ATOM      9  C   UNL     1      12.586 -50.452 -23.254  1.00  0.00     0.060 C 
ATOM     10  C   UNL     1      11.984 -49.342 -23.711  1.00  0.00     0.033 C 
ATOM     11  C   UNL     1      12.732 -48.112 -23.233  1.00  0.00     0.165 C 
ATOM     12  H   UNL     1      13.789 -50.620 -21.641  1.00  0.00     0.188 HD
BRANCH   9  13
ATOM     13  C   UNL     1      12.158 -51.836 -23.456  1.00  0.00     0.005 A 
ATOM     14  C   UNL     1      12.571 -52.571 -24.575  1.00  0.00     0.049 A 
ATOM     15  C   UNL     1      11.299 -52.451 -22.534  1.00  0.00     0.049 A 
ATOM     16  C   UNL     1      12.139 -53.885 -24.749  1.00  0.00     0.126 A 
ATOM     17  C   UNL     1      10.880 -53.765 -22.730  1.00  0.00     0.126 A 
ATOM     18  C   UNL     1      11.295 -54.494 -23.834  1.00  0.00     0.078 A 
ATOM     19  F   UNL     1      12.552 -54.573 -25.822  1.00  0.00    -0.207 F 
ATOM     20  F   UNL     1      10.060 -54.334 -21.837  1.00  0.00    -0.207 F 
ENDBRANCH   9  13
BRANCH  11  21
ATOM     21  C   UNL     1      13.185 -47.199 -24.360  1.00  0.00     0.026 A 
ATOM     22  C   UNL     1      12.557 -45.942 -24.491  1.00  0.00     0.010 A 
ATOM     23  C   UNL     1      14.189 -47.531 -25.292  1.00  0.00     0.166 A 
ATOM     24  C   UNL     1      12.922 -45.045 -25.496  1.00  0.00     0.004 A 
ATOM     25  C   UNL     1      14.512 -46.649 -26.337  1.00  0.00     0.161 A 
ATOM     26  C   UNL     1      13.905 -45.396 -26.414  1.00  0.00     0.050 A 
BRANCH  23  27
ATOM     27  O   UNL     1      14.810 -48.750 -25.204  1.00  0.00    -0.492 OA
ATOM     28  C   UNL     1      14.391 -49.604 -26.271  1.00  0.00     0.278 C 
ENDBRANCH  23  27
BRANCH  25  29
ATOM     29  O   UNL     1      15.443 -46.925 -27.305  1.00  0.00    -0.493 OA
ATOM     30  C   UNL     1      15.014 -46.478 -28.592  1.00  0.00     0.278 C 
ENDBRANCH  25  29
ENDBRANCH  11  21
ENDBRANCH   1   7
BRANCH   4  31
ATOM     31  S   UNL     1      17.612 -45.816 -18.830  1.00  0.00     0.238 S 
ATOM     32  O   UNL     1      18.957 -45.918 -19.347  1.00  0.00    -0.207 OA
ATOM     33  O   UNL     1      17.027 -44.557 -18.432  1.00  0.00    -0.207 OA
BRANCH  31  34
ATOM     34  N   UNL     1      17.568 -46.793 -17.464  1.00  0.00    -0.225 NA
ATOM     35  H   UNL     1      16.835 -47.494 -17.567  1.00  0.00     0.137 HD
ATOM     36  H   UNL     1      17.470 -46.213 -16.631  1.00  0.00     0.137 HD
ENDBRANCH  31  34
ENDBRANCH   4  31
TORSDOF 7
ENDMDL
MODEL 9
REMARK VINA RESULT:    -7.978      3.175      5.734
REMARK INTER + INTRA:         -12.120
REMARK INTER:                 -10.710
REMARK INTRA:                  -1.410
REMARK UNBOUND:                -1.110
REMARK SMILES COc1cccc([C@H]2C=C(c3cc(F)cc(F)c3)NN2c2ccc(S(N)(=O)=O)cc2)c1OC
REMARK SMILES IDX 21 1 22 2 23 3 24 4 29 5 30 6 20 7 19 8 10 9 9 10 8 11 11 13
REMARK SMILES IDX 12 14 18 15 13 16 16 17 15 18 14 19 17 20 7 21 6 22 31 23
REMARK SMILES IDX 5 24 3 25 4 26 32 27 33 28 2 29 1 30 25 31 27 32 28 33 26 34
REMARK H PARENT 19 12 26 35 26 36
ROOT
ATOM      1  C   UNL     1      15.292 -48.698 -27.577  1.00  0.00     0.058 A 
ATOM      2  C   UNL     1      16.554 -49.104 -28.034  1.00  0.00     0.029 A 
ATOM      3  C   UNL     1      17.179 -48.481 -29.123  1.00  0.00     0.024 A 
ATOM      4  C   UNL     1      16.537 -47.434 -29.781  1.00  0.00     0.082 A 
ATOM      5  C   UNL     1      15.288 -46.995 -29.347  1.00  0.00     0.024 A 
ATOM      6  C   UNL     1      14.678 -47.630 -28.260  1.00  0.00     0.029 A 
ENDROOT
BRANCH   1   7
ATOM      7  N   UNL     1      14.648 -49.301 -26.500  1.00  0.00    -0.276 N 
ATOM      8  N   UNL     1      13.998 -50.527 -26.554  1.00  0.00    -0.297 N 
ATOM      9  C   UNL     1      13.663 -50.940 -25.272  1.00  0.00     0.060 C 
ATOM     10  C   UNL     1      14.016 -50.004 -24.377  1.00  0.00     0.033 C 
ATOM     11  C   UNL     1      14.691 -48.841 -25.082  1.00  0.00     0.165 C 
ATOM     12  H   UNL     1      14.458 -51.251 -27.102  1.00  0.00     0.188 HD
BRANCH   9  13
ATOM     13  C   UNL     1      13.027 -52.228 -24.997  1.00  0.00     0.005 A 
ATOM     14  C   UNL     1      13.210 -53.328 -25.846  1.00  0.00     0.049 A 
ATOM     15  C   UNL     1      12.195 -52.380 -23.878  1.00  0.00     0.049 A 
ATOM     16  C   UNL     1      12.583 -54.541 -25.566  1.00  0.00     0.126 A 
ATOM     17  C   UNL     1      11.578 -53.602 -23.620  1.00  0.00     0.126 A 
ATOM     18  C   UNL     1      11.765 -54.692 -24.457  1.00  0.00     0.078 A 
ATOM     19  F   UNL     1      12.777 -55.583 -26.385  1.00  0.00    -0.207 F 
ATOM     20  F   UNL     1      10.788 -53.726 -22.546  1.00  0.00    -0.207 F 
ENDBRANCH   9  13
BRANCH  11  21
ATOM     21  C   UNL     1      14.025 -47.501 -24.820  1.00  0.00     0.026 A 
ATOM     22  C   UNL     1      12.614 -47.450 -24.819  1.00  0.00     0.010 A 
ATOM     23  C   UNL     1      14.725 -46.301 -24.585  1.00  0.00     0.166 A 
ATOM     24  C   UNL     1      11.928 -46.257 -24.579  1.00  0.00     0.004 A 
ATOM     25  C   UNL     1      14.030 -45.093 -24.403  1.00  0.00     0.161 A 
ATOM     26  C   UNL     1      12.637 -45.082 -24.364  1.00  0.00     0.050 A 
BRANCH  23  27
ATOM     27  O   UNL     1      16.096 -46.312 -24.594  1.00  0.00    -0.492 OA
ATOM     28  C   UNL     1      16.594 -45.770 -25.819  1.00  0.00     0.278 C 
ENDBRANCH  23  27
BRANCH  25  29
ATOM     29  O   UNL     1      14.646 -43.883 -24.216  1.00  0.00    -0.493 OA
ATOM     30  C   UNL     1      13.949 -43.078 -23.264  1.00  0.00     0.278 C 
ENDBRANCH  25  29
ENDBRANCH  11  21
ENDBRANCH   1   7
BRANCH   4  31
ATOM     31  S   UNL     1      17.333 -46.620 -31.131  1.00  0.00     0.238 S 
ATOM     32  O   UNL     1      17.356 -45.198 -30.884  1.00  0.00    -0.207 OA
ATOM     33  O   UNL     1      18.515 -47.362 -31.507  1.00  0.00    -0.207 OA
BRANCH  31  34
ATOM     34  N   UNL     1      16.231 -46.854 -32.376  1.00  0.00    -0.225 NA
ATOM     35  H   UNL     1      16.685 -46.683 -33.274  1.00  0.00     0.137 HD
ATOM     36  H   UNL     1      15.405 -46.278 -32.216  1.00  0.00     0.137 HD
ENDBRANCH  31  34
ENDBRANCH   4  31
TORSDOF 7
ENDMDL
