MODEL 1
REMARK VINA RESULT:    -9.522      0.000      0.000
REMARK INTER + INTRA:         -14.378
REMARK INTER:                 -13.141
REMARK INTRA:                  -1.237
REMARK UNBOUND:                -1.237
REMARK SMILES COc1ccc([C@@H]2C=C(c3cc(F)ccc3F)NN2c2ccc(S(N)(=O)=O)cc2)c(OC)c1
REMARK SMILES IDX 20 1 21 2 22 3 23 4 28 5 29 6 19 7 18 8 9 9 8 10 7 11 10 13
REMARK SMILES IDX 11 14 16 15 12 16 15 17 14 18 17 19 13 20 6 21 5 22 30 23
REMARK SMILES IDX 4 24 33 25 3 26 31 27 32 28 2 29 1 30 24 31 26 32 27 33
REMARK SMILES IDX 25 34
REMARK H PARENT 18 12 25 35 25 36
ROOT
ATOM      1  C   UNL     1      12.124 -51.965 -23.697  1.00  0.00     0.058 A 
ATOM      2  C   UNL     1      11.438 -52.334 -22.524  1.00  0.00     0.029 A 
ATOM      3  C   UNL     1      11.023 -53.650 -22.290  1.00  0.00     0.024 A 
ATOM      4  C   UNL     1      11.299 -54.629 -23.239  1.00  0.00     0.082 A 
ATOM      5  C   UNL     1      11.960 -54.299 -24.421  1.00  0.00     0.024 A 
ATOM      6  C   UNL     1      12.367 -52.977 -24.638  1.00  0.00     0.029 A 
ENDROOT
BRANCH   1   7
ATOM      7  N   UNL     1      12.525 -50.646 -23.887  1.00  0.00    -0.276 N 
ATOM      8  N   UNL     1      12.037 -49.561 -23.169  1.00  0.00    -0.297 N 
ATOM      9  C   UNL     1      12.485 -48.375 -23.748  1.00  0.00     0.063 C 
ATOM     10  C   UNL     1      13.297 -48.645 -24.783  1.00  0.00     0.033 C 
ATOM     11  C   UNL     1      13.403 -50.145 -24.983  1.00  0.00     0.164 C 
ATOM     12  H   UNL     1      11.024 -49.544 -23.037  1.00  0.00     0.188 HD
BRANCH   9  13
ATOM     13  C   UNL     1      12.082 -47.065 -23.230  1.00  0.00     0.038 A 
ATOM     14  C   UNL     1      11.177 -46.277 -23.958  1.00  0.00     0.052 A 
ATOM     15  C   UNL     1      12.579 -46.550 -22.023  1.00  0.00     0.132 A 
ATOM     16  C   UNL     1      10.791 -45.027 -23.480  1.00  0.00     0.124 A 
ATOM     17  C   UNL     1      12.189 -45.295 -21.548  1.00  0.00     0.043 A 
ATOM     18  C   UNL     1      11.288 -44.528 -22.282  1.00  0.00     0.042 A 
ATOM     19  F   UNL     1      13.464 -47.247 -21.293  1.00  0.00    -0.206 F 
ATOM     20  F   UNL     1       9.923 -44.292 -24.188  1.00  0.00    -0.207 F 
ENDBRANCH   9  13
BRANCH  11  21
ATOM     21  C   UNL     1      14.829 -50.668 -24.940  1.00  0.00     0.023 A 
ATOM     22  C   UNL     1      15.309 -51.212 -23.731  1.00  0.00     0.014 A 
ATOM     23  C   UNL     1      15.705 -50.651 -26.033  1.00  0.00     0.128 A 
ATOM     24  C   UNL     1      16.615 -51.706 -23.617  1.00  0.00     0.047 A 
ATOM     25  C   UNL     1      17.004 -51.165 -25.925  1.00  0.00     0.093 A 
ATOM     26  C   UNL     1      17.468 -51.685 -24.716  1.00  0.00     0.122 A 
BRANCH  23  27
ATOM     27  O   UNL     1      15.269 -50.214 -27.256  1.00  0.00    -0.496 OA
ATOM     28  C   UNL     1      16.058 -49.124 -27.732  1.00  0.00     0.278 C 
ENDBRANCH  23  27
BRANCH  26  29
ATOM     29  O   UNL     1      18.757 -52.141 -24.746  1.00  0.00    -0.497 OA
ATOM     30  C   UNL     1      19.503 -51.886 -25.930  1.00  0.00     0.278 C 
ENDBRANCH  26  29
ENDBRANCH  11  21
ENDBRANCH   1   7
BRANCH   4  31
ATOM     31  S   UNL     1      10.789 -56.303 -22.965  1.00  0.00     0.238 S 
ATOM     32  O   UNL     1      11.248 -56.717 -21.659  1.00  0.00    -0.207 OA
ATOM     33  O   UNL     1       9.415 -56.437 -23.386  1.00  0.00    -0.207 OA
BRANCH  31  34
ATOM     34  N   UNL     1      11.755 -57.132 -24.068  1.00  0.00    -0.225 NA
ATOM     35  H   UNL     1      12.690 -56.721 -24.059  1.00  0.00     0.137 HD
ATOM     36  H   UNL     1      11.361 -57.158 -25.008  1.00  0.00     0.137 HD
ENDBRANCH  31  34
ENDBRANCH   4  31
TORSDOF 7
ENDMDL
MODEL 2
REMARK VINA RESULT:    -9.221      4.550      7.517
REMARK INTER + INTRA:         -13.962
REMARK INTER:                 -12.307
REMARK INTRA:                  -1.655
REMARK UNBOUND:                -1.237
REMARK SMILES COc1ccc([C@@H]2C=C(c3cc(F)ccc3F)NN2c2ccc(S(N)(=O)=O)cc2)c(OC)c1
REMARK SMILES IDX 20 1 21 2 22 3 23 4 28 5 29 6 19 7 18 8 9 9 8 10 7 11 10 13
REMARK SMILES IDX 11 14 16 15 12 16 15 17 14 18 17 19 13 20 6 21 5 22 30 23
REMARK SMILES IDX 4 24 33 25 3 26 31 27 32 28 2 29 1 30 24 31 26 32 27 33
REMARK SMILES IDX 25 34
REMARK H PARENT 18 12 25 35 25 36
ROOT
ATOM      1  C   UNL     1      12.518 -47.747 -23.593  1.00  0.00     0.058 A 
ATOM      2  C   UNL     1      11.260 -47.286 -24.026  1.00  0.00     0.029 A 
ATOM      3  C   UNL     1      10.933 -45.926 -24.044  1.00  0.00     0.024 A 
ATOM      4  C   UNL     1      11.880 -44.994 -23.629  1.00  0.00     0.082 A 
ATOM      5  C   UNL     1      13.130 -45.413 -23.176  1.00  0.00     0.024 A 
ATOM      6  C   UNL     1      13.438 -46.778 -23.163  1.00  0.00     0.029 A 
ENDROOT
BRANCH   1   7
ATOM      7  N   UNL     1      12.803 -49.109 -23.597  1.00  0.00    -0.276 N 
ATOM      8  N   UNL     1      11.879 -50.110 -23.321  1.00  0.00    -0.297 N 
ATOM      9  C   UNL     1      12.535 -51.334 -23.204  1.00  0.00     0.063 C 
ATOM     10  C   UNL     1      13.846 -51.181 -23.452  1.00  0.00     0.033 C 
ATOM     11  C   UNL     1      14.156 -49.722 -23.727  1.00  0.00     0.164 C 
ATOM     12  H   UNL     1      11.276 -49.939 -22.516  1.00  0.00     0.188 HD
BRANCH   9  13
ATOM     13  C   UNL     1      11.815 -52.564 -22.863  1.00  0.00     0.038 A 
ATOM     14  C   UNL     1      11.306 -52.736 -21.567  1.00  0.00     0.052 A 
ATOM     15  C   UNL     1      11.619 -53.600 -23.790  1.00  0.00     0.132 A 
ATOM     16  C   UNL     1      10.626 -53.903 -21.228  1.00  0.00     0.124 A 
ATOM     17  C   UNL     1      10.936 -54.769 -23.444  1.00  0.00     0.043 A 
ATOM     18  C   UNL     1      10.436 -54.922 -22.154  1.00  0.00     0.042 A 
ATOM     19  F   UNL     1      12.100 -53.504 -25.039  1.00  0.00    -0.206 F 
ATOM     20  F   UNL     1      10.145 -54.047 -19.986  1.00  0.00    -0.207 F 
ENDBRANCH   9  13
BRANCH  11  21
ATOM     21  C   UNL     1      14.832 -49.483 -25.066  1.00  0.00     0.023 A 
ATOM     22  C   UNL     1      14.133 -49.821 -26.243  1.00  0.00     0.014 A 
ATOM     23  C   UNL     1      16.116 -48.939 -25.212  1.00  0.00     0.128 A 
ATOM     24  C   UNL     1      14.698 -49.634 -27.511  1.00  0.00     0.047 A 
ATOM     25  C   UNL     1      16.672 -48.732 -26.481  1.00  0.00     0.093 A 
ATOM     26  C   UNL     1      15.972 -49.088 -27.634  1.00  0.00     0.122 A 
BRANCH  23  27
ATOM     27  O   UNL     1      16.810 -48.512 -24.110  1.00  0.00    -0.496 OA
ATOM     28  C   UNL     1      16.971 -47.095 -24.113  1.00  0.00     0.278 C 
ENDBRANCH  23  27
BRANCH  26  29
ATOM     29  O   UNL     1      16.635 -48.844 -28.805  1.00  0.00    -0.497 OA
ATOM     30  C   UNL     1      15.841 -48.700 -29.977  1.00  0.00     0.278 C 
ENDBRANCH  26  29
ENDBRANCH  11  21
ENDBRANCH   1   7
BRANCH   4  31
ATOM     31  S   UNL     1      11.494 -43.265 -23.646  1.00  0.00     0.238 S 
ATOM     32  O   UNL     1      10.873 -42.919 -22.388  1.00  0.00    -0.207 OA
ATOM     33  O   UNL     1      12.629 -42.549 -24.179  1.00  0.00    -0.207 OA
BRANCH  31  34
ATOM     34  N   UNL     1      10.260 -43.210 -24.791  1.00  0.00    -0.225 NA
ATOM     35  H   UNL     1      10.664 -43.356 -25.717  1.00  0.00     0.137 HD
ATOM     36  H   UNL     1       9.709 -42.353 -24.748  1.00  0.00     0.137 HD
ENDBRANCH  31  34
ENDBRANCH   4  31
TORSDOF 7
ENDMDL
MODEL 3
REMARK VINA RESULT:    -9.167      3.231      6.240
REMARK INTER + INTRA:         -13.888
REMARK INTER:                 -12.566
REMARK INTRA:                  -1.322
REMARK UNBOUND:                -1.237
REMARK SMILES COc1ccc([C@@H]2C=C(c3cc(F)ccc3F)NN2c2ccc(S(N)(=O)=O)cc2)c(OC)c1
REMARK SMILES IDX 20 1 21 2 22 3 23 4 28 5 29 6 19 7 18 8 9 9 8 10 7 11 10 13
REMARK SMILES IDX 11 14 16 15 12 16 15 17 14 18 17 19 13 20 6 21 5 22 30 23
REMARK SMILES IDX 4 24 33 25 3 26 31 27 32 28 2 29 1 30 24 31 26 32 27 33
REMARK SMILES IDX 25 34
REMARK H PARENT 18 12 25 35 25 36
ROOT
ATOM      1  C   UNL     1      12.927 -51.525 -24.578  1.00  0.00     0.058 A 
ATOM      2  C   UNL     1      12.862 -52.798 -25.175  1.00  0.00     0.029 A 
ATOM      3  C   UNL     1      12.119 -53.843 -24.616  1.00  0.00     0.024 A 
ATOM      4  C   UNL     1      11.415 -53.621 -23.435  1.00  0.00     0.082 A 
ATOM      5  C   UNL     1      11.470 -52.379 -22.805  1.00  0.00     0.024 A 
ATOM      6  C   UNL     1      12.220 -51.346 -23.380  1.00  0.00     0.029 A 
ENDROOT
BRANCH   1   7
ATOM      7  N   UNL     1      13.673 -50.511 -25.173  1.00  0.00    -0.276 N 
ATOM      8  N   UNL     1      14.079 -50.505 -26.502  1.00  0.00    -0.297 N 
ATOM      9  C   UNL     1      14.978 -49.461 -26.713  1.00  0.00     0.063 C 
ATOM     10  C   UNL     1      15.130 -48.748 -25.586  1.00  0.00     0.033 C 
ATOM     11  C   UNL     1      14.303 -49.357 -24.470  1.00  0.00     0.164 C 
ATOM     12  H   UNL     1      14.455 -51.389 -26.848  1.00  0.00     0.188 HD
BRANCH   9  13
ATOM     13  C   UNL     1      15.614 -49.244 -28.015  1.00  0.00     0.038 A 
ATOM     14  C   UNL     1      14.877 -48.668 -29.062  1.00  0.00     0.052 A 
ATOM     15  C   UNL     1      16.947 -49.602 -28.269  1.00  0.00     0.132 A 
ATOM     16  C   UNL     1      15.468 -48.462 -30.307  1.00  0.00     0.124 A 
ATOM     17  C   UNL     1      17.534 -49.394 -29.519  1.00  0.00     0.043 A 
ATOM     18  C   UNL     1      16.789 -48.820 -30.546  1.00  0.00     0.042 A 
ATOM     19  F   UNL     1      17.696 -50.176 -27.314  1.00  0.00    -0.206 F 
ATOM     20  F   UNL     1      14.749 -47.909 -31.292  1.00  0.00    -0.207 F 
ENDBRANCH   9  13
BRANCH  11  21
ATOM     21  C   UNL     1      13.319 -48.388 -23.838  1.00  0.00     0.023 A 
ATOM     22  C   UNL     1      12.260 -47.895 -24.628  1.00  0.00     0.014 A 
ATOM     23  C   UNL     1      13.391 -47.950 -22.509  1.00  0.00     0.128 A 
ATOM     24  C   UNL     1      11.320 -46.992 -24.113  1.00  0.00     0.047 A 
ATOM     25  C   UNL     1      12.439 -47.064 -21.988  1.00  0.00     0.093 A 
ATOM     26  C   UNL     1      11.406 -46.574 -22.788  1.00  0.00     0.122 A 
BRANCH  23  27
ATOM     27  O   UNL     1      14.347 -48.459 -21.669  1.00  0.00    -0.496 OA
ATOM     28  C   UNL     1      15.340 -47.484 -21.358  1.00  0.00     0.278 C 
ENDBRANCH  23  27
BRANCH  26  29
ATOM     29  O   UNL     1      10.555 -45.709 -22.159  1.00  0.00    -0.497 OA
ATOM     30  C   UNL     1      10.372 -44.433 -22.760  1.00  0.00     0.278 C 
ENDBRANCH  26  29
ENDBRANCH  11  21
ENDBRANCH   1   7
BRANCH   4  31
ATOM     31  S   UNL     1      10.464 -54.926 -22.708  1.00  0.00     0.238 S 
ATOM     32  O   UNL     1       9.585 -55.472 -23.716  1.00  0.00    -0.207 OA
ATOM     33  O   UNL     1      11.346 -55.748 -21.915  1.00  0.00    -0.207 OA
BRANCH  31  34
ATOM     34  N   UNL     1       9.468 -54.066 -21.656  1.00  0.00    -0.225 NA
ATOM     35  H   UNL     1       8.602 -53.831 -22.143  1.00  0.00     0.137 HD
ATOM     36  H   UNL     1       9.917 -53.241 -21.260  1.00  0.00     0.137 HD
ENDBRANCH  31  34
ENDBRANCH   4  31
TORSDOF 7
ENDMDL
MODEL 4
REMARK VINA RESULT:    -9.082      5.346      8.595
REMARK INTER + INTRA:         -13.770
REMARK INTER:                 -12.136
REMARK INTRA:                  -1.634
REMARK UNBOUND:                -1.237
REMARK SMILES COc1ccc([C@@H]2C=C(c3cc(F)ccc3F)NN2c2ccc(S(N)(=O)=O)cc2)c(OC)c1
REMARK SMILES IDX 20 1 21 2 22 3 23 4 28 5 29 6 19 7 18 8 9 9 8 10 7 11 10 13
REMARK SMILES IDX 11 14 16 15 12 16 15 17 14 18 17 19 13 20 6 21 5 22 30 23
REMARK SMILES IDX 4 24 33 25 3 26 31 27 32 28 2 29 1 30 24 31 26 32 27 33
REMARK SMILES IDX 25 34
REMARK H PARENT 18 12 25 35 25 36
ROOT
ATOM      1  C   UNL     1      14.351 -47.707 -21.068  1.00  0.00     0.058 A 
ATOM      2  C   UNL     1      13.966 -46.999 -19.913  1.00  0.00     0.029 A 
ATOM      3  C   UNL     1      14.900 -46.380 -19.077  1.00  0.00     0.024 A 
ATOM      4  C   UNL     1      16.253 -46.457 -19.393  1.00  0.00     0.082 A 
ATOM      5  C   UNL     1      16.674 -47.164 -20.518  1.00  0.00     0.024 A 
ATOM      6  C   UNL     1      15.725 -47.779 -21.343  1.00  0.00     0.029 A 
ENDROOT
BRANCH   1   7
ATOM      7  N   UNL     1      13.387 -48.303 -21.876  1.00  0.00    -0.276 N 
ATOM      8  N   UNL     1      12.800 -49.537 -21.627  1.00  0.00    -0.297 N 
ATOM      9  C   UNL     1      12.043 -49.929 -22.730  1.00  0.00     0.063 C 
ATOM     10  C   UNL     1      12.066 -48.969 -23.669  1.00  0.00     0.033 C 
ATOM     11  C   UNL     1      12.943 -47.818 -23.215  1.00  0.00     0.164 C 
ATOM     12  H   UNL     1      13.442 -50.278 -21.342  1.00  0.00     0.188 HD
BRANCH   9  13
ATOM     13  C   UNL     1      11.350 -51.219 -22.769  1.00  0.00     0.038 A 
ATOM     14  C   UNL     1      11.960 -52.318 -23.393  1.00  0.00     0.052 A 
ATOM     15  C   UNL     1      10.075 -51.404 -22.210  1.00  0.00     0.132 A 
ATOM     16  C   UNL     1      11.308 -53.549 -23.443  1.00  0.00     0.124 A 
ATOM     17  C   UNL     1       9.427 -52.639 -22.264  1.00  0.00     0.043 A 
ATOM     18  C   UNL     1      10.048 -53.720 -22.885  1.00  0.00     0.042 A 
ATOM     19  F   UNL     1       9.432 -50.385 -21.619  1.00  0.00    -0.206 F 
ATOM     20  F   UNL     1      11.909 -54.586 -24.041  1.00  0.00    -0.207 F 
ENDBRANCH   9  13
BRANCH  11  21
ATOM     21  C   UNL     1      12.231 -46.477 -23.197  1.00  0.00     0.023 A 
ATOM     22  C   UNL     1      11.110 -46.322 -22.356  1.00  0.00     0.014 A 
ATOM     23  C   UNL     1      12.620 -45.370 -23.964  1.00  0.00     0.128 A 
ATOM     24  C   UNL     1      10.400 -45.115 -22.294  1.00  0.00     0.047 A 
ATOM     25  C   UNL     1      11.923 -44.157 -23.886  1.00  0.00     0.093 A 
ATOM     26  C   UNL     1      10.806 -44.026 -23.060  1.00  0.00     0.122 A 
BRANCH  23  27
ATOM     27  O   UNL     1      13.751 -45.433 -24.735  1.00  0.00    -0.496 OA
ATOM     28  C   UNL     1      13.486 -45.042 -26.081  1.00  0.00     0.278 C 
ENDBRANCH  23  27
BRANCH  26  29
ATOM     29  O   UNL     1      10.214 -42.795 -23.089  1.00  0.00    -0.497 OA
ATOM     30  C   UNL     1      11.069 -41.672 -23.269  1.00  0.00     0.278 C 
ENDBRANCH  26  29
ENDBRANCH  11  21
ENDBRANCH   1   7
BRANCH   4  31
ATOM     31  S   UNL     1      17.456 -45.677 -18.353  1.00  0.00     0.238 S 
ATOM     32  O   UNL     1      18.659 -46.478 -18.360  1.00  0.00    -0.207 OA
ATOM     33  O   UNL     1      17.461 -44.263 -18.639  1.00  0.00    -0.207 OA
BRANCH  31  34
ATOM     34  N   UNL     1      16.774 -45.898 -16.829  1.00  0.00    -0.225 NA
ATOM     35  H   UNL     1      16.070 -45.173 -16.677  1.00  0.00     0.137 HD
ATOM     36  H   UNL     1      17.463 -45.921 -16.078  1.00  0.00     0.137 HD
ENDBRANCH  31  34
ENDBRANCH   4  31
TORSDOF 7
ENDMDL
MODEL 5
REMARK VINA RESULT:    -8.848      3.298      5.055
REMARK INTER + INTRA:         -13.447
REMARK INTER:                 -11.878
REMARK INTRA:                  -1.568
REMARK UNBOUND:                -1.237
REMARK SMILES COc1ccc([C@@H]2C=C(c3cc(F)ccc3F)NN2c2ccc(S(N)(=O)=O)cc2)c(OC)c1
REMARK SMILES IDX 20 1 21 2 22 3 23 4 28 5 29 6 19 7 18 8 9 9 8 10 7 11 10 13
REMARK SMILES IDX 11 14 16 15 12 16 15 17 14 18 17 19 13 20 6 21 5 22 30 23
REMARK SMILES IDX 4 24 33 25 3 26 31 27 32 28 2 29 1 30 24 31 26 32 27 33
REMARK SMILES IDX 25 34
REMARK H PARENT 18 12 25 35 25 36
ROOT
ATOM      1  C   UNL     1      13.239 -51.348 -24.391  1.00  0.00     0.058 A 
ATOM      2  C   UNL     1      12.845 -52.653 -24.743  1.00  0.00     0.029 A 
ATOM      3  C   UNL     1      11.874 -53.356 -24.022  1.00  0.00     0.024 A 
ATOM      4  C   UNL     1      11.271 -52.749 -22.924  1.00  0.00     0.082 A 
ATOM      5  C   UNL     1      11.647 -51.465 -22.534  1.00  0.00     0.024 A 
ATOM      6  C   UNL     1      12.621 -50.777 -23.268  1.00  0.00     0.029 A 
ENDROOT
BRANCH   1   7
ATOM      7  N   UNL     1      14.204 -50.683 -25.142  1.00  0.00    -0.276 N 
ATOM      8  N   UNL     1      13.930 -49.818 -26.194  1.00  0.00    -0.297 N 
ATOM      9  C   UNL     1      15.112 -49.494 -26.856  1.00  0.00     0.063 C 
ATOM     10  C   UNL     1      16.158 -50.068 -26.240  1.00  0.00     0.033 C 
ATOM     11  C   UNL     1      15.677 -50.902 -25.068  1.00  0.00     0.164 C 
ATOM     12  H   UNL     1      13.218 -50.141 -26.851  1.00  0.00     0.188 HD
BRANCH   9  13
ATOM     13  C   UNL     1      15.120 -48.636 -28.044  1.00  0.00     0.038 A 
ATOM     14  C   UNL     1      15.400 -49.192 -29.302  1.00  0.00     0.052 A 
ATOM     15  C   UNL     1      14.866 -47.257 -27.976  1.00  0.00     0.132 A 
ATOM     16  C   UNL     1      15.417 -48.386 -30.438  1.00  0.00     0.124 A 
ATOM     17  C   UNL     1      14.884 -46.454 -29.118  1.00  0.00     0.043 A 
ATOM     18  C   UNL     1      15.162 -47.023 -30.359  1.00  0.00     0.042 A 
ATOM     19  F   UNL     1      14.612 -46.664 -26.799  1.00  0.00    -0.206 F 
ATOM     20  F   UNL     1      15.684 -48.936 -31.630  1.00  0.00    -0.207 F 
ENDBRANCH   9  13
BRANCH  11  21
ATOM     21  C   UNL     1      16.308 -50.514 -23.741  1.00  0.00     0.023 A 
ATOM     22  C   UNL     1      17.040 -51.489 -23.034  1.00  0.00     0.014 A 
ATOM     23  C   UNL     1      16.214 -49.237 -23.170  1.00  0.00     0.128 A 
ATOM     24  C   UNL     1      17.642 -51.204 -21.802  1.00  0.00     0.047 A 
ATOM     25  C   UNL     1      16.835 -48.946 -21.948  1.00  0.00     0.093 A 
ATOM     26  C   UNL     1      17.542 -49.928 -21.254  1.00  0.00     0.122 A 
BRANCH  23  27
ATOM     27  O   UNL     1      15.589 -48.225 -23.850  1.00  0.00    -0.496 OA
ATOM     28  C   UNL     1      14.580 -47.607 -23.053  1.00  0.00     0.278 C 
ENDBRANCH  23  27
BRANCH  26  29
ATOM     29  O   UNL     1      18.086 -49.513 -20.070  1.00  0.00    -0.497 OA
ATOM     30  C   UNL     1      18.193 -48.110 -19.867  1.00  0.00     0.278 C 
ENDBRANCH  26  29
ENDBRANCH  11  21
ENDBRANCH   1   7
BRANCH   4  31
ATOM     31  S   UNL     1      10.036 -53.615 -21.996  1.00  0.00     0.238 S 
ATOM     32  O   UNL     1       9.636 -54.786 -22.740  1.00  0.00    -0.207 OA
ATOM     33  O   UNL     1      10.458 -53.674 -20.617  1.00  0.00    -0.207 OA
BRANCH  31  34
ATOM     34  N   UNL     1       8.735 -52.549 -22.096  1.00  0.00    -0.225 NA
ATOM     35  H   UNL     1       8.346 -52.417 -21.161  1.00  0.00     0.137 HD
ATOM     36  H   UNL     1       8.023 -52.844 -22.764  1.00  0.00     0.137 HD
ENDBRANCH  31  34
ENDBRANCH   4  31
TORSDOF 7
ENDMDL
MODEL 6
REMARK VINA RESULT:    -8.653      4.574      7.426
REMARK INTER + INTRA:         -13.178
REMARK INTER:                 -11.412
REMARK INTRA:                  -1.766
REMARK UNBOUND:                -1.237
REMARK SMILES COc1ccc([C@@H]2C=C(c3cc(F)ccc3F)NN2c2ccc(S(N)(=O)=O)cc2)c(OC)c1
REMARK SMILES IDX 20 1 21 2 22 3 23 4 28 5 29 6 19 7 18 8 9 9 8 10 7 11 10 13
REMARK SMILES IDX 11 14 16 15 12 16 15 17 14 18 17 19 13 20 6 21 5 22 30 23
REMARK SMILES IDX 4 24 33 25 3 26 31 27 32 28 2 29 1 30 24 31 26 32 27 33
REMARK SMILES IDX 25 34
REMARK H PARENT 18 12 25 35 25 36
ROOT
ATOM      1  C   UNL     1      16.847 -51.427 -25.142  1.00  0.00     0.058 A 
ATOM      2  C   UNL     1      17.495 -50.439 -24.375  1.00  0.00     0.029 A 
ATOM      3  C   UNL     1      18.890 -50.341 -24.316  1.00  0.00     0.024 A 
ATOM      4  C   UNL     1      19.666 -51.241 -25.041  1.00  0.00     0.082 A 
ATOM      5  C   UNL     1      19.061 -52.244 -25.797  1.00  0.00     0.024 A 
ATOM      6  C   UNL     1      17.664 -52.327 -25.843  1.00  0.00     0.029 A 
ENDROOT
BRANCH   1   7
ATOM      7  N   UNL     1      15.457 -51.484 -25.177  1.00  0.00    -0.276 N 
ATOM      8  N   UNL     1      14.670 -52.166 -24.257  1.00  0.00    -0.297 N 
ATOM      9  C   UNL     1      13.349 -52.196 -24.700  1.00  0.00     0.063 C 
ATOM     10  C   UNL     1      13.231 -51.508 -25.847  1.00  0.00     0.033 C 
ATOM     11  C   UNL     1      14.586 -50.978 -26.277  1.00  0.00     0.164 C 
ATOM     12  H   UNL     1      14.997 -53.102 -24.013  1.00  0.00     0.188 HD
BRANCH   9  13
ATOM     13  C   UNL     1      12.302 -52.898 -23.953  1.00  0.00     0.038 A 
ATOM     14  C   UNL     1      11.876 -52.395 -22.713  1.00  0.00     0.052 A 
ATOM     15  C   UNL     1      11.704 -54.076 -24.425  1.00  0.00     0.132 A 
ATOM     16  C   UNL     1      10.887 -53.057 -21.990  1.00  0.00     0.124 A 
ATOM     17  C   UNL     1      10.713 -54.736 -23.695  1.00  0.00     0.043 A 
ATOM     18  C   UNL     1      10.301 -54.222 -22.468  1.00  0.00     0.042 A 
ATOM     19  F   UNL     1      12.084 -54.617 -25.593  1.00  0.00    -0.206 F 
ATOM     20  F   UNL     1      10.492 -52.559 -20.810  1.00  0.00    -0.207 F 
ENDBRANCH   9  13
BRANCH  11  21
ATOM     21  C   UNL     1      14.621 -49.472 -26.470  1.00  0.00     0.023 A 
ATOM     22  C   UNL     1      13.982 -48.657 -25.514  1.00  0.00     0.014 A 
ATOM     23  C   UNL     1      15.256 -48.832 -27.543  1.00  0.00     0.128 A 
ATOM     24  C   UNL     1      13.968 -47.261 -25.632  1.00  0.00     0.047 A 
ATOM     25  C   UNL     1      15.261 -47.435 -27.649  1.00  0.00     0.093 A 
ATOM     26  C   UNL     1      14.609 -46.644 -26.703  1.00  0.00     0.122 A 
BRANCH  23  27
ATOM     27  O   UNL     1      15.967 -49.565 -28.457  1.00  0.00    -0.496 OA
ATOM     28  C   UNL     1      17.372 -49.432 -28.252  1.00  0.00     0.278 C 
ENDBRANCH  23  27
BRANCH  26  29
ATOM     29  O   UNL     1      14.681 -45.298 -26.933  1.00  0.00    -0.497 OA
ATOM     30  C   UNL     1      13.594 -44.507 -26.470  1.00  0.00     0.278 C 
ENDBRANCH  26  29
ENDBRANCH  11  21
ENDBRANCH   1   7
BRANCH   4  31
ATOM     31  S   UNL     1      21.433 -51.136 -24.987  1.00  0.00     0.238 S 
ATOM     32  O   UNL     1      21.849 -49.976 -25.741  1.00  0.00    -0.207 OA
ATOM     33  O   UNL     1      21.864 -51.381 -23.631  1.00  0.00    -0.207 OA
BRANCH  31  34
ATOM     34  N   UNL     1      21.875 -52.466 -25.921  1.00  0.00    -0.225 NA
ATOM     35  H   UNL     1      21.029 -52.908 -26.285  1.00  0.00     0.137 HD
ATOM     36  H   UNL     1      22.465 -53.131 -25.422  1.00  0.00     0.137 HD
ENDBRANCH  31  34
ENDBRANCH   4  31
TORSDOF 7
ENDMDL
MODEL 7
REMARK VINA RESULT:    -8.565      4.367      7.272
REMARK INTER + INTRA:         -13.057
REMARK INTER:                 -11.282
REMARK INTRA:                  -1.775
REMARK UNBOUND:                -1.237
REMARK SMILES COc1ccc([C@@H]2C=C(c3cc(F)ccc3F)NN2c2ccc(S(N)(=O)=O)cc2)c(OC)c1
REMARK SMILES IDX 20 1 21 2 22 3 23 4 28 5 29 6 19 7 18 8 9 9 8 10 7 11 10 13
REMARK SMILES IDX 11 14 16 15 12 16 15 17 14 18 17 19 13 20 6 21 5 22 30 23
REMARK SMILES IDX 4 24 33 25 3 26 31 27 32 28 2 29 1 30 24 31 26 32 27 33
REMARK SMILES IDX 25 34
REMARK H PARENT 18 12 25 35 25 36
ROOT
ATOM      1  C   UNL     1      16.769 -51.210 -24.942  1.00  0.00     0.058 A 
ATOM      2  C   UNL     1      17.491 -52.198 -25.639  1.00  0.00     0.029 A 
ATOM      3  C   UNL     1      18.890 -52.217 -25.663  1.00  0.00     0.024 A 
ATOM      4  C   UNL     1      19.595 -51.235 -24.975  1.00  0.00     0.082 A 
ATOM      5  C   UNL     1      18.916 -50.229 -24.289  1.00  0.00     0.024 A 
ATOM      6  C   UNL     1      17.516 -50.226 -24.276  1.00  0.00     0.029 A 
ENDROOT
BRANCH   1   7
ATOM      7  N   UNL     1      15.378 -51.233 -24.938  1.00  0.00    -0.276 N 
ATOM      8  N   UNL     1      14.599 -51.811 -23.942  1.00  0.00    -0.297 N 
ATOM      9  C   UNL     1      13.267 -51.844 -24.349  1.00  0.00     0.063 C 
ATOM     10  C   UNL     1      13.135 -51.257 -25.549  1.00  0.00     0.033 C 
ATOM     11  C   UNL     1      14.490 -50.804 -26.057  1.00  0.00     0.164 C 
ATOM     12  H   UNL     1      14.909 -52.730 -23.624  1.00  0.00     0.188 HD
BRANCH   9  13
ATOM     13  C   UNL     1      12.223 -52.450 -23.517  1.00  0.00     0.038 A 
ATOM     14  C   UNL     1      11.685 -53.696 -23.873  1.00  0.00     0.052 A 
ATOM     15  C   UNL     1      11.722 -51.821 -22.366  1.00  0.00     0.132 A 
ATOM     16  C   UNL     1      10.688 -54.279 -23.094  1.00  0.00     0.124 A 
ATOM     17  C   UNL     1      10.722 -52.410 -21.589  1.00  0.00     0.043 A 
ATOM     18  C   UNL     1      10.201 -53.649 -21.956  1.00  0.00     0.042 A 
ATOM     19  F   UNL     1      12.182 -50.619 -21.986  1.00  0.00    -0.206 F 
ATOM     20  F   UNL     1      10.189 -55.470 -23.449  1.00  0.00    -0.207 F 
ENDBRANCH   9  13
BRANCH  11  21
ATOM     21  C   UNL     1      14.557 -49.321 -26.384  1.00  0.00     0.023 A 
ATOM     22  C   UNL     1      13.981 -48.407 -25.478  1.00  0.00     0.014 A 
ATOM     23  C   UNL     1      15.162 -48.797 -27.534  1.00  0.00     0.128 A 
ATOM     24  C   UNL     1      13.998 -47.027 -25.719  1.00  0.00     0.047 A 
ATOM     25  C   UNL     1      15.199 -47.415 -27.763  1.00  0.00     0.093 A 
ATOM     26  C   UNL     1      14.610 -46.525 -26.864  1.00  0.00     0.122 A 
BRANCH  23  27
ATOM     27  O   UNL     1      15.813 -49.628 -28.407  1.00  0.00    -0.496 OA
ATOM     28  C   UNL     1      17.229 -49.491 -28.300  1.00  0.00     0.278 C 
ENDBRANCH  23  27
BRANCH  26  29
ATOM     29  O   UNL     1      14.707 -45.208 -27.215  1.00  0.00    -0.497 OA
ATOM     30  C   UNL     1      14.226 -44.254 -26.276  1.00  0.00     0.278 C 
ENDBRANCH  26  29
ENDBRANCH  11  21
ENDBRANCH   1   7
BRANCH   4  31
ATOM     31  S   UNL     1      21.367 -51.238 -24.986  1.00  0.00     0.238 S 
ATOM     32  O   UNL     1      21.823 -52.565 -25.329  1.00  0.00    -0.207 OA
ATOM     33  O   UNL     1      21.821 -50.055 -25.677  1.00  0.00    -0.207 OA
BRANCH  31  34
ATOM     34  N   UNL     1      21.711 -51.049 -23.349  1.00  0.00    -0.225 NA
ATOM     35  H   UNL     1      22.524 -50.438 -23.252  1.00  0.00     0.137 HD
ATOM     36  H   UNL     1      21.843 -51.934 -22.860  1.00  0.00     0.137 HD
ENDBRANCH  31  34
ENDBRANCH   4  31
TORSDOF 7
ENDMDL
MODEL 8
REMARK VINA RESULT:    -8.391      4.378      7.469
REMARK INTER + INTRA:         -12.816
REMARK INTER:                 -11.444
REMARK INTRA:                  -1.372
REMARK UNBOUND:                -1.237
REMARK SMILES COc1ccc([C@@H]2C=C(c3cc(F)ccc3F)NN2c2ccc(S(N)(=O)=O)cc2)c(OC)c1
REMARK SMILES IDX 20 1 21 2 22 3 23 4 28 5 29 6 19 7 18 8 9 9 8 10 7 11 10 13
REMARK SMILES IDX 11 14 16 15 12 16 15 17 14 18 17 19 13 20 6 21 5 22 30 23
REMARK SMILES IDX 4 24 33 25 3 26 31 27 32 28 2 29 1 30 24 31 26 32 27 33
REMARK SMILES IDX 25 34
REMARK H PARENT 18 12 25 35 25 36
ROOT
ATOM      1  C   UNL     1      12.580 -47.408 -23.531  1.00  0.00     0.058 A 
ATOM      2  C   UNL     1      13.458 -46.412 -23.061  1.00  0.00     0.029 A 
ATOM      3  C   UNL     1      13.120 -45.055 -23.079  1.00  0.00     0.024 A 
ATOM      4  C   UNL     1      11.875 -44.671 -23.571  1.00  0.00     0.082 A 
ATOM      5  C   UNL     1      10.986 -45.626 -24.062  1.00  0.00     0.024 A 
ATOM      6  C   UNL     1      11.343 -46.980 -24.036  1.00  0.00     0.029 A 
ENDROOT
BRANCH   1   7
ATOM      7  N   UNL     1      12.956 -48.747 -23.487  1.00  0.00    -0.276 N 
ATOM      8  N   UNL     1      12.077 -49.818 -23.601  1.00  0.00    -0.297 N 
ATOM      9  C   UNL     1      12.744 -51.006 -23.306  1.00  0.00     0.063 C 
ATOM     10  C   UNL     1      14.041 -50.758 -23.061  1.00  0.00     0.033 C 
ATOM     11  C   UNL     1      14.311 -49.268 -23.149  1.00  0.00     0.164 C 
ATOM     12  H   UNL     1      11.216 -49.737 -23.059  1.00  0.00     0.188 HD
BRANCH   9  13
ATOM     13  C   UNL     1      12.051 -52.296 -23.295  1.00  0.00     0.038 A 
ATOM     14  C   UNL     1      11.233 -52.638 -22.207  1.00  0.00     0.052 A 
ATOM     15  C   UNL     1      12.179 -53.226 -24.339  1.00  0.00     0.132 A 
ATOM     16  C   UNL     1      10.573 -53.865 -22.182  1.00  0.00     0.124 A 
ATOM     17  C   UNL     1      11.515 -54.455 -24.308  1.00  0.00     0.043 A 
ATOM     18  C   UNL     1      10.706 -54.777 -23.221  1.00  0.00     0.042 A 
ATOM     19  F   UNL     1      12.963 -52.966 -25.397  1.00  0.00    -0.206 F 
ATOM     20  F   UNL     1       9.795 -54.170 -21.135  1.00  0.00    -0.207 F 
ENDBRANCH   9  13
BRANCH  11  21
ATOM     21  C   UNL     1      15.397 -48.901 -24.146  1.00  0.00     0.023 A 
ATOM     22  C   UNL     1      16.673 -48.559 -23.654  1.00  0.00     0.014 A 
ATOM     23  C   UNL     1      15.214 -48.884 -25.535  1.00  0.00     0.128 A 
ATOM     24  C   UNL     1      17.720 -48.203 -24.516  1.00  0.00     0.047 A 
ATOM     25  C   UNL     1      16.267 -48.548 -26.397  1.00  0.00     0.093 A 
ATOM     26  C   UNL     1      17.519 -48.197 -25.893  1.00  0.00     0.122 A 
BRANCH  23  27
ATOM     27  O   UNL     1      14.022 -49.288 -26.076  1.00  0.00    -0.496 OA
ATOM     28  C   UNL     1      14.165 -50.512 -26.795  1.00  0.00     0.278 C 
ENDBRANCH  23  27
BRANCH  26  29
ATOM     29  O   UNL     1      18.451 -47.881 -26.842  1.00  0.00    -0.497 OA
ATOM     30  C   UNL     1      17.991 -47.165 -27.982  1.00  0.00     0.278 C 
ENDBRANCH  26  29
ENDBRANCH  11  21
ENDBRANCH   1   7
BRANCH   4  31
ATOM     31  S   UNL     1      11.420 -42.960 -23.602  1.00  0.00     0.238 S 
ATOM     32  O   UNL     1      10.725 -42.646 -22.375  1.00  0.00    -0.207 OA
ATOM     33  O   UNL     1      12.548 -42.195 -24.076  1.00  0.00    -0.207 OA
BRANCH  31  34
ATOM     34  N   UNL     1      10.242 -42.950 -24.805  1.00  0.00    -0.225 NA
ATOM     35  H   UNL     1       9.334 -42.763 -24.376  1.00  0.00     0.137 HD
ATOM     36  H   UNL     1      10.228 -43.803 -25.363  1.00  0.00     0.137 HD
ENDBRANCH  31  34
ENDBRANCH   4  31
TORSDOF 7
ENDMDL
MODEL 9
REMARK VINA RESULT:    -8.270      4.105      7.497
REMARK INTER + INTRA:         -12.649
REMARK INTER:                 -11.535
REMARK INTRA:                  -1.114
REMARK UNBOUND:                -1.237
REMARK SMILES COc1ccc([C@@H]2C=C(c3cc(F)ccc3F)NN2c2ccc(S(N)(=O)=O)cc2)c(OC)c1
REMARK SMILES IDX 20 1 21 2 22 3 23 4 28 5 29 6 19 7 18 8 9 9 8 10 7 11 10 13
REMARK SMILES IDX 11 14 16 15 12 16 15 17 14 18 17 19 13 20 6 21 5 22 30 23
REMARK SMILES IDX 4 24 33 25 3 26 31 27 32 28 2 29 1 30 24 31 26 32 27 33
REMARK SMILES IDX 25 34
REMARK H PARENT 18 12 25 35 25 36
ROOT
ATOM      1  C   UNL     1      12.570 -47.865 -23.660  1.00  0.00     0.058 A 
ATOM      2  C   UNL     1      13.517 -47.016 -23.056  1.00  0.00     0.029 A 
ATOM      3  C   UNL     1      13.356 -45.627 -23.024  1.00  0.00     0.024 A 
ATOM      4  C   UNL     1      12.223 -45.060 -23.600  1.00  0.00     0.082 A 
ATOM      5  C   UNL     1      11.271 -45.867 -24.224  1.00  0.00     0.024 A 
ATOM      6  C   UNL     1      11.451 -47.255 -24.247  1.00  0.00     0.029 A 
ENDROOT
BRANCH   1   7
ATOM      7  N   UNL     1      12.767 -49.242 -23.664  1.00  0.00    -0.276 N 
ATOM      8  N   UNL     1      11.772 -50.184 -23.432  1.00  0.00    -0.297 N 
ATOM      9  C   UNL     1      12.344 -51.448 -23.298  1.00  0.00     0.063 C 
ATOM     10  C   UNL     1      13.670 -51.378 -23.494  1.00  0.00     0.033 C 
ATOM     11  C   UNL     1      14.083 -49.940 -23.746  1.00  0.00     0.164 C 
ATOM     12  H   UNL     1      11.150 -49.978 -22.648  1.00  0.00     0.188 HD
BRANCH   9  13
ATOM     13  C   UNL     1      11.534 -52.631 -22.995  1.00  0.00     0.038 A 
ATOM     14  C   UNL     1      11.866 -53.868 -23.568  1.00  0.00     0.052 A 
ATOM     15  C   UNL     1      10.415 -52.578 -22.149  1.00  0.00     0.132 A 
ATOM     16  C   UNL     1      11.101 -54.999 -23.293  1.00  0.00     0.124 A 
ATOM     17  C   UNL     1       9.651 -53.715 -21.876  1.00  0.00     0.043 A 
ATOM     18  C   UNL     1       9.996 -54.935 -22.453  1.00  0.00     0.042 A 
ATOM     19  F   UNL     1      10.035 -51.420 -21.587  1.00  0.00    -0.206 F 
ATOM     20  F   UNL     1      11.436 -56.170 -23.848  1.00  0.00    -0.207 F 
ENDBRANCH   9  13
BRANCH  11  21
ATOM     21  C   UNL     1      14.825 -49.738 -25.056  1.00  0.00     0.023 A 
ATOM     22  C   UNL     1      14.133 -49.155 -26.138  1.00  0.00     0.014 A 
ATOM     23  C   UNL     1      16.165 -50.091 -25.263  1.00  0.00     0.128 A 
ATOM     24  C   UNL     1      14.752 -48.946 -27.377  1.00  0.00     0.047 A 
ATOM     25  C   UNL     1      16.790 -49.862 -26.495  1.00  0.00     0.093 A 
ATOM     26  C   UNL     1      16.086 -49.299 -27.560  1.00  0.00     0.122 A 
BRANCH  23  27
ATOM     27  O   UNL     1      16.913 -50.582 -24.225  1.00  0.00    -0.496 OA
ATOM     28  C   UNL     1      17.449 -51.868 -24.532  1.00  0.00     0.278 C 
ENDBRANCH  23  27
BRANCH  26  29
ATOM     29  O   UNL     1      16.811 -49.142 -28.708  1.00  0.00    -0.497 OA
ATOM     30  C   UNL     1      16.085 -48.834 -29.892  1.00  0.00     0.278 C 
ENDBRANCH  26  29
ENDBRANCH  11  21
ENDBRANCH   1   7
BRANCH   4  31
ATOM     31  S   UNL     1      11.991 -43.305 -23.570  1.00  0.00     0.238 S 
ATOM     32  O   UNL     1      10.948 -42.961 -24.508  1.00  0.00    -0.207 OA
ATOM     33  O   UNL     1      11.977 -42.869 -22.193  1.00  0.00    -0.207 OA
BRANCH  31  34
ATOM     34  N   UNL     1      13.425 -42.767 -24.270  1.00  0.00    -0.225 NA
ATOM     35  H   UNL     1      13.708 -43.432 -24.992  1.00  0.00     0.137 HD
ATOM     36  H   UNL     1      14.169 -42.605 -23.592  1.00  0.00     0.137 HD
ENDBRANCH  31  34
ENDBRANCH   4  31
TORSDOF 7
ENDMDL
