MODEL 1
REMARK VINA RESULT:   -11.048      0.000      0.000
REMARK INTER + INTRA:         -15.513
REMARK INTER:                 -15.247
REMARK INTRA:                  -0.266
REMARK UNBOUND:                -0.266
REMARK SMILES COc1cc2c(cc1OC)C(O)=C(C[C@H]1CC[N@@H+](Cc3ccccc3)CC1)C2
REMARK SMILES IDX 14 1 13 2 11 3 6 4 28 5 7 6 5 7 8 8 4 9 3 10 12 11 9 13
REMARK SMILES IDX 10 14 2 15 1 16 15 17 27 18 16 19 26 20 17 21 18 22 19 24
REMARK SMILES IDX 20 25 21 26 25 27 22 28 24 29 23 30
REMARK H PARENT 12 12 18 23
ROOT
ATOM      1  C   UNL     1       9.637 -56.495 -23.126  1.00  0.00     0.039 C 
ENDROOT
BRANCH   1   2
ATOM      2  C   UNL     1      10.384 -55.200 -23.173  1.00  0.00    -0.023 C 
ATOM      3  C   UNL     1      10.287 -54.173 -22.314  1.00  0.00     0.122 C 
ATOM      4  C   UNL     1      11.131 -53.076 -22.762  1.00  0.00     0.024 A 
ATOM      5  C   UNL     1      11.292 -54.853 -24.338  1.00  0.00     0.071 C 
ATOM      6  C   UNL     1      11.388 -51.830 -22.217  1.00  0.00     0.062 A 
ATOM      7  C   UNL     1      11.739 -53.470 -23.963  1.00  0.00    -0.029 A 
ATOM      8  C   UNL     1      12.259 -50.974 -22.902  1.00  0.00     0.161 A 
ATOM      9  C   UNL     1      12.621 -52.639 -24.637  1.00  0.00     0.055 A 
ATOM     10  C   UNL     1      12.909 -51.389 -24.083  1.00  0.00     0.161 A 
BRANCH   3  11
ATOM     11  O   UNL     1       9.516 -54.113 -21.196  1.00  0.00    -0.507 OA
ATOM     12  H   UNL     1      10.044 -53.695 -20.493  1.00  0.00     0.293 HD
ENDBRANCH   3  11
BRANCH   8  13
ATOM     13  O   UNL     1      12.466 -49.737 -22.348  1.00  0.00    -0.493 OA
ATOM     14  C   UNL     1      11.427 -48.840 -22.753  1.00  0.00     0.278 C 
ENDBRANCH   8  13
BRANCH  10  15
ATOM     15  O   UNL     1      13.801 -50.629 -24.791  1.00  0.00    -0.493 OA
ATOM     16  C   UNL     1      13.944 -51.032 -26.153  1.00  0.00     0.278 C 
ENDBRANCH  10  15
ENDBRANCH   1   2
BRANCH   1  17
ATOM     17  C   UNL     1      10.434 -57.729 -22.653  1.00  0.00     0.004 C 
ATOM     18  C   UNL     1       9.552 -58.963 -22.415  1.00  0.00     0.065 C 
ATOM     19  C   UNL     1      11.603 -58.067 -23.592  1.00  0.00     0.065 C 
ATOM     20  C   UNL     1      10.369 -60.158 -21.941  1.00  0.00     0.262 C 
ATOM     21  C   UNL     1      12.391 -59.273 -23.103  1.00  0.00     0.262 C 
ATOM     22  N   UNL     1      11.481 -60.462 -22.909  1.00  0.00    -0.331 N 
ATOM     23  H   UNL     1      12.066 -61.181 -22.465  1.00  0.00     0.348 HD
BRANCH  22  24
ATOM     24  C   UNL     1      10.997 -61.112 -24.193  1.00  0.00     0.299 C 
BRANCH  24  25
ATOM     25  C   UNL     1       9.874 -62.087 -23.973  1.00  0.00     0.006 A 
ATOM     26  C   UNL     1       9.918 -62.992 -22.901  1.00  0.00     0.009 A 
ATOM     27  C   UNL     1       8.755 -62.094 -24.822  1.00  0.00     0.009 A 
ATOM     28  C   UNL     1       8.863 -63.878 -22.681  1.00  0.00     0.001 A 
ATOM     29  C   UNL     1       7.703 -62.982 -24.598  1.00  0.00     0.001 A 
ATOM     30  C   UNL     1       7.757 -63.872 -23.527  1.00  0.00     0.000 A 
ENDBRANCH  24  25
ENDBRANCH  22  24
ENDBRANCH   1  17
TORSDOF 7
ENDMDL
MODEL 2
REMARK VINA RESULT:   -10.589      1.330      2.560
REMARK INTER + INTRA:         -14.880
REMARK INTER:                 -14.600
REMARK INTRA:                  -0.280
REMARK UNBOUND:                -0.266
REMARK SMILES COc1cc2c(cc1OC)C(O)=C(C[C@H]1CC[N@@H+](Cc3ccccc3)CC1)C2
REMARK SMILES IDX 14 1 13 2 11 3 6 4 28 5 7 6 5 7 8 8 4 9 3 10 12 11 9 13
REMARK SMILES IDX 10 14 2 15 1 16 15 17 27 18 16 19 26 20 17 21 18 22 19 24
REMARK SMILES IDX 20 25 21 26 25 27 22 28 24 29 23 30
REMARK H PARENT 12 12 18 23
ROOT
ATOM      1  C   UNL     1       9.896 -55.585 -22.363  1.00  0.00     0.039 C 
ENDROOT
BRANCH   1   2
ATOM      2  C   UNL     1      10.599 -54.319 -22.737  1.00  0.00    -0.023 C 
ATOM      3  C   UNL     1      11.385 -54.110 -23.806  1.00  0.00     0.122 C 
ATOM      4  C   UNL     1      11.932 -52.763 -23.758  1.00  0.00     0.024 A 
ATOM      5  C   UNL     1      10.589 -53.108 -21.822  1.00  0.00     0.071 C 
ATOM      6  C   UNL     1      12.762 -52.075 -24.626  1.00  0.00     0.062 A 
ATOM      7  C   UNL     1      11.460 -52.153 -22.585  1.00  0.00    -0.029 A 
ATOM      8  C   UNL     1      13.127 -50.765 -24.294  1.00  0.00     0.161 A 
ATOM      9  C   UNL     1      11.797 -50.849 -22.260  1.00  0.00     0.055 A 
ATOM     10  C   UNL     1      12.614 -50.135 -23.140  1.00  0.00     0.161 A 
BRANCH   3  11
ATOM     11  O   UNL     1      11.672 -54.997 -24.794  1.00  0.00    -0.507 OA
ATOM     12  H   UNL     1      11.743 -55.880 -24.390  1.00  0.00     0.293 HD
ENDBRANCH   3  11
BRANCH   8  13
ATOM     13  O   UNL     1      13.976 -50.125 -25.161  1.00  0.00    -0.493 OA
ATOM     14  C   UNL     1      13.940 -50.766 -26.440  1.00  0.00     0.278 C 
ENDBRANCH   8  13
BRANCH  10  15
ATOM     15  O   UNL     1      12.891 -48.847 -22.765  1.00  0.00    -0.493 OA
ATOM     16  C   UNL     1      11.911 -47.902 -23.193  1.00  0.00     0.278 C 
ENDBRANCH  10  15
ENDBRANCH   1   2
BRANCH   1  17
ATOM     17  C   UNL     1      10.591 -56.901 -22.771  1.00  0.00     0.004 C 
ATOM     18  C   UNL     1      11.292 -57.603 -21.599  1.00  0.00     0.065 C 
ATOM     19  C   UNL     1       9.639 -57.867 -23.495  1.00  0.00     0.065 C 
ATOM     20  C   UNL     1      11.974 -58.892 -22.039  1.00  0.00     0.262 C 
ATOM     21  C   UNL     1      10.342 -59.150 -23.909  1.00  0.00     0.262 C 
ATOM     22  N   UNL     1      10.992 -59.811 -22.717  1.00  0.00    -0.331 N 
ATOM     23  H   UNL     1      11.541 -60.589 -23.103  1.00  0.00     0.348 HD
BRANCH  22  24
ATOM     24  C   UNL     1      10.027 -60.475 -21.750  1.00  0.00     0.299 C 
BRANCH  24  25
ATOM     25  C   UNL     1       9.162 -61.517 -22.403  1.00  0.00     0.006 A 
ATOM     26  C   UNL     1       7.998 -61.145 -23.093  1.00  0.00     0.009 A 
ATOM     27  C   UNL     1       9.516 -62.875 -22.352  1.00  0.00     0.009 A 
ATOM     28  C   UNL     1       7.211 -62.109 -23.723  1.00  0.00     0.001 A 
ATOM     29  C   UNL     1       8.725 -63.836 -22.982  1.00  0.00     0.001 A 
ATOM     30  C   UNL     1       7.575 -63.452 -23.668  1.00  0.00     0.000 A 
ENDBRANCH  24  25
ENDBRANCH  22  24
ENDBRANCH   1  17
TORSDOF 7
ENDMDL
MODEL 3
REMARK VINA RESULT:   -10.382      2.631      5.002
REMARK INTER + INTRA:         -14.593
REMARK INTER:                 -13.742
REMARK INTRA:                  -0.851
REMARK UNBOUND:                -0.266
REMARK SMILES COc1cc2c(cc1OC)C(O)=C(C[C@H]1CC[N@@H+](Cc3ccccc3)CC1)C2
REMARK SMILES IDX 14 1 13 2 11 3 6 4 28 5 7 6 5 7 8 8 4 9 3 10 12 11 9 13
REMARK SMILES IDX 10 14 2 15 1 16 15 17 27 18 16 19 26 20 17 21 18 22 19 24
REMARK SMILES IDX 20 25 21 26 25 27 22 28 24 29 23 30
REMARK H PARENT 12 12 18 23
ROOT
ATOM      1  C   UNL     1      11.378 -51.855 -21.554  1.00  0.00     0.039 C 
ENDROOT
BRANCH   1   2
ATOM      2  C   UNL     1      11.492 -50.479 -22.129  1.00  0.00    -0.023 C 
ATOM      3  C   UNL     1      10.528 -49.547 -22.209  1.00  0.00     0.122 C 
ATOM      4  C   UNL     1      11.034 -48.374 -22.905  1.00  0.00     0.024 A 
ATOM      5  C   UNL     1      12.756 -50.017 -22.831  1.00  0.00     0.071 C 
ATOM      6  C   UNL     1      10.444 -47.161 -23.213  1.00  0.00     0.062 A 
ATOM      7  C   UNL     1      12.361 -48.639 -23.275  1.00  0.00    -0.029 A 
ATOM      8  C   UNL     1      11.203 -46.215 -23.913  1.00  0.00     0.161 A 
ATOM      9  C   UNL     1      13.128 -47.700 -23.948  1.00  0.00     0.055 A 
ATOM     10  C   UNL     1      12.552 -46.461 -24.242  1.00  0.00     0.161 A 
BRANCH   3  11
ATOM     11  O   UNL     1       9.255 -49.649 -21.746  1.00  0.00    -0.507 OA
ATOM     12  H   UNL     1       8.701 -49.994 -22.468  1.00  0.00     0.293 HD
ENDBRANCH   3  11
BRANCH   8  13
ATOM     13  O   UNL     1      10.575 -45.036 -24.228  1.00  0.00    -0.493 OA
ATOM     14  C   UNL     1      10.629 -44.141 -23.113  1.00  0.00     0.278 C 
ENDBRANCH   8  13
BRANCH  10  15
ATOM     15  O   UNL     1      13.371 -45.576 -24.891  1.00  0.00    -0.493 OA
ATOM     16  C   UNL     1      14.118 -46.161 -25.957  1.00  0.00     0.278 C 
ENDBRANCH  10  15
ENDBRANCH   1   2
BRANCH   1  17
ATOM     17  C   UNL     1      10.736 -52.925 -22.463  1.00  0.00     0.004 C 
ATOM     18  C   UNL     1      11.715 -53.508 -23.493  1.00  0.00     0.065 C 
ATOM     19  C   UNL     1      10.058 -54.046 -21.658  1.00  0.00     0.065 C 
ATOM     20  C   UNL     1      11.046 -54.554 -24.376  1.00  0.00     0.262 C 
ATOM     21  C   UNL     1       9.414 -55.083 -22.566  1.00  0.00     0.262 C 
ATOM     22  N   UNL     1      10.423 -55.640 -23.541  1.00  0.00    -0.331 N 
ATOM     23  H   UNL     1       9.881 -56.228 -24.185  1.00  0.00     0.348 HD
BRANCH  22  24
ATOM     24  C   UNL     1      11.443 -56.587 -22.933  1.00  0.00     0.299 C 
BRANCH  24  25
ATOM     25  C   UNL     1      10.849 -57.906 -22.520  1.00  0.00     0.006 A 
ATOM     26  C   UNL     1       9.954 -58.579 -23.366  1.00  0.00     0.009 A 
ATOM     27  C   UNL     1      11.196 -58.494 -21.293  1.00  0.00     0.009 A 
ATOM     28  C   UNL     1       9.425 -59.815 -22.995  1.00  0.00     0.001 A 
ATOM     29  C   UNL     1      10.663 -59.730 -20.926  1.00  0.00     0.001 A 
ATOM     30  C   UNL     1       9.780 -60.390 -21.778  1.00  0.00     0.000 A 
ENDBRANCH  24  25
ENDBRANCH  22  24
ENDBRANCH   1  17
TORSDOF 7
ENDMDL
MODEL 4
REMARK VINA RESULT:   -10.211      2.102      3.385
REMARK INTER + INTRA:         -14.357
REMARK INTER:                 -13.738
REMARK INTRA:                  -0.619
REMARK UNBOUND:                -0.266
REMARK SMILES COc1cc2c(cc1OC)C(O)=C(C[C@H]1CC[N@@H+](Cc3ccccc3)CC1)C2
REMARK SMILES IDX 14 1 13 2 11 3 6 4 28 5 7 6 5 7 8 8 4 9 3 10 12 11 9 13
REMARK SMILES IDX 10 14 2 15 1 16 15 17 27 18 16 19 26 20 17 21 18 22 19 24
REMARK SMILES IDX 20 25 21 26 25 27 22 28 24 29 23 30
REMARK H PARENT 12 12 18 23
ROOT
ATOM      1  C   UNL     1      10.845 -57.807 -22.260  1.00  0.00     0.039 C 
ENDROOT
BRANCH   1   2
ATOM      2  C   UNL     1      11.012 -56.341 -22.502  1.00  0.00    -0.023 C 
ATOM      3  C   UNL     1      11.577 -55.751 -23.568  1.00  0.00     0.122 C 
ATOM      4  C   UNL     1      11.606 -54.309 -23.374  1.00  0.00     0.024 A 
ATOM      5  C   UNL     1      10.645 -55.318 -21.443  1.00  0.00     0.071 C 
ATOM      6  C   UNL     1      12.057 -53.281 -24.183  1.00  0.00     0.062 A 
ATOM      7  C   UNL     1      11.048 -54.038 -22.116  1.00  0.00    -0.029 A 
ATOM      8  C   UNL     1      11.954 -51.969 -23.704  1.00  0.00     0.161 A 
ATOM      9  C   UNL     1      10.920 -52.741 -21.644  1.00  0.00     0.055 A 
ATOM     10  C   UNL     1      11.348 -51.692 -22.461  1.00  0.00     0.161 A 
BRANCH   3  11
ATOM     11  O   UNL     1      12.080 -56.366 -24.671  1.00  0.00    -0.507 OA
ATOM     12  H   UNL     1      11.445 -57.051 -24.944  1.00  0.00     0.293 HD
ENDBRANCH   3  11
BRANCH   8  13
ATOM     13  O   UNL     1      12.440 -50.978 -24.520  1.00  0.00    -0.493 OA
ATOM     14  C   UNL     1      13.282 -51.545 -25.528  1.00  0.00     0.278 C 
ENDBRANCH   8  13
BRANCH  10  15
ATOM     15  O   UNL     1      11.175 -50.437 -21.939  1.00  0.00    -0.493 OA
ATOM     16  C   UNL     1       9.914 -49.851 -22.263  1.00  0.00     0.278 C 
ENDBRANCH  10  15
ENDBRANCH   1   2
BRANCH   1  17
ATOM     17  C   UNL     1       9.565 -58.454 -22.832  1.00  0.00     0.004 C 
ATOM     18  C   UNL     1       9.631 -58.683 -24.349  1.00  0.00     0.065 C 
ATOM     19  C   UNL     1       9.186 -59.751 -22.099  1.00  0.00     0.065 C 
ATOM     20  C   UNL     1       8.349 -59.314 -24.879  1.00  0.00     0.262 C 
ATOM     21  C   UNL     1       7.913 -60.366 -22.660  1.00  0.00     0.262 C 
ATOM     22  N   UNL     1       8.040 -60.593 -24.147  1.00  0.00    -0.331 N 
ATOM     23  H   UNL     1       7.106 -60.887 -24.458  1.00  0.00     0.348 HD
BRANCH  22  24
ATOM     24  C   UNL     1       8.949 -61.744 -24.543  1.00  0.00     0.299 C 
BRANCH  24  25
ATOM     25  C   UNL     1       8.827 -62.119 -25.994  1.00  0.00     0.006 A 
ATOM     26  C   UNL     1       9.612 -61.476 -26.963  1.00  0.00     0.009 A 
ATOM     27  C   UNL     1       7.943 -63.133 -26.399  1.00  0.00     0.009 A 
ATOM     28  C   UNL     1       9.519 -61.843 -28.305  1.00  0.00     0.001 A 
ATOM     29  C   UNL     1       7.853 -63.496 -27.743  1.00  0.00     0.001 A 
ATOM     30  C   UNL     1       8.642 -62.853 -28.694  1.00  0.00     0.000 A 
ENDBRANCH  24  25
ENDBRANCH  22  24
ENDBRANCH   1  17
TORSDOF 7
ENDMDL
MODEL 5
REMARK VINA RESULT:    -9.849      3.436     10.707
REMARK INTER + INTRA:         -13.858
REMARK INTER:                 -13.126
REMARK INTRA:                  -0.732
REMARK UNBOUND:                -0.266
REMARK SMILES COc1cc2c(cc1OC)C(O)=C(C[C@H]1CC[N@@H+](Cc3ccccc3)CC1)C2
REMARK SMILES IDX 14 1 13 2 11 3 6 4 28 5 7 6 5 7 8 8 4 9 3 10 12 11 9 13
REMARK SMILES IDX 10 14 2 15 1 16 15 17 27 18 16 19 26 20 17 21 18 22 19 24
REMARK SMILES IDX 20 25 21 26 25 27 22 28 24 29 23 30
REMARK H PARENT 12 12 18 23
ROOT
ATOM      1  C   UNL     1      10.684 -52.710 -23.017  1.00  0.00     0.039 C 
ENDROOT
BRANCH   1   2
ATOM      2  C   UNL     1      10.976 -54.176 -23.013  1.00  0.00    -0.023 C 
ATOM      3  C   UNL     1      11.437 -54.918 -24.033  1.00  0.00     0.122 C 
ATOM      4  C   UNL     1      11.512 -56.314 -23.632  1.00  0.00     0.024 A 
ATOM      5  C   UNL     1      10.641 -55.046 -21.815  1.00  0.00     0.071 C 
ATOM      6  C   UNL     1      11.939 -57.444 -24.307  1.00  0.00     0.062 A 
ATOM      7  C   UNL     1      11.047 -56.403 -22.312  1.00  0.00    -0.029 A 
ATOM      8  C   UNL     1      11.882 -58.674 -23.642  1.00  0.00     0.161 A 
ATOM      9  C   UNL     1      11.008 -57.613 -21.636  1.00  0.00     0.055 A 
ATOM     10  C   UNL     1      11.461 -58.757 -22.298  1.00  0.00     0.161 A 
BRANCH   3  11
ATOM     11  O   UNL     1      11.775 -54.478 -25.274  1.00  0.00    -0.507 OA
ATOM     12  H   UNL     1      12.283 -53.654 -25.170  1.00  0.00     0.293 HD
ENDBRANCH   3  11
BRANCH   8  13
ATOM     13  O   UNL     1      12.284 -59.776 -24.353  1.00  0.00    -0.493 OA
ATOM     14  C   UNL     1      11.291 -60.121 -25.323  1.00  0.00     0.278 C 
ENDBRANCH   8  13
BRANCH  10  15
ATOM     15  O   UNL     1      11.411 -59.913 -21.565  1.00  0.00    -0.493 OA
ATOM     16  C   UNL     1      10.131 -60.545 -21.578  1.00  0.00     0.278 C 
ENDBRANCH  10  15
ENDBRANCH   1   2
BRANCH   1  17
ATOM     17  C   UNL     1      11.895 -51.770 -22.825  1.00  0.00     0.004 C 
ATOM     18  C   UNL     1      12.818 -51.719 -24.051  1.00  0.00     0.065 C 
ATOM     19  C   UNL     1      11.476 -50.355 -22.397  1.00  0.00     0.065 C 
ATOM     20  C   UNL     1      14.005 -50.790 -23.824  1.00  0.00     0.262 C 
ATOM     21  C   UNL     1      12.679 -49.446 -22.193  1.00  0.00     0.262 C 
ATOM     22  N   UNL     1      13.538 -49.413 -23.434  1.00  0.00    -0.331 N 
ATOM     23  H   UNL     1      14.379 -48.886 -23.167  1.00  0.00     0.348 HD
BRANCH  22  24
ATOM     24  C   UNL     1      12.953 -48.627 -24.595  1.00  0.00     0.299 C 
BRANCH  24  25
ATOM     25  C   UNL     1      12.489 -47.252 -24.201  1.00  0.00     0.006 A 
ATOM     26  C   UNL     1      13.419 -46.259 -23.856  1.00  0.00     0.009 A 
ATOM     27  C   UNL     1      11.121 -46.934 -24.193  1.00  0.00     0.009 A 
ATOM     28  C   UNL     1      12.989 -44.976 -23.518  1.00  0.00     0.001 A 
ATOM     29  C   UNL     1      10.697 -45.649 -23.853  1.00  0.00     0.001 A 
ATOM     30  C   UNL     1      11.630 -44.671 -23.518  1.00  0.00     0.000 A 
ENDBRANCH  24  25
ENDBRANCH  22  24
ENDBRANCH   1  17
TORSDOF 7
ENDMDL
MODEL 6
REMARK VINA RESULT:    -9.666      3.498     10.555
REMARK INTER + INTRA:         -13.606
REMARK INTER:                 -12.937
REMARK INTRA:                  -0.668
REMARK UNBOUND:                -0.266
REMARK SMILES COc1cc2c(cc1OC)C(O)=C(C[C@H]1CC[N@@H+](Cc3ccccc3)CC1)C2
REMARK SMILES IDX 14 1 13 2 11 3 6 4 28 5 7 6 5 7 8 8 4 9 3 10 12 11 9 13
REMARK SMILES IDX 10 14 2 15 1 16 15 17 27 18 16 19 26 20 17 21 18 22 19 24
REMARK SMILES IDX 20 25 21 26 25 27 22 28 24 29 23 30
REMARK H PARENT 12 12 18 23
ROOT
ATOM      1  C   UNL     1      10.635 -52.330 -22.780  1.00  0.00     0.039 C 
ENDROOT
BRANCH   1   2
ATOM      2  C   UNL     1      10.838 -53.811 -22.773  1.00  0.00    -0.023 C 
ATOM      3  C   UNL     1      10.767 -54.638 -21.716  1.00  0.00     0.122 C 
ATOM      4  C   UNL     1      11.105 -55.992 -22.127  1.00  0.00     0.024 A 
ATOM      5  C   UNL     1      11.295 -54.553 -24.015  1.00  0.00     0.071 C 
ATOM      6  C   UNL     1      11.151 -57.182 -21.424  1.00  0.00     0.062 A 
ATOM      7  C   UNL     1      11.415 -55.956 -23.495  1.00  0.00    -0.029 A 
ATOM      8  C   UNL     1      11.527 -58.343 -22.111  1.00  0.00     0.161 A 
ATOM      9  C   UNL     1      11.767 -57.104 -24.189  1.00  0.00     0.055 A 
ATOM     10  C   UNL     1      11.792 -58.316 -23.496  1.00  0.00     0.161 A 
BRANCH   3  11
ATOM     11  O   UNL     1      10.452 -54.302 -20.437  1.00  0.00    -0.507 OA
ATOM     12  H   UNL     1      10.951 -54.891 -19.844  1.00  0.00     0.293 HD
ENDBRANCH   3  11
BRANCH   8  13
ATOM     13  O   UNL     1      11.592 -59.499 -21.374  1.00  0.00    -0.493 OA
ATOM     14  C   UNL     1      10.314 -60.141 -21.360  1.00  0.00     0.278 C 
ENDBRANCH   8  13
BRANCH  10  15
ATOM     15  O   UNL     1      12.129 -59.411 -24.247  1.00  0.00    -0.493 OA
ATOM     16  C   UNL     1      11.966 -59.214 -25.652  1.00  0.00     0.278 C 
ENDBRANCH  10  15
ENDBRANCH   1   2
BRANCH   1  17
ATOM     17  C   UNL     1      11.912 -51.463 -22.821  1.00  0.00     0.004 C 
ATOM     18  C   UNL     1      12.634 -51.516 -24.175  1.00  0.00     0.065 C 
ATOM     19  C   UNL     1      11.647 -50.008 -22.401  1.00  0.00     0.065 C 
ATOM     20  C   UNL     1      13.893 -50.658 -24.177  1.00  0.00     0.262 C 
ATOM     21  C   UNL     1      12.917 -49.172 -22.427  1.00  0.00     0.262 C 
ATOM     22  N   UNL     1      13.572 -49.240 -23.785  1.00  0.00    -0.331 N 
ATOM     23  H   UNL     1      14.473 -48.758 -23.676  1.00  0.00     0.348 HD
BRANCH  22  24
ATOM     24  C   UNL     1      12.860 -48.463 -24.878  1.00  0.00     0.299 C 
BRANCH  24  25
ATOM     25  C   UNL     1      12.438 -47.086 -24.443  1.00  0.00     0.006 A 
ATOM     26  C   UNL     1      11.080 -46.784 -24.257  1.00  0.00     0.009 A 
ATOM     27  C   UNL     1      13.395 -46.090 -24.195  1.00  0.00     0.009 A 
ATOM     28  C   UNL     1      10.691 -45.515 -23.827  1.00  0.00     0.001 A 
ATOM     29  C   UNL     1      13.001 -44.822 -23.766  1.00  0.00     0.001 A 
ATOM     30  C   UNL     1      11.650 -44.537 -23.580  1.00  0.00     0.000 A 
ENDBRANCH  24  25
ENDBRANCH  22  24
ENDBRANCH   1  17
TORSDOF 7
ENDMDL
MODEL 7
REMARK VINA RESULT:    -9.262      3.413     10.314
REMARK INTER + INTRA:         -13.048
REMARK INTER:                 -12.419
REMARK INTRA:                  -0.629
REMARK UNBOUND:                -0.266
REMARK SMILES COc1cc2c(cc1OC)C(O)=C(C[C@H]1CC[N@@H+](Cc3ccccc3)CC1)C2
REMARK SMILES IDX 14 1 13 2 11 3 6 4 28 5 7 6 5 7 8 8 4 9 3 10 12 11 9 13
REMARK SMILES IDX 10 14 2 15 1 16 15 17 27 18 16 19 26 20 17 21 18 22 19 24
REMARK SMILES IDX 20 25 21 26 25 27 22 28 24 29 23 30
REMARK H PARENT 12 12 18 23
ROOT
ATOM      1  C   UNL     1      10.766 -52.589 -22.970  1.00  0.00     0.039 C 
ENDROOT
BRANCH   1   2
ATOM      2  C   UNL     1      11.017 -54.062 -22.910  1.00  0.00    -0.023 C 
ATOM      3  C   UNL     1      11.406 -54.864 -23.915  1.00  0.00     0.122 C 
ATOM      4  C   UNL     1      11.462 -56.242 -23.452  1.00  0.00     0.024 A 
ATOM      5  C   UNL     1      10.719 -54.865 -21.657  1.00  0.00     0.071 C 
ATOM      6  C   UNL     1      11.823 -57.414 -24.092  1.00  0.00     0.062 A 
ATOM      7  C   UNL     1      11.061 -56.255 -22.108  1.00  0.00    -0.029 A 
ATOM      8  C   UNL     1      11.765 -58.610 -23.367  1.00  0.00     0.161 A 
ATOM      9  C   UNL     1      11.022 -57.431 -21.374  1.00  0.00     0.055 A 
ATOM     10  C   UNL     1      11.410 -58.617 -22.002  1.00  0.00     0.161 A 
BRANCH   3  11
ATOM     11  O   UNL     1      11.693 -54.492 -25.190  1.00  0.00    -0.507 OA
ATOM     12  H   UNL     1      10.938 -53.980 -25.529  1.00  0.00     0.293 HD
ENDBRANCH   3  11
BRANCH   8  13
ATOM     13  O   UNL     1      12.101 -59.755 -24.043  1.00  0.00    -0.493 OA
ATOM     14  C   UNL     1      12.023 -59.529 -25.454  1.00  0.00     0.278 C 
ENDBRANCH   8  13
BRANCH  10  15
ATOM     15  O   UNL     1      11.365 -59.736 -21.213  1.00  0.00    -0.493 OA
ATOM     16  C   UNL     1      10.145 -60.468 -21.325  1.00  0.00     0.278 C 
ENDBRANCH  10  15
ENDBRANCH   1   2
BRANCH   1  17
ATOM     17  C   UNL     1      12.002 -51.677 -22.812  1.00  0.00     0.004 C 
ATOM     18  C   UNL     1      12.993 -51.796 -23.980  1.00  0.00     0.065 C 
ATOM     19  C   UNL     1      11.620 -50.208 -22.568  1.00  0.00     0.065 C 
ATOM     20  C   UNL     1      14.202 -50.890 -23.787  1.00  0.00     0.262 C 
ATOM     21  C   UNL     1      12.846 -49.326 -22.395  1.00  0.00     0.262 C 
ATOM     22  N   UNL     1      13.773 -49.462 -23.580  1.00  0.00    -0.331 N 
ATOM     23  H   UNL     1      14.619 -48.938 -23.324  1.00  0.00     0.348 HD
BRANCH  22  24
ATOM     24  C   UNL     1      13.285 -48.792 -24.853  1.00  0.00     0.299 C 
BRANCH  24  25
ATOM     25  C   UNL     1      14.369 -48.623 -25.882  1.00  0.00     0.006 A 
ATOM     26  C   UNL     1      15.363 -47.647 -25.714  1.00  0.00     0.009 A 
ATOM     27  C   UNL     1      14.415 -49.453 -27.014  1.00  0.00     0.009 A 
ATOM     28  C   UNL     1      16.383 -47.508 -26.655  1.00  0.00     0.001 A 
ATOM     29  C   UNL     1      15.438 -49.310 -27.952  1.00  0.00     0.001 A 
ATOM     30  C   UNL     1      16.421 -48.340 -27.771  1.00  0.00     0.000 A 
ENDBRANCH  24  25
ENDBRANCH  22  24
ENDBRANCH   1  17
TORSDOF 7
ENDMDL
MODEL 8
REMARK VINA RESULT:    -9.141      2.712      5.161
REMARK INTER + INTRA:         -12.880
REMARK INTER:                 -12.692
REMARK INTRA:                  -0.188
REMARK UNBOUND:                -0.266
REMARK SMILES COc1cc2c(cc1OC)C(O)=C(C[C@H]1CC[N@@H+](Cc3ccccc3)CC1)C2
REMARK SMILES IDX 14 1 13 2 11 3 6 4 28 5 7 6 5 7 8 8 4 9 3 10 12 11 9 13
REMARK SMILES IDX 10 14 2 15 1 16 15 17 27 18 16 19 26 20 17 21 18 22 19 24
REMARK SMILES IDX 20 25 21 26 25 27 22 28 24 29 23 30
REMARK H PARENT 12 12 18 23
ROOT
ATOM      1  C   UNL     1      11.208 -51.217 -22.045  1.00  0.00     0.039 C 
ENDROOT
BRANCH   1   2
ATOM      2  C   UNL     1      11.869 -50.172 -22.887  1.00  0.00    -0.023 C 
ATOM      3  C   UNL     1      11.689 -48.842 -22.824  1.00  0.00     0.122 C 
ATOM      4  C   UNL     1      12.466 -48.191 -23.868  1.00  0.00     0.024 A 
ATOM      5  C   UNL     1      12.773 -50.546 -24.047  1.00  0.00     0.071 C 
ATOM      6  C   UNL     1      12.630 -46.857 -24.196  1.00  0.00     0.062 A 
ATOM      7  C   UNL     1      13.121 -49.193 -24.599  1.00  0.00    -0.029 A 
ATOM      8  C   UNL     1      13.454 -46.539 -25.282  1.00  0.00     0.161 A 
ATOM      9  C   UNL     1      13.957 -48.887 -25.661  1.00  0.00     0.055 A 
ATOM     10  C   UNL     1      14.151 -47.543 -25.986  1.00  0.00     0.161 A 
BRANCH   3  11
ATOM     11  O   UNL     1      10.896 -48.166 -21.952  1.00  0.00    -0.507 OA
ATOM     12  H   UNL     1      11.075 -48.509 -21.059  1.00  0.00     0.293 HD
ENDBRANCH   3  11
BRANCH   8  13
ATOM     13  O   UNL     1      13.568 -45.208 -25.597  1.00  0.00    -0.493 OA
ATOM     14  C   UNL     1      12.520 -44.466 -24.967  1.00  0.00     0.278 C 
ENDBRANCH   8  13
BRANCH  10  15
ATOM     15  O   UNL     1      15.004 -47.313 -27.033  1.00  0.00    -0.493 OA
ATOM     16  C   UNL     1      16.132 -48.188 -27.057  1.00  0.00     0.278 C 
ENDBRANCH  10  15
ENDBRANCH   1   2
BRANCH   1  17
ATOM     17  C   UNL     1      10.718 -52.481 -22.784  1.00  0.00     0.004 C 
ATOM     18  C   UNL     1      11.858 -53.284 -23.428  1.00  0.00     0.065 C 
ATOM     19  C   UNL     1       9.853 -53.384 -21.889  1.00  0.00     0.065 C 
ATOM     20  C   UNL     1      11.339 -54.518 -24.154  1.00  0.00     0.262 C 
ATOM     21  C   UNL     1       9.362 -54.615 -22.635  1.00  0.00     0.262 C 
ATOM     22  N   UNL     1      10.522 -55.379 -23.227  1.00  0.00    -0.331 N 
ATOM     23  H   UNL     1      10.096 -56.111 -23.809  1.00  0.00     0.348 HD
BRANCH  22  24
ATOM     24  C   UNL     1      11.365 -56.141 -22.220  1.00  0.00     0.299 C 
BRANCH  24  25
ATOM     25  C   UNL     1      11.369 -57.626 -22.459  1.00  0.00     0.006 A 
ATOM     26  C   UNL     1      10.932 -58.509 -21.459  1.00  0.00     0.009 A 
ATOM     27  C   UNL     1      11.789 -58.151 -23.692  1.00  0.00     0.009 A 
ATOM     28  C   UNL     1      10.910 -59.884 -21.692  1.00  0.00     0.001 A 
ATOM     29  C   UNL     1      11.766 -59.527 -23.919  1.00  0.00     0.001 A 
ATOM     30  C   UNL     1      11.325 -60.392 -22.920  1.00  0.00     0.000 A 
ENDBRANCH  24  25
ENDBRANCH  22  24
ENDBRANCH   1  17
TORSDOF 7
ENDMDL
MODEL 9
REMARK VINA RESULT:    -9.085      2.612      5.298
REMARK INTER + INTRA:         -12.803
REMARK INTER:                 -12.317
REMARK INTRA:                  -0.486
REMARK UNBOUND:                -0.266
REMARK SMILES COc1cc2c(cc1OC)C(O)=C(C[C@H]1CC[N@@H+](Cc3ccccc3)CC1)C2
REMARK SMILES IDX 14 1 13 2 11 3 6 4 28 5 7 6 5 7 8 8 4 9 3 10 12 11 9 13
REMARK SMILES IDX 10 14 2 15 1 16 15 17 27 18 16 19 26 20 17 21 18 22 19 24
REMARK SMILES IDX 20 25 21 26 25 27 22 28 24 29 23 30
REMARK H PARENT 12 12 18 23
ROOT
ATOM      1  C   UNL     1      12.521 -52.218 -23.994  1.00  0.00     0.039 C 
ENDROOT
BRANCH   1   2
ATOM      2  C   UNL     1      12.527 -50.818 -23.469  1.00  0.00    -0.023 C 
ATOM      3  C   UNL     1      13.550 -50.171 -22.888  1.00  0.00     0.122 C 
ATOM      4  C   UNL     1      13.116 -48.852 -22.454  1.00  0.00     0.024 A 
ATOM      5  C   UNL     1      11.261 -49.982 -23.430  1.00  0.00     0.071 C 
ATOM      6  C   UNL     1      13.794 -47.816 -21.837  1.00  0.00     0.062 A 
ATOM      7  C   UNL     1      11.756 -48.725 -22.777  1.00  0.00    -0.029 A 
ATOM      8  C   UNL     1      13.084 -46.648 -21.532  1.00  0.00     0.161 A 
ATOM      9  C   UNL     1      11.051 -47.564 -22.500  1.00  0.00     0.055 A 
ATOM     10  C   UNL     1      11.731 -46.501 -21.900  1.00  0.00     0.161 A 
BRANCH   3  11
ATOM     11  O   UNL     1      14.810 -50.643 -22.693  1.00  0.00    -0.507 OA
ATOM     12  H   UNL     1      15.284 -50.583 -23.541  1.00  0.00     0.293 HD
ENDBRANCH   3  11
BRANCH   8  13
ATOM     13  O   UNL     1      13.782 -45.655 -20.892  1.00  0.00    -0.493 OA
ATOM     14  C   UNL     1      14.246 -44.693 -21.844  1.00  0.00     0.278 C 
ENDBRANCH   8  13
BRANCH  10  15
ATOM     15  O   UNL     1      10.977 -45.380 -21.673  1.00  0.00    -0.493 OA
ATOM     16  C   UNL     1      10.362 -44.855 -22.849  1.00  0.00     0.278 C 
ENDBRANCH  10  15
ENDBRANCH   1   2
BRANCH   1  17
ATOM     17  C   UNL     1      11.374 -53.128 -23.504  1.00  0.00     0.004 C 
ATOM     18  C   UNL     1      11.413 -54.534 -24.120  1.00  0.00     0.065 C 
ATOM     19  C   UNL     1      11.303 -53.207 -21.970  1.00  0.00     0.065 C 
ATOM     20  C   UNL     1      10.264 -55.401 -23.621  1.00  0.00     0.262 C 
ATOM     21  C   UNL     1      10.157 -54.090 -21.501  1.00  0.00     0.262 C 
ATOM     22  N   UNL     1      10.258 -55.465 -22.117  1.00  0.00    -0.331 N 
ATOM     23  H   UNL     1       9.390 -55.946 -21.850  1.00  0.00     0.348 HD
BRANCH  22  24
ATOM     24  C   UNL     1      11.362 -56.340 -21.550  1.00  0.00     0.299 C 
BRANCH  24  25
ATOM     25  C   UNL     1      11.278 -57.769 -22.012  1.00  0.00     0.006 A 
ATOM     26  C   UNL     1      10.748 -58.758 -21.169  1.00  0.00     0.009 A 
ATOM     27  C   UNL     1      11.707 -58.131 -23.298  1.00  0.00     0.009 A 
ATOM     28  C   UNL     1      10.644 -60.078 -21.607  1.00  0.00     0.001 A 
ATOM     29  C   UNL     1      11.601 -59.453 -23.732  1.00  0.00     0.001 A 
ATOM     30  C   UNL     1      11.069 -60.424 -22.888  1.00  0.00     0.000 A 
ENDBRANCH  24  25
ENDBRANCH  22  24
ENDBRANCH   1  17
TORSDOF 7
ENDMDL
