MODEL 1
REMARK VINA RESULT:   -11.432      0.000      0.000
REMARK INTER + INTRA:         -13.545
REMARK INTER:                 -13.437
REMARK INTRA:                  -0.108
REMARK UNBOUND:                -0.108
REMARK SMILES Oc1ccc([C@@H]2C[C@H](c3c4ccccc4cc4ccccc34)N=N2)c(O)c1
REMARK SMILES IDX 5 1 4 2 3 3 2 4 27 5 25 6 6 7 8 8 7 9 23 10 24 11 9 12 10 13
REMARK SMILES IDX 22 14 11 15 15 16 21 17 17 18 12 19 14 20 16 21 20 22 18 23
REMARK SMILES IDX 13 24 19 25 26 26 1 28
REMARK H PARENT 26 27 1 29
ROOT
ATOM      1  C   UNL     1      11.577 -46.269 -22.583  1.00  0.00     0.021 A 
ATOM      2  C   UNL     1      12.795 -45.980 -23.221  1.00  0.00     0.013 A 
ATOM      3  C   UNL     1      13.051 -44.708 -23.738  1.00  0.00     0.047 A 
ATOM      4  C   UNL     1      12.087 -43.713 -23.616  1.00  0.00     0.119 A 
ATOM      5  C   UNL     1      10.876 -43.968 -22.984  1.00  0.00     0.092 A 
ATOM      6  C   UNL     1      10.630 -45.241 -22.472  1.00  0.00     0.124 A 
ENDROOT
BRANCH   1   7
ATOM      7  C   UNL     1      11.288 -47.636 -22.003  1.00  0.00     0.164 C 
ATOM      8  C   UNL     1      11.400 -49.929 -22.314  1.00  0.00     0.162 C 
ATOM      9  C   UNL     1      12.251 -48.693 -22.513  1.00  0.00     0.068 C 
ATOM     10  N   UNL     1      10.016 -49.438 -22.532  1.00  0.00    -0.185 NA
ATOM     11  N   UNL     1       9.956 -48.192 -22.359  1.00  0.00    -0.185 NA
BRANCH   8  12
ATOM     12  C   UNL     1      11.842 -51.116 -23.171  1.00  0.00    -0.006 A 
ATOM     13  C   UNL     1      11.439 -52.441 -22.765  1.00  0.00    -0.012 A 
ATOM     14  C   UNL     1      12.657 -50.934 -24.346  1.00  0.00    -0.012 A 
ATOM     15  C   UNL     1      10.728 -52.755 -21.575  1.00  0.00     0.009 A 
ATOM     16  C   UNL     1      11.774 -53.537 -23.594  1.00  0.00    -0.017 A 
ATOM     17  C   UNL     1      13.207 -49.701 -24.790  1.00  0.00     0.009 A 
ATOM     18  C   UNL     1      12.964 -52.065 -25.139  1.00  0.00    -0.017 A 
ATOM     19  C   UNL     1      10.349 -54.061 -21.244  1.00  0.00     0.001 A 
ATOM     20  C   UNL     1      11.383 -54.845 -23.256  1.00  0.00     0.009 A 
ATOM     21  C   UNL     1      12.508 -53.331 -24.764  1.00  0.00     0.017 A 
ATOM     22  C   UNL     1      13.979 -49.589 -25.952  1.00  0.00     0.001 A 
ATOM     23  C   UNL     1      13.736 -51.943 -26.309  1.00  0.00     0.009 A 
ATOM     24  C   UNL     1      10.672 -55.107 -22.090  1.00  0.00     0.001 A 
ATOM     25  C   UNL     1      14.239 -50.712 -26.716  1.00  0.00     0.001 A 
ENDBRANCH   8  12
ENDBRANCH   1   7
BRANCH   6  26
ATOM     26  O   UNL     1       9.445 -45.506 -21.843  1.00  0.00    -0.507 OA
ATOM     27  H   UNL     1       9.598 -45.497 -20.882  1.00  0.00     0.293 HD
ENDBRANCH   6  26
BRANCH   4  28
ATOM     28  O   UNL     1      12.294 -42.458 -24.106  1.00  0.00    -0.508 OA
ATOM     29  H   UNL     1      11.817 -41.824 -23.545  1.00  0.00     0.293 HD
ENDBRANCH   4  28
TORSDOF 4
ENDMDL
MODEL 2
REMARK VINA RESULT:   -11.386      0.485      3.578
REMARK INTER + INTRA:         -13.490
REMARK INTER:                 -13.710
REMARK INTRA:                   0.219
REMARK UNBOUND:                -0.108
REMARK SMILES Oc1ccc([C@@H]2C[C@H](c3c4ccccc4cc4ccccc34)N=N2)c(O)c1
REMARK SMILES IDX 5 1 4 2 3 3 2 4 27 5 25 6 6 7 8 8 7 9 23 10 24 11 9 12 10 13
REMARK SMILES IDX 22 14 11 15 15 16 21 17 17 18 12 19 14 20 16 21 20 22 18 23
REMARK SMILES IDX 13 24 19 25 26 26 1 28
REMARK H PARENT 26 27 1 29
ROOT
ATOM      1  C   UNL     1      11.363 -46.557 -22.885  1.00  0.00     0.021 A 
ATOM      2  C   UNL     1      12.404 -46.323 -23.799  1.00  0.00     0.013 A 
ATOM      3  C   UNL     1      12.546 -45.082 -24.423  1.00  0.00     0.047 A 
ATOM      4  C   UNL     1      11.646 -44.063 -24.132  1.00  0.00     0.119 A 
ATOM      5  C   UNL     1      10.611 -44.263 -23.228  1.00  0.00     0.092 A 
ATOM      6  C   UNL     1      10.476 -45.505 -22.611  1.00  0.00     0.124 A 
ENDROOT
BRANCH   1   7
ATOM      7  C   UNL     1      11.201 -47.890 -22.188  1.00  0.00     0.164 C 
ATOM      8  C   UNL     1      11.347 -50.195 -22.368  1.00  0.00     0.162 C 
ATOM      9  C   UNL     1      12.121 -48.954 -22.758  1.00  0.00     0.068 C 
ATOM     10  N   UNL     1       9.930 -49.754 -22.425  1.00  0.00    -0.185 NA
ATOM     11  N   UNL     1       9.852 -48.502 -22.322  1.00  0.00    -0.185 NA
BRANCH   8  12
ATOM     12  C   UNL     1      11.709 -51.424 -23.203  1.00  0.00    -0.006 A 
ATOM     13  C   UNL     1      12.562 -51.244 -24.353  1.00  0.00    -0.012 A 
ATOM     14  C   UNL     1      11.203 -52.734 -22.875  1.00  0.00    -0.012 A 
ATOM     15  C   UNL     1      13.035 -49.993 -24.836  1.00  0.00     0.009 A 
ATOM     16  C   UNL     1      12.969 -52.384 -25.084  1.00  0.00    -0.017 A 
ATOM     17  C   UNL     1      10.275 -53.028 -21.840  1.00  0.00     0.009 A 
ATOM     18  C   UNL     1      11.642 -53.841 -23.640  1.00  0.00    -0.017 A 
ATOM     19  C   UNL     1      13.877 -49.884 -25.949  1.00  0.00     0.001 A 
ATOM     20  C   UNL     1      13.820 -52.264 -26.197  1.00  0.00     0.009 A 
ATOM     21  C   UNL     1      12.520 -53.652 -24.708  1.00  0.00     0.017 A 
ATOM     22  C   UNL     1       9.835 -54.326 -21.561  1.00  0.00     0.001 A 
ATOM     23  C   UNL     1      11.198 -55.144 -23.349  1.00  0.00     0.009 A 
ATOM     24  C   UNL     1      14.276 -51.023 -26.627  1.00  0.00     0.001 A 
ATOM     25  C   UNL     1      10.302 -55.388 -22.314  1.00  0.00     0.001 A 
ENDBRANCH   8  12
ENDBRANCH   1   7
BRANCH   6  26
ATOM     26  O   UNL     1       9.465 -45.717 -21.714  1.00  0.00    -0.507 OA
ATOM     27  H   UNL     1       8.632 -45.809 -22.208  1.00  0.00     0.293 HD
ENDBRANCH   6  26
BRANCH   4  28
ATOM     28  O   UNL     1      11.748 -42.836 -24.717  1.00  0.00    -0.508 OA
ATOM     29  H   UNL     1      10.925 -42.654 -25.201  1.00  0.00     0.293 HD
ENDBRANCH   4  28
TORSDOF 4
ENDMDL
MODEL 3
REMARK VINA RESULT:   -10.496      1.190      1.336
REMARK INTER + INTRA:         -12.444
REMARK INTER:                 -12.525
REMARK INTRA:                   0.081
REMARK UNBOUND:                -0.108
REMARK SMILES Oc1ccc([C@@H]2C[C@H](c3c4ccccc4cc4ccccc34)N=N2)c(O)c1
REMARK SMILES IDX 5 1 4 2 3 3 2 4 27 5 25 6 6 7 8 8 7 9 23 10 24 11 9 12 10 13
REMARK SMILES IDX 22 14 11 15 15 16 21 17 17 18 12 19 14 20 16 21 20 22 18 23
REMARK SMILES IDX 13 24 19 25 26 26 1 28
REMARK H PARENT 26 27 1 29
ROOT
ATOM      1  C   UNL     1      12.028 -45.632 -22.614  1.00  0.00     0.021 A 
ATOM      2  C   UNL     1      11.407 -45.125 -23.768  1.00  0.00     0.013 A 
ATOM      3  C   UNL     1      11.757 -43.873 -24.281  1.00  0.00     0.047 A 
ATOM      4  C   UNL     1      12.737 -43.122 -23.641  1.00  0.00     0.119 A 
ATOM      5  C   UNL     1      13.372 -43.601 -22.502  1.00  0.00     0.092 A 
ATOM      6  C   UNL     1      13.015 -44.850 -21.998  1.00  0.00     0.124 A 
ENDROOT
BRANCH   1   7
ATOM      7  C   UNL     1      11.672 -46.992 -22.053  1.00  0.00     0.164 C 
ATOM      8  C   UNL     1      11.683 -49.283 -22.388  1.00  0.00     0.162 C 
ATOM      9  C   UNL     1      12.591 -48.085 -22.566  1.00  0.00     0.068 C 
ATOM     10  N   UNL     1      10.325 -48.728 -22.612  1.00  0.00    -0.185 NA
ATOM     11  N   UNL     1      10.319 -47.483 -22.426  1.00  0.00    -0.185 NA
BRANCH   8  12
ATOM     12  C   UNL     1      12.079 -50.479 -23.256  1.00  0.00    -0.006 A 
ATOM     13  C   UNL     1      11.654 -51.795 -22.843  1.00  0.00    -0.012 A 
ATOM     14  C   UNL     1      12.874 -50.316 -24.448  1.00  0.00    -0.012 A 
ATOM     15  C   UNL     1      10.960 -52.093 -21.638  1.00  0.00     0.009 A 
ATOM     16  C   UNL     1      11.944 -52.898 -23.679  1.00  0.00    -0.017 A 
ATOM     17  C   UNL     1      13.443 -49.096 -24.903  1.00  0.00     0.009 A 
ATOM     18  C   UNL     1      13.136 -51.453 -25.248  1.00  0.00    -0.017 A 
ATOM     19  C   UNL     1      10.557 -53.391 -21.300  1.00  0.00     0.001 A 
ATOM     20  C   UNL     1      11.530 -54.196 -23.333  1.00  0.00     0.009 A 
ATOM     21  C   UNL     1      12.659 -52.708 -24.864  1.00  0.00     0.017 A 
ATOM     22  C   UNL     1      14.192 -49.001 -26.080  1.00  0.00     0.001 A 
ATOM     23  C   UNL     1      13.886 -51.348 -26.434  1.00  0.00     0.009 A 
ATOM     24  C   UNL     1      10.837 -54.443 -22.153  1.00  0.00     0.001 A 
ATOM     25  C   UNL     1      14.410 -50.129 -26.850  1.00  0.00     0.001 A 
ENDBRANCH   8  12
ENDBRANCH   1   7
BRANCH   6  26
ATOM     26  O   UNL     1      13.635 -45.338 -20.880  1.00  0.00    -0.507 OA
ATOM     27  H   UNL     1      14.537 -44.975 -20.846  1.00  0.00     0.293 HD
ENDBRANCH   6  26
BRANCH   4  28
ATOM     28  O   UNL     1      13.110 -41.896 -24.107  1.00  0.00    -0.508 OA
ATOM     29  H   UNL     1      13.979 -41.674 -23.733  1.00  0.00     0.293 HD
ENDBRANCH   4  28
TORSDOF 4
ENDMDL
MODEL 4
REMARK VINA RESULT:   -10.298      3.185      7.321
REMARK INTER + INTRA:         -12.212
REMARK INTER:                 -11.676
REMARK INTRA:                  -0.535
REMARK UNBOUND:                -0.108
REMARK SMILES Oc1ccc([C@@H]2C[C@H](c3c4ccccc4cc4ccccc34)N=N2)c(O)c1
REMARK SMILES IDX 5 1 4 2 3 3 2 4 27 5 25 6 6 7 8 8 7 9 23 10 24 11 9 12 10 13
REMARK SMILES IDX 22 14 11 15 15 16 21 17 17 18 12 19 14 20 16 21 20 22 18 23
REMARK SMILES IDX 13 24 19 25 26 26 1 28
REMARK H PARENT 26 27 1 29
ROOT
ATOM      1  C   UNL     1      10.938 -53.519 -22.353  1.00  0.00     0.021 A 
ATOM      2  C   UNL     1      11.209 -53.933 -23.668  1.00  0.00     0.013 A 
ATOM      3  C   UNL     1      11.382 -55.286 -23.973  1.00  0.00     0.047 A 
ATOM      4  C   UNL     1      11.280 -56.234 -22.961  1.00  0.00     0.119 A 
ATOM      5  C   UNL     1      11.007 -55.854 -21.653  1.00  0.00     0.092 A 
ATOM      6  C   UNL     1      10.837 -54.502 -21.358  1.00  0.00     0.124 A 
ENDROOT
BRANCH   1   7
ATOM      7  C   UNL     1      10.734 -52.061 -22.005  1.00  0.00     0.164 C 
ATOM      8  C   UNL     1      11.213 -49.860 -22.546  1.00  0.00     0.162 C 
ATOM      9  C   UNL     1      10.830 -51.159 -23.222  1.00  0.00     0.068 C 
ATOM     10  N   UNL     1      12.017 -50.298 -21.378  1.00  0.00    -0.185 NA
ATOM     11  N   UNL     1      11.753 -51.493 -21.082  1.00  0.00    -0.185 NA
BRANCH   8  12
ATOM     12  C   UNL     1      11.878 -48.857 -23.490  1.00  0.00    -0.006 A 
ATOM     13  C   UNL     1      11.550 -47.460 -23.345  1.00  0.00    -0.012 A 
ATOM     14  C   UNL     1      12.797 -49.283 -24.517  1.00  0.00    -0.012 A 
ATOM     15  C   UNL     1      10.585 -46.932 -22.445  1.00  0.00     0.009 A 
ATOM     16  C   UNL     1      12.220 -46.516 -24.158  1.00  0.00    -0.017 A 
ATOM     17  C   UNL     1      13.119 -50.631 -24.832  1.00  0.00     0.009 A 
ATOM     18  C   UNL     1      13.439 -48.297 -25.303  1.00  0.00    -0.017 A 
ATOM     19  C   UNL     1      10.323 -45.561 -22.338  1.00  0.00     0.001 A 
ATOM     20  C   UNL     1      11.954 -45.140 -24.039  1.00  0.00     0.009 A 
ATOM     21  C   UNL     1      13.156 -46.945 -25.102  1.00  0.00     0.017 A 
ATOM     22  C   UNL     1      14.034 -50.978 -25.832  1.00  0.00     0.001 A 
ATOM     23  C   UNL     1      14.361 -48.655 -26.303  1.00  0.00     0.009 A 
ATOM     24  C   UNL     1      11.014 -44.663 -23.132  1.00  0.00     0.001 A 
ATOM     25  C   UNL     1      14.660 -49.987 -26.566  1.00  0.00     0.001 A 
ENDBRANCH   8  12
ENDBRANCH   1   7
BRANCH   6  26
ATOM     26  O   UNL     1      10.562 -54.113 -20.076  1.00  0.00    -0.507 OA
ATOM     27  H   UNL     1       9.782 -53.533 -20.092  1.00  0.00     0.293 HD
ENDBRANCH   6  26
BRANCH   4  28
ATOM     28  O   UNL     1      11.440 -57.564 -23.214  1.00  0.00    -0.508 OA
ATOM     29  H   UNL     1      12.239 -57.872 -22.756  1.00  0.00     0.293 HD
ENDBRANCH   4  28
TORSDOF 4
ENDMDL
MODEL 5
REMARK VINA RESULT:   -10.256      5.352      8.269
REMARK INTER + INTRA:         -12.163
REMARK INTER:                 -11.782
REMARK INTRA:                  -0.380
REMARK UNBOUND:                -0.108
REMARK SMILES Oc1ccc([C@@H]2C[C@H](c3c4ccccc4cc4ccccc34)N=N2)c(O)c1
REMARK SMILES IDX 5 1 4 2 3 3 2 4 27 5 25 6 6 7 8 8 7 9 23 10 24 11 9 12 10 13
REMARK SMILES IDX 22 14 11 15 15 16 21 17 17 18 12 19 14 20 16 21 20 22 18 23
REMARK SMILES IDX 13 24 19 25 26 26 1 28
REMARK H PARENT 26 27 1 29
ROOT
ATOM      1  C   UNL     1      11.701 -54.352 -23.771  1.00  0.00     0.021 A 
ATOM      2  C   UNL     1      12.327 -54.487 -25.022  1.00  0.00     0.013 A 
ATOM      3  C   UNL     1      12.899 -53.384 -25.661  1.00  0.00     0.047 A 
ATOM      4  C   UNL     1      12.851 -52.137 -25.047  1.00  0.00     0.119 A 
ATOM      5  C   UNL     1      12.245 -51.976 -23.808  1.00  0.00     0.092 A 
ATOM      6  C   UNL     1      11.677 -53.081 -23.179  1.00  0.00     0.124 A 
ENDROOT
BRANCH   1   7
ATOM      7  C   UNL     1      11.089 -55.538 -23.057  1.00  0.00     0.164 C 
ATOM      8  C   UNL     1      10.607 -57.802 -23.135  1.00  0.00     0.162 C 
ATOM      9  C   UNL     1      11.739 -56.850 -23.457  1.00  0.00     0.068 C 
ATOM     10  N   UNL     1       9.388 -56.998 -23.403  1.00  0.00    -0.185 NA
ATOM     11  N   UNL     1       9.651 -55.768 -23.357  1.00  0.00    -0.185 NA
BRANCH   8  12
ATOM     12  C   UNL     1      10.713 -59.140 -23.868  1.00  0.00    -0.006 A 
ATOM     13  C   UNL     1      10.314 -60.337 -23.168  1.00  0.00    -0.012 A 
ATOM     14  C   UNL     1      11.214 -59.223 -25.218  1.00  0.00    -0.012 A 
ATOM     15  C   UNL     1       9.906 -60.395 -21.808  1.00  0.00     0.009 A 
ATOM     16  C   UNL     1      10.331 -61.569 -23.863  1.00  0.00    -0.017 A 
ATOM     17  C   UNL     1      11.737 -58.140 -25.975  1.00  0.00     0.009 A 
ATOM     18  C   UNL     1      11.210 -60.481 -25.866  1.00  0.00    -0.017 A 
ATOM     19  C   UNL     1       9.512 -61.587 -21.188  1.00  0.00     0.001 A 
ATOM     20  C   UNL     1       9.928 -62.760 -23.232  1.00  0.00     0.009 A 
ATOM     21  C   UNL     1      10.758 -61.617 -25.192  1.00  0.00     0.017 A 
ATOM     22  C   UNL     1      12.193 -58.284 -27.290  1.00  0.00     0.001 A 
ATOM     23  C   UNL     1      11.666 -60.616 -27.190  1.00  0.00     0.009 A 
ATOM     24  C   UNL     1       9.518 -62.771 -21.904  1.00  0.00     0.001 A 
ATOM     25  C   UNL     1      12.152 -59.524 -27.900  1.00  0.00     0.001 A 
ENDBRANCH   8  12
ENDBRANCH   1   7
BRANCH   6  26
ATOM     26  O   UNL     1      11.081 -52.940 -21.955  1.00  0.00    -0.507 OA
ATOM     27  H   UNL     1      11.312 -53.711 -21.410  1.00  0.00     0.293 HD
ENDBRANCH   6  26
BRANCH   4  28
ATOM     28  O   UNL     1      13.397 -51.034 -25.634  1.00  0.00    -0.508 OA
ATOM     29  H   UNL     1      12.678 -50.460 -25.944  1.00  0.00     0.293 HD
ENDBRANCH   4  28
TORSDOF 4
ENDMDL
MODEL 6
REMARK VINA RESULT:   -10.238      6.852     10.107
REMARK INTER + INTRA:         -12.141
REMARK INTER:                 -13.677
REMARK INTRA:                   1.537
REMARK UNBOUND:                -0.108
REMARK SMILES Oc1ccc([C@@H]2C[C@H](c3c4ccccc4cc4ccccc34)N=N2)c(O)c1
REMARK SMILES IDX 5 1 4 2 3 3 2 4 27 5 25 6 6 7 8 8 7 9 23 10 24 11 9 12 10 13
REMARK SMILES IDX 22 14 11 15 15 16 21 17 17 18 12 19 14 20 16 21 20 22 18 23
REMARK SMILES IDX 13 24 19 25 26 26 1 28
REMARK H PARENT 26 27 1 29
ROOT
ATOM      1  C   UNL     1      11.396 -56.401 -22.714  1.00  0.00     0.021 A 
ATOM      2  C   UNL     1      10.808 -55.763 -21.609  1.00  0.00     0.013 A 
ATOM      3  C   UNL     1      10.501 -54.401 -21.647  1.00  0.00     0.047 A 
ATOM      4  C   UNL     1      10.778 -53.669 -22.796  1.00  0.00     0.119 A 
ATOM      5  C   UNL     1      11.353 -54.275 -23.906  1.00  0.00     0.092 A 
ATOM      6  C   UNL     1      11.657 -55.634 -23.859  1.00  0.00     0.124 A 
ENDROOT
BRANCH   1   7
ATOM      7  C   UNL     1      11.723 -57.879 -22.698  1.00  0.00     0.164 C 
ATOM      8  C   UNL     1      11.272 -59.967 -23.593  1.00  0.00     0.162 C 
ATOM      9  C   UNL     1      11.482 -58.537 -24.044  1.00  0.00     0.068 C 
ATOM     10  N   UNL     1      10.640 -59.823 -22.258  1.00  0.00    -0.185 NA
ATOM     11  N   UNL     1      10.889 -58.689 -21.771  1.00  0.00    -0.185 NA
BRANCH   8  12
ATOM     12  C   UNL     1      10.517 -60.821 -24.613  1.00  0.00    -0.006 A 
ATOM     13  C   UNL     1       9.617 -61.836 -24.123  1.00  0.00    -0.012 A 
ATOM     14  C   UNL     1      10.703 -60.641 -26.032  1.00  0.00    -0.012 A 
ATOM     15  C   UNL     1       9.430 -62.177 -22.755  1.00  0.00     0.009 A 
ATOM     16  C   UNL     1       8.853 -62.576 -25.056  1.00  0.00    -0.017 A 
ATOM     17  C   UNL     1      11.633 -59.755 -26.639  1.00  0.00     0.009 A 
ATOM     18  C   UNL     1       9.914 -61.408 -26.921  1.00  0.00    -0.017 A 
ATOM     19  C   UNL     1       8.527 -63.163 -22.340  1.00  0.00     0.001 A 
ATOM     20  C   UNL     1       7.944 -63.560 -24.627  1.00  0.00     0.009 A 
ATOM     21  C   UNL     1       9.001 -62.340 -26.424  1.00  0.00     0.017 A 
ATOM     22  C   UNL     1      11.754 -59.615 -28.026  1.00  0.00     0.001 A 
ATOM     23  C   UNL     1      10.037 -61.258 -28.315  1.00  0.00     0.009 A 
ATOM     24  C   UNL     1       7.778 -63.851 -23.277  1.00  0.00     0.001 A 
ATOM     25  C   UNL     1      10.949 -60.365 -28.865  1.00  0.00     0.001 A 
ENDBRANCH   8  12
ENDBRANCH   1   7
BRANCH   6  26
ATOM     26  O   UNL     1      12.219 -56.246 -24.945  1.00  0.00    -0.507 OA
ATOM     27  H   UNL     1      12.679 -55.571 -25.474  1.00  0.00     0.293 HD
ENDBRANCH   6  26
BRANCH   4  28
ATOM     28  O   UNL     1      10.494 -52.337 -22.876  1.00  0.00    -0.508 OA
ATOM     29  H   UNL     1      11.250 -51.838 -22.524  1.00  0.00     0.293 HD
ENDBRANCH   4  28
TORSDOF 4
ENDMDL
MODEL 7
REMARK VINA RESULT:   -10.022      3.463      5.623
REMARK INTER + INTRA:         -11.887
REMARK INTER:                 -11.183
REMARK INTRA:                  -0.704
REMARK UNBOUND:                -0.108
REMARK SMILES Oc1ccc([C@@H]2C[C@H](c3c4ccccc4cc4ccccc34)N=N2)c(O)c1
REMARK SMILES IDX 5 1 4 2 3 3 2 4 27 5 25 6 6 7 8 8 7 9 23 10 24 11 9 12 10 13
REMARK SMILES IDX 22 14 11 15 15 16 21 17 17 18 12 19 14 20 16 21 20 22 18 23
REMARK SMILES IDX 13 24 19 25 26 26 1 28
REMARK H PARENT 26 27 1 29
ROOT
ATOM      1  C   UNL     1      15.629 -49.982 -26.880  1.00  0.00     0.021 A 
ATOM      2  C   UNL     1      14.758 -48.967 -27.311  1.00  0.00     0.013 A 
ATOM      3  C   UNL     1      15.201 -47.957 -28.169  1.00  0.00     0.047 A 
ATOM      4  C   UNL     1      16.521 -47.961 -28.605  1.00  0.00     0.119 A 
ATOM      5  C   UNL     1      17.403 -48.955 -28.201  1.00  0.00     0.092 A 
ATOM      6  C   UNL     1      16.953 -49.958 -27.344  1.00  0.00     0.124 A 
ENDROOT
BRANCH   1   7
ATOM      7  C   UNL     1      15.165 -51.092 -25.963  1.00  0.00     0.164 C 
ATOM      8  C   UNL     1      13.592 -51.783 -24.409  1.00  0.00     0.162 C 
ATOM      9  C   UNL     1      13.664 -51.065 -25.739  1.00  0.00     0.068 C 
ATOM     10  N   UNL     1      14.859 -51.399 -23.736  1.00  0.00    -0.185 NA
ATOM     11  N   UNL     1      15.714 -51.028 -24.582  1.00  0.00    -0.185 NA
BRANCH   8  12
ATOM     12  C   UNL     1      12.302 -51.504 -23.637  1.00  0.00    -0.006 A 
ATOM     13  C   UNL     1      11.514 -52.628 -23.192  1.00  0.00    -0.012 A 
ATOM     14  C   UNL     1      11.860 -50.158 -23.368  1.00  0.00    -0.012 A 
ATOM     15  C   UNL     1      11.789 -53.992 -23.486  1.00  0.00     0.009 A 
ATOM     16  C   UNL     1      10.363 -52.384 -22.408  1.00  0.00    -0.017 A 
ATOM     17  C   UNL     1      12.484 -48.972 -23.841  1.00  0.00     0.009 A 
ATOM     18  C   UNL     1      10.701 -49.971 -22.579  1.00  0.00    -0.017 A 
ATOM     19  C   UNL     1      10.995 -55.042 -23.009  1.00  0.00     0.001 A 
ATOM     20  C   UNL     1       9.575 -53.446 -21.930  1.00  0.00     0.009 A 
ATOM     21  C   UNL     1       9.989 -51.073 -22.104  1.00  0.00     0.017 A 
ATOM     22  C   UNL     1      12.014 -47.692 -23.530  1.00  0.00     0.001 A 
ATOM     23  C   UNL     1      10.237 -48.679 -22.267  1.00  0.00     0.009 A 
ATOM     24  C   UNL     1       9.889 -54.768 -22.224  1.00  0.00     0.001 A 
ATOM     25  C   UNL     1      10.890 -47.545 -22.737  1.00  0.00     0.001 A 
ENDBRANCH   8  12
ENDBRANCH   1   7
BRANCH   6  26
ATOM     26  O   UNL     1      17.807 -50.947 -26.942  1.00  0.00    -0.507 OA
ATOM     27  H   UNL     1      17.287 -51.750 -26.766  1.00  0.00     0.293 HD
ENDBRANCH   6  26
BRANCH   4  28
ATOM     28  O   UNL     1      16.995 -46.995 -29.443  1.00  0.00    -0.508 OA
ATOM     29  H   UNL     1      17.596 -47.409 -30.084  1.00  0.00     0.293 HD
ENDBRANCH   4  28
TORSDOF 4
ENDMDL
MODEL 8
REMARK VINA RESULT:    -9.773      3.978      6.379
REMARK INTER + INTRA:         -11.595
REMARK INTER:                 -10.960
REMARK INTRA:                  -0.636
REMARK UNBOUND:                -0.108
REMARK SMILES Oc1ccc([C@@H]2C[C@H](c3c4ccccc4cc4ccccc34)N=N2)c(O)c1
REMARK SMILES IDX 5 1 4 2 3 3 2 4 27 5 25 6 6 7 8 8 7 9 23 10 24 11 9 12 10 13
REMARK SMILES IDX 22 14 11 15 15 16 21 17 17 18 12 19 14 20 16 21 20 22 18 23
REMARK SMILES IDX 13 24 19 25 26 26 1 28
REMARK H PARENT 26 27 1 29
ROOT
ATOM      1  C   UNL     1      15.794 -49.184 -28.165  1.00  0.00     0.021 A 
ATOM      2  C   UNL     1      14.884 -48.277 -28.733  1.00  0.00     0.013 A 
ATOM      3  C   UNL     1      15.131 -47.700 -29.981  1.00  0.00     0.047 A 
ATOM      4  C   UNL     1      16.291 -48.031 -30.670  1.00  0.00     0.119 A 
ATOM      5  C   UNL     1      17.206 -48.930 -30.136  1.00  0.00     0.092 A 
ATOM      6  C   UNL     1      16.952 -49.500 -28.890  1.00  0.00     0.124 A 
ENDROOT
BRANCH   1   7
ATOM      7  C   UNL     1      15.537 -49.831 -26.821  1.00  0.00     0.164 C 
ATOM      8  C   UNL     1      14.182 -49.915 -24.945  1.00  0.00     0.162 C 
ATOM      9  C   UNL     1      14.065 -49.827 -26.451  1.00  0.00     0.068 C 
ATOM     10  N   UNL     1      15.440 -49.186 -24.649  1.00  0.00    -0.185 NA
ATOM     11  N   UNL     1      16.178 -49.144 -25.668  1.00  0.00    -0.185 NA
BRANCH   8  12
ATOM     12  C   UNL     1      12.930 -49.435 -24.209  1.00  0.00    -0.006 A 
ATOM     13  C   UNL     1      12.148 -50.406 -23.483  1.00  0.00    -0.012 A 
ATOM     14  C   UNL     1      12.517 -48.054 -24.247  1.00  0.00    -0.012 A 
ATOM     15  C   UNL     1      12.394 -51.806 -23.458  1.00  0.00     0.009 A 
ATOM     16  C   UNL     1      11.035 -49.959 -22.733  1.00  0.00    -0.017 A 
ATOM     17  C   UNL     1      13.134 -47.026 -25.009  1.00  0.00     0.009 A 
ATOM     18  C   UNL     1      11.395 -47.661 -23.479  1.00  0.00    -0.017 A 
ATOM     19  C   UNL     1      11.608 -52.698 -22.718  1.00  0.00     0.001 A 
ATOM     20  C   UNL     1      10.255 -50.863 -21.988  1.00  0.00     0.009 A 
ATOM     21  C   UNL     1      10.691 -48.606 -22.731  1.00  0.00     0.017 A 
ATOM     22  C   UNL     1      12.693 -45.698 -24.990  1.00  0.00     0.001 A 
ATOM     23  C   UNL     1      10.961 -46.323 -23.461  1.00  0.00     0.009 A 
ATOM     24  C   UNL     1      10.541 -52.224 -21.976  1.00  0.00     0.001 A 
ATOM     25  C   UNL     1      11.608 -45.345 -24.209  1.00  0.00     0.001 A 
ENDBRANCH   8  12
ENDBRANCH   1   7
BRANCH   6  26
ATOM     26  O   UNL     1      17.840 -50.391 -28.353  1.00  0.00    -0.507 OA
ATOM     27  H   UNL     1      18.465 -50.659 -29.049  1.00  0.00     0.293 HD
ENDBRANCH   6  26
BRANCH   4  28
ATOM     28  O   UNL     1      16.571 -47.492 -31.891  1.00  0.00    -0.508 OA
ATOM     29  H   UNL     1      17.384 -46.964 -31.817  1.00  0.00     0.293 HD
ENDBRANCH   4  28
TORSDOF 4
ENDMDL
MODEL 9
REMARK VINA RESULT:    -9.765      4.563      6.675
REMARK INTER + INTRA:         -11.585
REMARK INTER:                 -12.035
REMARK INTRA:                   0.449
REMARK UNBOUND:                -0.108
REMARK SMILES Oc1ccc([C@@H]2C[C@H](c3c4ccccc4cc4ccccc34)N=N2)c(O)c1
REMARK SMILES IDX 5 1 4 2 3 3 2 4 27 5 25 6 6 7 8 8 7 9 23 10 24 11 9 12 10 13
REMARK SMILES IDX 22 14 11 15 15 16 21 17 17 18 12 19 14 20 16 21 20 22 18 23
REMARK SMILES IDX 13 24 19 25 26 26 1 28
REMARK H PARENT 26 27 1 29
ROOT
ATOM      1  C   UNL     1      17.253 -51.492 -25.403  1.00  0.00     0.021 A 
ATOM      2  C   UNL     1      17.593 -50.549 -24.418  1.00  0.00     0.013 A 
ATOM      3  C   UNL     1      18.920 -50.380 -24.014  1.00  0.00     0.047 A 
ATOM      4  C   UNL     1      19.917 -51.152 -24.599  1.00  0.00     0.119 A 
ATOM      5  C   UNL     1      19.610 -52.087 -25.580  1.00  0.00     0.092 A 
ATOM      6  C   UNL     1      18.284 -52.250 -25.976  1.00  0.00     0.124 A 
ENDROOT
BRANCH   1   7
ATOM      7  C   UNL     1      15.824 -51.680 -25.863  1.00  0.00     0.164 C 
ATOM      8  C   UNL     1      13.585 -51.660 -25.271  1.00  0.00     0.162 C 
ATOM      9  C   UNL     1      14.844 -50.848 -25.056  1.00  0.00     0.068 C 
ATOM     10  N   UNL     1      14.083 -53.053 -25.386  1.00  0.00    -0.185 NA
ATOM     11  N   UNL     1      15.299 -53.063 -25.712  1.00  0.00    -0.185 NA
BRANCH   8  12
ATOM     12  C   UNL     1      12.511 -51.408 -24.211  1.00  0.00    -0.006 A 
ATOM     13  C   UNL     1      11.794 -52.542 -23.680  1.00  0.00    -0.012 A 
ATOM     14  C   UNL     1      12.198 -50.075 -23.757  1.00  0.00    -0.012 A 
ATOM     15  C   UNL     1      11.939 -53.885 -24.121  1.00  0.00     0.009 A 
ATOM     16  C   UNL     1      10.858 -52.329 -22.641  1.00  0.00    -0.017 A 
ATOM     17  C   UNL     1      12.752 -48.873 -24.274  1.00  0.00     0.009 A 
ATOM     18  C   UNL     1      11.252 -49.919 -22.716  1.00  0.00    -0.017 A 
ATOM     19  C   UNL     1      11.227 -54.948 -23.553  1.00  0.00     0.001 A 
ATOM     20  C   UNL     1      10.151 -53.404 -22.074  1.00  0.00     0.009 A 
ATOM     21  C   UNL     1      10.617 -51.036 -22.171  1.00  0.00     0.017 A 
ATOM     22  C   UNL     1      12.417 -47.608 -23.778  1.00  0.00     0.001 A 
ATOM     23  C   UNL     1      10.925 -48.644 -22.219  1.00  0.00     0.009 A 
ATOM     24  C   UNL     1      10.336 -54.707 -22.523  1.00  0.00     0.001 A 
ATOM     25  C   UNL     1      11.506 -47.495 -22.744  1.00  0.00     0.001 A 
ENDBRANCH   8  12
ENDBRANCH   1   7
BRANCH   6  26
ATOM     26  O   UNL     1      17.967 -53.163 -26.944  1.00  0.00    -0.507 OA
ATOM     27  H   UNL     1      18.594 -53.059 -27.681  1.00  0.00     0.293 HD
ENDBRANCH   6  26
BRANCH   4  28
ATOM     28  O   UNL     1      21.224 -51.020 -24.236  1.00  0.00    -0.508 OA
ATOM     29  H   UNL     1      21.349 -50.139 -23.846  1.00  0.00     0.293 HD
ENDBRANCH   4  28
TORSDOF 4
ENDMDL
