MODEL 1
REMARK VINA RESULT:   -10.093      0.000      0.000
REMARK INTER + INTRA:         -11.075
REMARK INTER:                 -10.978
REMARK INTRA:                  -0.097
REMARK UNBOUND:                -0.097
REMARK SMILES CCC1=C[C@H]2Cc3nc4cc(Cl)ccc4c(N)c3[C@@H](C1)C2
REMARK SMILES IDX 3 1 4 2 5 3 6 4 7 5 8 6 9 7 10 8 11 9 12 10 13 11 14 12
REMARK SMILES IDX 15 13 16 14 18 15 19 16 20 17 21 18 2 19 1 20 17 21
REMARK H PARENT 17 22 17 23
ROOT
ATOM      1  C   UNL     1       9.950 -61.129 -24.476  1.00  0.00    -0.074 C 
ATOM      2  C   UNL     1      10.716 -60.853 -25.550  1.00  0.00    -0.024 C 
ATOM      3  C   UNL     1      12.155 -60.400 -25.446  1.00  0.00     0.018 C 
ATOM      4  C   UNL     1      12.259 -58.875 -25.582  1.00  0.00     0.064 C 
ATOM      5  C   UNL     1      11.871 -58.119 -24.330  1.00  0.00     0.047 A 
ATOM      6  N   UNL     1      11.758 -56.778 -24.491  1.00  0.00    -0.252 NA
ATOM      7  C   UNL     1      11.456 -56.019 -23.432  1.00  0.00     0.074 A 
ATOM      8  C   UNL     1      11.357 -54.648 -23.616  1.00  0.00     0.049 A 
ATOM      9  C   UNL     1      11.053 -53.796 -22.558  1.00  0.00     0.043 A 
ATOM     10  Cl  UNL     1      10.940 -52.100 -22.828  1.00  0.00    -0.084 Cl
ATOM     11  C   UNL     1      10.839 -54.306 -21.285  1.00  0.00     0.021 A 
ATOM     12  C   UNL     1      10.935 -55.681 -21.081  1.00  0.00     0.014 A 
ATOM     13  C   UNL     1      11.247 -56.557 -22.147  1.00  0.00     0.024 A 
ATOM     14  C   UNL     1      11.345 -57.965 -21.992  1.00  0.00     0.046 A 
ATOM     15  C   UNL     1      11.705 -58.761 -23.094  1.00  0.00     0.001 A 
ATOM     16  C   UNL     1      11.865 -60.273 -22.991  1.00  0.00     0.028 C 
ATOM     17  C   UNL     1      10.492 -60.984 -23.067  1.00  0.00     0.039 C 
ATOM     18  C   UNL     1      12.769 -60.811 -24.106  1.00  0.00     0.017 C 
ENDROOT
BRANCH   1  19
ATOM     19  C   UNL     1       8.526 -61.605 -24.617  1.00  0.00     0.027 C 
ATOM     20  C   UNL     1       8.344 -63.046 -24.160  1.00  0.00     0.008 C 
ENDBRANCH   1  19
BRANCH  14  21
ATOM     21  N   UNL     1      11.264 -58.516 -20.687  1.00  0.00    -0.398 N 
ATOM     22  H   UNL     1      10.885 -59.455 -20.659  1.00  0.00     0.156 HD
ATOM     23  H   UNL     1      12.177 -58.492 -20.235  1.00  0.00     0.156 HD
ENDBRANCH  14  21
TORSDOF 2
ENDMDL
MODEL 2
REMARK VINA RESULT:    -9.587      4.700      8.574
REMARK INTER + INTRA:         -10.525
REMARK INTER:                 -10.398
REMARK INTRA:                  -0.127
REMARK UNBOUND:                -0.097
REMARK SMILES CCC1=C[C@H]2Cc3nc4cc(Cl)ccc4c(N)c3[C@@H](C1)C2
REMARK SMILES IDX 3 1 4 2 5 3 6 4 7 5 8 6 9 7 10 8 11 9 12 10 13 11 14 12
REMARK SMILES IDX 15 13 16 14 18 15 19 16 20 17 21 18 2 19 1 20 17 21
REMARK H PARENT 17 22 17 23
ROOT
ATOM      1  C   UNL     1      15.903 -50.199 -23.961  1.00  0.00    -0.074 C 
ATOM      2  C   UNL     1      15.761 -50.504 -25.265  1.00  0.00    -0.024 C 
ATOM      3  C   UNL     1      14.474 -50.287 -26.031  1.00  0.00     0.018 C 
ATOM      4  C   UNL     1      13.673 -51.593 -26.133  1.00  0.00     0.064 C 
ATOM      5  C   UNL     1      12.926 -51.955 -24.867  1.00  0.00     0.047 A 
ATOM      6  N   UNL     1      12.385 -53.198 -24.868  1.00  0.00    -0.252 NA
ATOM      7  C   UNL     1      11.672 -53.597 -23.808  1.00  0.00     0.074 A 
ATOM      8  C   UNL     1      11.117 -54.867 -23.833  1.00  0.00     0.049 A 
ATOM      9  C   UNL     1      10.358 -55.346 -22.768  1.00  0.00     0.043 A 
ATOM     10  Cl  UNL     1       9.684 -56.928 -22.839  1.00  0.00    -0.084 Cl
ATOM     11  C   UNL     1      10.141 -54.555 -21.649  1.00  0.00     0.021 A 
ATOM     12  C   UNL     1      10.692 -53.276 -21.606  1.00  0.00     0.014 A 
ATOM     13  C   UNL     1      11.461 -52.776 -22.682  1.00  0.00     0.024 A 
ATOM     14  C   UNL     1      12.051 -51.485 -22.681  1.00  0.00     0.046 A 
ATOM     15  C   UNL     1      12.764 -51.047 -23.812  1.00  0.00     0.001 A 
ATOM     16  C   UNL     1      13.392 -49.660 -23.895  1.00  0.00     0.028 C 
ATOM     17  C   UNL     1      14.753 -49.621 -23.158  1.00  0.00     0.039 C 
ATOM     18  C   UNL     1      13.598 -49.232 -25.352  1.00  0.00     0.017 C 
ENDROOT
BRANCH   1  19
ATOM     19  C   UNL     1      17.211 -50.403 -23.236  1.00  0.00     0.027 C 
ATOM     20  C   UNL     1      17.133 -51.509 -22.193  1.00  0.00     0.008 C 
ENDBRANCH   1  19
BRANCH  14  21
ATOM     21  N   UNL     1      11.748 -50.595 -21.618  1.00  0.00    -0.398 N 
ATOM     22  H   UNL     1      12.445 -49.875 -21.472  1.00  0.00     0.156 HD
ATOM     23  H   UNL     1      10.832 -50.174 -21.759  1.00  0.00     0.156 HD
ENDBRANCH  14  21
TORSDOF 2
ENDMDL
MODEL 3
REMARK VINA RESULT:    -9.516      3.498      6.851
REMARK INTER + INTRA:         -10.447
REMARK INTER:                 -10.350
REMARK INTRA:                  -0.097
REMARK UNBOUND:                -0.097
REMARK SMILES CCC1=C[C@H]2Cc3nc4cc(Cl)ccc4c(N)c3[C@@H](C1)C2
REMARK SMILES IDX 3 1 4 2 5 3 6 4 7 5 8 6 9 7 10 8 11 9 12 10 13 11 14 12
REMARK SMILES IDX 15 13 16 14 18 15 19 16 20 17 21 18 2 19 1 20 17 21
REMARK H PARENT 17 22 17 23
ROOT
ATOM      1  C   UNL     1      10.731 -57.175 -22.860  1.00  0.00    -0.074 C 
ATOM      2  C   UNL     1      10.652 -57.793 -21.666  1.00  0.00    -0.024 C 
ATOM      3  C   UNL     1      11.341 -59.106 -21.366  1.00  0.00     0.018 C 
ATOM      4  C   UNL     1      10.360 -60.280 -21.497  1.00  0.00     0.064 C 
ATOM      5  C   UNL     1      10.080 -60.688 -22.927  1.00  0.00     0.047 A 
ATOM      6  N   UNL     1       9.068 -61.578 -23.072  1.00  0.00    -0.252 NA
ATOM      7  C   UNL     1       8.769 -62.030 -24.295  1.00  0.00     0.074 A 
ATOM      8  C   UNL     1       7.738 -62.948 -24.420  1.00  0.00     0.049 A 
ATOM      9  C   UNL     1       7.377 -63.466 -25.662  1.00  0.00     0.043 A 
ATOM     10  Cl  UNL     1       6.093 -64.606 -25.774  1.00  0.00    -0.084 Cl
ATOM     11  C   UNL     1       8.046 -63.068 -26.810  1.00  0.00     0.021 A 
ATOM     12  C   UNL     1       9.085 -62.145 -26.703  1.00  0.00     0.014 A 
ATOM     13  C   UNL     1       9.464 -61.614 -25.448  1.00  0.00     0.024 A 
ATOM     14  C   UNL     1      10.508 -60.665 -25.290  1.00  0.00     0.046 A 
ATOM     15  C   UNL     1      10.853 -60.222 -24.000  1.00  0.00     0.001 A 
ATOM     16  C   UNL     1      11.985 -59.233 -23.752  1.00  0.00     0.028 C 
ATOM     17  C   UNL     1      11.519 -57.779 -24.007  1.00  0.00     0.039 C 
ATOM     18  C   UNL     1      12.514 -59.345 -22.318  1.00  0.00     0.017 C 
ENDROOT
BRANCH   1  19
ATOM     19  C   UNL     1      10.053 -55.852 -23.116  1.00  0.00     0.027 C 
ATOM     20  C   UNL     1      10.595 -54.738 -22.232  1.00  0.00     0.008 C 
ENDBRANCH   1  19
BRANCH  14  21
ATOM     21  N   UNL     1      11.303 -60.329 -26.415  1.00  0.00    -0.398 N 
ATOM     22  H   UNL     1      11.489 -59.338 -26.508  1.00  0.00     0.156 HD
ATOM     23  H   UNL     1      12.178 -60.850 -26.399  1.00  0.00     0.156 HD
ENDBRANCH  14  21
TORSDOF 2
ENDMDL
MODEL 4
REMARK VINA RESULT:    -9.467      4.056      5.853
REMARK INTER + INTRA:         -10.394
REMARK INTER:                 -10.294
REMARK INTRA:                  -0.100
REMARK UNBOUND:                -0.097
REMARK SMILES CCC1=C[C@H]2Cc3nc4cc(Cl)ccc4c(N)c3[C@@H](C1)C2
REMARK SMILES IDX 3 1 4 2 5 3 6 4 7 5 8 6 9 7 10 8 11 9 12 10 13 11 14 12
REMARK SMILES IDX 15 13 16 14 18 15 19 16 20 17 21 18 2 19 1 20 17 21
REMARK H PARENT 17 22 17 23
ROOT
ATOM      1  C   UNL     1       7.316 -59.781 -23.019  1.00  0.00    -0.074 C 
ATOM      2  C   UNL     1       6.848 -60.966 -23.455  1.00  0.00    -0.024 C 
ATOM      3  C   UNL     1       7.726 -62.182 -23.651  1.00  0.00     0.018 C 
ATOM      4  C   UNL     1       8.119 -62.340 -25.127  1.00  0.00     0.064 C 
ATOM      5  C   UNL     1       9.220 -61.402 -25.572  1.00  0.00     0.047 A 
ATOM      6  N   UNL     1       9.438 -61.381 -26.909  1.00  0.00    -0.252 NA
ATOM      7  C   UNL     1      10.418 -60.611 -27.397  1.00  0.00     0.074 A 
ATOM      8  C   UNL     1      10.631 -60.613 -28.767  1.00  0.00     0.049 A 
ATOM      9  C   UNL     1      11.637 -59.841 -29.344  1.00  0.00     0.043 A 
ATOM     10  Cl  UNL     1      11.871 -59.873 -31.048  1.00  0.00    -0.084 Cl
ATOM     11  C   UNL     1      12.453 -59.046 -28.552  1.00  0.00     0.021 A 
ATOM     12  C   UNL     1      12.252 -59.031 -27.173  1.00  0.00     0.014 A 
ATOM     13  C   UNL     1      11.237 -59.813 -26.574  1.00  0.00     0.024 A 
ATOM     14  C   UNL     1      10.987 -59.824 -25.177  1.00  0.00     0.046 A 
ATOM     15  C   UNL     1       9.987 -60.666 -24.657  1.00  0.00     0.001 A 
ATOM     16  C   UNL     1       9.689 -60.755 -23.165  1.00  0.00     0.028 C 
ATOM     17  C   UNL     1       8.787 -59.584 -22.706  1.00  0.00     0.039 C 
ATOM     18  C   UNL     1       9.004 -62.082 -22.816  1.00  0.00     0.017 C 
ENDROOT
BRANCH   1  19
ATOM     19  C   UNL     1       6.406 -58.596 -22.809  1.00  0.00     0.027 C 
ATOM     20  C   UNL     1       5.016 -59.003 -22.340  1.00  0.00     0.008 C 
ENDBRANCH   1  19
BRANCH  14  21
ATOM     21  N   UNL     1      11.877 -59.129 -24.317  1.00  0.00    -0.398 N 
ATOM     22  H   UNL     1      12.793 -59.555 -24.241  1.00  0.00     0.156 HD
ATOM     23  H   UNL     1      11.964 -58.157 -24.609  1.00  0.00     0.156 HD
ENDBRANCH  14  21
TORSDOF 2
ENDMDL
MODEL 5
REMARK VINA RESULT:    -9.201      2.221      2.864
REMARK INTER + INTRA:         -10.105
REMARK INTER:                  -9.998
REMARK INTRA:                  -0.107
REMARK UNBOUND:                -0.097
REMARK SMILES CCC1=C[C@H]2Cc3nc4cc(Cl)ccc4c(N)c3[C@@H](C1)C2
REMARK SMILES IDX 3 1 4 2 5 3 6 4 7 5 8 6 9 7 10 8 11 9 12 10 13 11 14 12
REMARK SMILES IDX 15 13 16 14 18 15 19 16 20 17 21 18 2 19 1 20 17 21
REMARK H PARENT 17 22 17 23
ROOT
ATOM      1  C   UNL     1       8.952 -58.964 -23.799  1.00  0.00    -0.074 C 
ATOM      2  C   UNL     1       9.930 -59.612 -24.461  1.00  0.00    -0.024 C 
ATOM      3  C   UNL     1      11.377 -59.599 -24.021  1.00  0.00     0.018 C 
ATOM      4  C   UNL     1      12.182 -58.565 -24.819  1.00  0.00     0.064 C 
ATOM      5  C   UNL     1      11.971 -57.138 -24.363  1.00  0.00     0.047 A 
ATOM      6  N   UNL     1      12.508 -56.199 -25.179  1.00  0.00    -0.252 NA
ATOM      7  C   UNL     1      12.407 -54.908 -24.841  1.00  0.00     0.074 A 
ATOM      8  C   UNL     1      12.973 -53.964 -25.684  1.00  0.00     0.049 A 
ATOM      9  C   UNL     1      12.912 -52.604 -25.392  1.00  0.00     0.043 A 
ATOM     10  Cl  UNL     1      13.628 -51.464 -26.464  1.00  0.00    -0.084 Cl
ATOM     11  C   UNL     1      12.277 -52.161 -24.240  1.00  0.00     0.021 A 
ATOM     12  C   UNL     1      11.703 -53.096 -23.381  1.00  0.00     0.014 A 
ATOM     13  C   UNL     1      11.760 -54.480 -23.664  1.00  0.00     0.024 A 
ATOM     14  C   UNL     1      11.182 -55.469 -22.827  1.00  0.00     0.046 A 
ATOM     15  C   UNL     1      11.324 -56.829 -23.158  1.00  0.00     0.001 A 
ATOM     16  C   UNL     1      10.761 -57.945 -22.286  1.00  0.00     0.028 C 
ATOM     17  C   UNL     1       9.250 -58.152 -22.554  1.00  0.00     0.039 C 
ATOM     18  C   UNL     1      11.499 -59.266 -22.533  1.00  0.00     0.017 C 
ENDROOT
BRANCH   1  19
ATOM     19  C   UNL     1       7.514 -59.021 -24.252  1.00  0.00     0.027 C 
ATOM     20  C   UNL     1       6.533 -58.941 -23.091  1.00  0.00     0.008 C 
ENDBRANCH   1  19
BRANCH  14  21
ATOM     21  N   UNL     1      10.638 -55.074 -21.577  1.00  0.00    -0.398 N 
ATOM     22  H   UNL     1      10.512 -55.837 -20.922  1.00  0.00     0.156 HD
ATOM     23  H   UNL     1      11.209 -54.342 -21.158  1.00  0.00     0.156 HD
ENDBRANCH  14  21
TORSDOF 2
ENDMDL
MODEL 6
REMARK VINA RESULT:    -8.685      5.624     10.399
REMARK INTER + INTRA:          -9.544
REMARK INTER:                  -9.429
REMARK INTRA:                  -0.115
REMARK UNBOUND:                -0.097
REMARK SMILES CCC1=C[C@H]2Cc3nc4cc(Cl)ccc4c(N)c3[C@@H](C1)C2
REMARK SMILES IDX 3 1 4 2 5 3 6 4 7 5 8 6 9 7 10 8 11 9 12 10 13 11 14 12
REMARK SMILES IDX 15 13 16 14 18 15 19 16 20 17 21 18 2 19 1 20 17 21
REMARK H PARENT 17 22 17 23
ROOT
ATOM      1  C   UNL     1      13.126 -46.856 -21.818  1.00  0.00    -0.074 C 
ATOM      2  C   UNL     1      13.853 -47.043 -22.936  1.00  0.00    -0.024 C 
ATOM      3  C   UNL     1      13.239 -47.396 -24.273  1.00  0.00     0.018 C 
ATOM      4  C   UNL     1      13.334 -48.905 -24.536  1.00  0.00     0.064 C 
ATOM      5  C   UNL     1      12.308 -49.725 -23.784  1.00  0.00     0.047 A 
ATOM      6  N   UNL     1      12.504 -51.065 -23.840  1.00  0.00    -0.252 NA
ATOM      7  C   UNL     1      11.627 -51.876 -23.238  1.00  0.00     0.074 A 
ATOM      8  C   UNL     1      11.839 -53.244 -23.317  1.00  0.00     0.049 A 
ATOM      9  C   UNL     1      10.964 -54.148 -22.720  1.00  0.00     0.043 A 
ATOM     10  Cl  UNL     1      11.263 -55.838 -22.843  1.00  0.00    -0.084 Cl
ATOM     11  C   UNL     1       9.852 -53.694 -22.026  1.00  0.00     0.021 A 
ATOM     12  C   UNL     1       9.623 -52.323 -21.935  1.00  0.00     0.014 A 
ATOM     13  C   UNL     1      10.502 -51.394 -22.540  1.00  0.00     0.024 A 
ATOM     14  C   UNL     1      10.317 -49.988 -22.467  1.00  0.00     0.046 A 
ATOM     15  C   UNL     1      11.213 -49.135 -23.137  1.00  0.00     0.001 A 
ATOM     16  C   UNL     1      11.054 -47.619 -23.131  1.00  0.00     0.028 C 
ATOM     17  C   UNL     1      11.617 -47.005 -21.826  1.00  0.00     0.039 C 
ATOM     18  C   UNL     1      11.767 -46.984 -24.331  1.00  0.00     0.017 C 
ENDROOT
BRANCH   1  19
ATOM     19  C   UNL     1      13.769 -46.477 -20.506  1.00  0.00     0.027 C 
ATOM     20  C   UNL     1      15.187 -47.016 -20.374  1.00  0.00     0.008 C 
ENDBRANCH   1  19
BRANCH  14  21
ATOM     21  N   UNL     1       9.127 -49.485 -21.881  1.00  0.00    -0.398 N 
ATOM     22  H   UNL     1       9.281 -48.750 -21.201  1.00  0.00     0.156 HD
ATOM     23  H   UNL     1       8.484 -49.165 -22.604  1.00  0.00     0.156 HD
ENDBRANCH  14  21
TORSDOF 2
ENDMDL
MODEL 7
REMARK VINA RESULT:    -8.420      3.709      6.683
REMARK INTER + INTRA:          -9.255
REMARK INTER:                  -9.142
REMARK INTRA:                  -0.113
REMARK UNBOUND:                -0.097
REMARK SMILES CCC1=C[C@H]2Cc3nc4cc(Cl)ccc4c(N)c3[C@@H](C1)C2
REMARK SMILES IDX 3 1 4 2 5 3 6 4 7 5 8 6 9 7 10 8 11 9 12 10 13 11 14 12
REMARK SMILES IDX 15 13 16 14 18 15 19 16 20 17 21 18 2 19 1 20 17 21
REMARK H PARENT 17 22 17 23
ROOT
ATOM      1  C   UNL     1      10.893 -55.482 -21.887  1.00  0.00    -0.074 C 
ATOM      2  C   UNL     1      10.453 -54.477 -21.106  1.00  0.00    -0.024 C 
ATOM      3  C   UNL     1       9.911 -53.177 -21.657  1.00  0.00     0.018 C 
ATOM      4  C   UNL     1      10.987 -52.082 -21.632  1.00  0.00     0.064 C 
ATOM      5  C   UNL     1      12.005 -52.197 -22.746  1.00  0.00     0.047 A 
ATOM      6  N   UNL     1      13.072 -51.371 -22.624  1.00  0.00    -0.252 NA
ATOM      7  C   UNL     1      14.008 -51.372 -23.580  1.00  0.00     0.074 A 
ATOM      8  C   UNL     1      15.086 -50.511 -23.441  1.00  0.00     0.049 A 
ATOM      9  C   UNL     1      16.094 -50.453 -24.400  1.00  0.00     0.043 A 
ATOM     10  Cl  UNL     1      17.415 -49.370 -24.192  1.00  0.00    -0.084 Cl
ATOM     11  C   UNL     1      16.040 -51.264 -25.525  1.00  0.00     0.021 A 
ATOM     12  C   UNL     1      14.964 -52.135 -25.681  1.00  0.00     0.014 A 
ATOM     13  C   UNL     1      13.932 -52.202 -24.716  1.00  0.00     0.024 A 
ATOM     14  C   UNL     1      12.822 -53.080 -24.825  1.00  0.00     0.046 A 
ATOM     15  C   UNL     1      11.815 -53.050 -23.843  1.00  0.00     0.001 A 
ATOM     16  C   UNL     1      10.578 -53.938 -23.915  1.00  0.00     0.028 C 
ATOM     17  C   UNL     1      10.886 -55.364 -23.399  1.00  0.00     0.039 C 
ATOM     18  C   UNL     1       9.424 -53.347 -23.097  1.00  0.00     0.017 C 
ENDROOT
BRANCH   1  19
ATOM     19  C   UNL     1      11.401 -56.778 -21.303  1.00  0.00     0.027 C 
ATOM     20  C   UNL     1      11.404 -57.913 -22.317  1.00  0.00     0.008 C 
ENDBRANCH   1  19
BRANCH  14  21
ATOM     21  N   UNL     1      12.659 -53.831 -26.017  1.00  0.00    -0.398 N 
ATOM     22  H   UNL     1      13.476 -53.837 -26.616  1.00  0.00     0.156 HD
ATOM     23  H   UNL     1      12.376 -54.785 -25.799  1.00  0.00     0.156 HD
ENDBRANCH  14  21
TORSDOF 2
ENDMDL
MODEL 8
REMARK VINA RESULT:    -7.849      5.666     10.315
REMARK INTER + INTRA:          -8.634
REMARK INTER:                  -8.509
REMARK INTRA:                  -0.126
REMARK UNBOUND:                -0.097
REMARK SMILES CCC1=C[C@H]2Cc3nc4cc(Cl)ccc4c(N)c3[C@@H](C1)C2
REMARK SMILES IDX 3 1 4 2 5 3 6 4 7 5 8 6 9 7 10 8 11 9 12 10 13 11 14 12
REMARK SMILES IDX 15 13 16 14 18 15 19 16 20 17 21 18 2 19 1 20 17 21
REMARK H PARENT 17 22 17 23
ROOT
ATOM      1  C   UNL     1      14.679 -47.509 -22.085  1.00  0.00    -0.074 C 
ATOM      2  C   UNL     1      14.905 -47.102 -23.348  1.00  0.00    -0.024 C 
ATOM      3  C   UNL     1      13.820 -47.017 -24.399  1.00  0.00     0.018 C 
ATOM      4  C   UNL     1      13.840 -48.256 -25.306  1.00  0.00     0.064 C 
ATOM      5  C   UNL     1      13.218 -49.485 -24.679  1.00  0.00     0.047 A 
ATOM      6  N   UNL     1      13.409 -50.632 -25.376  1.00  0.00    -0.252 NA
ATOM      7  C   UNL     1      12.864 -51.767 -24.923  1.00  0.00     0.074 A 
ATOM      8  C   UNL     1      13.061 -52.926 -25.656  1.00  0.00     0.049 A 
ATOM      9  C   UNL     1      12.518 -54.142 -25.248  1.00  0.00     0.043 A 
ATOM     10  Cl  UNL     1      12.785 -55.559 -26.188  1.00  0.00    -0.084 Cl
ATOM     11  C   UNL     1      11.763 -54.219 -24.087  1.00  0.00     0.021 A 
ATOM     12  C   UNL     1      11.554 -53.063 -23.337  1.00  0.00     0.014 A 
ATOM     13  C   UNL     1      12.097 -51.821 -23.742  1.00  0.00     0.024 A 
ATOM     14  C   UNL     1      11.921 -50.620 -23.007  1.00  0.00     0.046 A 
ATOM     15  C   UNL     1      12.456 -49.418 -23.504  1.00  0.00     0.001 A 
ATOM     16  C   UNL     1      12.275 -48.085 -22.786  1.00  0.00     0.028 C 
ATOM     17  C   UNL     1      13.294 -47.932 -21.632  1.00  0.00     0.039 C 
ATOM     18  C   UNL     1      12.436 -46.908 -23.756  1.00  0.00     0.017 C 
ENDROOT
BRANCH   1  19
ATOM     19  C   UNL     1      15.781 -47.555 -21.055  1.00  0.00     0.027 C 
ATOM     20  C   UNL     1      16.773 -48.681 -21.311  1.00  0.00     0.008 C 
ENDBRANCH   1  19
BRANCH  14  21
ATOM     21  N   UNL     1      11.050 -50.625 -21.887  1.00  0.00    -0.398 N 
ATOM     22  H   UNL     1      10.069 -50.552 -22.127  1.00  0.00     0.156 HD
ATOM     23  H   UNL     1      11.212 -51.453 -21.316  1.00  0.00     0.156 HD
ENDBRANCH  14  21
TORSDOF 2
ENDMDL
MODEL 9
REMARK VINA RESULT:    -7.774      6.344      9.365
REMARK INTER + INTRA:          -8.552
REMARK INTER:                  -8.456
REMARK INTRA:                  -0.096
REMARK UNBOUND:                -0.097
REMARK SMILES CCC1=C[C@H]2Cc3nc4cc(Cl)ccc4c(N)c3[C@@H](C1)C2
REMARK SMILES IDX 3 1 4 2 5 3 6 4 7 5 8 6 9 7 10 8 11 9 12 10 13 11 14 12
REMARK SMILES IDX 15 13 16 14 18 15 19 16 20 17 21 18 2 19 1 20 17 21
REMARK H PARENT 17 22 17 23
ROOT
ATOM      1  C   UNL     1      12.157 -52.295 -23.563  1.00  0.00    -0.074 C 
ATOM      2  C   UNL     1      12.658 -52.151 -24.805  1.00  0.00    -0.024 C 
ATOM      3  C   UNL     1      13.908 -51.354 -25.106  1.00  0.00     0.018 C 
ATOM      4  C   UNL     1      13.553 -49.948 -25.607  1.00  0.00     0.064 C 
ATOM      5  C   UNL     1      13.140 -48.992 -24.509  1.00  0.00     0.047 A 
ATOM      6  N   UNL     1      12.628 -47.816 -24.947  1.00  0.00    -0.252 NA
ATOM      7  C   UNL     1      12.269 -46.889 -24.051  1.00  0.00     0.074 A 
ATOM      8  C   UNL     1      11.758 -45.689 -24.521  1.00  0.00     0.049 A 
ATOM      9  C   UNL     1      11.370 -44.676 -23.646  1.00  0.00     0.043 A 
ATOM     10  Cl  UNL     1      10.742 -43.200 -24.269  1.00  0.00    -0.084 Cl
ATOM     11  C   UNL     1      11.487 -44.850 -22.275  1.00  0.00     0.021 A 
ATOM     12  C   UNL     1      11.998 -46.050 -21.785  1.00  0.00     0.014 A 
ATOM     13  C   UNL     1      12.399 -47.085 -22.662  1.00  0.00     0.024 A 
ATOM     14  C   UNL     1      12.915 -48.329 -22.212  1.00  0.00     0.046 A 
ATOM     15  C   UNL     1      13.334 -49.287 -23.152  1.00  0.00     0.001 A 
ATOM     16  C   UNL     1      13.931 -50.628 -22.740  1.00  0.00     0.028 C 
ATOM     17  C   UNL     1      12.821 -51.640 -22.366  1.00  0.00     0.039 C 
ATOM     18  C   UNL     1      14.791 -51.219 -23.864  1.00  0.00     0.017 C 
ENDROOT
BRANCH   1  19
ATOM     19  C   UNL     1      10.922 -53.119 -23.295  1.00  0.00     0.027 C 
ATOM     20  C   UNL     1      11.160 -54.609 -23.497  1.00  0.00     0.008 C 
ENDBRANCH   1  19
BRANCH  14  21
ATOM     21  N   UNL     1      13.173 -48.501 -20.827  1.00  0.00    -0.398 N 
ATOM     22  H   UNL     1      14.138 -48.342 -20.565  1.00  0.00     0.156 HD
ATOM     23  H   UNL     1      12.557 -47.906 -20.276  1.00  0.00     0.156 HD
ENDBRANCH  14  21
TORSDOF 2
ENDMDL
