MODEL 1
REMARK VINA RESULT:   -11.167      0.000      0.000
REMARK INTER + INTRA:         -16.463
REMARK INTER:                 -16.063
REMARK INTRA:                  -0.400
REMARK UNBOUND:                -0.400
REMARK SMILES C=C(O)c1c[n+](Cc2cccc(Cl)c2)ccc1CC1=C(O)c2cc(O)c(OC)cc2C1
REMARK SMILES IDX 4 1 5 2 6 3 15 4 16 5 17 6 2 7 1 8 3 9 18 11 19 12 20 13
REMARK SMILES IDX 31 14 22 15 30 16 23 17 29 18 24 19 26 20 21 21 25 23 27 25
REMARK SMILES IDX 28 26 7 27 8 28 9 29 14 30 10 31 12 32 11 33 13 34
REMARK H PARENT 3 10 21 22 25 24
ROOT
ATOM      1  C   UNL     1       8.944 -58.234 -23.304  1.00  0.00     0.083 A 
ATOM      2  C   UNL     1       9.489 -59.505 -23.504  1.00  0.00     0.320 A 
ATOM      3  N   UNL     1      10.805 -59.751 -23.312  1.00  0.00    -0.200 N 
ATOM      4  C   UNL     1      11.637 -58.764 -22.921  1.00  0.00     0.308 A 
ATOM      5  C   UNL     1      11.160 -57.475 -22.729  1.00  0.00     0.075 A 
ATOM      6  C   UNL     1       9.800 -57.190 -22.921  1.00  0.00    -0.021 A 
ENDROOT
BRANCH   1   7
ATOM      7  C   UNL     1       7.503 -58.090 -23.549  1.00  0.00     0.121 C 
ATOM      8  C   UNL     1       6.563 -58.568 -22.725  1.00  0.00     0.059 C 
BRANCH   7   9
ATOM      9  O   UNL     1       7.197 -57.480 -24.741  1.00  0.00    -0.508 OA
ATOM     10  H   UNL     1       7.814 -56.735 -24.878  1.00  0.00     0.293 HD
ENDBRANCH   7   9
ENDBRANCH   1   7
BRANCH   6  11
ATOM     11  C   UNL     1       9.329 -55.769 -22.684  1.00  0.00     0.072 C 
BRANCH  11  12
ATOM     12  C   UNL     1      10.340 -54.688 -22.917  1.00  0.00    -0.019 C 
ATOM     13  C   UNL     1      10.742 -53.659 -22.148  1.00  0.00     0.123 C 
ATOM     14  C   UNL     1      11.080 -54.689 -24.246  1.00  0.00     0.071 C 
ATOM     15  C   UNL     1      11.758 -52.886 -22.854  1.00  0.00     0.024 A 
ATOM     16  C   UNL     1      11.968 -53.489 -24.104  1.00  0.00    -0.029 A 
ATOM     17  C   UNL     1      12.467 -51.756 -22.493  1.00  0.00     0.062 A 
ATOM     18  C   UNL     1      12.883 -52.985 -25.021  1.00  0.00     0.055 A 
ATOM     19  C   UNL     1      13.384 -51.250 -23.409  1.00  0.00     0.158 A 
ATOM     20  C   UNL     1      13.605 -51.845 -24.669  1.00  0.00     0.160 A 
BRANCH  13  21
ATOM     21  O   UNL     1      10.302 -53.322 -20.905  1.00  0.00    -0.507 OA
ATOM     22  H   UNL     1       9.444 -52.874 -21.012  1.00  0.00     0.293 HD
ENDBRANCH  13  21
BRANCH  19  23
ATOM     23  O   UNL     1      14.087 -50.130 -23.051  1.00  0.00    -0.504 OA
ATOM     24  H   UNL     1      14.290 -49.674 -23.892  1.00  0.00     0.293 HD
ENDBRANCH  19  23
BRANCH  20  25
ATOM     25  O   UNL     1      14.545 -51.211 -25.442  1.00  0.00    -0.493 OA
ATOM     26  C   UNL     1      14.060 -50.458 -26.549  1.00  0.00     0.278 C 
ENDBRANCH  20  25
ENDBRANCH  11  12
ENDBRANCH   6  11
BRANCH   3  27
ATOM     27  C   UNL     1      11.326 -61.124 -23.516  1.00  0.00     0.393 C 
BRANCH  27  28
ATOM     28  C   UNL     1      10.208 -62.135 -23.522  1.00  0.00     0.018 A 
ATOM     29  C   UNL     1       9.938 -62.905 -22.380  1.00  0.00     0.010 A 
ATOM     30  C   UNL     1       9.418 -62.326 -24.667  1.00  0.00     0.030 A 
ATOM     31  C   UNL     1       8.896 -63.837 -22.381  1.00  0.00     0.002 A 
ATOM     32  C   UNL     1       8.378 -63.257 -24.659  1.00  0.00     0.041 A 
ATOM     33  C   UNL     1       8.114 -64.012 -23.521  1.00  0.00     0.020 A 
ATOM     34  Cl  UNL     1       7.419 -63.467 -26.071  1.00  0.00    -0.084 Cl
ENDBRANCH  27  28
ENDBRANCH   3  27
TORSDOF 9
ENDMDL
MODEL 2
REMARK VINA RESULT:   -10.740      1.242      1.803
REMARK INTER + INTRA:         -15.850
REMARK INTER:                 -15.675
REMARK INTRA:                  -0.174
REMARK UNBOUND:                -0.400
REMARK SMILES C=C(O)c1c[n+](Cc2cccc(Cl)c2)ccc1CC1=C(O)c2cc(O)c(OC)cc2C1
REMARK SMILES IDX 4 1 5 2 6 3 15 4 16 5 17 6 2 7 1 8 3 9 18 11 19 12 20 13
REMARK SMILES IDX 31 14 22 15 30 16 23 17 29 18 24 19 26 20 21 21 25 23 27 25
REMARK SMILES IDX 28 26 7 27 8 28 9 29 14 30 10 31 12 32 11 33 13 34
REMARK H PARENT 3 10 21 22 25 24
ROOT
ATOM      1  C   UNL     1       9.519 -58.286 -23.115  1.00  0.00     0.083 A 
ATOM      2  C   UNL     1       9.864 -59.589 -23.480  1.00  0.00     0.320 A 
ATOM      3  N   UNL     1      11.098 -60.090 -23.241  1.00  0.00    -0.200 N 
ATOM      4  C   UNL     1      12.039 -59.335 -22.639  1.00  0.00     0.308 A 
ATOM      5  C   UNL     1      11.764 -58.025 -22.273  1.00  0.00     0.075 A 
ATOM      6  C   UNL     1      10.494 -57.478 -22.508  1.00  0.00    -0.021 A 
ENDROOT
BRANCH   1   7
ATOM      7  C   UNL     1       8.150 -57.854 -23.431  1.00  0.00     0.121 C 
ATOM      8  C   UNL     1       7.063 -58.580 -23.147  1.00  0.00     0.059 C 
BRANCH   7   9
ATOM      9  O   UNL     1       8.085 -56.663 -24.113  1.00  0.00    -0.508 OA
ATOM     10  H   UNL     1       8.942 -56.508 -24.554  1.00  0.00     0.293 HD
ENDBRANCH   7   9
ENDBRANCH   1   7
BRANCH   6  11
ATOM     11  C   UNL     1      10.242 -56.048 -22.077  1.00  0.00     0.072 C 
BRANCH  11  12
ATOM     12  C   UNL     1      10.958 -54.985 -22.854  1.00  0.00    -0.019 C 
ATOM     13  C   UNL     1      11.631 -55.029 -24.018  1.00  0.00     0.123 C 
ATOM     14  C   UNL     1      10.973 -53.578 -22.275  1.00  0.00     0.071 C 
ATOM     15  C   UNL     1      12.151 -53.703 -24.335  1.00  0.00     0.024 A 
ATOM     16  C   UNL     1      11.767 -52.831 -23.305  1.00  0.00    -0.029 A 
ATOM     17  C   UNL     1      12.896 -53.241 -25.404  1.00  0.00     0.062 A 
ATOM     18  C   UNL     1      12.112 -51.484 -23.312  1.00  0.00     0.055 A 
ATOM     19  C   UNL     1      13.242 -51.893 -25.413  1.00  0.00     0.158 A 
ATOM     20  C   UNL     1      12.864 -51.005 -24.385  1.00  0.00     0.160 A 
BRANCH  13  21
ATOM     21  O   UNL     1      11.846 -56.108 -24.820  1.00  0.00    -0.507 OA
ATOM     22  H   UNL     1      11.628 -55.841 -25.731  1.00  0.00     0.293 HD
ENDBRANCH  13  21
BRANCH  19  23
ATOM     23  O   UNL     1      13.980 -51.435 -26.473  1.00  0.00    -0.504 OA
ATOM     24  H   UNL     1      14.158 -52.224 -27.022  1.00  0.00     0.293 HD
ENDBRANCH  19  23
BRANCH  20  25
ATOM     25  O   UNL     1      13.293 -49.714 -24.559  1.00  0.00    -0.493 OA
ATOM     26  C   UNL     1      12.388 -48.682 -24.181  1.00  0.00     0.278 C 
ENDBRANCH  20  25
ENDBRANCH  11  12
ENDBRANCH   6  11
BRANCH   3  27
ATOM     27  C   UNL     1      11.403 -61.488 -23.630  1.00  0.00     0.393 C 
BRANCH  27  28
ATOM     28  C   UNL     1      10.163 -62.344 -23.600  1.00  0.00     0.018 A 
ATOM     29  C   UNL     1       9.777 -63.000 -22.421  1.00  0.00     0.010 A 
ATOM     30  C   UNL     1       9.373 -62.503 -24.751  1.00  0.00     0.030 A 
ATOM     31  C   UNL     1       8.623 -63.787 -22.389  1.00  0.00     0.002 A 
ATOM     32  C   UNL     1       8.219 -63.290 -24.710  1.00  0.00     0.041 A 
ATOM     33  C   UNL     1       7.842 -63.931 -23.535  1.00  0.00     0.020 A 
ATOM     34  Cl  UNL     1       7.264 -63.462 -26.129  1.00  0.00    -0.084 Cl
ENDBRANCH  27  28
ENDBRANCH   3  27
TORSDOF 9
ENDMDL
MODEL 3
REMARK VINA RESULT:   -10.330      4.004      9.524
REMARK INTER + INTRA:         -15.260
REMARK INTER:                 -14.539
REMARK INTRA:                  -0.721
REMARK UNBOUND:                -0.400
REMARK SMILES C=C(O)c1c[n+](Cc2cccc(Cl)c2)ccc1CC1=C(O)c2cc(O)c(OC)cc2C1
REMARK SMILES IDX 4 1 5 2 6 3 15 4 16 5 17 6 2 7 1 8 3 9 18 11 19 12 20 13
REMARK SMILES IDX 31 14 22 15 30 16 23 17 29 18 24 19 26 20 21 21 25 23 27 25
REMARK SMILES IDX 28 26 7 27 8 28 9 29 14 30 10 31 12 32 11 33 13 34
REMARK H PARENT 3 10 21 22 25 24
ROOT
ATOM      1  C   UNL     1      11.017 -53.108 -23.143  1.00  0.00     0.083 A 
ATOM      2  C   UNL     1      11.929 -52.471 -23.988  1.00  0.00     0.320 A 
ATOM      3  N   UNL     1      12.597 -53.148 -24.951  1.00  0.00    -0.200 N 
ATOM      4  C   UNL     1      12.399 -54.472 -25.121  1.00  0.00     0.308 A 
ATOM      5  C   UNL     1      11.523 -55.164 -24.298  1.00  0.00     0.075 A 
ATOM      6  C   UNL     1      10.817 -54.490 -23.291  1.00  0.00    -0.021 A 
ENDROOT
BRANCH   1   7
ATOM      7  C   UNL     1      10.358 -52.269 -22.133  1.00  0.00     0.121 C 
ATOM      8  C   UNL     1      11.021 -51.585 -21.195  1.00  0.00     0.059 C 
BRANCH   7   9
ATOM      9  O   UNL     1       8.985 -52.301 -22.191  1.00  0.00    -0.508 OA
ATOM     10  H   UNL     1       8.630 -51.714 -21.497  1.00  0.00     0.293 HD
ENDBRANCH   7   9
ENDBRANCH   1   7
BRANCH   6  11
ATOM     11  C   UNL     1       9.863 -55.292 -22.429  1.00  0.00     0.072 C 
BRANCH  11  12
ATOM     12  C   UNL     1       9.826 -56.769 -22.678  1.00  0.00    -0.019 C 
ATOM     13  C   UNL     1      10.626 -57.767 -22.261  1.00  0.00     0.123 C 
ATOM     14  C   UNL     1       8.710 -57.306 -23.562  1.00  0.00     0.071 C 
ATOM     15  C   UNL     1      10.152 -59.036 -22.800  1.00  0.00     0.024 A 
ATOM     16  C   UNL     1       9.012 -58.776 -23.577  1.00  0.00    -0.029 A 
ATOM     17  C   UNL     1      10.627 -60.327 -22.663  1.00  0.00     0.062 A 
ATOM     18  C   UNL     1       8.320 -59.788 -24.233  1.00  0.00     0.055 A 
ATOM     19  C   UNL     1       9.935 -61.341 -23.319  1.00  0.00     0.158 A 
ATOM     20  C   UNL     1       8.789 -61.094 -24.103  1.00  0.00     0.160 A 
BRANCH  13  21
ATOM     21  O   UNL     1      11.732 -57.677 -21.471  1.00  0.00    -0.507 OA
ATOM     22  H   UNL     1      12.507 -57.649 -22.059  1.00  0.00     0.293 HD
ENDBRANCH  13  21
BRANCH  19  23
ATOM     23  O   UNL     1      10.406 -62.620 -23.182  1.00  0.00    -0.504 OA
ATOM     24  H   UNL     1      10.506 -62.756 -22.219  1.00  0.00     0.293 HD
ENDBRANCH  19  23
BRANCH  20  25
ATOM     25  O   UNL     1       8.238 -62.213 -24.675  1.00  0.00    -0.493 OA
ATOM     26  C   UNL     1       7.061 -62.731 -24.064  1.00  0.00     0.278 C 
ENDBRANCH  20  25
ENDBRANCH  11  12
ENDBRANCH   6  11
BRANCH   3  27
ATOM     27  C   UNL     1      13.536 -52.418 -25.834  1.00  0.00     0.393 C 
BRANCH  27  28
ATOM     28  C   UNL     1      14.851 -52.166 -25.142  1.00  0.00     0.018 A 
ATOM     29  C   UNL     1      15.961 -52.985 -25.398  1.00  0.00     0.010 A 
ATOM     30  C   UNL     1      14.989 -51.108 -24.227  1.00  0.00     0.030 A 
ATOM     31  C   UNL     1      17.183 -52.746 -24.764  1.00  0.00     0.002 A 
ATOM     32  C   UNL     1      16.214 -50.875 -23.599  1.00  0.00     0.041 A 
ATOM     33  C   UNL     1      17.311 -51.689 -23.864  1.00  0.00     0.020 A 
ATOM     34  Cl  UNL     1      16.360 -49.569 -22.490  1.00  0.00    -0.084 Cl
ENDBRANCH  27  28
ENDBRANCH   3  27
TORSDOF 9
ENDMDL
MODEL 4
REMARK VINA RESULT:   -10.028      2.132      3.206
REMARK INTER + INTRA:         -14.825
REMARK INTER:                 -14.070
REMARK INTRA:                  -0.755
REMARK UNBOUND:                -0.400
REMARK SMILES C=C(O)c1c[n+](Cc2cccc(Cl)c2)ccc1CC1=C(O)c2cc(O)c(OC)cc2C1
REMARK SMILES IDX 4 1 5 2 6 3 15 4 16 5 17 6 2 7 1 8 3 9 18 11 19 12 20 13
REMARK SMILES IDX 31 14 22 15 30 16 23 17 29 18 24 19 26 20 21 21 25 23 27 25
REMARK SMILES IDX 28 26 7 27 8 28 9 29 14 30 10 31 12 32 11 33 13 34
REMARK H PARENT 3 10 21 22 25 24
ROOT
ATOM      1  C   UNL     1       8.880 -59.200 -23.095  1.00  0.00     0.083 A 
ATOM      2  C   UNL     1       8.652 -60.399 -23.776  1.00  0.00     0.320 A 
ATOM      3  N   UNL     1       9.549 -61.412 -23.749  1.00  0.00    -0.200 N 
ATOM      4  C   UNL     1      10.701 -61.290 -23.057  1.00  0.00     0.308 A 
ATOM      5  C   UNL     1      10.994 -60.115 -22.380  1.00  0.00     0.075 A 
ATOM      6  C   UNL     1      10.085 -59.047 -22.391  1.00  0.00    -0.021 A 
ENDROOT
BRANCH   1   7
ATOM      7  C   UNL     1       7.835 -58.173 -23.204  1.00  0.00     0.121 C 
ATOM      8  C   UNL     1       6.614 -58.303 -22.673  1.00  0.00     0.059 C 
BRANCH   7   9
ATOM      9  O   UNL     1       8.197 -57.087 -23.964  1.00  0.00    -0.508 OA
ATOM     10  H   UNL     1       8.548 -57.407 -24.817  1.00  0.00     0.293 HD
ENDBRANCH   7   9
ENDBRANCH   1   7
BRANCH   6  11
ATOM     11  C   UNL     1      10.448 -57.792 -21.623  1.00  0.00     0.072 C 
BRANCH  11  12
ATOM     12  C   UNL     1      10.958 -56.642 -22.437  1.00  0.00    -0.019 C 
ATOM     13  C   UNL     1      11.544 -56.592 -23.647  1.00  0.00     0.123 C 
ATOM     14  C   UNL     1      10.827 -55.247 -21.843  1.00  0.00     0.071 C 
ATOM     15  C   UNL     1      11.858 -55.209 -23.984  1.00  0.00     0.024 A 
ATOM     16  C   UNL     1      11.437 -54.398 -22.919  1.00  0.00    -0.029 A 
ATOM     17  C   UNL     1      12.455 -54.649 -25.098  1.00  0.00     0.062 A 
ATOM     18  C   UNL     1      11.598 -53.017 -22.934  1.00  0.00     0.055 A 
ATOM     19  C   UNL     1      12.617 -53.266 -25.116  1.00  0.00     0.158 A 
ATOM     20  C   UNL     1      12.199 -52.440 -24.053  1.00  0.00     0.160 A 
BRANCH  13  21
ATOM     21  O   UNL     1      11.841 -57.632 -24.475  1.00  0.00    -0.507 OA
ATOM     22  H   UNL     1      11.170 -57.643 -25.179  1.00  0.00     0.293 HD
ENDBRANCH  13  21
BRANCH  19  23
ATOM     23  O   UNL     1      13.208 -52.711 -26.220  1.00  0.00    -0.504 OA
ATOM     24  H   UNL     1      14.124 -53.055 -26.222  1.00  0.00     0.293 HD
ENDBRANCH  19  23
BRANCH  20  25
ATOM     25  O   UNL     1      12.439 -51.102 -24.242  1.00  0.00    -0.493 OA
ATOM     26  C   UNL     1      13.573 -50.555 -23.578  1.00  0.00     0.278 C 
ENDBRANCH  20  25
ENDBRANCH  11  12
ENDBRANCH   6  11
BRANCH   3  27
ATOM     27  C   UNL     1       9.246 -62.671 -24.471  1.00  0.00     0.393 C 
BRANCH  27  28
ATOM     28  C   UNL     1       9.182 -62.443 -25.959  1.00  0.00     0.018 A 
ATOM     29  C   UNL     1       8.234 -63.118 -26.744  1.00  0.00     0.010 A 
ATOM     30  C   UNL     1      10.067 -61.552 -26.588  1.00  0.00     0.030 A 
ATOM     31  C   UNL     1       8.167 -62.901 -28.123  1.00  0.00     0.002 A 
ATOM     32  C   UNL     1       9.993 -61.339 -27.966  1.00  0.00     0.041 A 
ATOM     33  C   UNL     1       9.046 -62.009 -28.735  1.00  0.00     0.020 A 
ATOM     34  Cl  UNL     1      11.083 -60.238 -28.712  1.00  0.00    -0.084 Cl
ENDBRANCH  27  28
ENDBRANCH   3  27
TORSDOF 9
ENDMDL
MODEL 5
REMARK VINA RESULT:    -9.813      2.081      3.459
REMARK INTER + INTRA:         -14.516
REMARK INTER:                 -13.396
REMARK INTRA:                  -1.120
REMARK UNBOUND:                -0.400
REMARK SMILES C=C(O)c1c[n+](Cc2cccc(Cl)c2)ccc1CC1=C(O)c2cc(O)c(OC)cc2C1
REMARK SMILES IDX 4 1 5 2 6 3 15 4 16 5 17 6 2 7 1 8 3 9 18 11 19 12 20 13
REMARK SMILES IDX 31 14 22 15 30 16 23 17 29 18 24 19 26 20 21 21 25 23 27 25
REMARK SMILES IDX 28 26 7 27 8 28 9 29 14 30 10 31 12 32 11 33 13 34
REMARK H PARENT 3 10 21 22 25 24
ROOT
ATOM      1  C   UNL     1      10.917 -55.234 -22.175  1.00  0.00     0.083 A 
ATOM      2  C   UNL     1      11.015 -56.526 -21.652  1.00  0.00     0.320 A 
ATOM      3  N   UNL     1      11.448 -57.565 -22.404  1.00  0.00    -0.200 N 
ATOM      4  C   UNL     1      11.799 -57.380 -23.693  1.00  0.00     0.308 A 
ATOM      5  C   UNL     1      11.701 -56.124 -24.276  1.00  0.00     0.075 A 
ATOM      6  C   UNL     1      11.255 -55.028 -23.522  1.00  0.00    -0.021 A 
ENDROOT
BRANCH   1   7
ATOM      7  C   UNL     1      10.430 -54.191 -21.263  1.00  0.00     0.121 C 
ATOM      8  C   UNL     1      10.982 -53.935 -20.072  1.00  0.00     0.059 C 
BRANCH   7   9
ATOM      9  O   UNL     1       9.306 -53.540 -21.710  1.00  0.00    -0.508 OA
ATOM     10  H   UNL     1       9.552 -52.975 -22.467  1.00  0.00     0.293 HD
ENDBRANCH   7   9
ENDBRANCH   1   7
BRANCH   6  11
ATOM     11  C   UNL     1      11.181 -53.677 -24.204  1.00  0.00     0.072 C 
BRANCH  11  12
ATOM     12  C   UNL     1      12.437 -52.860 -24.196  1.00  0.00    -0.019 C 
ATOM     13  C   UNL     1      12.892 -51.928 -23.339  1.00  0.00     0.123 C 
ATOM     14  C   UNL     1      13.418 -53.066 -25.339  1.00  0.00     0.071 C 
ATOM     15  C   UNL     1      14.182 -51.425 -23.798  1.00  0.00     0.024 A 
ATOM     16  C   UNL     1      14.507 -52.095 -24.988  1.00  0.00    -0.029 A 
ATOM     17  C   UNL     1      15.037 -50.476 -23.272  1.00  0.00     0.062 A 
ATOM     18  C   UNL     1      15.684 -51.837 -25.682  1.00  0.00     0.055 A 
ATOM     19  C   UNL     1      16.217 -50.217 -23.964  1.00  0.00     0.158 A 
ATOM     20  C   UNL     1      16.556 -50.881 -25.161  1.00  0.00     0.160 A 
BRANCH  13  21
ATOM     21  O   UNL     1      12.289 -51.465 -22.209  1.00  0.00    -0.507 OA
ATOM     22  H   UNL     1      12.269 -50.494 -22.266  1.00  0.00     0.293 HD
ENDBRANCH  13  21
BRANCH  19  23
ATOM     23  O   UNL     1      17.065 -49.276 -23.442  1.00  0.00    -0.504 OA
ATOM     24  H   UNL     1      17.139 -49.496 -22.492  1.00  0.00     0.293 HD
ENDBRANCH  19  23
BRANCH  20  25
ATOM     25  O   UNL     1      17.756 -50.499 -25.706  1.00  0.00    -0.493 OA
ATOM     26  C   UNL     1      18.687 -51.536 -25.993  1.00  0.00     0.278 C 
ENDBRANCH  20  25
ENDBRANCH  11  12
ENDBRANCH   6  11
BRANCH   3  27
ATOM     27  C   UNL     1      11.554 -58.911 -21.792  1.00  0.00     0.393 C 
BRANCH  27  28
ATOM     28  C   UNL     1      10.749 -59.925 -22.562  1.00  0.00     0.018 A 
ATOM     29  C   UNL     1      11.384 -60.985 -23.226  1.00  0.00     0.010 A 
ATOM     30  C   UNL     1       9.349 -59.827 -22.631  1.00  0.00     0.030 A 
ATOM     31  C   UNL     1      10.638 -61.932 -23.933  1.00  0.00     0.002 A 
ATOM     32  C   UNL     1       8.610 -60.778 -23.338  1.00  0.00     0.041 A 
ATOM     33  C   UNL     1       9.248 -61.829 -23.989  1.00  0.00     0.020 A 
ATOM     34  Cl  UNL     1       6.897 -60.642 -23.401  1.00  0.00    -0.084 Cl
ENDBRANCH  27  28
ENDBRANCH   3  27
TORSDOF 9
ENDMDL
MODEL 6
REMARK VINA RESULT:    -9.780      3.555      5.971
REMARK INTER + INTRA:         -14.468
REMARK INTER:                 -14.761
REMARK INTRA:                   0.292
REMARK UNBOUND:                -0.400
REMARK SMILES C=C(O)c1c[n+](Cc2cccc(Cl)c2)ccc1CC1=C(O)c2cc(O)c(OC)cc2C1
REMARK SMILES IDX 4 1 5 2 6 3 15 4 16 5 17 6 2 7 1 8 3 9 18 11 19 12 20 13
REMARK SMILES IDX 31 14 22 15 30 16 23 17 29 18 24 19 26 20 21 21 25 23 27 25
REMARK SMILES IDX 28 26 7 27 8 28 9 29 14 30 10 31 12 32 11 33 13 34
REMARK H PARENT 3 10 21 22 25 24
ROOT
ATOM      1  C   UNL     1      12.243 -53.459 -24.432  1.00  0.00     0.083 A 
ATOM      2  C   UNL     1      11.302 -54.491 -24.393  1.00  0.00     0.320 A 
ATOM      3  N   UNL     1      10.418 -54.606 -23.375  1.00  0.00    -0.200 N 
ATOM      4  C   UNL     1      10.423 -53.720 -22.358  1.00  0.00     0.308 A 
ATOM      5  C   UNL     1      11.349 -52.687 -22.329  1.00  0.00     0.075 A 
ATOM      6  C   UNL     1      12.279 -52.542 -23.369  1.00  0.00    -0.021 A 
ENDROOT
BRANCH   1   7
ATOM      7  C   UNL     1      13.153 -53.441 -25.586  1.00  0.00     0.121 C 
ATOM      8  C   UNL     1      13.603 -52.317 -26.154  1.00  0.00     0.059 C 
BRANCH   7   9
ATOM      9  O   UNL     1      13.449 -54.688 -26.082  1.00  0.00    -0.508 OA
ATOM     10  H   UNL     1      12.648 -55.054 -26.504  1.00  0.00     0.293 HD
ENDBRANCH   7   9
ENDBRANCH   1   7
BRANCH   6  11
ATOM     11  C   UNL     1      13.259 -51.388 -23.295  1.00  0.00     0.072 C 
BRANCH  11  12
ATOM     12  C   UNL     1      12.664 -50.014 -23.266  1.00  0.00    -0.019 C 
ATOM     13  C   UNL     1      11.739 -49.456 -22.463  1.00  0.00     0.123 C 
ATOM     14  C   UNL     1      13.140 -49.018 -24.313  1.00  0.00     0.071 C 
ATOM     15  C   UNL     1      11.505 -48.075 -22.869  1.00  0.00     0.024 A 
ATOM     16  C   UNL     1      12.332 -47.801 -23.970  1.00  0.00    -0.029 A 
ATOM     17  C   UNL     1      10.662 -47.101 -22.367  1.00  0.00     0.062 A 
ATOM     18  C   UNL     1      12.342 -46.560 -24.595  1.00  0.00     0.055 A 
ATOM     19  C   UNL     1      10.671 -45.857 -22.991  1.00  0.00     0.158 A 
ATOM     20  C   UNL     1      11.496 -45.569 -24.098  1.00  0.00     0.160 A 
BRANCH  13  21
ATOM     21  O   UNL     1      11.075 -50.034 -21.425  1.00  0.00    -0.507 OA
ATOM     22  H   UNL     1      11.433 -49.654 -20.603  1.00  0.00     0.293 HD
ENDBRANCH  13  21
BRANCH  19  23
ATOM     23  O   UNL     1       9.836 -44.892 -22.493  1.00  0.00    -0.504 OA
ATOM     24  H   UNL     1      10.090 -44.792 -21.554  1.00  0.00     0.293 HD
ENDBRANCH  19  23
BRANCH  20  25
ATOM     25  O   UNL     1      11.373 -44.292 -24.585  1.00  0.00    -0.493 OA
ATOM     26  C   UNL     1      12.489 -43.428 -24.404  1.00  0.00     0.278 C 
ENDBRANCH  20  25
ENDBRANCH  11  12
ENDBRANCH   6  11
BRANCH   3  27
ATOM     27  C   UNL     1       9.426 -55.707 -23.395  1.00  0.00     0.393 C 
BRANCH  27  28
ATOM     28  C   UNL     1       9.989 -56.960 -22.776  1.00  0.00     0.018 A 
ATOM     29  C   UNL     1      11.045 -56.887 -21.854  1.00  0.00     0.010 A 
ATOM     30  C   UNL     1       9.471 -58.222 -23.110  1.00  0.00     0.030 A 
ATOM     31  C   UNL     1      11.562 -58.048 -21.272  1.00  0.00     0.002 A 
ATOM     32  C   UNL     1       9.992 -59.377 -22.523  1.00  0.00     0.041 A 
ATOM     33  C   UNL     1      11.034 -59.294 -21.605  1.00  0.00     0.020 A 
ATOM     34  Cl  UNL     1       9.335 -60.909 -22.942  1.00  0.00    -0.084 Cl
ENDBRANCH  27  28
ENDBRANCH   3  27
TORSDOF 9
ENDMDL
MODEL 7
REMARK VINA RESULT:    -9.482      2.617      4.963
REMARK INTER + INTRA:         -14.039
REMARK INTER:                 -12.785
REMARK INTRA:                  -1.254
REMARK UNBOUND:                -0.400
REMARK SMILES C=C(O)c1c[n+](Cc2cccc(Cl)c2)ccc1CC1=C(O)c2cc(O)c(OC)cc2C1
REMARK SMILES IDX 4 1 5 2 6 3 15 4 16 5 17 6 2 7 1 8 3 9 18 11 19 12 20 13
REMARK SMILES IDX 31 14 22 15 30 16 23 17 29 18 24 19 26 20 21 21 25 23 27 25
REMARK SMILES IDX 28 26 7 27 8 28 9 29 14 30 10 31 12 32 11 33 13 34
REMARK H PARENT 3 10 21 22 25 24
ROOT
ATOM      1  C   UNL     1      10.998 -53.771 -22.736  1.00  0.00     0.083 A 
ATOM      2  C   UNL     1      10.645 -54.998 -22.168  1.00  0.00     0.320 A 
ATOM      3  N   UNL     1      11.033 -56.172 -22.718  1.00  0.00    -0.200 N 
ATOM      4  C   UNL     1      11.776 -56.189 -23.844  1.00  0.00     0.308 A 
ATOM      5  C   UNL     1      12.138 -55.004 -24.467  1.00  0.00     0.075 A 
ATOM      6  C   UNL     1      11.750 -53.772 -23.921  1.00  0.00    -0.021 A 
ENDROOT
BRANCH   1   7
ATOM      7  C   UNL     1      10.514 -52.565 -22.050  1.00  0.00     0.121 C 
ATOM      8  C   UNL     1      11.281 -51.809 -21.257  1.00  0.00     0.059 C 
BRANCH   7   9
ATOM      9  O   UNL     1       9.176 -52.317 -22.236  1.00  0.00    -0.508 OA
ATOM     10  H   UNL     1       8.748 -52.239 -21.361  1.00  0.00     0.293 HD
ENDBRANCH   7   9
ENDBRANCH   1   7
BRANCH   6  11
ATOM     11  C   UNL     1      12.184 -52.507 -24.634  1.00  0.00     0.072 C 
BRANCH  11  12
ATOM     12  C   UNL     1      13.625 -52.122 -24.485  1.00  0.00    -0.019 C 
ATOM     13  C   UNL     1      14.734 -52.549 -25.115  1.00  0.00     0.123 C 
ATOM     14  C   UNL     1      13.968 -51.067 -23.444  1.00  0.00     0.071 C 
ATOM     15  C   UNL     1      15.900 -51.852 -24.584  1.00  0.00     0.024 A 
ATOM     16  C   UNL     1      15.458 -50.967 -23.588  1.00  0.00    -0.029 A 
ATOM     17  C   UNL     1      17.243 -51.939 -24.898  1.00  0.00     0.062 A 
ATOM     18  C   UNL     1      16.336 -50.151 -22.884  1.00  0.00     0.055 A 
ATOM     19  C   UNL     1      18.124 -51.122 -24.195  1.00  0.00     0.158 A 
ATOM     20  C   UNL     1      17.694 -50.229 -23.192  1.00  0.00     0.160 A 
BRANCH  13  21
ATOM     21  O   UNL     1      14.830 -53.492 -26.093  1.00  0.00    -0.507 OA
ATOM     22  H   UNL     1      15.340 -54.237 -25.729  1.00  0.00     0.293 HD
ENDBRANCH  13  21
BRANCH  19  23
ATOM     23  O   UNL     1      19.455 -51.208 -24.506  1.00  0.00    -0.504 OA
ATOM     24  H   UNL     1      19.748 -52.069 -24.146  1.00  0.00     0.293 HD
ENDBRANCH  19  23
BRANCH  20  25
ATOM     25  O   UNL     1      18.699 -49.505 -22.603  1.00  0.00    -0.493 OA
ATOM     26  C   UNL     1      18.601 -48.087 -22.689  1.00  0.00     0.278 C 
ENDBRANCH  20  25
ENDBRANCH  11  12
ENDBRANCH   6  11
BRANCH   3  27
ATOM     27  C   UNL     1      10.650 -57.444 -22.061  1.00  0.00     0.393 C 
BRANCH  27  28
ATOM     28  C   UNL     1       9.758 -58.270 -22.952  1.00  0.00     0.018 A 
ATOM     29  C   UNL     1       8.499 -57.790 -23.343  1.00  0.00     0.010 A 
ATOM     30  C   UNL     1      10.169 -59.535 -23.406  1.00  0.00     0.030 A 
ATOM     31  C   UNL     1       7.675 -58.551 -24.177  1.00  0.00     0.002 A 
ATOM     32  C   UNL     1       9.341 -60.288 -24.241  1.00  0.00     0.041 A 
ATOM     33  C   UNL     1       8.096 -59.801 -24.627  1.00  0.00     0.020 A 
ATOM     34  Cl  UNL     1       9.870 -61.829 -24.790  1.00  0.00    -0.084 Cl
ENDBRANCH  27  28
ENDBRANCH   3  27
TORSDOF 9
ENDMDL
MODEL 8
REMARK VINA RESULT:    -9.350      4.975     10.490
REMARK INTER + INTRA:         -13.850
REMARK INTER:                 -13.514
REMARK INTRA:                  -0.335
REMARK UNBOUND:                -0.400
REMARK SMILES C=C(O)c1c[n+](Cc2cccc(Cl)c2)ccc1CC1=C(O)c2cc(O)c(OC)cc2C1
REMARK SMILES IDX 4 1 5 2 6 3 15 4 16 5 17 6 2 7 1 8 3 9 18 11 19 12 20 13
REMARK SMILES IDX 31 14 22 15 30 16 23 17 29 18 24 19 26 20 21 21 25 23 27 25
REMARK SMILES IDX 28 26 7 27 8 28 9 29 14 30 10 31 12 32 11 33 13 34
REMARK H PARENT 3 10 21 22 25 24
ROOT
ATOM      1  C   UNL     1      12.633 -50.368 -23.378  1.00  0.00     0.083 A 
ATOM      2  C   UNL     1      13.817 -49.855 -23.915  1.00  0.00     0.320 A 
ATOM      3  N   UNL     1      14.564 -50.564 -24.792  1.00  0.00    -0.200 N 
ATOM      4  C   UNL     1      14.183 -51.801 -25.174  1.00  0.00     0.308 A 
ATOM      5  C   UNL     1      13.030 -52.374 -24.658  1.00  0.00     0.075 A 
ATOM      6  C   UNL     1      12.235 -51.663 -23.747  1.00  0.00    -0.021 A 
ENDROOT
BRANCH   1   7
ATOM      7  C   UNL     1      11.911 -49.505 -22.433  1.00  0.00     0.121 C 
ATOM      8  C   UNL     1      10.778 -48.863 -22.737  1.00  0.00     0.059 C 
BRANCH   7   9
ATOM      9  O   UNL     1      12.541 -49.355 -21.222  1.00  0.00    -0.508 OA
ATOM     10  H   UNL     1      11.864 -49.322 -20.519  1.00  0.00     0.293 HD
ENDBRANCH   7   9
ENDBRANCH   1   7
BRANCH   6  11
ATOM     11  C   UNL     1      10.978 -52.329 -23.224  1.00  0.00     0.072 C 
BRANCH  11  12
ATOM     12  C   UNL     1      11.072 -53.799 -22.949  1.00  0.00    -0.019 C 
ATOM     13  C   UNL     1      10.887 -54.512 -21.823  1.00  0.00     0.123 C 
ATOM     14  C   UNL     1      11.450 -54.710 -24.108  1.00  0.00     0.071 C 
ATOM     15  C   UNL     1      11.112 -55.927 -22.094  1.00  0.00     0.024 A 
ATOM     16  C   UNL     1      11.448 -56.059 -23.451  1.00  0.00    -0.029 A 
ATOM     17  C   UNL     1      11.045 -57.040 -21.278  1.00  0.00     0.062 A 
ATOM     18  C   UNL     1      11.726 -57.294 -24.025  1.00  0.00     0.055 A 
ATOM     19  C   UNL     1      11.322 -58.278 -21.851  1.00  0.00     0.158 A 
ATOM     20  C   UNL     1      11.662 -58.425 -23.212  1.00  0.00     0.160 A 
BRANCH  13  21
ATOM     21  O   UNL     1      10.555 -54.049 -20.586  1.00  0.00    -0.507 OA
ATOM     22  H   UNL     1      10.051 -54.752 -20.139  1.00  0.00     0.293 HD
ENDBRANCH  13  21
BRANCH  19  23
ATOM     23  O   UNL     1      11.256 -59.381 -21.042  1.00  0.00    -0.504 OA
ATOM     24  H   UNL     1      11.769 -59.145 -20.243  1.00  0.00     0.293 HD
ENDBRANCH  19  23
BRANCH  20  25
ATOM     25  O   UNL     1      11.903 -59.717 -23.604  1.00  0.00    -0.493 OA
ATOM     26  C   UNL     1      12.192 -59.925 -24.982  1.00  0.00     0.278 C 
ENDBRANCH  20  25
ENDBRANCH  11  12
ENDBRANCH   6  11
BRANCH   3  27
ATOM     27  C   UNL     1      15.799 -49.963 -25.348  1.00  0.00     0.393 C 
BRANCH  27  28
ATOM     28  C   UNL     1      15.487 -49.050 -26.505  1.00  0.00     0.018 A 
ATOM     29  C   UNL     1      15.480 -49.542 -27.820  1.00  0.00     0.010 A 
ATOM     30  C   UNL     1      15.200 -47.691 -26.291  1.00  0.00     0.030 A 
ATOM     31  C   UNL     1      15.182 -48.698 -28.893  1.00  0.00     0.002 A 
ATOM     32  C   UNL     1      14.900 -46.856 -27.369  1.00  0.00     0.041 A 
ATOM     33  C   UNL     1      14.890 -47.353 -28.668  1.00  0.00     0.020 A 
ATOM     34  Cl  UNL     1      14.543 -45.199 -27.080  1.00  0.00    -0.084 Cl
ENDBRANCH  27  28
ENDBRANCH   3  27
TORSDOF 9
ENDMDL
MODEL 9
REMARK VINA RESULT:    -9.190      4.055      7.322
REMARK INTER + INTRA:         -13.619
REMARK INTER:                 -12.181
REMARK INTRA:                  -1.439
REMARK UNBOUND:                -0.400
REMARK SMILES C=C(O)c1c[n+](Cc2cccc(Cl)c2)ccc1CC1=C(O)c2cc(O)c(OC)cc2C1
REMARK SMILES IDX 4 1 5 2 6 3 15 4 16 5 17 6 2 7 1 8 3 9 18 11 19 12 20 13
REMARK SMILES IDX 31 14 22 15 30 16 23 17 29 18 24 19 26 20 21 21 25 23 27 25
REMARK SMILES IDX 28 26 7 27 8 28 9 29 14 30 10 31 12 32 11 33 13 34
REMARK H PARENT 3 10 21 22 25 24
ROOT
ATOM      1  C   UNL     1      13.206 -52.253 -24.409  1.00  0.00     0.083 A 
ATOM      2  C   UNL     1      12.247 -53.267 -24.466  1.00  0.00     0.320 A 
ATOM      3  N   UNL     1      11.293 -53.396 -23.515  1.00  0.00    -0.200 N 
ATOM      4  C   UNL     1      11.245 -52.540 -22.472  1.00  0.00     0.308 A 
ATOM      5  C   UNL     1      12.185 -51.527 -22.348  1.00  0.00     0.075 A 
ATOM      6  C   UNL     1      13.185 -51.369 -23.319  1.00  0.00    -0.021 A 
ENDROOT
BRANCH   1   7
ATOM      7  C   UNL     1      14.192 -52.218 -25.498  1.00  0.00     0.121 C 
ATOM      8  C   UNL     1      15.349 -52.889 -25.468  1.00  0.00     0.059 C 
BRANCH   7   9
ATOM      9  O   UNL     1      13.855 -51.375 -26.529  1.00  0.00    -0.508 OA
ATOM     10  H   UNL     1      13.474 -50.558 -26.153  1.00  0.00     0.293 HD
ENDBRANCH   7   9
ENDBRANCH   1   7
BRANCH   6  11
ATOM     11  C   UNL     1      14.178 -50.238 -23.143  1.00  0.00     0.072 C 
BRANCH  11  12
ATOM     12  C   UNL     1      13.756 -48.898 -23.663  1.00  0.00    -0.019 C 
ATOM     13  C   UNL     1      14.076 -48.235 -24.789  1.00  0.00     0.123 C 
ATOM     14  C   UNL     1      12.797 -48.081 -22.811  1.00  0.00     0.071 C 
ATOM     15  C   UNL     1      13.391 -46.947 -24.813  1.00  0.00     0.024 A 
ATOM     16  C   UNL     1      12.626 -46.843 -23.641  1.00  0.00    -0.029 A 
ATOM     17  C   UNL     1      13.395 -45.922 -25.741  1.00  0.00     0.062 A 
ATOM     18  C   UNL     1      11.851 -45.723 -23.363  1.00  0.00     0.055 A 
ATOM     19  C   UNL     1      12.619 -44.800 -25.464  1.00  0.00     0.158 A 
ATOM     20  C   UNL     1      11.847 -44.682 -24.291  1.00  0.00     0.160 A 
BRANCH  13  21
ATOM     21  O   UNL     1      14.913 -48.635 -25.786  1.00  0.00    -0.507 OA
ATOM     22  H   UNL     1      14.360 -48.968 -26.514  1.00  0.00     0.293 HD
ENDBRANCH  13  21
BRANCH  19  23
ATOM     23  O   UNL     1      12.624 -43.784 -26.384  1.00  0.00    -0.504 OA
ATOM     24  H   UNL     1      12.875 -44.205 -27.230  1.00  0.00     0.293 HD
ENDBRANCH  19  23
BRANCH  20  25
ATOM     25  O   UNL     1      11.146 -43.507 -24.184  1.00  0.00    -0.493 OA
ATOM     26  C   UNL     1      11.115 -42.894 -22.900  1.00  0.00     0.278 C 
ENDBRANCH  20  25
ENDBRANCH  11  12
ENDBRANCH   6  11
BRANCH   3  27
ATOM     27  C   UNL     1      10.286 -54.476 -23.636  1.00  0.00     0.393 C 
BRANCH  27  28
ATOM     28  C   UNL     1      10.805 -55.771 -23.067  1.00  0.00     0.018 A 
ATOM     29  C   UNL     1      10.892 -55.956 -21.679  1.00  0.00     0.010 A 
ATOM     30  C   UNL     1      11.211 -56.816 -23.914  1.00  0.00     0.030 A 
ATOM     31  C   UNL     1      11.364 -57.161 -21.150  1.00  0.00     0.002 A 
ATOM     32  C   UNL     1      11.680 -58.017 -23.378  1.00  0.00     0.041 A 
ATOM     33  C   UNL     1      11.757 -58.193 -22.000  1.00  0.00     0.020 A 
ATOM     34  Cl  UNL     1      12.163 -59.283 -24.435  1.00  0.00    -0.084 Cl
ENDBRANCH  27  28
ENDBRANCH   3  27
TORSDOF 9
ENDMDL
