MODEL 1
REMARK VINA RESULT:   -11.018      0.000      0.000
REMARK INTER + INTRA:         -14.051
REMARK INTER:                 -13.594
REMARK INTRA:                  -0.457
REMARK UNBOUND:                -0.457
REMARK SMILES COc1ccc(-c2cc3c(c(=O)o2)C[C@]2(O)[C@@]4(C)C(=O)C=CC(C)(C)[C@]4(O)CC[C@@]2(C)O3)cc1OC
REMARK SMILES IDX 7 1 8 2 9 3 10 4 11 5 12 6 13 7 14 8 15 9 17 10 18 11 19 12
REMARK SMILES IDX 20 13 21 14 22 15 23 16 24 17 25 18 26 19 28 20 29 21 30 22
REMARK SMILES IDX 31 23 32 24 6 25 3 26 4 27 34 28 5 29 33 30 2 31 1 32 35 33
REMARK SMILES IDX 36 34 16 35 27 37
REMARK H PARENT 16 36 27 38
ROOT
ATOM      1  C   UNL     1      11.780 -53.860 -23.871  1.00  0.00     0.142 A 
ATOM      2  C   UNL     1      12.046 -55.075 -24.369  1.00  0.00     0.094 A 
ATOM      3  C   UNL     1      11.267 -56.195 -23.932  1.00  0.00     0.134 A 
ATOM      4  C   UNL     1      10.257 -56.051 -23.063  1.00  0.00     0.083 A 
ATOM      5  C   UNL     1       9.974 -54.714 -22.492  1.00  0.00     0.343 A 
ATOM      6  O   UNL     1       9.099 -54.555 -21.647  1.00  0.00    -0.246 OA
ATOM      7  O   UNL     1      10.739 -53.669 -22.930  1.00  0.00    -0.422 OA
ATOM      8  C   UNL     1       9.366 -57.195 -22.656  1.00  0.00     0.088 C 
ATOM      9  C   UNL     1       9.616 -58.453 -23.537  1.00  0.00     0.124 C 
ATOM     10  C   UNL     1       8.970 -59.826 -23.041  1.00  0.00     0.093 C 
ATOM     11  C   UNL     1       9.406 -60.172 -21.592  1.00  0.00     0.026 C 
ATOM     12  C   UNL     1       7.439 -59.723 -22.939  1.00  0.00     0.167 C 
ATOM     13  O   UNL     1       6.848 -58.699 -22.595  1.00  0.00    -0.294 OA
ATOM     14  C   UNL     1       6.628 -60.969 -23.043  1.00  0.00     0.044 C 
ATOM     15  C   UNL     1       7.166 -62.161 -23.334  1.00  0.00    -0.014 C 
ATOM     16  C   UNL     1       8.615 -62.395 -23.728  1.00  0.00     0.013 C 
ATOM     17  C   UNL     1       8.584 -63.328 -24.973  1.00  0.00     0.018 C 
ATOM     18  C   UNL     1       9.308 -63.208 -22.617  1.00  0.00     0.018 C 
ATOM     19  C   UNL     1       9.300 -60.999 -24.074  1.00  0.00     0.089 C 
ATOM     20  C   UNL     1      10.829 -61.095 -24.297  1.00  0.00     0.041 C 
ATOM     21  C   UNL     1      11.443 -59.765 -24.757  1.00  0.00     0.054 C 
ATOM     22  C   UNL     1      11.164 -58.588 -23.798  1.00  0.00     0.136 C 
ATOM     23  C   UNL     1      12.072 -58.742 -22.555  1.00  0.00     0.060 C 
ATOM     24  O   UNL     1      11.642 -57.396 -24.492  1.00  0.00    -0.484 OA
ENDROOT
BRANCH   1  25
ATOM     25  C   UNL     1      12.501 -52.632 -24.255  1.00  0.00     0.021 A 
ATOM     26  C   UNL     1      13.889 -50.269 -24.947  1.00  0.00     0.160 A 
ATOM     27  C   UNL     1      13.942 -51.393 -25.777  1.00  0.00     0.051 A 
ATOM     28  C   UNL     1      13.144 -50.327 -23.754  1.00  0.00     0.161 A 
ATOM     29  C   UNL     1      13.258 -52.563 -25.431  1.00  0.00     0.016 A 
ATOM     30  C   UNL     1      12.459 -51.505 -23.420  1.00  0.00     0.062 A 
BRANCH  26  31
ATOM     31  O   UNL     1      14.525 -49.082 -25.207  1.00  0.00    -0.493 OA
ATOM     32  C   UNL     1      14.534 -48.615 -26.547  1.00  0.00     0.278 C 
ENDBRANCH  26  31
BRANCH  28  33
ATOM     33  O   UNL     1      13.140 -49.185 -22.990  1.00  0.00    -0.493 OA
ATOM     34  C   UNL     1      11.903 -48.510 -22.818  1.00  0.00     0.278 C 
ENDBRANCH  28  33
ENDBRANCH   1  25
BRANCH   9  35
ATOM     35  O   UNL     1       8.997 -58.119 -24.812  1.00  0.00    -0.384 OA
ATOM     36  H   UNL     1       9.051 -57.156 -24.944  1.00  0.00     0.211 HD
ENDBRANCH   9  35
BRANCH  19  37
ATOM     37  O   UNL     1       8.751 -60.617 -25.359  1.00  0.00    -0.388 OA
ATOM     38  H   UNL     1       8.049 -59.955 -25.243  1.00  0.00     0.211 HD
ENDBRANCH  19  37
TORSDOF 5
ENDMDL
MODEL 2
REMARK VINA RESULT:   -10.636      3.739     12.821
REMARK INTER + INTRA:         -13.580
REMARK INTER:                 -13.132
REMARK INTRA:                  -0.448
REMARK UNBOUND:                -0.457
REMARK SMILES COc1ccc(-c2cc3c(c(=O)o2)C[C@]2(O)[C@@]4(C)C(=O)C=CC(C)(C)[C@]4(O)CC[C@@]2(C)O3)cc1OC
REMARK SMILES IDX 7 1 8 2 9 3 10 4 11 5 12 6 13 7 14 8 15 9 17 10 18 11 19 12
REMARK SMILES IDX 20 13 21 14 22 15 23 16 24 17 25 18 26 19 28 20 29 21 30 22
REMARK SMILES IDX 31 23 32 24 6 25 3 26 4 27 34 28 5 29 33 30 2 31 1 32 35 33
REMARK SMILES IDX 36 34 16 35 27 37
REMARK H PARENT 16 36 27 38
ROOT
ATOM      1  C   UNL     1      12.036 -51.142 -23.689  1.00  0.00     0.142 A 
ATOM      2  C   UNL     1      11.520 -50.099 -23.026  1.00  0.00     0.094 A 
ATOM      3  C   UNL     1      11.944 -48.774 -23.370  1.00  0.00     0.134 A 
ATOM      4  C   UNL     1      12.818 -48.552 -24.361  1.00  0.00     0.083 A 
ATOM      5  C   UNL     1      13.409 -49.703 -25.082  1.00  0.00     0.343 A 
ATOM      6  O   UNL     1      14.259 -49.542 -25.952  1.00  0.00    -0.246 OA
ATOM      7  O   UNL     1      12.983 -50.952 -24.725  1.00  0.00    -0.422 OA
ATOM      8  C   UNL     1      13.212 -47.166 -24.802  1.00  0.00     0.088 C 
ATOM      9  C   UNL     1      12.312 -46.082 -24.142  1.00  0.00     0.124 C 
ATOM     10  C   UNL     1      12.791 -44.564 -24.274  1.00  0.00     0.093 C 
ATOM     11  C   UNL     1      14.234 -44.372 -23.734  1.00  0.00     0.026 C 
ATOM     12  C   UNL     1      12.899 -44.134 -25.746  1.00  0.00     0.167 C 
ATOM     13  O   UNL     1      13.260 -44.888 -26.650  1.00  0.00    -0.294 OA
ATOM     14  C   UNL     1      12.781 -42.687 -26.080  1.00  0.00     0.044 C 
ATOM     15  C   UNL     1      12.470 -41.756 -25.169  1.00  0.00    -0.014 C 
ATOM     16  C   UNL     1      12.068 -42.038 -23.730  1.00  0.00     0.013 C 
ATOM     17  C   UNL     1      10.811 -41.166 -23.449  1.00  0.00     0.018 C 
ATOM     18  C   UNL     1      13.166 -41.499 -22.791  1.00  0.00     0.018 C 
ATOM     19  C   UNL     1      11.740 -43.589 -23.569  1.00  0.00     0.089 C 
ATOM     20  C   UNL     1      11.511 -44.026 -22.101  1.00  0.00     0.041 C 
ATOM     21  C   UNL     1      11.068 -45.492 -21.985  1.00  0.00     0.054 C 
ATOM     22  C   UNL     1      12.044 -46.489 -22.644  1.00  0.00     0.136 C 
ATOM     23  C   UNL     1      13.282 -46.641 -21.729  1.00  0.00     0.060 C 
ATOM     24  O   UNL     1      11.365 -47.782 -22.610  1.00  0.00    -0.484 OA
ENDROOT
BRANCH   1  25
ATOM     25  C   UNL     1      11.667 -52.547 -23.438  1.00  0.00     0.021 A 
ATOM     26  C   UNL     1      10.999 -55.254 -22.975  1.00  0.00     0.160 A 
ATOM     27  C   UNL     1      10.614 -54.263 -22.067  1.00  0.00     0.051 A 
ATOM     28  C   UNL     1      11.733 -54.894 -24.120  1.00  0.00     0.161 A 
ATOM     29  C   UNL     1      10.950 -52.925 -22.295  1.00  0.00     0.016 A 
ATOM     30  C   UNL     1      12.060 -53.548 -24.340  1.00  0.00     0.062 A 
BRANCH  26  31
ATOM     31  O   UNL     1      10.713 -56.589 -22.833  1.00  0.00    -0.493 OA
ATOM     32  C   UNL     1      11.316 -57.283 -21.752  1.00  0.00     0.278 C 
ENDBRANCH  26  31
BRANCH  28  33
ATOM     33  O   UNL     1      12.077 -55.923 -24.963  1.00  0.00    -0.493 OA
ATOM     34  C   UNL     1      12.826 -55.600 -26.126  1.00  0.00     0.278 C 
ENDBRANCH  28  33
ENDBRANCH   1  25
BRANCH   9  35
ATOM     35  O   UNL     1      11.044 -46.198 -24.848  1.00  0.00    -0.384 OA
ATOM     36  H   UNL     1      10.319 -46.146 -24.202  1.00  0.00     0.211 HD
ENDBRANCH   9  35
BRANCH  19  37
ATOM     37  O   UNL     1      10.463 -43.775 -24.226  1.00  0.00    -0.388 OA
ATOM     38  H   UNL     1       9.739 -43.483 -23.648  1.00  0.00     0.211 HD
ENDBRANCH  19  37
TORSDOF 5
ENDMDL
MODEL 3
REMARK VINA RESULT:   -10.024      2.375     11.136
REMARK INTER + INTRA:         -12.825
REMARK INTER:                 -12.452
REMARK INTRA:                  -0.373
REMARK UNBOUND:                -0.457
REMARK SMILES COc1ccc(-c2cc3c(c(=O)o2)C[C@]2(O)[C@@]4(C)C(=O)C=CC(C)(C)[C@]4(O)CC[C@@]2(C)O3)cc1OC
REMARK SMILES IDX 7 1 8 2 9 3 10 4 11 5 12 6 13 7 14 8 15 9 17 10 18 11 19 12
REMARK SMILES IDX 20 13 21 14 22 15 23 16 24 17 25 18 26 19 28 20 29 21 30 22
REMARK SMILES IDX 31 23 32 24 6 25 3 26 4 27 34 28 5 29 33 30 2 31 1 32 35 33
REMARK SMILES IDX 36 34 16 35 27 37
REMARK H PARENT 16 36 27 38
ROOT
ATOM      1  C   UNL     1      10.820 -53.921 -22.492  1.00  0.00     0.142 A 
ATOM      2  C   UNL     1      11.983 -53.309 -22.747  1.00  0.00     0.094 A 
ATOM      3  C   UNL     1      12.015 -51.880 -22.841  1.00  0.00     0.134 A 
ATOM      4  C   UNL     1      10.915 -51.140 -22.646  1.00  0.00     0.083 A 
ATOM      5  C   UNL     1       9.621 -51.813 -22.387  1.00  0.00     0.343 A 
ATOM      6  O   UNL     1       8.582 -51.172 -22.267  1.00  0.00    -0.246 OA
ATOM      7  O   UNL     1       9.629 -53.178 -22.307  1.00  0.00    -0.422 OA
ATOM      8  C   UNL     1      10.938 -49.633 -22.651  1.00  0.00     0.088 C 
ATOM      9  C   UNL     1      12.394 -49.087 -22.662  1.00  0.00     0.124 C 
ATOM     10  C   UNL     1      12.582 -47.530 -22.968  1.00  0.00     0.093 C 
ATOM     11  C   UNL     1      11.916 -47.127 -24.311  1.00  0.00     0.026 C 
ATOM     12  C   UNL     1      11.850 -46.661 -21.931  1.00  0.00     0.167 C 
ATOM     13  O   UNL     1      10.780 -46.978 -21.412  1.00  0.00    -0.294 OA
ATOM     14  C   UNL     1      12.329 -45.270 -21.697  1.00  0.00     0.044 C 
ATOM     15  C   UNL     1      13.438 -44.780 -22.265  1.00  0.00    -0.014 C 
ATOM     16  C   UNL     1      14.423 -45.583 -23.100  1.00  0.00     0.013 C 
ATOM     17  C   UNL     1      15.841 -45.212 -22.579  1.00  0.00     0.018 C 
ATOM     18  C   UNL     1      14.370 -45.078 -24.556  1.00  0.00     0.018 C 
ATOM     19  C   UNL     1      14.129 -47.137 -22.911  1.00  0.00     0.089 C 
ATOM     20  C   UNL     1      14.943 -48.044 -23.866  1.00  0.00     0.041 C 
ATOM     21  C   UNL     1      14.741 -49.538 -23.576  1.00  0.00     0.054 C 
ATOM     22  C   UNL     1      13.265 -49.986 -23.619  1.00  0.00     0.136 C 
ATOM     23  C   UNL     1      12.820 -50.067 -25.098  1.00  0.00     0.060 C 
ATOM     24  O   UNL     1      13.258 -51.360 -23.128  1.00  0.00    -0.484 OA
ENDROOT
BRANCH   1  25
ATOM     25  C   UNL     1      10.665 -55.382 -22.357  1.00  0.00     0.021 A 
ATOM     26  C   UNL     1      10.361 -58.184 -22.142  1.00  0.00     0.160 A 
ATOM     27  C   UNL     1      11.238 -57.498 -21.297  1.00  0.00     0.051 A 
ATOM     28  C   UNL     1       9.634 -57.467 -23.111  1.00  0.00     0.161 A 
ATOM     29  C   UNL     1      11.391 -56.112 -21.408  1.00  0.00     0.016 A 
ATOM     30  C   UNL     1       9.793 -56.077 -23.210  1.00  0.00     0.062 A 
BRANCH  26  31
ATOM     31  O   UNL     1      10.147 -59.538 -22.105  1.00  0.00    -0.493 OA
ATOM     32  C   UNL     1      11.128 -60.379 -22.691  1.00  0.00     0.278 C 
ENDBRANCH  26  31
BRANCH  28  33
ATOM     33  O   UNL     1       8.793 -58.208 -23.906  1.00  0.00    -0.493 OA
ATOM     34  C   UNL     1       7.403 -58.165 -23.617  1.00  0.00     0.278 C 
ENDBRANCH  28  33
ENDBRANCH   1  25
BRANCH   9  35
ATOM     35  O   UNL     1      12.870 -49.322 -21.307  1.00  0.00    -0.384 OA
ATOM     36  H   UNL     1      12.850 -48.481 -20.817  1.00  0.00     0.211 HD
ENDBRANCH   9  35
BRANCH  19  37
ATOM     37  O   UNL     1      14.612 -47.454 -21.582  1.00  0.00    -0.388 OA
ATOM     38  H   UNL     1      14.128 -46.939 -20.915  1.00  0.00     0.211 HD
ENDBRANCH  19  37
TORSDOF 5
ENDMDL
MODEL 4
REMARK VINA RESULT:    -9.592      3.310     12.325
REMARK INTER + INTRA:         -12.292
REMARK INTER:                 -11.868
REMARK INTRA:                  -0.424
REMARK UNBOUND:                -0.457
REMARK SMILES COc1ccc(-c2cc3c(c(=O)o2)C[C@]2(O)[C@@]4(C)C(=O)C=CC(C)(C)[C@]4(O)CC[C@@]2(C)O3)cc1OC
REMARK SMILES IDX 7 1 8 2 9 3 10 4 11 5 12 6 13 7 14 8 15 9 17 10 18 11 19 12
REMARK SMILES IDX 20 13 21 14 22 15 23 16 24 17 25 18 26 19 28 20 29 21 30 22
REMARK SMILES IDX 31 23 32 24 6 25 3 26 4 27 34 28 5 29 33 30 2 31 1 32 35 33
REMARK SMILES IDX 36 34 16 35 27 37
REMARK H PARENT 16 36 27 38
ROOT
ATOM      1  C   UNL     1      11.477 -51.741 -22.887  1.00  0.00     0.142 A 
ATOM      2  C   UNL     1      12.624 -51.136 -23.221  1.00  0.00     0.094 A 
ATOM      3  C   UNL     1      12.694 -49.705 -23.192  1.00  0.00     0.134 A 
ATOM      4  C   UNL     1      11.649 -48.959 -22.808  1.00  0.00     0.083 A 
ATOM      5  C   UNL     1      10.371 -49.622 -22.460  1.00  0.00     0.343 A 
ATOM      6  O   UNL     1       9.375 -48.970 -22.165  1.00  0.00    -0.246 OA
ATOM      7  O   UNL     1      10.342 -50.988 -22.501  1.00  0.00    -0.422 OA
ATOM      8  C   UNL     1      11.723 -47.460 -22.684  1.00  0.00     0.088 C 
ATOM      9  C   UNL     1      13.187 -46.949 -22.817  1.00  0.00     0.124 C 
ATOM     10  C   UNL     1      13.391 -45.377 -23.006  1.00  0.00     0.093 C 
ATOM     11  C   UNL     1      12.592 -44.838 -24.222  1.00  0.00     0.026 C 
ATOM     12  C   UNL     1      12.812 -44.588 -21.819  1.00  0.00     0.167 C 
ATOM     13  O   UNL     1      11.798 -44.924 -21.209  1.00  0.00    -0.294 OA
ATOM     14  C   UNL     1      13.362 -43.235 -21.522  1.00  0.00     0.044 C 
ATOM     15  C   UNL     1      14.415 -42.722 -22.171  1.00  0.00    -0.014 C 
ATOM     16  C   UNL     1      15.271 -43.470 -23.181  1.00  0.00     0.013 C 
ATOM     17  C   UNL     1      16.751 -43.181 -22.797  1.00  0.00     0.018 C 
ATOM     18  C   UNL     1      15.070 -42.834 -24.571  1.00  0.00     0.018 C 
ATOM     19  C   UNL     1      14.948 -45.027 -23.095  1.00  0.00     0.089 C 
ATOM     20  C   UNL     1      15.616 -45.863 -24.213  1.00  0.00     0.041 C 
ATOM     21  C   UNL     1      15.398 -47.373 -24.032  1.00  0.00     0.054 C 
ATOM     22  C   UNL     1      13.912 -47.779 -23.943  1.00  0.00     0.136 C 
ATOM     23  C   UNL     1      13.300 -47.715 -25.362  1.00  0.00     0.060 C 
ATOM     24  O   UNL     1      13.914 -49.192 -23.575  1.00  0.00    -0.484 OA
ENDROOT
BRANCH   1  25
ATOM     25  C   UNL     1      11.289 -53.203 -22.862  1.00  0.00     0.021 A 
ATOM     26  C   UNL     1      10.966 -56.011 -22.836  1.00  0.00     0.160 A 
ATOM     27  C   UNL     1      10.487 -55.232 -21.779  1.00  0.00     0.051 A 
ATOM     28  C   UNL     1      11.623 -55.385 -23.913  1.00  0.00     0.161 A 
ATOM     29  C   UNL     1      10.652 -53.843 -21.791  1.00  0.00     0.016 A 
ATOM     30  C   UNL     1      11.778 -53.991 -23.915  1.00  0.00     0.062 A 
BRANCH  26  31
ATOM     31  O   UNL     1      10.849 -57.376 -22.909  1.00  0.00    -0.493 OA
ATOM     32  C   UNL     1      11.255 -58.136 -21.781  1.00  0.00     0.278 C 
ENDBRANCH  26  31
BRANCH  28  33
ATOM     33  O   UNL     1      12.068 -56.216 -24.913  1.00  0.00    -0.493 OA
ATOM     34  C   UNL     1      12.782 -55.628 -25.990  1.00  0.00     0.278 C 
ENDBRANCH  28  33
ENDBRANCH   1  25
BRANCH   9  35
ATOM     35  O   UNL     1      13.805 -47.317 -21.551  1.00  0.00    -0.384 OA
ATOM     36  H   UNL     1      14.173 -46.517 -21.138  1.00  0.00     0.211 HD
ENDBRANCH   9  35
BRANCH  19  37
ATOM     37  O   UNL     1      15.567 -45.474 -21.863  1.00  0.00    -0.388 OA
ATOM     38  H   UNL     1      15.498 -46.440 -21.782  1.00  0.00     0.211 HD
ENDBRANCH  19  37
TORSDOF 5
ENDMDL
MODEL 5
REMARK VINA RESULT:    -9.343      3.989     13.138
REMARK INTER + INTRA:         -11.985
REMARK INTER:                 -11.559
REMARK INTRA:                  -0.426
REMARK UNBOUND:                -0.457
REMARK SMILES COc1ccc(-c2cc3c(c(=O)o2)C[C@]2(O)[C@@]4(C)C(=O)C=CC(C)(C)[C@]4(O)CC[C@@]2(C)O3)cc1OC
REMARK SMILES IDX 7 1 8 2 9 3 10 4 11 5 12 6 13 7 14 8 15 9 17 10 18 11 19 12
REMARK SMILES IDX 20 13 21 14 22 15 23 16 24 17 25 18 26 19 28 20 29 21 30 22
REMARK SMILES IDX 31 23 32 24 6 25 3 26 4 27 34 28 5 29 33 30 2 31 1 32 35 33
REMARK SMILES IDX 36 34 16 35 27 37
REMARK H PARENT 16 36 27 38
ROOT
ATOM      1  C   UNL     1      12.510 -50.667 -23.604  1.00  0.00     0.142 A 
ATOM      2  C   UNL     1      11.683 -49.635 -23.391  1.00  0.00     0.094 A 
ATOM      3  C   UNL     1      12.207 -48.302 -23.422  1.00  0.00     0.134 A 
ATOM      4  C   UNL     1      13.497 -48.062 -23.691  1.00  0.00     0.083 A 
ATOM      5  C   UNL     1      14.421 -49.200 -23.903  1.00  0.00     0.343 A 
ATOM      6  O   UNL     1      15.620 -49.020 -24.090  1.00  0.00    -0.246 OA
ATOM      7  O   UNL     1      13.886 -50.457 -23.865  1.00  0.00    -0.422 OA
ATOM      8  C   UNL     1      14.054 -46.668 -23.817  1.00  0.00     0.088 C 
ATOM      9  C   UNL     1      12.921 -45.602 -23.838  1.00  0.00     0.124 C 
ATOM     10  C   UNL     1      13.359 -44.075 -23.667  1.00  0.00     0.093 C 
ATOM     11  C   UNL     1      14.185 -43.860 -22.370  1.00  0.00     0.026 C 
ATOM     12  C   UNL     1      14.323 -43.638 -24.783  1.00  0.00     0.167 C 
ATOM     13  O   UNL     1      15.166 -44.382 -25.283  1.00  0.00    -0.294 OA
ATOM     14  C   UNL     1      14.406 -42.191 -25.131  1.00  0.00     0.044 C 
ATOM     15  C   UNL     1      13.595 -41.269 -24.596  1.00  0.00    -0.014 C 
ATOM     16  C   UNL     1      12.414 -41.564 -23.685  1.00  0.00     0.013 C 
ATOM     17  C   UNL     1      11.227 -40.715 -24.223  1.00  0.00     0.018 C 
ATOM     18  C   UNL     1      12.719 -41.009 -22.280  1.00  0.00     0.018 C 
ATOM     19  C   UNL     1      12.080 -43.121 -23.742  1.00  0.00     0.089 C 
ATOM     20  C   UNL     1      11.022 -43.567 -22.703  1.00  0.00     0.041 C 
ATOM     21  C   UNL     1      10.622 -45.041 -22.865  1.00  0.00     0.054 C 
ATOM     22  C   UNL     1      11.814 -46.019 -22.798  1.00  0.00     0.136 C 
ATOM     23  C   UNL     1      12.256 -46.153 -21.322  1.00  0.00     0.060 C 
ATOM     24  O   UNL     1      11.272 -47.323 -23.169  1.00  0.00    -0.484 OA
ENDROOT
BRANCH   1  25
ATOM     25  C   UNL     1      12.087 -52.080 -23.613  1.00  0.00     0.021 A 
ATOM     26  C   UNL     1      11.240 -54.776 -23.607  1.00  0.00     0.160 A 
ATOM     27  C   UNL     1      11.894 -54.241 -24.720  1.00  0.00     0.051 A 
ATOM     28  C   UNL     1      10.995 -53.956 -22.489  1.00  0.00     0.161 A 
ATOM     29  C   UNL     1      12.308 -52.905 -24.723  1.00  0.00     0.016 A 
ATOM     30  C   UNL     1      11.420 -52.620 -22.503  1.00  0.00     0.062 A 
BRANCH  26  31
ATOM     31  O   UNL     1      10.800 -56.073 -23.515  1.00  0.00    -0.493 OA
ATOM     32  C   UNL     1      11.772 -57.106 -23.557  1.00  0.00     0.278 C 
ENDBRANCH  26  31
BRANCH  28  33
ATOM     33  O   UNL     1      10.346 -54.552 -21.435  1.00  0.00    -0.493 OA
ATOM     34  C   UNL     1      10.803 -54.253 -20.124  1.00  0.00     0.278 C 
ENDBRANCH  28  33
ENDBRANCH   1  25
BRANCH   9  35
ATOM     35  O   UNL     1      12.334 -45.737 -25.163  1.00  0.00    -0.384 OA
ATOM     36  H   UNL     1      11.390 -45.953 -25.067  1.00  0.00     0.211 HD
ENDBRANCH   9  35
BRANCH  19  37
ATOM     37  O   UNL     1      11.457 -43.327 -25.033  1.00  0.00    -0.388 OA
ATOM     38  H   UNL     1      10.639 -42.806 -25.101  1.00  0.00     0.211 HD
ENDBRANCH  19  37
TORSDOF 5
ENDMDL
MODEL 6
REMARK VINA RESULT:    -8.711      4.101     12.842
REMARK INTER + INTRA:         -11.204
REMARK INTER:                 -10.790
REMARK INTRA:                  -0.414
REMARK UNBOUND:                -0.457
REMARK SMILES COc1ccc(-c2cc3c(c(=O)o2)C[C@]2(O)[C@@]4(C)C(=O)C=CC(C)(C)[C@]4(O)CC[C@@]2(C)O3)cc1OC
REMARK SMILES IDX 7 1 8 2 9 3 10 4 11 5 12 6 13 7 14 8 15 9 17 10 18 11 19 12
REMARK SMILES IDX 20 13 21 14 22 15 23 16 24 17 25 18 26 19 28 20 29 21 30 22
REMARK SMILES IDX 31 23 32 24 6 25 3 26 4 27 34 28 5 29 33 30 2 31 1 32 35 33
REMARK SMILES IDX 36 34 16 35 27 37
REMARK H PARENT 16 36 27 38
ROOT
ATOM      1  C   UNL     1      14.132 -51.457 -25.414  1.00  0.00     0.142 A 
ATOM      2  C   UNL     1      13.908 -50.747 -26.527  1.00  0.00     0.094 A 
ATOM      3  C   UNL     1      14.975 -49.975 -27.091  1.00  0.00     0.134 A 
ATOM      4  C   UNL     1      16.201 -49.973 -26.550  1.00  0.00     0.083 A 
ATOM      5  C   UNL     1      16.448 -50.738 -25.306  1.00  0.00     0.343 A 
ATOM      6  O   UNL     1      17.540 -50.710 -24.748  1.00  0.00    -0.246 OA
ATOM      7  O   UNL     1      15.405 -51.460 -24.796  1.00  0.00    -0.422 OA
ATOM      8  C   UNL     1      17.362 -49.243 -27.172  1.00  0.00     0.088 C 
ATOM      9  C   UNL     1      17.012 -48.724 -28.596  1.00  0.00     0.124 C 
ATOM     10  C   UNL     1      18.025 -47.683 -29.258  1.00  0.00     0.093 C 
ATOM     11  C   UNL     1      18.249 -46.446 -28.348  1.00  0.00     0.026 C 
ATOM     12  C   UNL     1      19.434 -48.282 -29.401  1.00  0.00     0.167 C 
ATOM     13  O   UNL     1      19.927 -49.062 -28.586  1.00  0.00    -0.294 OA
ATOM     14  C   UNL     1      20.343 -47.735 -30.447  1.00  0.00     0.044 C 
ATOM     15  C   UNL     1      19.949 -46.823 -31.345  1.00  0.00    -0.014 C 
ATOM     16  C   UNL     1      18.523 -46.323 -31.517  1.00  0.00     0.013 C 
ATOM     17  C   UNL     1      18.232 -46.355 -33.045  1.00  0.00     0.018 C 
ATOM     18  C   UNL     1      18.464 -44.837 -31.113  1.00  0.00     0.018 C 
ATOM     19  C   UNL     1      17.529 -47.282 -30.723  1.00  0.00     0.089 C 
ATOM     20  C   UNL     1      16.073 -46.757 -30.665  1.00  0.00     0.041 C 
ATOM     21  C   UNL     1      15.111 -47.758 -30.010  1.00  0.00     0.054 C 
ATOM     22  C   UNL     1      15.531 -48.185 -28.589  1.00  0.00     0.136 C 
ATOM     23  C   UNL     1      15.215 -47.025 -27.614  1.00  0.00     0.060 C 
ATOM     24  O   UNL     1      14.625 -49.269 -28.221  1.00  0.00    -0.484 OA
ENDROOT
BRANCH   1  25
ATOM     25  C   UNL     1      13.120 -52.300 -24.752  1.00  0.00     0.021 A 
ATOM     26  C   UNL     1      11.157 -53.879 -23.471  1.00  0.00     0.160 A 
ATOM     27  C   UNL     1      11.819 -54.354 -24.606  1.00  0.00     0.051 A 
ATOM     28  C   UNL     1      11.468 -52.599 -22.974  1.00  0.00     0.161 A 
ATOM     29  C   UNL     1      12.787 -53.569 -25.242  1.00  0.00     0.016 A 
ATOM     30  C   UNL     1      12.443 -51.824 -23.618  1.00  0.00     0.062 A 
BRANCH  26  31
ATOM     31  O   UNL     1      10.197 -54.579 -22.784  1.00  0.00    -0.493 OA
ATOM     32  C   UNL     1      10.334 -55.989 -22.706  1.00  0.00     0.278 C 
ENDBRANCH  26  31
BRANCH  28  33
ATOM     33  O   UNL     1      10.774 -52.201 -21.857  1.00  0.00    -0.493 OA
ATOM     34  C   UNL     1       9.889 -51.099 -21.989  1.00  0.00     0.278 C 
ENDBRANCH  28  33
ENDBRANCH   1  25
BRANCH   9  35
ATOM     35  O   UNL     1      17.023 -49.924 -29.421  1.00  0.00    -0.384 OA
ATOM     36  H   UNL     1      17.839 -50.422 -29.239  1.00  0.00     0.211 HD
ENDBRANCH   9  35
BRANCH  19  37
ATOM     37  O   UNL     1      17.465 -48.496 -31.510  1.00  0.00    -0.388 OA
ATOM     38  H   UNL     1      17.319 -48.284 -32.447  1.00  0.00     0.211 HD
ENDBRANCH  19  37
TORSDOF 5
ENDMDL
