MODEL 1
REMARK VINA RESULT:   -11.263      0.000      0.000
REMARK INTER + INTRA:         -17.635
REMARK INTER:                 -16.860
REMARK INTRA:                  -0.775
REMARK UNBOUND:                -0.775
REMARK SMILES COc1cc2c(cc1OC)S[C@@H](C(O)=CCc1cc[n+](Cc3ccc(F)cc3)cc1)C2
REMARK SMILES IDX 15 1 13 2 14 3 12 5 31 6 11 7 5 8 6 9 4 10 7 11 3 12 8 13
REMARK SMILES IDX 2 14 1 15 9 16 10 17 16 18 17 19 18 20 30 21 19 22 29 23
REMARK SMILES IDX 20 24 21 25 22 26 23 27 28 28 24 29 27 30 25 31 26 32
REMARK H PARENT 14 4
ROOT
ATOM      1  C   UNL     1      10.536 -54.720 -22.633  1.00  0.00     0.020 C 
ENDROOT
BRANCH   1   2
ATOM      2  C   UNL     1      10.567 -53.387 -22.481  1.00  0.00     0.102 C 
BRANCH   2   3
ATOM      3  O   UNL     1       9.451 -52.730 -21.984  1.00  0.00    -0.511 OA
ATOM      4  H   UNL     1       9.656 -51.770 -21.998  1.00  0.00     0.293 HD
ENDBRANCH   2   3
BRANCH   2   5
ATOM      5  C   UNL     1      11.776 -52.539 -22.820  1.00  0.00     0.121 C 
ATOM      6  C   UNL     1      12.253 -52.731 -24.273  1.00  0.00     0.059 C 
ATOM      7  S   UNL     1      11.383 -50.759 -22.636  1.00  0.00    -0.114 SA
ATOM      8  C   UNL     1      12.850 -51.427 -24.716  1.00  0.00    -0.029 A 
ATOM      9  C   UNL     1      12.451 -50.318 -23.976  1.00  0.00     0.015 A 
ATOM     10  C   UNL     1      13.681 -51.261 -25.815  1.00  0.00     0.055 A 
ATOM     11  C   UNL     1      12.865 -49.036 -24.313  1.00  0.00     0.065 A 
ATOM     12  C   UNL     1      14.135 -49.978 -26.155  1.00  0.00     0.161 A 
ATOM     13  C   UNL     1      13.709 -48.850 -25.417  1.00  0.00     0.161 A 
BRANCH  12  14
ATOM     14  O   UNL     1      14.944 -49.978 -27.265  1.00  0.00    -0.493 OA
ATOM     15  C   UNL     1      16.347 -49.937 -27.027  1.00  0.00     0.278 C 
ENDBRANCH  12  14
BRANCH  13  16
ATOM     16  O   UNL     1      14.128 -47.618 -25.847  1.00  0.00    -0.493 OA
ATOM     17  C   UNL     1      13.758 -46.479 -25.082  1.00  0.00     0.278 C 
ENDBRANCH  13  16
ENDBRANCH   2   5
ENDBRANCH   1   2
BRANCH   1  18
ATOM     18  C   UNL     1      11.032 -55.709 -21.617  1.00  0.00     0.067 C 
BRANCH  18  19
ATOM     19  C   UNL     1      11.317 -57.062 -22.228  1.00  0.00    -0.032 A 
ATOM     20  C   UNL     1      11.211 -58.217 -21.451  1.00  0.00     0.075 A 
ATOM     21  C   UNL     1      11.660 -57.194 -23.572  1.00  0.00     0.075 A 
ATOM     22  C   UNL     1      11.460 -59.459 -22.020  1.00  0.00     0.308 A 
ATOM     23  C   UNL     1      11.903 -58.459 -24.100  1.00  0.00     0.308 A 
ATOM     24  N   UNL     1      11.806 -59.562 -23.324  1.00  0.00    -0.201 N 
BRANCH  24  25
ATOM     25  C   UNL     1      12.058 -60.904 -23.908  1.00  0.00     0.393 C 
BRANCH  25  26
ATOM     26  C   UNL     1      10.785 -61.707 -24.004  1.00  0.00     0.017 A 
ATOM     27  C   UNL     1      10.440 -62.632 -23.002  1.00  0.00     0.013 A 
ATOM     28  C   UNL     1       9.929 -61.547 -25.108  1.00  0.00     0.013 A 
ATOM     29  C   UNL     1       9.257 -63.368 -23.100  1.00  0.00     0.040 A 
ATOM     30  C   UNL     1       8.748 -62.287 -25.198  1.00  0.00     0.040 A 
ATOM     31  C   UNL     1       8.420 -63.188 -24.194  1.00  0.00     0.123 A 
ATOM     32  F   UNL     1       7.287 -63.894 -24.283  1.00  0.00    -0.207 F 
ENDBRANCH  25  26
ENDBRANCH  24  25
ENDBRANCH  18  19
ENDBRANCH   1  18
TORSDOF 9
ENDMDL
MODEL 2
REMARK VINA RESULT:   -10.913      1.233      2.147
REMARK INTER + INTRA:         -17.111
REMARK INTER:                 -16.383
REMARK INTRA:                  -0.728
REMARK UNBOUND:                -0.775
REMARK SMILES COc1cc2c(cc1OC)S[C@@H](C(O)=CCc1cc[n+](Cc3ccc(F)cc3)cc1)C2
REMARK SMILES IDX 15 1 13 2 14 3 12 5 31 6 11 7 5 8 6 9 4 10 7 11 3 12 8 13
REMARK SMILES IDX 2 14 1 15 9 16 10 17 16 18 17 19 18 20 30 21 19 22 29 23
REMARK SMILES IDX 20 24 21 25 22 26 23 27 28 28 24 29 27 30 25 31 26 32
REMARK H PARENT 14 4
ROOT
ATOM      1  C   UNL     1      10.597 -55.410 -22.387  1.00  0.00     0.020 C 
ENDROOT
BRANCH   1   2
ATOM      2  C   UNL     1      10.555 -54.091 -22.145  1.00  0.00     0.102 C 
BRANCH   2   3
ATOM      3  O   UNL     1      10.170 -53.637 -20.892  1.00  0.00    -0.511 OA
ATOM      4  H   UNL     1       9.938 -52.689 -20.991  1.00  0.00     0.293 HD
ENDBRANCH   2   3
BRANCH   2   5
ATOM      5  C   UNL     1      10.915 -53.044 -23.180  1.00  0.00     0.121 C 
ATOM      6  C   UNL     1      11.727 -51.874 -22.589  1.00  0.00     0.059 C 
ATOM      7  S   UNL     1      11.952 -53.777 -24.500  1.00  0.00    -0.114 SA
ATOM      8  C   UNL     1      12.629 -51.371 -23.678  1.00  0.00    -0.029 A 
ATOM      9  C   UNL     1      12.861 -52.274 -24.711  1.00  0.00     0.015 A 
ATOM     10  C   UNL     1      13.275 -50.142 -23.677  1.00  0.00     0.055 A 
ATOM     11  C   UNL     1      13.731 -51.976 -25.751  1.00  0.00     0.065 A 
ATOM     12  C   UNL     1      14.135 -49.809 -24.734  1.00  0.00     0.161 A 
ATOM     13  C   UNL     1      14.388 -50.737 -25.770  1.00  0.00     0.161 A 
BRANCH  12  14
ATOM     14  O   UNL     1      14.698 -48.565 -24.588  1.00  0.00    -0.493 OA
ATOM     15  C   UNL     1      14.683 -48.012 -23.276  1.00  0.00     0.278 C 
ENDBRANCH  12  14
BRANCH  13  16
ATOM     16  O   UNL     1      15.296 -50.379 -26.732  1.00  0.00    -0.493 OA
ATOM     17  C   UNL     1      14.859 -49.528 -27.784  1.00  0.00     0.278 C 
ENDBRANCH  13  16
ENDBRANCH   2   5
ENDBRANCH   1   2
BRANCH   1  18
ATOM     18  C   UNL     1      11.194 -56.431 -21.461  1.00  0.00     0.067 C 
BRANCH  18  19
ATOM     19  C   UNL     1      11.256 -57.804 -22.087  1.00  0.00    -0.032 A 
ATOM     20  C   UNL     1      11.693 -57.954 -23.404  1.00  0.00     0.075 A 
ATOM     21  C   UNL     1      10.913 -58.947 -21.366  1.00  0.00     0.075 A 
ATOM     22  C   UNL     1      11.764 -59.220 -23.970  1.00  0.00     0.308 A 
ATOM     23  C   UNL     1      10.997 -60.196 -21.974  1.00  0.00     0.308 A 
ATOM     24  N   UNL     1      11.411 -60.315 -23.257  1.00  0.00    -0.201 N 
BRANCH  24  25
ATOM     25  C   UNL     1      11.505 -61.657 -23.884  1.00  0.00     0.393 C 
BRANCH  25  26
ATOM     26  C   UNL     1      10.137 -62.204 -24.214  1.00  0.00     0.017 A 
ATOM     27  C   UNL     1       9.456 -63.033 -23.306  1.00  0.00     0.013 A 
ATOM     28  C   UNL     1       9.530 -61.896 -25.444  1.00  0.00     0.013 A 
ATOM     29  C   UNL     1       8.189 -63.531 -23.620  1.00  0.00     0.040 A 
ATOM     30  C   UNL     1       8.264 -62.398 -25.751  1.00  0.00     0.040 A 
ATOM     31  C   UNL     1       7.603 -63.208 -24.837  1.00  0.00     0.123 A 
ATOM     32  F   UNL     1       6.389 -63.685 -25.134  1.00  0.00    -0.207 F 
ENDBRANCH  25  26
ENDBRANCH  24  25
ENDBRANCH  18  19
ENDBRANCH   1  18
TORSDOF 9
ENDMDL
MODEL 3
REMARK VINA RESULT:   -10.762      1.632      2.246
REMARK INTER + INTRA:         -16.885
REMARK INTER:                 -16.132
REMARK INTRA:                  -0.754
REMARK UNBOUND:                -0.775
REMARK SMILES COc1cc2c(cc1OC)S[C@@H](C(O)=CCc1cc[n+](Cc3ccc(F)cc3)cc1)C2
REMARK SMILES IDX 15 1 13 2 14 3 12 5 31 6 11 7 5 8 6 9 4 10 7 11 3 12 8 13
REMARK SMILES IDX 2 14 1 15 9 16 10 17 16 18 17 19 18 20 30 21 19 22 29 23
REMARK SMILES IDX 20 24 21 25 22 26 23 27 28 28 24 29 27 30 25 31 26 32
REMARK H PARENT 14 4
ROOT
ATOM      1  C   UNL     1      10.488 -55.216 -22.967  1.00  0.00     0.020 C 
ENDROOT
BRANCH   1   2
ATOM      2  C   UNL     1      11.194 -54.315 -23.667  1.00  0.00     0.102 C 
BRANCH   2   3
ATOM      3  O   UNL     1      11.434 -54.532 -25.016  1.00  0.00    -0.511 OA
ATOM      4  H   UNL     1      11.678 -53.665 -25.406  1.00  0.00     0.293 HD
ENDBRANCH   2   3
BRANCH   2   5
ATOM      5  C   UNL     1      11.751 -53.043 -23.062  1.00  0.00     0.121 C 
ATOM      6  C   UNL     1      12.505 -52.172 -24.086  1.00  0.00     0.059 C 
ATOM      7  S   UNL     1      10.398 -52.002 -22.397  1.00  0.00    -0.114 SA
ATOM      8  C   UNL     1      12.331 -50.743 -23.662  1.00  0.00    -0.029 A 
ATOM      9  C   UNL     1      11.250 -50.510 -22.816  1.00  0.00     0.015 A 
ATOM     10  C   UNL     1      13.105 -49.679 -24.103  1.00  0.00     0.055 A 
ATOM     11  C   UNL     1      10.922 -49.228 -22.398  1.00  0.00     0.065 A 
ATOM     12  C   UNL     1      12.808 -48.378 -23.669  1.00  0.00     0.161 A 
ATOM     13  C   UNL     1      11.696 -48.140 -22.829  1.00  0.00     0.161 A 
BRANCH  12  14
ATOM     14  O   UNL     1      13.659 -47.436 -24.193  1.00  0.00    -0.493 OA
ATOM     15  C   UNL     1      15.020 -47.826 -24.345  1.00  0.00     0.278 C 
ENDBRANCH  12  14
BRANCH  13  16
ATOM     16  O   UNL     1      11.416 -46.839 -22.503  1.00  0.00    -0.493 OA
ATOM     17  C   UNL     1      10.628 -46.075 -23.407  1.00  0.00     0.278 C 
ENDBRANCH  13  16
ENDBRANCH   2   5
ENDBRANCH   1   2
BRANCH   1  18
ATOM     18  C   UNL     1      11.062 -56.120 -21.913  1.00  0.00     0.067 C 
BRANCH  18  19
ATOM     19  C   UNL     1      11.218 -57.542 -22.401  1.00  0.00    -0.032 A 
ATOM     20  C   UNL     1      10.854 -58.609 -21.578  1.00  0.00     0.075 A 
ATOM     21  C   UNL     1      11.695 -57.822 -23.681  1.00  0.00     0.075 A 
ATOM     22  C   UNL     1      10.985 -59.913 -22.037  1.00  0.00     0.308 A 
ATOM     23  C   UNL     1      11.812 -59.144 -24.098  1.00  0.00     0.308 A 
ATOM     24  N   UNL     1      11.465 -60.162 -23.277  1.00  0.00    -0.201 N 
BRANCH  24  25
ATOM     25  C   UNL     1      11.587 -61.566 -23.745  1.00  0.00     0.393 C 
BRANCH  25  26
ATOM     26  C   UNL     1      10.240 -62.140 -24.110  1.00  0.00     0.017 A 
ATOM     27  C   UNL     1       9.641 -61.842 -25.346  1.00  0.00     0.013 A 
ATOM     28  C   UNL     1       9.561 -62.977 -23.207  1.00  0.00     0.013 A 
ATOM     29  C   UNL     1       8.395 -62.383 -25.674  1.00  0.00     0.040 A 
ATOM     30  C   UNL     1       8.315 -63.514 -23.542  1.00  0.00     0.040 A 
ATOM     31  C   UNL     1       7.745 -63.215 -24.773  1.00  0.00     0.123 A 
ATOM     32  F   UNL     1       6.553 -63.732 -25.091  1.00  0.00    -0.207 F 
ENDBRANCH  25  26
ENDBRANCH  24  25
ENDBRANCH  18  19
ENDBRANCH   1  18
TORSDOF 9
ENDMDL
MODEL 4
REMARK VINA RESULT:   -10.630      1.570      2.574
REMARK INTER + INTRA:         -16.687
REMARK INTER:                 -16.069
REMARK INTRA:                  -0.619
REMARK UNBOUND:                -0.775
REMARK SMILES COc1cc2c(cc1OC)S[C@@H](C(O)=CCc1cc[n+](Cc3ccc(F)cc3)cc1)C2
REMARK SMILES IDX 15 1 13 2 14 3 12 5 31 6 11 7 5 8 6 9 4 10 7 11 3 12 8 13
REMARK SMILES IDX 2 14 1 15 9 16 10 17 16 18 17 19 18 20 30 21 19 22 29 23
REMARK SMILES IDX 20 24 21 25 22 26 23 27 28 28 24 29 27 30 25 31 26 32
REMARK H PARENT 14 4
ROOT
ATOM      1  C   UNL     1      10.983 -54.943 -22.207  1.00  0.00     0.020 C 
ENDROOT
BRANCH   1   2
ATOM      2  C   UNL     1      10.785 -53.678 -21.805  1.00  0.00     0.102 C 
BRANCH   2   3
ATOM      3  O   UNL     1      10.603 -53.410 -20.456  1.00  0.00    -0.511 OA
ATOM      4  H   UNL     1      11.251 -53.961 -19.966  1.00  0.00     0.293 HD
ENDBRANCH   2   3
BRANCH   2   5
ATOM      5  C   UNL     1      10.752 -52.499 -22.756  1.00  0.00     0.121 C 
ATOM      6  C   UNL     1      10.242 -51.206 -22.089  1.00  0.00     0.059 C 
ATOM      7  S   UNL     1      12.434 -52.130 -23.379  1.00  0.00    -0.114 SA
ATOM      8  C   UNL     1      10.930 -50.059 -22.770  1.00  0.00    -0.029 A 
ATOM      9  C   UNL     1      12.101 -50.393 -23.443  1.00  0.00     0.015 A 
ATOM     10  C   UNL     1      10.523 -48.733 -22.708  1.00  0.00     0.055 A 
ATOM     11  C   UNL     1      12.883 -49.426 -24.060  1.00  0.00     0.065 A 
ATOM     12  C   UNL     1      11.283 -47.743 -23.350  1.00  0.00     0.161 A 
ATOM     13  C   UNL     1      12.485 -48.082 -24.013  1.00  0.00     0.161 A 
BRANCH  12  14
ATOM     14  O   UNL     1      10.754 -46.485 -23.196  1.00  0.00    -0.493 OA
ATOM     15  C   UNL     1      11.047 -45.821 -21.971  1.00  0.00     0.278 C 
ENDBRANCH  12  14
BRANCH  13  16
ATOM     16  O   UNL     1      13.218 -47.059 -24.554  1.00  0.00    -0.493 OA
ATOM     17  C   UNL     1      14.109 -47.362 -25.620  1.00  0.00     0.278 C 
ENDBRANCH  13  16
ENDBRANCH   2   5
ENDBRANCH   1   2
BRANCH   1  18
ATOM     18  C   UNL     1      11.048 -56.131 -21.291  1.00  0.00     0.067 C 
BRANCH  18  19
ATOM     19  C   UNL     1      11.277 -57.422 -22.043  1.00  0.00    -0.032 A 
ATOM     20  C   UNL     1      11.148 -58.648 -21.387  1.00  0.00     0.075 A 
ATOM     21  C   UNL     1      11.591 -57.425 -23.402  1.00  0.00     0.075 A 
ATOM     22  C   UNL     1      11.344 -59.831 -22.086  1.00  0.00     0.308 A 
ATOM     23  C   UNL     1      11.781 -58.635 -24.062  1.00  0.00     0.308 A 
ATOM     24  N   UNL     1      11.663 -59.810 -23.401  1.00  0.00    -0.201 N 
BRANCH  24  25
ATOM     25  C   UNL     1      11.859 -61.090 -24.126  1.00  0.00     0.393 C 
BRANCH  25  26
ATOM     26  C   UNL     1      10.558 -61.840 -24.277  1.00  0.00     0.017 A 
ATOM     27  C   UNL     1      10.119 -62.729 -23.280  1.00  0.00     0.013 A 
ATOM     28  C   UNL     1       9.771 -61.664 -25.428  1.00  0.00     0.013 A 
ATOM     29  C   UNL     1       8.912 -63.414 -23.429  1.00  0.00     0.040 A 
ATOM     30  C   UNL     1       8.564 -62.353 -25.570  1.00  0.00     0.040 A 
ATOM     31  C   UNL     1       8.144 -63.219 -24.569  1.00  0.00     0.123 A 
ATOM     32  F   UNL     1       6.987 -63.876 -24.707  1.00  0.00    -0.207 F 
ENDBRANCH  25  26
ENDBRANCH  24  25
ENDBRANCH  18  19
ENDBRANCH   1  18
TORSDOF 9
ENDMDL
MODEL 5
REMARK VINA RESULT:   -10.378      5.466     11.927
REMARK INTER + INTRA:         -16.310
REMARK INTER:                 -15.764
REMARK INTRA:                  -0.546
REMARK UNBOUND:                -0.775
REMARK SMILES COc1cc2c(cc1OC)S[C@@H](C(O)=CCc1cc[n+](Cc3ccc(F)cc3)cc1)C2
REMARK SMILES IDX 15 1 13 2 14 3 12 5 31 6 11 7 5 8 6 9 4 10 7 11 3 12 8 13
REMARK SMILES IDX 2 14 1 15 9 16 10 17 16 18 17 19 18 20 30 21 19 22 29 23
REMARK SMILES IDX 20 24 21 25 22 26 23 27 28 28 24 29 27 30 25 31 26 32
REMARK H PARENT 14 4
ROOT
ATOM      1  C   UNL     1      11.370 -55.161 -22.642  1.00  0.00     0.020 C 
ENDROOT
BRANCH   1   2
ATOM      2  C   UNL     1      11.232 -56.369 -23.209  1.00  0.00     0.102 C 
BRANCH   2   3
ATOM      3  O   UNL     1      12.022 -56.708 -24.297  1.00  0.00    -0.511 OA
ATOM      4  H   UNL     1      12.317 -55.868 -24.708  1.00  0.00     0.293 HD
ENDBRANCH   2   3
BRANCH   2   5
ATOM      5  C   UNL     1      10.247 -57.410 -22.717  1.00  0.00     0.121 C 
ATOM      6  C   UNL     1       8.785 -57.058 -23.056  1.00  0.00     0.059 C 
ATOM      7  S   UNL     1      10.582 -59.032 -23.501  1.00  0.00    -0.114 SA
ATOM      8  C   UNL     1       8.053 -58.354 -23.246  1.00  0.00    -0.029 A 
ATOM      9  C   UNL     1       8.864 -59.451 -23.522  1.00  0.00     0.015 A 
ATOM     10  C   UNL     1       6.673 -58.502 -23.235  1.00  0.00     0.055 A 
ATOM     11  C   UNL     1       8.324 -60.702 -23.791  1.00  0.00     0.065 A 
ATOM     12  C   UNL     1       6.107 -59.763 -23.475  1.00  0.00     0.161 A 
ATOM     13  C   UNL     1       6.931 -60.871 -23.779  1.00  0.00     0.161 A 
BRANCH  12  14
ATOM     14  O   UNL     1       4.734 -59.746 -23.434  1.00  0.00    -0.493 OA
ATOM     15  C   UNL     1       4.136 -58.715 -22.655  1.00  0.00     0.278 C 
ENDBRANCH  12  14
BRANCH  13  16
ATOM     16  O   UNL     1       6.313 -62.056 -24.077  1.00  0.00    -0.493 OA
ATOM     17  C   UNL     1       7.093 -63.093 -24.659  1.00  0.00     0.278 C 
ENDBRANCH  13  16
ENDBRANCH   2   5
ENDBRANCH   1   2
BRANCH   1  18
ATOM     18  C   UNL     1      10.468 -53.987 -22.898  1.00  0.00     0.067 C 
BRANCH  18  19
ATOM     19  C   UNL     1      11.238 -52.696 -23.050  1.00  0.00    -0.032 A 
ATOM     20  C   UNL     1      12.236 -52.585 -24.020  1.00  0.00     0.075 A 
ATOM     21  C   UNL     1      10.956 -51.585 -22.256  1.00  0.00     0.075 A 
ATOM     22  C   UNL     1      12.930 -51.392 -24.166  1.00  0.00     0.308 A 
ATOM     23  C   UNL     1      11.679 -50.409 -22.436  1.00  0.00     0.308 A 
ATOM     24  N   UNL     1      12.650 -50.330 -23.374  1.00  0.00    -0.201 N 
BRANCH  24  25
ATOM     25  C   UNL     1      13.402 -49.064 -23.558  1.00  0.00     0.393 C 
BRANCH  25  26
ATOM     26  C   UNL     1      12.514 -47.863 -23.342  1.00  0.00     0.017 A 
ATOM     27  C   UNL     1      11.723 -47.355 -24.388  1.00  0.00     0.013 A 
ATOM     28  C   UNL     1      12.474 -47.229 -22.088  1.00  0.00     0.013 A 
ATOM     29  C   UNL     1      10.902 -46.245 -24.175  1.00  0.00     0.040 A 
ATOM     30  C   UNL     1      11.651 -46.120 -21.883  1.00  0.00     0.040 A 
ATOM     31  C   UNL     1      10.871 -45.639 -22.926  1.00  0.00     0.123 A 
ATOM     32  F   UNL     1      10.082 -44.577 -22.726  1.00  0.00    -0.207 F 
ENDBRANCH  25  26
ENDBRANCH  24  25
ENDBRANCH  18  19
ENDBRANCH   1  18
TORSDOF 9
ENDMDL
MODEL 6
REMARK VINA RESULT:   -10.337      2.268      3.307
REMARK INTER + INTRA:         -16.249
REMARK INTER:                 -15.805
REMARK INTRA:                  -0.445
REMARK UNBOUND:                -0.775
REMARK SMILES COc1cc2c(cc1OC)S[C@@H](C(O)=CCc1cc[n+](Cc3ccc(F)cc3)cc1)C2
REMARK SMILES IDX 15 1 13 2 14 3 12 5 31 6 11 7 5 8 6 9 4 10 7 11 3 12 8 13
REMARK SMILES IDX 2 14 1 15 9 16 10 17 16 18 17 19 18 20 30 21 19 22 29 23
REMARK SMILES IDX 20 24 21 25 22 26 23 27 28 28 24 29 27 30 25 31 26 32
REMARK H PARENT 14 4
ROOT
ATOM      1  C   UNL     1      10.984 -56.345 -22.254  1.00  0.00     0.020 C 
ENDROOT
BRANCH   1   2
ATOM      2  C   UNL     1      11.385 -55.974 -23.480  1.00  0.00     0.102 C 
BRANCH   2   3
ATOM      3  O   UNL     1      11.966 -56.912 -24.322  1.00  0.00    -0.511 OA
ATOM      4  H   UNL     1      11.990 -56.513 -25.218  1.00  0.00     0.293 HD
ENDBRANCH   2   3
BRANCH   2   5
ATOM      5  C   UNL     1      11.234 -54.564 -24.014  1.00  0.00     0.121 C 
ATOM      6  C   UNL     1      11.376 -53.491 -22.917  1.00  0.00     0.059 C 
ATOM      7  S   UNL     1      12.531 -54.206 -25.257  1.00  0.00    -0.114 SA
ATOM      8  C   UNL     1      11.961 -52.272 -23.567  1.00  0.00    -0.029 A 
ATOM      9  C   UNL     1      12.623 -52.508 -24.769  1.00  0.00     0.015 A 
ATOM     10  C   UNL     1      11.946 -50.992 -23.029  1.00  0.00     0.055 A 
ATOM     11  C   UNL     1      13.275 -51.489 -25.449  1.00  0.00     0.065 A 
ATOM     12  C   UNL     1      12.573 -49.942 -23.714  1.00  0.00     0.161 A 
ATOM     13  C   UNL     1      13.265 -50.189 -24.922  1.00  0.00     0.161 A 
BRANCH  12  14
ATOM     14  O   UNL     1      12.474 -48.742 -23.054  1.00  0.00    -0.493 OA
ATOM     15  C   UNL     1      13.386 -48.531 -21.982  1.00  0.00     0.278 C 
ENDBRANCH  12  14
BRANCH  13  16
ATOM     16  O   UNL     1      13.921 -49.135 -25.503  1.00  0.00    -0.493 OA
ATOM     17  C   UNL     1      14.594 -49.359 -26.735  1.00  0.00     0.278 C 
ENDBRANCH  13  16
ENDBRANCH   2   5
ENDBRANCH   1   2
BRANCH   1  18
ATOM     18  C   UNL     1      11.339 -57.647 -21.595  1.00  0.00     0.067 C 
BRANCH  18  19
ATOM     19  C   UNL     1      10.521 -58.800 -22.129  1.00  0.00    -0.032 A 
ATOM     20  C   UNL     1      11.025 -60.101 -22.073  1.00  0.00     0.075 A 
ATOM     21  C   UNL     1       9.247 -58.603 -22.658  1.00  0.00     0.075 A 
ATOM     22  C   UNL     1      10.264 -61.159 -22.551  1.00  0.00     0.308 A 
ATOM     23  C   UNL     1       8.520 -59.693 -23.128  1.00  0.00     0.308 A 
ATOM     24  N   UNL     1       9.035 -60.943 -23.075  1.00  0.00    -0.201 N 
BRANCH  24  25
ATOM     25  C   UNL     1       8.239 -62.094 -23.571  1.00  0.00     0.393 C 
BRANCH  25  26
ATOM     26  C   UNL     1       8.410 -62.277 -25.059  1.00  0.00     0.017 A 
ATOM     27  C   UNL     1       9.324 -61.489 -25.781  1.00  0.00     0.013 A 
ATOM     28  C   UNL     1       7.646 -63.236 -25.746  1.00  0.00     0.013 A 
ATOM     29  C   UNL     1       9.477 -61.670 -27.158  1.00  0.00     0.040 A 
ATOM     30  C   UNL     1       7.804 -63.410 -27.123  1.00  0.00     0.040 A 
ATOM     31  C   UNL     1       8.718 -62.629 -27.816  1.00  0.00     0.123 A 
ATOM     32  F   UNL     1       8.868 -62.799 -29.134  1.00  0.00    -0.207 F 
ENDBRANCH  25  26
ENDBRANCH  24  25
ENDBRANCH  18  19
ENDBRANCH   1  18
TORSDOF 9
ENDMDL
MODEL 7
REMARK VINA RESULT:    -9.729      1.665      2.385
REMARK INTER + INTRA:         -15.339
REMARK INTER:                 -14.586
REMARK INTRA:                  -0.753
REMARK UNBOUND:                -0.775
REMARK SMILES COc1cc2c(cc1OC)S[C@@H](C(O)=CCc1cc[n+](Cc3ccc(F)cc3)cc1)C2
REMARK SMILES IDX 15 1 13 2 14 3 12 5 31 6 11 7 5 8 6 9 4 10 7 11 3 12 8 13
REMARK SMILES IDX 2 14 1 15 9 16 10 17 16 18 17 19 18 20 30 21 19 22 29 23
REMARK SMILES IDX 20 24 21 25 22 26 23 27 28 28 24 29 27 30 25 31 26 32
REMARK H PARENT 14 4
ROOT
ATOM      1  C   UNL     1      11.066 -53.244 -21.857  1.00  0.00     0.020 C 
ENDROOT
BRANCH   1   2
ATOM      2  C   UNL     1      10.411 -52.082 -22.005  1.00  0.00     0.102 C 
BRANCH   2   3
ATOM      3  O   UNL     1       9.035 -52.092 -22.187  1.00  0.00    -0.511 OA
ATOM      4  H   UNL     1       8.650 -52.574 -21.424  1.00  0.00     0.293 HD
ENDBRANCH   2   3
BRANCH   2   5
ATOM      5  C   UNL     1      11.096 -50.731 -21.979  1.00  0.00     0.121 C 
ATOM      6  C   UNL     1      12.241 -50.621 -23.004  1.00  0.00     0.059 C 
ATOM      7  S   UNL     1       9.906 -49.400 -22.390  1.00  0.00    -0.114 SA
ATOM      8  C   UNL     1      12.312 -49.185 -23.433  1.00  0.00    -0.029 A 
ATOM      9  C   UNL     1      11.153 -48.448 -23.208  1.00  0.00     0.015 A 
ATOM     10  C   UNL     1      13.389 -48.596 -24.080  1.00  0.00     0.055 A 
ATOM     11  C   UNL     1      11.044 -47.126 -23.617  1.00  0.00     0.065 A 
ATOM     12  C   UNL     1      13.312 -47.252 -24.475  1.00  0.00     0.161 A 
ATOM     13  C   UNL     1      12.126 -46.512 -24.267  1.00  0.00     0.161 A 
BRANCH  12  14
ATOM     14  O   UNL     1      14.454 -46.816 -25.102  1.00  0.00    -0.493 OA
ATOM     15  C   UNL     1      14.589 -47.153 -26.479  1.00  0.00     0.278 C 
ENDBRANCH  12  14
BRANCH  13  16
ATOM     16  O   UNL     1      12.088 -45.228 -24.744  1.00  0.00    -0.493 OA
ATOM     17  C   UNL     1      12.132 -44.162 -23.805  1.00  0.00     0.278 C 
ENDBRANCH  13  16
ENDBRANCH   2   5
ENDBRANCH   1   2
BRANCH   1  18
ATOM     18  C   UNL     1      10.442 -54.524 -21.382  1.00  0.00     0.067 C 
BRANCH  18  19
ATOM     19  C   UNL     1      10.906 -55.719 -22.183  1.00  0.00    -0.032 A 
ATOM     20  C   UNL     1      11.323 -55.556 -23.506  1.00  0.00     0.075 A 
ATOM     21  C   UNL     1      10.957 -56.994 -21.623  1.00  0.00     0.075 A 
ATOM     22  C   UNL     1      11.762 -56.653 -24.233  1.00  0.00     0.308 A 
ATOM     23  C   UNL     1      11.403 -58.066 -22.390  1.00  0.00     0.308 A 
ATOM     24  N   UNL     1      11.790 -57.885 -23.673  1.00  0.00    -0.201 N 
BRANCH  24  25
ATOM     25  C   UNL     1      12.273 -59.040 -24.472  1.00  0.00     0.393 C 
BRANCH  25  26
ATOM     26  C   UNL     1      11.300 -60.192 -24.411  1.00  0.00     0.017 A 
ATOM     27  C   UNL     1      11.532 -61.286 -23.559  1.00  0.00     0.013 A 
ATOM     28  C   UNL     1      10.149 -60.189 -25.219  1.00  0.00     0.013 A 
ATOM     29  C   UNL     1      10.623 -62.346 -23.509  1.00  0.00     0.040 A 
ATOM     30  C   UNL     1       9.245 -61.252 -25.163  1.00  0.00     0.040 A 
ATOM     31  C   UNL     1       9.488 -62.319 -24.308  1.00  0.00     0.123 A 
ATOM     32  F   UNL     1       8.619 -63.335 -24.257  1.00  0.00    -0.207 F 
ENDBRANCH  25  26
ENDBRANCH  24  25
ENDBRANCH  18  19
ENDBRANCH   1  18
TORSDOF 9
ENDMDL
MODEL 8
REMARK VINA RESULT:    -9.606      5.044     11.337
REMARK INTER + INTRA:         -15.155
REMARK INTER:                 -14.515
REMARK INTRA:                  -0.640
REMARK UNBOUND:                -0.775
REMARK SMILES COc1cc2c(cc1OC)S[C@@H](C(O)=CCc1cc[n+](Cc3ccc(F)cc3)cc1)C2
REMARK SMILES IDX 15 1 13 2 14 3 12 5 31 6 11 7 5 8 6 9 4 10 7 11 3 12 8 13
REMARK SMILES IDX 2 14 1 15 9 16 10 17 16 18 17 19 18 20 30 21 19 22 29 23
REMARK SMILES IDX 20 24 21 25 22 26 23 27 28 28 24 29 27 30 25 31 26 32
REMARK H PARENT 14 4
ROOT
ATOM      1  C   UNL     1      11.409 -57.274 -22.755  1.00  0.00     0.020 C 
ENDROOT
BRANCH   1   2
ATOM      2  C   UNL     1      11.783 -57.934 -23.862  1.00  0.00     0.102 C 
BRANCH   2   3
ATOM      3  O   UNL     1      12.552 -57.285 -24.817  1.00  0.00    -0.511 OA
ATOM      4  H   UNL     1      11.951 -57.059 -25.560  1.00  0.00     0.293 HD
ENDBRANCH   2   3
BRANCH   2   5
ATOM      5  C   UNL     1      11.414 -59.378 -24.134  1.00  0.00     0.121 C 
ATOM      6  C   UNL     1      10.060 -59.777 -23.515  1.00  0.00     0.059 C 
ATOM      7  S   UNL     1      11.265 -59.673 -25.936  1.00  0.00    -0.114 SA
ATOM      8  C   UNL     1       9.461 -60.825 -24.406  1.00  0.00    -0.029 A 
ATOM      9  C   UNL     1       9.968 -60.853 -25.701  1.00  0.00     0.015 A 
ATOM     10  C   UNL     1       8.425 -61.679 -24.051  1.00  0.00     0.055 A 
ATOM     11  C   UNL     1       9.460 -61.721 -26.659  1.00  0.00     0.065 A 
ATOM     12  C   UNL     1       7.917 -62.585 -24.994  1.00  0.00     0.161 A 
ATOM     13  C   UNL     1       8.418 -62.596 -26.317  1.00  0.00     0.161 A 
BRANCH  12  14
ATOM     14  O   UNL     1       6.897 -63.356 -24.494  1.00  0.00    -0.493 OA
ATOM     15  C   UNL     1       7.278 -64.457 -23.676  1.00  0.00     0.278 C 
ENDBRANCH  12  14
BRANCH  13  16
ATOM     16  O   UNL     1       7.828 -63.451 -27.209  1.00  0.00    -0.493 OA
ATOM     17  C   UNL     1       8.228 -63.382 -28.571  1.00  0.00     0.278 C 
ENDBRANCH  13  16
ENDBRANCH   2   5
ENDBRANCH   1   2
BRANCH   1  18
ATOM     18  C   UNL     1      10.256 -56.315 -22.679  1.00  0.00     0.067 C 
BRANCH  18  19
ATOM     19  C   UNL     1      10.710 -54.874 -22.674  1.00  0.00    -0.032 A 
ATOM     20  C   UNL     1      10.576 -54.101 -21.519  1.00  0.00     0.075 A 
ATOM     21  C   UNL     1      11.295 -54.292 -23.799  1.00  0.00     0.075 A 
ATOM     22  C   UNL     1      11.010 -52.782 -21.515  1.00  0.00     0.308 A 
ATOM     23  C   UNL     1      11.713 -52.966 -23.750  1.00  0.00     0.308 A 
ATOM     24  N   UNL     1      11.561 -52.234 -22.623  1.00  0.00    -0.201 N 
BRANCH  24  25
ATOM     25  C   UNL     1      12.023 -50.823 -22.588  1.00  0.00     0.393 C 
BRANCH  25  26
ATOM     26  C   UNL     1      13.182 -50.603 -23.528  1.00  0.00     0.017 A 
ATOM     27  C   UNL     1      13.024 -49.842 -24.700  1.00  0.00     0.013 A 
ATOM     28  C   UNL     1      14.438 -51.168 -23.247  1.00  0.00     0.013 A 
ATOM     29  C   UNL     1      14.105 -49.641 -25.561  1.00  0.00     0.040 A 
ATOM     30  C   UNL     1      15.514 -50.963 -24.114  1.00  0.00     0.040 A 
ATOM     31  C   UNL     1      15.340 -50.201 -25.261  1.00  0.00     0.123 A 
ATOM     32  F   UNL     1      16.373 -50.006 -26.088  1.00  0.00    -0.207 F 
ENDBRANCH  25  26
ENDBRANCH  24  25
ENDBRANCH  18  19
ENDBRANCH   1  18
TORSDOF 9
ENDMDL
MODEL 9
REMARK VINA RESULT:    -9.475      2.313      3.391
REMARK INTER + INTRA:         -14.959
REMARK INTER:                 -14.094
REMARK INTRA:                  -0.865
REMARK UNBOUND:                -0.775
REMARK SMILES COc1cc2c(cc1OC)S[C@@H](C(O)=CCc1cc[n+](Cc3ccc(F)cc3)cc1)C2
REMARK SMILES IDX 15 1 13 2 14 3 12 5 31 6 11 7 5 8 6 9 4 10 7 11 3 12 8 13
REMARK SMILES IDX 2 14 1 15 9 16 10 17 16 18 17 19 18 20 30 21 19 22 29 23
REMARK SMILES IDX 20 24 21 25 22 26 23 27 28 28 24 29 27 30 25 31 26 32
REMARK H PARENT 14 4
ROOT
ATOM      1  C   UNL     1      10.380 -51.036 -22.368  1.00  0.00     0.020 C 
ENDROOT
BRANCH   1   2
ATOM      2  C   UNL     1      10.819 -49.775 -22.502  1.00  0.00     0.102 C 
BRANCH   2   3
ATOM      3  O   UNL     1      10.007 -48.722 -22.107  1.00  0.00    -0.511 OA
ATOM      4  H   UNL     1       9.420 -48.515 -22.866  1.00  0.00     0.293 HD
ENDBRANCH   2   3
BRANCH   2   5
ATOM      5  C   UNL     1      12.181 -49.425 -23.065  1.00  0.00     0.121 C 
ATOM      6  C   UNL     1      12.605 -50.347 -24.225  1.00  0.00     0.059 C 
ATOM      7  S   UNL     1      12.179 -47.720 -23.736  1.00  0.00    -0.114 SA
ATOM      8  C   UNL     1      13.466 -49.532 -25.144  1.00  0.00    -0.029 A 
ATOM      9  C   UNL     1      13.315 -48.154 -25.021  1.00  0.00     0.015 A 
ATOM     10  C   UNL     1      14.312 -50.049 -26.116  1.00  0.00     0.055 A 
ATOM     11  C   UNL     1      13.994 -47.273 -25.853  1.00  0.00     0.065 A 
ATOM     12  C   UNL     1      15.030 -49.177 -26.948  1.00  0.00     0.161 A 
ATOM     13  C   UNL     1      14.857 -47.778 -26.837  1.00  0.00     0.161 A 
BRANCH  12  14
ATOM     14  O   UNL     1      15.818 -49.839 -27.857  1.00  0.00    -0.493 OA
ATOM     15  C   UNL     1      17.226 -49.680 -27.709  1.00  0.00     0.278 C 
ENDBRANCH  12  14
BRANCH  13  16
ATOM     16  O   UNL     1      15.529 -46.985 -27.729  1.00  0.00    -0.493 OA
ATOM     17  C   UNL     1      14.852 -46.581 -28.912  1.00  0.00     0.278 C 
ENDBRANCH  13  16
ENDBRANCH   2   5
ENDBRANCH   1   2
BRANCH   1  18
ATOM     18  C   UNL     1      10.864 -52.005 -21.327  1.00  0.00     0.067 C 
BRANCH  18  19
ATOM     19  C   UNL     1      10.988 -53.410 -21.867  1.00  0.00    -0.032 A 
ATOM     20  C   UNL     1      10.890 -54.503 -21.004  1.00  0.00     0.075 A 
ATOM     21  C   UNL     1      11.172 -53.652 -23.227  1.00  0.00     0.075 A 
ATOM     22  C   UNL     1      10.990 -55.794 -21.507  1.00  0.00     0.308 A 
ATOM     23  C   UNL     1      11.269 -54.962 -23.687  1.00  0.00     0.308 A 
ATOM     24  N   UNL     1      11.183 -56.005 -22.829  1.00  0.00    -0.201 N 
BRANCH  24  25
ATOM     25  C   UNL     1      11.278 -57.395 -23.341  1.00  0.00     0.393 C 
BRANCH  25  26
ATOM     26  C   UNL     1       9.971 -58.130 -23.174  1.00  0.00     0.017 A 
ATOM     27  C   UNL     1       8.752 -57.523 -23.527  1.00  0.00     0.013 A 
ATOM     28  C   UNL     1       9.955 -59.435 -22.651  1.00  0.00     0.013 A 
ATOM     29  C   UNL     1       7.549 -58.214 -23.372  1.00  0.00     0.040 A 
ATOM     30  C   UNL     1       8.747 -60.120 -22.498  1.00  0.00     0.040 A 
ATOM     31  C   UNL     1       7.556 -59.506 -22.862  1.00  0.00     0.123 A 
ATOM     32  F   UNL     1       6.402 -60.165 -22.715  1.00  0.00    -0.207 F 
ENDBRANCH  25  26
ENDBRANCH  24  25
ENDBRANCH  18  19
ENDBRANCH   1  18
TORSDOF 9
ENDMDL
