MODEL 1
REMARK VINA RESULT:    -9.064      0.000      0.000
REMARK INTER + INTRA:          -9.329
REMARK INTER:                  -9.329
REMARK INTRA:                   0.000
REMARK UNBOUND:                 0.000
REMARK SMILES N=c1c2c([nH]c3cc(Cl)ccc13)[C@@H]1CC[C@H]2C1
REMARK SMILES IDX 5 1 4 2 3 3 2 4 12 5 11 6 10 7 8 8 9 9 7 10 6 11 16 12 15 13
REMARK SMILES IDX 14 14 13 15 17 16 1 18
REMARK H PARENT 5 17 1 19
ROOT
ATOM      1  N   UNL     1      12.132 -57.328 -24.814  1.00  0.00    -0.358 N 
ATOM      2  C   UNL     1      12.155 -58.670 -24.602  1.00  0.00     0.024 A 
ATOM      3  C   UNL     1      11.850 -59.287 -23.454  1.00  0.00     0.000 A 
ATOM      4  C   UNL     1      11.425 -58.497 -22.292  1.00  0.00     0.068 A 
ATOM      5  C   UNL     1      11.352 -57.014 -22.511  1.00  0.00     0.023 A 
ATOM      6  C   UNL     1      10.948 -56.170 -21.471  1.00  0.00     0.014 A 
ATOM      7  C   UNL     1      10.883 -54.792 -21.683  1.00  0.00     0.021 A 
ATOM      8  C   UNL     1      11.227 -54.265 -22.928  1.00  0.00     0.043 A 
ATOM      9  Cl  UNL     1      11.155 -52.563 -23.178  1.00  0.00    -0.084 Cl
ATOM     10  C   UNL     1      11.631 -55.097 -23.974  1.00  0.00     0.047 A 
ATOM     11  C   UNL     1      11.685 -56.481 -23.783  1.00  0.00     0.049 A 
ATOM     12  C   UNL     1      11.999 -60.763 -23.662  1.00  0.00     0.024 C 
ATOM     13  C   UNL     1      10.864 -61.219 -24.604  1.00  0.00     0.009 C 
ATOM     14  C   UNL     1      11.215 -60.511 -25.945  1.00  0.00     0.010 C 
ATOM     15  C   UNL     1      12.509 -59.741 -25.603  1.00  0.00     0.037 C 
ATOM     16  C   UNL     1      13.184 -60.734 -24.641  1.00  0.00     0.018 C 
ATOM     17  H   UNL     1      12.214 -56.973 -25.758  1.00  0.00     0.166 HD
ENDROOT
BRANCH   4  18
ATOM     18  N   UNL     1      11.119 -59.017 -21.147  1.00  0.00    -0.300 NA
ATOM     19  H   UNL     1      11.867 -59.633 -20.816  1.00  0.00     0.188 HD
ENDBRANCH   4  18
TORSDOF 1
ENDMDL
MODEL 2
REMARK VINA RESULT:    -8.893      2.585      3.669
REMARK INTER + INTRA:          -9.153
REMARK INTER:                  -9.153
REMARK INTRA:                   0.000
REMARK UNBOUND:                 0.000
REMARK SMILES N=c1c2c([nH]c3cc(Cl)ccc13)[C@@H]1CC[C@H]2C1
REMARK SMILES IDX 5 1 4 2 3 3 2 4 12 5 11 6 10 7 8 8 9 9 7 10 6 11 16 12 15 13
REMARK SMILES IDX 14 14 13 15 17 16 1 18
REMARK H PARENT 5 17 1 19
ROOT
ATOM      1  N   UNL     1       8.192 -59.414 -23.793  1.00  0.00    -0.358 N 
ATOM      2  C   UNL     1       8.444 -60.728 -24.031  1.00  0.00     0.024 A 
ATOM      3  C   UNL     1       9.647 -61.315 -23.989  1.00  0.00     0.000 A 
ATOM      4  C   UNL     1      10.833 -60.524 -23.640  1.00  0.00     0.068 A 
ATOM      5  C   UNL     1      10.576 -59.077 -23.333  1.00  0.00     0.023 A 
ATOM      6  C   UNL     1      11.638 -58.237 -22.979  1.00  0.00     0.014 A 
ATOM      7  C   UNL     1      11.391 -56.892 -22.696  1.00  0.00     0.021 A 
ATOM      8  C   UNL     1      10.090 -56.395 -22.773  1.00  0.00     0.043 A 
ATOM      9  Cl  UNL     1       9.795 -54.733 -22.432  1.00  0.00    -0.084 Cl
ATOM     10  C   UNL     1       9.023 -57.224 -23.125  1.00  0.00     0.047 A 
ATOM     11  C   UNL     1       9.251 -58.577 -23.396  1.00  0.00     0.049 A 
ATOM     12  C   UNL     1       9.469 -62.768 -24.305  1.00  0.00     0.024 C 
ATOM     13  C   UNL     1       8.732 -63.419 -23.114  1.00  0.00     0.009 C 
ATOM     14  C   UNL     1       7.329 -62.747 -23.160  1.00  0.00     0.010 C 
ATOM     15  C   UNL     1       7.438 -61.798 -24.373  1.00  0.00     0.037 C 
ATOM     16  C   UNL     1       8.316 -62.640 -25.314  1.00  0.00     0.018 C 
ATOM     17  H   UNL     1       7.235 -59.104 -23.683  1.00  0.00     0.166 HD
ENDROOT
BRANCH   4  18
ATOM     18  N   UNL     1      12.029 -61.015 -23.584  1.00  0.00    -0.300 NA
ATOM     19  H   UNL     1      12.109 -61.847 -24.176  1.00  0.00     0.188 HD
ENDBRANCH   4  18
TORSDOF 1
ENDMDL
MODEL 3
REMARK VINA RESULT:    -8.893      3.773      5.744
REMARK INTER + INTRA:          -9.153
REMARK INTER:                  -9.153
REMARK INTRA:                   0.000
REMARK UNBOUND:                 0.000
REMARK SMILES N=c1c2c([nH]c3cc(Cl)ccc13)[C@@H]1CC[C@H]2C1
REMARK SMILES IDX 5 1 4 2 3 3 2 4 12 5 11 6 10 7 8 8 9 9 7 10 6 11 16 12 15 13
REMARK SMILES IDX 14 14 13 15 17 16 1 18
REMARK H PARENT 5 17 1 19
ROOT
ATOM      1  N   UNL     1      11.426 -52.319 -22.953  1.00  0.00    -0.358 N 
ATOM      2  C   UNL     1      10.990 -53.605 -22.901  1.00  0.00     0.024 A 
ATOM      3  C   UNL     1      11.274 -54.565 -23.790  1.00  0.00     0.000 A 
ATOM      4  C   UNL     1      12.146 -54.266 -24.933  1.00  0.00     0.068 A 
ATOM      5  C   UNL     1      12.674 -52.863 -24.992  1.00  0.00     0.023 A 
ATOM      6  C   UNL     1      13.522 -52.476 -26.036  1.00  0.00     0.014 A 
ATOM      7  C   UNL     1      14.008 -51.168 -26.084  1.00  0.00     0.021 A 
ATOM      8  C   UNL     1      13.641 -50.255 -25.096  1.00  0.00     0.043 A 
ATOM      9  Cl  UNL     1      14.235 -48.640 -25.169  1.00  0.00    -0.084 Cl
ATOM     10  C   UNL     1      12.795 -50.629 -24.050  1.00  0.00     0.047 A 
ATOM     11  C   UNL     1      12.313 -51.939 -23.978  1.00  0.00     0.049 A 
ATOM     12  C   UNL     1      10.601 -55.827 -23.347  1.00  0.00     0.024 C 
ATOM     13  C   UNL     1      11.322 -56.320 -22.073  1.00  0.00     0.009 C 
ATOM     14  C   UNL     1      10.990 -55.212 -21.032  1.00  0.00     0.010 C 
ATOM     15  C   UNL     1      10.119 -54.226 -21.839  1.00  0.00     0.037 C 
ATOM     16  C   UNL     1       9.337 -55.204 -22.732  1.00  0.00     0.018 C 
ATOM     17  H   UNL     1      11.297 -51.718 -22.150  1.00  0.00     0.166 HD
ENDROOT
BRANCH   4  18
ATOM     18  N   UNL     1      12.463 -55.137 -25.838  1.00  0.00    -0.300 NA
ATOM     19  H   UNL     1      13.374 -55.557 -25.635  1.00  0.00     0.188 HD
ENDBRANCH   4  18
TORSDOF 1
ENDMDL
MODEL 4
REMARK VINA RESULT:    -8.612      4.413      7.148
REMARK INTER + INTRA:          -8.863
REMARK INTER:                  -8.863
REMARK INTRA:                   0.000
REMARK UNBOUND:                 0.000
REMARK SMILES N=c1c2c([nH]c3cc(Cl)ccc13)[C@@H]1CC[C@H]2C1
REMARK SMILES IDX 5 1 4 2 3 3 2 4 12 5 11 6 10 7 8 8 9 9 7 10 6 11 16 12 15 13
REMARK SMILES IDX 14 14 13 15 17 16 1 18
REMARK H PARENT 5 17 1 19
ROOT
ATOM      1  N   UNL     1      12.482 -53.145 -24.867  1.00  0.00    -0.358 N 
ATOM      2  C   UNL     1      13.115 -51.947 -24.761  1.00  0.00     0.024 A 
ATOM      3  C   UNL     1      12.995 -51.086 -23.743  1.00  0.00     0.000 A 
ATOM      4  C   UNL     1      12.134 -51.421 -22.601  1.00  0.00     0.068 A 
ATOM      5  C   UNL     1      11.455 -52.757 -22.675  1.00  0.00     0.023 A 
ATOM      6  C   UNL     1      10.620 -53.177 -21.634  1.00  0.00     0.014 A 
ATOM      7  C   UNL     1       9.992 -54.421 -21.711  1.00  0.00     0.021 A 
ATOM      8  C   UNL     1      10.195 -55.234 -22.826  1.00  0.00     0.043 A 
ATOM      9  Cl  UNL     1       9.407 -56.762 -22.918  1.00  0.00    -0.084 Cl
ATOM     10  C   UNL     1      11.026 -54.825 -23.871  1.00  0.00     0.047 A 
ATOM     11  C   UNL     1      11.676 -53.589 -23.803  1.00  0.00     0.049 A 
ATOM     12  C   UNL     1      13.868 -49.903 -24.026  1.00  0.00     0.024 C 
ATOM     13  C   UNL     1      15.337 -50.366 -23.908  1.00  0.00     0.009 C 
ATOM     14  C   UNL     1      15.486 -51.363 -25.094  1.00  0.00     0.010 C 
ATOM     15  C   UNL     1      14.086 -51.343 -25.744  1.00  0.00     0.037 C 
ATOM     16  C   UNL     1      13.707 -49.865 -25.555  1.00  0.00     0.018 C 
ATOM     17  H   UNL     1      12.767 -53.794 -25.589  1.00  0.00     0.166 HD
ENDROOT
BRANCH   4  18
ATOM     18  N   UNL     1      11.962 -50.640 -21.583  1.00  0.00    -0.300 NA
ATOM     19  H   UNL     1      11.022 -50.753 -21.194  1.00  0.00     0.188 HD
ENDBRANCH   4  18
TORSDOF 1
ENDMDL
MODEL 5
REMARK VINA RESULT:    -8.365      4.616      6.557
REMARK INTER + INTRA:          -8.609
REMARK INTER:                  -8.609
REMARK INTRA:                   0.000
REMARK UNBOUND:                 0.000
REMARK SMILES N=c1c2c([nH]c3cc(Cl)ccc13)[C@@H]1CC[C@H]2C1
REMARK SMILES IDX 5 1 4 2 3 3 2 4 12 5 11 6 10 7 8 8 9 9 7 10 6 11 16 12 15 13
REMARK SMILES IDX 14 14 13 15 17 16 1 18
REMARK H PARENT 5 17 1 19
ROOT
ATOM      1  N   UNL     1      12.424 -53.111 -24.772  1.00  0.00    -0.358 N 
ATOM      2  C   UNL     1      11.715 -53.478 -23.671  1.00  0.00     0.024 A 
ATOM      3  C   UNL     1      11.445 -52.697 -22.617  1.00  0.00     0.000 A 
ATOM      4  C   UNL     1      11.913 -51.305 -22.602  1.00  0.00     0.068 A 
ATOM      5  C   UNL     1      12.664 -50.863 -23.823  1.00  0.00     0.023 A 
ATOM      6  C   UNL     1      13.145 -49.552 -23.914  1.00  0.00     0.014 A 
ATOM      7  C   UNL     1      13.844 -49.149 -25.053  1.00  0.00     0.021 A 
ATOM      8  C   UNL     1      14.063 -50.056 -26.090  1.00  0.00     0.043 A 
ATOM      9  Cl  UNL     1      14.935 -49.554 -27.488  1.00  0.00    -0.084 Cl
ATOM     10  C   UNL     1      13.588 -51.367 -26.011  1.00  0.00     0.047 A 
ATOM     11  C   UNL     1      12.872 -51.782 -24.884  1.00  0.00     0.049 A 
ATOM     12  C   UNL     1      10.636 -53.493 -21.641  1.00  0.00     0.024 C 
ATOM     13  C   UNL     1       9.240 -53.717 -22.264  1.00  0.00     0.009 C 
ATOM     14  C   UNL     1       9.544 -54.630 -23.487  1.00  0.00     0.010 C 
ATOM     15  C   UNL     1      11.075 -54.817 -23.409  1.00  0.00     0.037 C 
ATOM     16  C   UNL     1      11.277 -54.869 -21.885  1.00  0.00     0.018 C 
ATOM     17  H   UNL     1      12.429 -53.716 -25.583  1.00  0.00     0.166 HD
ENDROOT
BRANCH   4  18
ATOM     18  N   UNL     1      11.699 -50.490 -21.619  1.00  0.00    -0.300 NA
ATOM     19  H   UNL     1      11.118 -49.703 -21.920  1.00  0.00     0.188 HD
ENDBRANCH   4  18
TORSDOF 1
ENDMDL
MODEL 6
REMARK VINA RESULT:    -8.358      5.232      8.957
REMARK INTER + INTRA:          -8.602
REMARK INTER:                  -8.602
REMARK INTRA:                   0.000
REMARK UNBOUND:                 0.000
REMARK SMILES N=c1c2c([nH]c3cc(Cl)ccc13)[C@@H]1CC[C@H]2C1
REMARK SMILES IDX 5 1 4 2 3 3 2 4 12 5 11 6 10 7 8 8 9 9 7 10 6 11 16 12 15 13
REMARK SMILES IDX 14 14 13 15 17 16 1 18
REMARK H PARENT 5 17 1 19
ROOT
ATOM      1  N   UNL     1      12.404 -50.832 -23.698  1.00  0.00    -0.358 N 
ATOM      2  C   UNL     1      12.094 -49.527 -23.478  1.00  0.00     0.024 A 
ATOM      3  C   UNL     1      10.999 -49.077 -22.851  1.00  0.00     0.000 A 
ATOM      4  C   UNL     1      10.022 -50.032 -22.315  1.00  0.00     0.068 A 
ATOM      5  C   UNL     1      10.361 -51.481 -22.509  1.00  0.00     0.023 A 
ATOM      6  C   UNL     1       9.501 -52.473 -22.026  1.00  0.00     0.014 A 
ATOM      7  C   UNL     1       9.823 -53.819 -22.212  1.00  0.00     0.021 A 
ATOM      8  C   UNL     1      10.996 -54.165 -22.882  1.00  0.00     0.043 A 
ATOM      9  Cl  UNL     1      11.381 -55.827 -23.117  1.00  0.00    -0.084 Cl
ATOM     10  C   UNL     1      11.862 -53.184 -23.369  1.00  0.00     0.047 A 
ATOM     11  C   UNL     1      11.563 -51.832 -23.177  1.00  0.00     0.049 A 
ATOM     12  C   UNL     1      11.060 -47.582 -22.821  1.00  0.00     0.024 C 
ATOM     13  C   UNL     1      12.194 -47.179 -21.853  1.00  0.00     0.009 C 
ATOM     14  C   UNL     1      13.472 -47.693 -22.578  1.00  0.00     0.010 C 
ATOM     15  C   UNL     1      12.910 -48.322 -23.871  1.00  0.00     0.037 C 
ATOM     16  C   UNL     1      11.752 -47.356 -24.175  1.00  0.00     0.018 C 
ATOM     17  H   UNL     1      13.330 -51.073 -24.028  1.00  0.00     0.166 HD
ENDROOT
BRANCH   4  18
ATOM     18  N   UNL     1       8.938 -49.677 -21.703  1.00  0.00    -0.300 NA
ATOM     19  H   UNL     1       9.029 -48.733 -21.319  1.00  0.00     0.188 HD
ENDBRANCH   4  18
TORSDOF 1
ENDMDL
MODEL 7
REMARK VINA RESULT:    -8.244      3.220      5.756
REMARK INTER + INTRA:          -8.485
REMARK INTER:                  -8.485
REMARK INTRA:                   0.000
REMARK UNBOUND:                 0.000
REMARK SMILES N=c1c2c([nH]c3cc(Cl)ccc13)[C@@H]1CC[C@H]2C1
REMARK SMILES IDX 5 1 4 2 3 3 2 4 12 5 11 6 10 7 8 8 9 9 7 10 6 11 16 12 15 13
REMARK SMILES IDX 14 14 13 15 17 16 1 18
REMARK H PARENT 5 17 1 19
ROOT
ATOM      1  N   UNL     1       8.729 -58.141 -23.261  1.00  0.00    -0.358 N 
ATOM      2  C   UNL     1       9.717 -57.225 -23.079  1.00  0.00     0.024 A 
ATOM      3  C   UNL     1      11.017 -57.412 -23.339  1.00  0.00     0.000 A 
ATOM      4  C   UNL     1      11.473 -58.694 -23.891  1.00  0.00     0.068 A 
ATOM      5  C   UNL     1      10.396 -59.709 -24.140  1.00  0.00     0.023 A 
ATOM      6  C   UNL     1      10.722 -60.961 -24.675  1.00  0.00     0.014 A 
ATOM      7  C   UNL     1       9.715 -61.900 -24.902  1.00  0.00     0.021 A 
ATOM      8  C   UNL     1       8.391 -61.587 -24.591  1.00  0.00     0.043 A 
ATOM      9  Cl  UNL     1       7.156 -62.755 -24.865  1.00  0.00    -0.084 Cl
ATOM     10  C   UNL     1       8.054 -60.342 -24.057  1.00  0.00     0.047 A 
ATOM     11  C   UNL     1       9.048 -59.384 -23.838  1.00  0.00     0.049 A 
ATOM     12  C   UNL     1      11.747 -56.150 -23.003  1.00  0.00     0.024 C 
ATOM     13  C   UNL     1      11.343 -55.084 -24.045  1.00  0.00     0.009 C 
ATOM     14  C   UNL     1       9.833 -54.855 -23.745  1.00  0.00     0.010 C 
ATOM     15  C   UNL     1       9.563 -55.815 -22.566  1.00  0.00     0.037 C 
ATOM     16  C   UNL     1      10.894 -55.707 -21.802  1.00  0.00     0.018 C 
ATOM     17  H   UNL     1       7.763 -57.848 -23.196  1.00  0.00     0.166 HD
ENDROOT
BRANCH   4  18
ATOM     18  N   UNL     1      12.711 -58.955 -24.163  1.00  0.00    -0.300 NA
ATOM     19  H   UNL     1      13.187 -58.124 -24.523  1.00  0.00     0.188 HD
ENDBRANCH   4  18
TORSDOF 1
ENDMDL
MODEL 8
REMARK VINA RESULT:    -7.970      4.724      8.593
REMARK INTER + INTRA:          -8.203
REMARK INTER:                  -8.203
REMARK INTRA:                   0.000
REMARK UNBOUND:                 0.000
REMARK SMILES N=c1c2c([nH]c3cc(Cl)ccc13)[C@@H]1CC[C@H]2C1
REMARK SMILES IDX 5 1 4 2 3 3 2 4 12 5 11 6 10 7 8 8 9 9 7 10 6 11 16 12 15 13
REMARK SMILES IDX 14 14 13 15 17 16 1 18
REMARK H PARENT 5 17 1 19
ROOT
ATOM      1  N   UNL     1      11.716 -51.119 -22.436  1.00  0.00    -0.358 N 
ATOM      2  C   UNL     1      12.339 -50.032 -22.963  1.00  0.00     0.024 A 
ATOM      3  C   UNL     1      13.023 -50.002 -24.113  1.00  0.00     0.000 A 
ATOM      4  C   UNL     1      13.126 -51.216 -24.933  1.00  0.00     0.068 A 
ATOM      5  C   UNL     1      12.412 -52.421 -24.394  1.00  0.00     0.023 A 
ATOM      6  C   UNL     1      12.438 -53.627 -25.104  1.00  0.00     0.014 A 
ATOM      7  C   UNL     1      11.772 -54.743 -24.595  1.00  0.00     0.021 A 
ATOM      8  C   UNL     1      11.090 -54.651 -23.382  1.00  0.00     0.043 A 
ATOM      9  Cl  UNL     1      10.280 -56.036 -22.756  1.00  0.00    -0.084 Cl
ATOM     10  C   UNL     1      11.057 -53.453 -22.665  1.00  0.00     0.047 A 
ATOM     11  C   UNL     1      11.705 -52.321 -23.168  1.00  0.00     0.049 A 
ATOM     12  C   UNL     1      13.535 -48.610 -24.316  1.00  0.00     0.024 C 
ATOM     13  C   UNL     1      12.321 -47.705 -24.620  1.00  0.00     0.009 C 
ATOM     14  C   UNL     1      11.523 -47.729 -23.283  1.00  0.00     0.010 C 
ATOM     15  C   UNL     1      12.382 -48.641 -22.382  1.00  0.00     0.037 C 
ATOM     16  C   UNL     1      13.795 -48.248 -22.844  1.00  0.00     0.018 C 
ATOM     17  H   UNL     1      11.087 -51.000 -21.653  1.00  0.00     0.166 HD
ENDROOT
BRANCH   4  18
ATOM     18  N   UNL     1      13.773 -51.269 -26.052  1.00  0.00    -0.300 NA
ATOM     19  H   UNL     1      14.782 -51.200 -25.893  1.00  0.00     0.188 HD
ENDBRANCH   4  18
TORSDOF 1
ENDMDL
MODEL 9
REMARK VINA RESULT:    -7.775      5.627      9.551
REMARK INTER + INTRA:          -8.002
REMARK INTER:                  -8.002
REMARK INTRA:                   0.000
REMARK UNBOUND:                 0.000
REMARK SMILES N=c1c2c([nH]c3cc(Cl)ccc13)[C@@H]1CC[C@H]2C1
REMARK SMILES IDX 5 1 4 2 3 3 2 4 12 5 11 6 10 7 8 8 9 9 7 10 6 11 16 12 15 13
REMARK SMILES IDX 14 14 13 15 17 16 1 18
REMARK H PARENT 5 17 1 19
ROOT
ATOM      1  N   UNL     1      11.331 -49.725 -22.036  1.00  0.00    -0.358 N 
ATOM      2  C   UNL     1      11.863 -48.661 -22.693  1.00  0.00     0.024 A 
ATOM      3  C   UNL     1      12.591 -48.718 -23.815  1.00  0.00     0.000 A 
ATOM      4  C   UNL     1      12.853 -50.016 -24.450  1.00  0.00     0.068 A 
ATOM      5  C   UNL     1      12.242 -51.204 -23.766  1.00  0.00     0.023 A 
ATOM      6  C   UNL     1      12.423 -52.487 -24.295  1.00  0.00     0.014 A 
ATOM      7  C   UNL     1      11.852 -53.587 -23.652  1.00  0.00     0.021 A 
ATOM      8  C   UNL     1      11.111 -53.400 -22.485  1.00  0.00     0.043 A 
ATOM      9  Cl  UNL     1      10.419 -54.764 -21.692  1.00  0.00    -0.084 Cl
ATOM     10  C   UNL     1      10.924 -52.125 -21.948  1.00  0.00     0.047 A 
ATOM     11  C   UNL     1      11.475 -51.011 -22.588  1.00  0.00     0.049 A 
ATOM     12  C   UNL     1      12.967 -47.321 -24.200  1.00  0.00     0.024 C 
ATOM     13  C   UNL     1      11.681 -46.602 -24.665  1.00  0.00     0.009 C 
ATOM     14  C   UNL     1      10.832 -46.526 -23.363  1.00  0.00     0.010 C 
ATOM     15  C   UNL     1      11.738 -47.207 -22.316  1.00  0.00     0.037 C 
ATOM     16  C   UNL     1      13.123 -46.732 -22.788  1.00  0.00     0.018 C 
ATOM     17  H   UNL     1      10.659 -49.566 -21.297  1.00  0.00     0.166 HD
ENDROOT
BRANCH   4  18
ATOM     18  N   UNL     1      13.552 -50.155 -25.531  1.00  0.00    -0.300 NA
ATOM     19  H   UNL     1      13.210 -49.532 -26.267  1.00  0.00     0.188 HD
ENDBRANCH   4  18
TORSDOF 1
ENDMDL
