MODEL 1
REMARK VINA RESULT:   -11.073      0.000      0.000
REMARK INTER + INTRA:         -15.058
REMARK INTER:                 -14.633
REMARK INTRA:                  -0.425
REMARK UNBOUND:                -0.425
REMARK SMILES COc1cc(C=Cc2nnc(-c3ccc(F)cc3F)o2)ccc1O
REMARK SMILES IDX 6 1 5 2 23 3 22 4 3 5 21 6 4 7 24 8 2 10 1 11 7 12 8 13 9 14
REMARK SMILES IDX 20 15 10 16 11 17 12 18 13 19 18 20 14 21 17 22 15 23 19 24
REMARK SMILES IDX 16 25
REMARK H PARENT 24 9
ROOT
ATOM      1  C   UNL     1      10.264 -60.387 -21.722  1.00  0.00     0.014 C 
ENDROOT
BRANCH   1   2
ATOM      2  C   UNL     1       9.200 -61.088 -22.457  1.00  0.00    -0.022 A 
ATOM      3  C   UNL     1       7.162 -62.331 -23.910  1.00  0.00     0.157 A 
ATOM      4  C   UNL     1       8.320 -63.040 -23.601  1.00  0.00     0.051 A 
ATOM      5  C   UNL     1       7.003 -60.996 -23.514  1.00  0.00     0.161 A 
ATOM      6  C   UNL     1       9.339 -62.416 -22.879  1.00  0.00     0.012 A 
ATOM      7  C   UNL     1       8.032 -60.382 -22.792  1.00  0.00     0.058 A 
BRANCH   3   8
ATOM      8  O   UNL     1       6.161 -62.941 -24.617  1.00  0.00    -0.504 OA
ATOM      9  H   UNL     1       6.223 -63.901 -24.495  1.00  0.00     0.293 HD
ENDBRANCH   3   8
BRANCH   5  10
ATOM     10  O   UNL     1       5.827 -60.393 -23.877  1.00  0.00    -0.493 OA
ATOM     11  C   UNL     1       5.384 -59.293 -23.097  1.00  0.00     0.278 C 
ENDBRANCH   5  10
ENDBRANCH   1   2
BRANCH   1  12
ATOM     12  C   UNL     1      11.387 -59.930 -22.297  1.00  0.00     0.071 C 
BRANCH  12  13
ATOM     13  C   UNL     1      11.458 -58.629 -22.865  1.00  0.00     0.241 A 
ATOM     14  N   UNL     1      11.788 -58.345 -24.116  1.00  0.00    -0.108 NA
ATOM     15  O   UNL     1      11.186 -57.465 -22.168  1.00  0.00    -0.417 OA
ATOM     16  N   UNL     1      11.738 -56.977 -24.268  1.00  0.00    -0.107 NA
ATOM     17  C   UNL     1      11.381 -56.488 -23.100  1.00  0.00     0.251 A 
BRANCH  17  18
ATOM     18  C   UNL     1      11.177 -55.104 -22.700  1.00  0.00     0.075 A 
ATOM     19  C   UNL     1      10.789 -54.819 -21.379  1.00  0.00     0.020 A 
ATOM     20  C   UNL     1      11.351 -54.026 -23.581  1.00  0.00     0.138 A 
ATOM     21  C   UNL     1      10.583 -53.502 -20.960  1.00  0.00     0.040 A 
ATOM     22  C   UNL     1      11.149 -52.710 -23.170  1.00  0.00     0.079 A 
ATOM     23  C   UNL     1      10.767 -52.460 -21.861  1.00  0.00     0.126 A 
ATOM     24  F   UNL     1      11.718 -54.228 -24.855  1.00  0.00    -0.206 F 
ATOM     25  F   UNL     1      10.570 -51.198 -21.460  1.00  0.00    -0.207 F 
ENDBRANCH  17  18
ENDBRANCH  12  13
ENDBRANCH   1  12
TORSDOF 6
ENDMDL
MODEL 2
REMARK VINA RESULT:   -10.848      1.897      2.099
REMARK INTER + INTRA:         -14.760
REMARK INTER:                 -14.226
REMARK INTRA:                  -0.533
REMARK UNBOUND:                -0.425
REMARK SMILES COc1cc(C=Cc2nnc(-c3ccc(F)cc3F)o2)ccc1O
REMARK SMILES IDX 6 1 5 2 23 3 22 4 3 5 21 6 4 7 24 8 2 10 1 11 7 12 8 13 9 14
REMARK SMILES IDX 20 15 10 16 11 17 12 18 13 19 18 20 14 21 17 22 15 23 19 24
REMARK SMILES IDX 16 25
REMARK H PARENT 24 9
ROOT
ATOM      1  C   UNL     1      11.612 -60.806 -24.014  1.00  0.00     0.014 C 
ENDROOT
BRANCH   1   2
ATOM      2  C   UNL     1      10.481 -61.737 -23.886  1.00  0.00    -0.022 A 
ATOM      3  C   UNL     1       8.344 -63.533 -23.744  1.00  0.00     0.157 A 
ATOM      4  C   UNL     1       9.245 -63.447 -22.685  1.00  0.00     0.051 A 
ATOM      5  C   UNL     1       8.496 -62.740 -24.889  1.00  0.00     0.161 A 
ATOM      6  C   UNL     1      10.315 -62.553 -22.759  1.00  0.00     0.012 A 
ATOM      7  C   UNL     1       9.573 -61.849 -24.952  1.00  0.00     0.058 A 
BRANCH   3   8
ATOM      8  O   UNL     1       7.294 -64.410 -23.673  1.00  0.00    -0.504 OA
ATOM      9  H   UNL     1       6.553 -63.984 -23.216  1.00  0.00     0.293 HD
ENDBRANCH   3   8
BRANCH   5  10
ATOM     10  O   UNL     1       7.556 -62.911 -25.872  1.00  0.00    -0.493 OA
ATOM     11  C   UNL     1       8.022 -63.162 -27.190  1.00  0.00     0.278 C 
ENDBRANCH   5  10
ENDBRANCH   1   2
BRANCH   1  12
ATOM     12  C   UNL     1      11.854 -59.808 -23.150  1.00  0.00     0.071 C 
BRANCH  12  13
ATOM     13  C   UNL     1      11.133 -58.585 -23.202  1.00  0.00     0.241 A 
ATOM     14  N   UNL     1       9.852 -58.451 -23.515  1.00  0.00    -0.108 NA
ATOM     15  O   UNL     1      11.688 -57.347 -22.928  1.00  0.00    -0.417 OA
ATOM     16  N   UNL     1       9.538 -57.112 -23.451  1.00  0.00    -0.107 NA
ATOM     17  C   UNL     1      10.643 -56.487 -23.103  1.00  0.00     0.251 A 
BRANCH  17  18
ATOM     18  C   UNL     1      10.876 -55.067 -22.892  1.00  0.00     0.075 A 
ATOM     19  C   UNL     1      10.485 -54.479 -21.676  1.00  0.00     0.020 A 
ATOM     20  C   UNL     1      11.479 -54.246 -23.855  1.00  0.00     0.138 A 
ATOM     21  C   UNL     1      10.693 -53.118 -21.438  1.00  0.00     0.040 A 
ATOM     22  C   UNL     1      11.691 -52.887 -23.626  1.00  0.00     0.079 A 
ATOM     23  C   UNL     1      11.295 -52.336 -22.417  1.00  0.00     0.126 A 
ATOM     24  F   UNL     1      11.873 -54.743 -25.037  1.00  0.00    -0.206 F 
ATOM     25  F   UNL     1      11.494 -51.032 -22.189  1.00  0.00    -0.207 F 
ENDBRANCH  17  18
ENDBRANCH  12  13
ENDBRANCH   1  12
TORSDOF 6
ENDMDL
MODEL 3
REMARK VINA RESULT:   -10.443      2.705      3.118
REMARK INTER + INTRA:         -14.226
REMARK INTER:                 -13.691
REMARK INTRA:                  -0.535
REMARK UNBOUND:                -0.425
REMARK SMILES COc1cc(C=Cc2nnc(-c3ccc(F)cc3F)o2)ccc1O
REMARK SMILES IDX 6 1 5 2 23 3 22 4 3 5 21 6 4 7 24 8 2 10 1 11 7 12 8 13 9 14
REMARK SMILES IDX 20 15 10 16 11 17 12 18 13 19 18 20 14 21 17 22 15 23 19 24
REMARK SMILES IDX 16 25
REMARK H PARENT 24 9
ROOT
ATOM      1  C   UNL     1      11.415 -60.495 -23.244  1.00  0.00     0.014 C 
ENDROOT
BRANCH   1   2
ATOM      2  C   UNL     1      10.725 -60.800 -24.506  1.00  0.00    -0.022 A 
ATOM      3  C   UNL     1       9.506 -61.373 -26.955  1.00  0.00     0.157 A 
ATOM      4  C   UNL     1       9.110 -62.060 -25.809  1.00  0.00     0.051 A 
ATOM      5  C   UNL     1      10.516 -60.403 -26.904  1.00  0.00     0.161 A 
ATOM      6  C   UNL     1       9.723 -61.776 -24.588  1.00  0.00     0.012 A 
ATOM      7  C   UNL     1      11.124 -60.129 -25.674  1.00  0.00     0.058 A 
BRANCH   3   8
ATOM      8  O   UNL     1       8.905 -61.650 -28.154  1.00  0.00    -0.504 OA
ATOM      9  H   UNL     1       9.507 -61.411 -28.875  1.00  0.00     0.293 HD
ENDBRANCH   3   8
BRANCH   5  10
ATOM     10  O   UNL     1      10.831 -59.795 -28.092  1.00  0.00    -0.493 OA
ATOM     11  C   UNL     1      11.908 -58.869 -28.091  1.00  0.00     0.278 C 
ENDBRANCH   5  10
ENDBRANCH   1   2
BRANCH   1  12
ATOM     12  C   UNL     1      10.929 -59.658 -22.315  1.00  0.00     0.071 C 
BRANCH  12  13
ATOM     13  C   UNL     1      10.467 -58.357 -22.652  1.00  0.00     0.241 A 
ATOM     14  N   UNL     1       9.333 -58.074 -23.277  1.00  0.00    -0.108 NA
ATOM     15  O   UNL     1      11.157 -57.192 -22.366  1.00  0.00    -0.417 OA
ATOM     16  N   UNL     1       9.254 -56.706 -23.414  1.00  0.00    -0.107 NA
ATOM     17  C   UNL     1      10.346 -56.215 -22.867  1.00  0.00     0.251 A 
BRANCH  17  18
ATOM     18  C   UNL     1      10.773 -54.831 -22.736  1.00  0.00     0.075 A 
ATOM     19  C   UNL     1      10.480 -54.129 -21.554  1.00  0.00     0.020 A 
ATOM     20  C   UNL     1      11.474 -54.155 -23.746  1.00  0.00     0.138 A 
ATOM     21  C   UNL     1      10.874 -52.798 -21.394  1.00  0.00     0.040 A 
ATOM     22  C   UNL     1      11.871 -52.827 -23.593  1.00  0.00     0.079 A 
ATOM     23  C   UNL     1      11.568 -52.161 -22.416  1.00  0.00     0.126 A 
ATOM     24  F   UNL     1      11.784 -54.765 -24.899  1.00  0.00    -0.206 F 
ATOM     25  F   UNL     1      11.946 -50.886 -22.262  1.00  0.00    -0.207 F 
ENDBRANCH  17  18
ENDBRANCH  12  13
ENDBRANCH   1  12
TORSDOF 6
ENDMDL
MODEL 4
REMARK VINA RESULT:   -10.371      1.668      2.925
REMARK INTER + INTRA:         -14.130
REMARK INTER:                 -13.690
REMARK INTRA:                  -0.440
REMARK UNBOUND:                -0.425
REMARK SMILES COc1cc(C=Cc2nnc(-c3ccc(F)cc3F)o2)ccc1O
REMARK SMILES IDX 6 1 5 2 23 3 22 4 3 5 21 6 4 7 24 8 2 10 1 11 7 12 8 13 9 14
REMARK SMILES IDX 20 15 10 16 11 17 12 18 13 19 18 20 14 21 17 22 15 23 19 24
REMARK SMILES IDX 16 25
REMARK H PARENT 24 9
ROOT
ATOM      1  C   UNL     1      11.074 -58.720 -22.418  1.00  0.00     0.014 C 
ENDROOT
BRANCH   1   2
ATOM      2  C   UNL     1       9.782 -59.293 -22.826  1.00  0.00    -0.022 A 
ATOM      3  C   UNL     1       7.336 -60.452 -23.523  1.00  0.00     0.157 A 
ATOM      4  C   UNL     1       7.479 -59.066 -23.558  1.00  0.00     0.051 A 
ATOM      5  C   UNL     1       8.398 -61.278 -23.132  1.00  0.00     0.161 A 
ATOM      6  C   UNL     1       8.700 -58.489 -23.205  1.00  0.00     0.012 A 
ATOM      7  C   UNL     1       9.617 -60.688 -22.780  1.00  0.00     0.058 A 
BRANCH   3   8
ATOM      8  O   UNL     1       6.139 -61.020 -23.869  1.00  0.00    -0.504 OA
ATOM      9  H   UNL     1       6.213 -61.984 -23.804  1.00  0.00     0.293 HD
ENDBRANCH   3   8
BRANCH   5  10
ATOM     10  O   UNL     1       8.146 -62.626 -23.128  1.00  0.00    -0.493 OA
ATOM     11  C   UNL     1       9.141 -63.479 -22.582  1.00  0.00     0.278 C 
ENDBRANCH   5  10
ENDBRANCH   1   2
BRANCH   1  12
ATOM     12  C   UNL     1      11.201 -57.524 -21.823  1.00  0.00     0.071 C 
BRANCH  12  13
ATOM     13  C   UNL     1      11.242 -56.318 -22.573  1.00  0.00     0.241 A 
ATOM     14  N   UNL     1      11.417 -56.224 -23.883  1.00  0.00    -0.108 NA
ATOM     15  O   UNL     1      11.100 -55.057 -22.020  1.00  0.00    -0.417 OA
ATOM     16  N   UNL     1      11.393 -54.889 -24.220  1.00  0.00    -0.107 NA
ATOM     17  C   UNL     1      11.206 -54.227 -23.098  1.00  0.00     0.251 A 
BRANCH  17  18
ATOM     18  C   UNL     1      11.101 -52.793 -22.877  1.00  0.00     0.075 A 
ATOM     19  C   UNL     1      12.197 -51.967 -23.184  1.00  0.00     0.020 A 
ATOM     20  C   UNL     1       9.944 -52.187 -22.365  1.00  0.00     0.138 A 
ATOM     21  C   UNL     1      12.132 -50.585 -22.983  1.00  0.00     0.040 A 
ATOM     22  C   UNL     1       9.872 -50.810 -22.163  1.00  0.00     0.079 A 
ATOM     23  C   UNL     1      10.968 -50.022 -22.476  1.00  0.00     0.126 A 
ATOM     24  F   UNL     1       8.865 -52.917 -22.049  1.00  0.00    -0.206 F 
ATOM     25  F   UNL     1      10.906 -48.698 -22.283  1.00  0.00    -0.207 F 
ENDBRANCH  17  18
ENDBRANCH  12  13
ENDBRANCH   1  12
TORSDOF 6
ENDMDL
MODEL 5
REMARK VINA RESULT:   -10.182      2.184      2.880
REMARK INTER + INTRA:         -13.881
REMARK INTER:                 -13.318
REMARK INTRA:                  -0.563
REMARK UNBOUND:                -0.425
REMARK SMILES COc1cc(C=Cc2nnc(-c3ccc(F)cc3F)o2)ccc1O
REMARK SMILES IDX 6 1 5 2 23 3 22 4 3 5 21 6 4 7 24 8 2 10 1 11 7 12 8 13 9 14
REMARK SMILES IDX 20 15 10 16 11 17 12 18 13 19 18 20 14 21 17 22 15 23 19 24
REMARK SMILES IDX 16 25
REMARK H PARENT 24 9
ROOT
ATOM      1  C   UNL     1      11.677 -58.631 -22.327  1.00  0.00     0.014 C 
ENDROOT
BRANCH   1   2
ATOM      2  C   UNL     1      10.866 -59.852 -22.443  1.00  0.00    -0.022 A 
ATOM      3  C   UNL     1       9.397 -62.212 -22.731  1.00  0.00     0.157 A 
ATOM      4  C   UNL     1       9.507 -61.617 -21.476  1.00  0.00     0.051 A 
ATOM      5  C   UNL     1      10.020 -61.653 -23.854  1.00  0.00     0.161 A 
ATOM      6  C   UNL     1      10.246 -60.440 -21.334  1.00  0.00     0.012 A 
ATOM      7  C   UNL     1      10.758 -60.475 -23.698  1.00  0.00     0.058 A 
BRANCH   3   8
ATOM      8  O   UNL     1       8.672 -63.366 -22.873  1.00  0.00    -0.504 OA
ATOM      9  H   UNL     1       8.963 -64.009 -22.208  1.00  0.00     0.293 HD
ENDBRANCH   3   8
BRANCH   5  10
ATOM     10  O   UNL     1       9.850 -62.326 -25.037  1.00  0.00    -0.493 OA
ATOM     11  C   UNL     1       9.516 -61.561 -26.186  1.00  0.00     0.278 C 
ENDBRANCH   5  10
ENDBRANCH   1   2
BRANCH   1  12
ATOM     12  C   UNL     1      11.264 -57.523 -21.692  1.00  0.00     0.071 C 
BRANCH  12  13
ATOM     13  C   UNL     1      10.920 -56.341 -22.403  1.00  0.00     0.241 A 
ATOM     14  N   UNL     1      10.196 -56.285 -23.511  1.00  0.00    -0.108 NA
ATOM     15  O   UNL     1      11.306 -55.068 -22.021  1.00  0.00    -0.417 OA
ATOM     16  N   UNL     1      10.090 -54.963 -23.882  1.00  0.00    -0.107 NA
ATOM     17  C   UNL     1      10.757 -54.271 -22.983  1.00  0.00     0.251 A 
BRANCH  17  18
ATOM     18  C   UNL     1      10.969 -52.834 -22.891  1.00  0.00     0.075 A 
ATOM     19  C   UNL     1      10.078 -52.055 -22.132  1.00  0.00     0.020 A 
ATOM     20  C   UNL     1      12.033 -52.182 -23.530  1.00  0.00     0.138 A 
ATOM     21  C   UNL     1      10.250 -50.672 -22.022  1.00  0.00     0.040 A 
ATOM     22  C   UNL     1      12.212 -50.804 -23.424  1.00  0.00     0.079 A 
ATOM     23  C   UNL     1      11.317 -50.062 -22.669  1.00  0.00     0.126 A 
ATOM     24  F   UNL     1      12.917 -52.867 -24.271  1.00  0.00    -0.206 F 
ATOM     25  F   UNL     1      11.482 -48.737 -22.564  1.00  0.00    -0.207 F 
ENDBRANCH  17  18
ENDBRANCH  12  13
ENDBRANCH   1  12
TORSDOF 6
ENDMDL
MODEL 6
REMARK VINA RESULT:   -10.155      3.571      8.770
REMARK INTER + INTRA:         -13.845
REMARK INTER:                 -13.323
REMARK INTRA:                  -0.522
REMARK UNBOUND:                -0.425
REMARK SMILES COc1cc(C=Cc2nnc(-c3ccc(F)cc3F)o2)ccc1O
REMARK SMILES IDX 6 1 5 2 23 3 22 4 3 5 21 6 4 7 24 8 2 10 1 11 7 12 8 13 9 14
REMARK SMILES IDX 20 15 10 16 11 17 12 18 13 19 18 20 14 21 17 22 15 23 19 24
REMARK SMILES IDX 16 25
REMARK H PARENT 24 9
ROOT
ATOM      1  C   UNL     1      10.401 -54.831 -22.569  1.00  0.00     0.014 C 
ENDROOT
BRANCH   1   2
ATOM      2  C   UNL     1      11.009 -53.493 -22.605  1.00  0.00    -0.022 A 
ATOM      3  C   UNL     1      12.140 -50.943 -22.777  1.00  0.00     0.157 A 
ATOM      4  C   UNL     1      11.395 -51.294 -21.653  1.00  0.00     0.051 A 
ATOM      5  C   UNL     1      12.324 -51.845 -23.833  1.00  0.00     0.161 A 
ATOM      6  C   UNL     1      10.827 -52.566 -21.571  1.00  0.00     0.012 A 
ATOM      7  C   UNL     1      11.749 -53.117 -23.739  1.00  0.00     0.058 A 
BRANCH   3   8
ATOM      8  O   UNL     1      12.698 -49.695 -22.858  1.00  0.00    -0.504 OA
ATOM      9  H   UNL     1      12.592 -49.241 -22.008  1.00  0.00     0.293 HD
ENDBRANCH   3   8
BRANCH   5  10
ATOM     10  O   UNL     1      13.069 -51.393 -24.892  1.00  0.00    -0.493 OA
ATOM     11  C   UNL     1      13.548 -52.357 -25.817  1.00  0.00     0.278 C 
ENDBRANCH   5  10
ENDBRANCH   1   2
BRANCH   1  12
ATOM     12  C   UNL     1      11.050 -55.931 -22.157  1.00  0.00     0.071 C 
BRANCH  12  13
ATOM     13  C   UNL     1      11.057 -57.125 -22.928  1.00  0.00     0.241 A 
ATOM     14  N   UNL     1      11.771 -57.337 -24.024  1.00  0.00    -0.108 NA
ATOM     15  O   UNL     1      10.303 -58.245 -22.627  1.00  0.00    -0.417 OA
ATOM     16  N   UNL     1      11.498 -58.612 -24.468  1.00  0.00    -0.107 NA
ATOM     17  C   UNL     1      10.627 -59.120 -23.623  1.00  0.00     0.251 A 
BRANCH  17  18
ATOM     18  C   UNL     1      10.001 -60.434 -23.617  1.00  0.00     0.075 A 
ATOM     19  C   UNL     1      10.710 -61.531 -23.097  1.00  0.00     0.020 A 
ATOM     20  C   UNL     1       8.709 -60.660 -24.112  1.00  0.00     0.138 A 
ATOM     21  C   UNL     1      10.140 -62.807 -23.076  1.00  0.00     0.040 A 
ATOM     22  C   UNL     1       8.134 -61.929 -24.093  1.00  0.00     0.079 A 
ATOM     23  C   UNL     1       8.856 -62.992 -23.574  1.00  0.00     0.126 A 
ATOM     24  F   UNL     1       7.980 -59.657 -24.624  1.00  0.00    -0.206 F 
ATOM     25  F   UNL     1       8.311 -64.215 -23.554  1.00  0.00    -0.207 F 
ENDBRANCH  17  18
ENDBRANCH  12  13
ENDBRANCH   1  12
TORSDOF 6
ENDMDL
MODEL 7
REMARK VINA RESULT:   -10.060      3.718      8.807
REMARK INTER + INTRA:         -13.719
REMARK INTER:                 -13.239
REMARK INTRA:                  -0.480
REMARK UNBOUND:                -0.425
REMARK SMILES COc1cc(C=Cc2nnc(-c3ccc(F)cc3F)o2)ccc1O
REMARK SMILES IDX 6 1 5 2 23 3 22 4 3 5 21 6 4 7 24 8 2 10 1 11 7 12 8 13 9 14
REMARK SMILES IDX 20 15 10 16 11 17 12 18 13 19 18 20 14 21 17 22 15 23 19 24
REMARK SMILES IDX 16 25
REMARK H PARENT 24 9
ROOT
ATOM      1  C   UNL     1      10.503 -54.730 -22.994  1.00  0.00     0.014 C 
ENDROOT
BRANCH   1   2
ATOM      2  C   UNL     1      11.329 -53.629 -23.512  1.00  0.00    -0.022 A 
ATOM      3  C   UNL     1      12.927 -51.513 -24.395  1.00  0.00     0.157 A 
ATOM      4  C   UNL     1      12.918 -52.714 -25.102  1.00  0.00     0.051 A 
ATOM      5  C   UNL     1      12.154 -51.350 -23.238  1.00  0.00     0.161 A 
ATOM      6  C   UNL     1      12.124 -53.771 -24.656  1.00  0.00     0.012 A 
ATOM      7  C   UNL     1      11.362 -52.417 -22.801  1.00  0.00     0.058 A 
BRANCH   3   8
ATOM      8  O   UNL     1      13.705 -50.474 -24.831  1.00  0.00    -0.504 OA
ATOM      9  H   UNL     1      13.150 -49.835 -25.303  1.00  0.00     0.293 HD
ENDBRANCH   3   8
BRANCH   5  10
ATOM     10  O   UNL     1      12.243 -50.130 -22.618  1.00  0.00    -0.493 OA
ATOM     11  C   UNL     1      11.133 -49.252 -22.733  1.00  0.00     0.278 C 
ENDBRANCH   5  10
ENDBRANCH   1   2
BRANCH   1  12
ATOM     12  C   UNL     1      11.007 -55.814 -22.383  1.00  0.00     0.071 C 
BRANCH  12  13
ATOM     13  C   UNL     1      11.098 -57.068 -23.046  1.00  0.00     0.241 A 
ATOM     14  N   UNL     1      11.878 -57.344 -24.081  1.00  0.00    -0.108 NA
ATOM     15  O   UNL     1      10.369 -58.188 -22.686  1.00  0.00    -0.417 OA
ATOM     16  N   UNL     1      11.674 -58.662 -24.425  1.00  0.00    -0.107 NA
ATOM     17  C   UNL     1      10.778 -59.131 -23.584  1.00  0.00     0.251 A 
BRANCH  17  18
ATOM     18  C   UNL     1      10.199 -60.463 -23.495  1.00  0.00     0.075 A 
ATOM     19  C   UNL     1       9.741 -61.093 -24.666  1.00  0.00     0.020 A 
ATOM     20  C   UNL     1      10.076 -61.157 -22.283  1.00  0.00     0.138 A 
ATOM     21  C   UNL     1       9.180 -62.373 -24.618  1.00  0.00     0.040 A 
ATOM     22  C   UNL     1       9.517 -62.433 -22.228  1.00  0.00     0.079 A 
ATOM     23  C   UNL     1       9.075 -63.029 -23.398  1.00  0.00     0.126 A 
ATOM     24  F   UNL     1      10.490 -60.612 -21.130  1.00  0.00    -0.206 F 
ATOM     25  F   UNL     1       8.537 -64.254 -23.353  1.00  0.00    -0.207 F 
ENDBRANCH  17  18
ENDBRANCH  12  13
ENDBRANCH   1  12
TORSDOF 6
ENDMDL
MODEL 8
REMARK VINA RESULT:    -9.998      3.052      3.776
REMARK INTER + INTRA:         -13.638
REMARK INTER:                 -13.022
REMARK INTRA:                  -0.615
REMARK UNBOUND:                -0.425
REMARK SMILES COc1cc(C=Cc2nnc(-c3ccc(F)cc3F)o2)ccc1O
REMARK SMILES IDX 6 1 5 2 23 3 22 4 3 5 21 6 4 7 24 8 2 10 1 11 7 12 8 13 9 14
REMARK SMILES IDX 20 15 10 16 11 17 12 18 13 19 18 20 14 21 17 22 15 23 19 24
REMARK SMILES IDX 16 25
REMARK H PARENT 24 9
ROOT
ATOM      1  C   UNL     1      11.040 -60.906 -23.369  1.00  0.00     0.014 C 
ENDROOT
BRANCH   1   2
ATOM      2  C   UNL     1      11.136 -60.623 -24.809  1.00  0.00    -0.022 A 
ATOM      3  C   UNL     1      11.213 -60.068 -27.547  1.00  0.00     0.157 A 
ATOM      4  C   UNL     1      12.234 -59.605 -26.719  1.00  0.00     0.051 A 
ATOM      5  C   UNL     1      10.138 -60.801 -27.028  1.00  0.00     0.161 A 
ATOM      6  C   UNL     1      12.191 -59.879 -25.351  1.00  0.00     0.012 A 
ATOM      7  C   UNL     1      10.106 -61.069 -25.655  1.00  0.00     0.058 A 
BRANCH   3   8
ATOM      8  O   UNL     1      11.254 -59.800 -28.889  1.00  0.00    -0.504 OA
ATOM      9  H   UNL     1      12.150 -59.963 -29.220  1.00  0.00     0.293 HD
ENDBRANCH   3   8
BRANCH   5  10
ATOM     10  O   UNL     1       9.187 -61.202 -27.931  1.00  0.00    -0.493 OA
ATOM     11  C   UNL     1       8.738 -62.547 -27.859  1.00  0.00     0.278 C 
ENDBRANCH   5  10
ENDBRANCH   1   2
BRANCH   1  12
ATOM     12  C   UNL     1      10.818 -59.964 -22.440  1.00  0.00     0.071 C 
BRANCH  12  13
ATOM     13  C   UNL     1      10.363 -58.664 -22.790  1.00  0.00     0.241 A 
ATOM     14  N   UNL     1       9.138 -58.352 -23.188  1.00  0.00    -0.108 NA
ATOM     15  O   UNL     1      11.157 -57.531 -22.760  1.00  0.00    -0.417 OA
ATOM     16  N   UNL     1       9.103 -56.996 -23.430  1.00  0.00    -0.107 NA
ATOM     17  C   UNL     1      10.310 -56.542 -23.168  1.00  0.00     0.251 A 
BRANCH  17  18
ATOM     18  C   UNL     1      10.827 -55.184 -23.255  1.00  0.00     0.075 A 
ATOM     19  C   UNL     1      11.648 -54.829 -24.339  1.00  0.00     0.020 A 
ATOM     20  C   UNL     1      10.541 -54.202 -22.297  1.00  0.00     0.138 A 
ATOM     21  C   UNL     1      12.163 -53.534 -24.455  1.00  0.00     0.040 A 
ATOM     22  C   UNL     1      11.050 -52.908 -22.405  1.00  0.00     0.079 A 
ATOM     23  C   UNL     1      11.856 -52.587 -23.486  1.00  0.00     0.126 A 
ATOM     24  F   UNL     1       9.767 -54.475 -21.236  1.00  0.00    -0.206 F 
ATOM     25  F   UNL     1      12.349 -51.347 -23.596  1.00  0.00    -0.207 F 
ENDBRANCH  17  18
ENDBRANCH  12  13
ENDBRANCH   1  12
TORSDOF 6
ENDMDL
MODEL 9
REMARK VINA RESULT:    -9.899      3.796      9.115
REMARK INTER + INTRA:         -13.506
REMARK INTER:                 -12.974
REMARK INTRA:                  -0.532
REMARK UNBOUND:                -0.425
REMARK SMILES COc1cc(C=Cc2nnc(-c3ccc(F)cc3F)o2)ccc1O
REMARK SMILES IDX 6 1 5 2 23 3 22 4 3 5 21 6 4 7 24 8 2 10 1 11 7 12 8 13 9 14
REMARK SMILES IDX 20 15 10 16 11 17 12 18 13 19 18 20 14 21 17 22 15 23 19 24
REMARK SMILES IDX 16 25
REMARK H PARENT 24 9
ROOT
ATOM      1  C   UNL     1      11.384 -54.065 -23.972  1.00  0.00     0.014 C 
ENDROOT
BRANCH   1   2
ATOM      2  C   UNL     1      11.675 -52.779 -23.321  1.00  0.00    -0.022 A 
ATOM      3  C   UNL     1      12.231 -50.290 -22.178  1.00  0.00     0.157 A 
ATOM      4  C   UNL     1      11.301 -51.134 -21.575  1.00  0.00     0.051 A 
ATOM      5  C   UNL     1      12.887 -50.663 -23.359  1.00  0.00     0.161 A 
ATOM      6  C   UNL     1      11.021 -52.375 -22.149  1.00  0.00     0.012 A 
ATOM      7  C   UNL     1      12.597 -51.908 -23.926  1.00  0.00     0.058 A 
BRANCH   3   8
ATOM      8  O   UNL     1      12.508 -49.072 -21.616  1.00  0.00    -0.504 OA
ATOM      9  H   UNL     1      12.649 -48.420 -22.319  1.00  0.00     0.293 HD
ENDBRANCH   3   8
BRANCH   5  10
ATOM     10  O   UNL     1      13.777 -49.753 -23.870  1.00  0.00    -0.493 OA
ATOM     11  C   UNL     1      13.322 -48.903 -24.912  1.00  0.00     0.278 C 
ENDBRANCH   5  10
ENDBRANCH   1   2
BRANCH   1  12
ATOM     12  C   UNL     1      10.371 -54.868 -23.611  1.00  0.00     0.071 C 
BRANCH  12  13
ATOM     13  C   UNL     1      10.601 -56.124 -22.987  1.00  0.00     0.241 A 
ATOM     14  N   UNL     1      11.245 -56.317 -21.846  1.00  0.00    -0.108 NA
ATOM     15  O   UNL     1      10.173 -57.335 -23.504  1.00  0.00    -0.417 OA
ATOM     16  N   UNL     1      11.253 -57.670 -21.587  1.00  0.00    -0.107 NA
ATOM     17  C   UNL     1      10.613 -58.242 -22.584  1.00  0.00     0.251 A 
BRANCH  17  18
ATOM     18  C   UNL     1      10.329 -59.650 -22.816  1.00  0.00     0.075 A 
ATOM     19  C   UNL     1       9.019 -60.127 -22.637  1.00  0.00     0.020 A 
ATOM     20  C   UNL     1      11.314 -60.566 -23.215  1.00  0.00     0.138 A 
ATOM     21  C   UNL     1       8.710 -61.473 -22.850  1.00  0.00     0.040 A 
ATOM     22  C   UNL     1      11.013 -61.910 -23.430  1.00  0.00     0.079 A 
ATOM     23  C   UNL     1       9.712 -62.351 -23.246  1.00  0.00     0.126 A 
ATOM     24  F   UNL     1      12.584 -60.178 -23.400  1.00  0.00    -0.206 F 
ATOM     25  F   UNL     1       9.416 -63.641 -23.450  1.00  0.00    -0.207 F 
ENDBRANCH  17  18
ENDBRANCH  12  13
ENDBRANCH   1  12
TORSDOF 6
ENDMDL
