MODEL 1
REMARK VINA RESULT:   -10.059      0.000      0.000
REMARK INTER + INTRA:         -10.353
REMARK INTER:                 -10.353
REMARK INTRA:                   0.000
REMARK UNBOUND:                 0.000
REMARK SMILES CC1=C[C@@H]2Cc3nc4cc(Cl)ccc4c(N)c3[C@H](C1)C2
REMARK SMILES IDX 1 1 2 2 3 3 4 4 5 5 6 6 7 7 8 8 9 9 10 10 11 11 12 12 13 13
REMARK SMILES IDX 14 14 15 15 17 16 18 17 19 18 20 19 16 20
REMARK H PARENT 16 21 16 22
ROOT
ATOM      1  C   UNL     1       7.101 -58.252 -23.312  1.00  0.00     0.039 C 
ATOM      2  C   UNL     1       8.550 -58.582 -23.090  1.00  0.00    -0.076 C 
ATOM      3  C   UNL     1       9.486 -57.632 -23.119  1.00  0.00    -0.024 C 
ATOM      4  C   UNL     1      11.905 -58.943 -22.101  1.00  0.00     0.018 C 
ATOM      5  C   UNL     1      11.231 -58.350 -23.293  1.00  0.00     0.064 C 
ATOM      6  C   UNL     1      10.454 -59.517 -23.780  1.00  0.00     0.047 A 
ATOM      7  N   UNL     1      10.470 -59.723 -25.108  1.00  0.00    -0.252 NA
ATOM      8  C   UNL     1       9.810 -60.742 -25.679  1.00  0.00     0.074 A 
ATOM      9  C   UNL     1       9.879 -60.883 -27.053  1.00  0.00     0.049 A 
ATOM     10  C   UNL     1       9.197 -61.932 -27.620  1.00  0.00     0.043 A 
ATOM     11  Cl  UNL     1       9.175 -62.259 -29.353  1.00  0.00    -0.084 Cl
ATOM     12  C   UNL     1       8.459 -62.829 -26.856  1.00  0.00     0.021 A 
ATOM     13  C   UNL     1       8.387 -62.694 -25.493  1.00  0.00     0.014 A 
ATOM     14  C   UNL     1       9.076 -61.637 -24.938  1.00  0.00     0.024 A 
ATOM     15  C   UNL     1       9.062 -61.425 -23.586  1.00  0.00     0.046 A 
ATOM     16  C   UNL     1       9.740 -60.378 -22.994  1.00  0.00     0.001 A 
ATOM     17  C   UNL     1       9.776 -60.076 -21.533  1.00  0.00     0.028 C 
ATOM     18  C   UNL     1       8.998 -59.993 -22.828  1.00  0.00     0.039 C 
ATOM     19  C   UNL     1      10.916 -59.210 -20.992  1.00  0.00     0.017 C 
ENDROOT
BRANCH  15  20
ATOM     20  N   UNL     1       8.340 -62.281 -22.707  1.00  0.00    -0.398 N 
ATOM     21  H   UNL     1       7.337 -62.190 -23.049  1.00  0.00     0.156 HD
ATOM     22  H   UNL     1       8.424 -62.930 -21.897  1.00  0.00     0.156 HD
ENDBRANCH  15  20
TORSDOF 1
ENDMDL
MODEL 2
REMARK VINA RESULT:    -9.875      2.827      5.165
REMARK INTER + INTRA:         -10.164
REMARK INTER:                 -10.164
REMARK INTRA:                   0.000
REMARK UNBOUND:                 0.000
REMARK SMILES CC1=C[C@@H]2Cc3nc4cc(Cl)ccc4c(N)c3[C@H](C1)C2
REMARK SMILES IDX 1 1 2 2 3 3 4 4 5 5 6 6 7 7 8 8 9 9 10 10 11 11 12 12 13 13
REMARK SMILES IDX 14 14 15 15 17 16 18 17 19 18 20 19 16 20
REMARK H PARENT 16 21 16 22
ROOT
ATOM      1  C   UNL     1      10.179 -60.486 -26.734  1.00  0.00     0.039 C 
ATOM      2  C   UNL     1       9.799 -60.925 -25.348  1.00  0.00    -0.076 C 
ATOM      3  C   UNL     1       8.611 -61.481 -25.103  1.00  0.00    -0.024 C 
ATOM      4  C   UNL     1       8.829 -62.518 -22.367  1.00  0.00     0.018 C 
ATOM      5  C   UNL     1       8.197 -61.498 -23.254  1.00  0.00     0.064 C 
ATOM      6  C   UNL     1       9.237 -60.440 -23.245  1.00  0.00     0.047 A 
ATOM      7  N   UNL     1       8.795 -59.178 -23.113  1.00  0.00    -0.252 NA
ATOM      8  C   UNL     1       9.630 -58.129 -23.089  1.00  0.00     0.074 A 
ATOM      9  C   UNL     1       9.092 -56.862 -22.950  1.00  0.00     0.049 A 
ATOM     10  C   UNL     1       9.962 -55.800 -22.928  1.00  0.00     0.043 A 
ATOM     11  Cl  UNL     1       9.449 -54.121 -22.758  1.00  0.00    -0.084 Cl
ATOM     12  C   UNL     1      11.337 -55.972 -23.041  1.00  0.00     0.021 A 
ATOM     13  C   UNL     1      11.877 -57.226 -23.180  1.00  0.00     0.014 A 
ATOM     14  C   UNL     1      10.992 -58.282 -23.200  1.00  0.00     0.024 A 
ATOM     15  C   UNL     1      11.440 -59.568 -23.334  1.00  0.00     0.046 A 
ATOM     16  C   UNL     1      10.584 -60.651 -23.359  1.00  0.00     0.001 A 
ATOM     17  C   UNL     1      10.988 -62.080 -23.501  1.00  0.00     0.028 C 
ATOM     18  C   UNL     1      10.742 -60.756 -24.189  1.00  0.00     0.039 C 
ATOM     19  C   UNL     1      10.013 -63.167 -23.041  1.00  0.00     0.017 C 
ENDROOT
BRANCH  15  20
ATOM     20  N   UNL     1      12.827 -59.862 -23.457  1.00  0.00    -0.398 N 
ATOM     21  H   UNL     1      13.143 -59.972 -22.447  1.00  0.00     0.156 HD
ATOM     22  H   UNL     1      13.607 -60.004 -24.132  1.00  0.00     0.156 HD
ENDBRANCH  15  20
TORSDOF 1
ENDMDL
MODEL 3
REMARK VINA RESULT:    -9.806      2.150      3.417
REMARK INTER + INTRA:         -10.092
REMARK INTER:                 -10.092
REMARK INTRA:                   0.000
REMARK UNBOUND:                 0.000
REMARK SMILES CC1=C[C@@H]2Cc3nc4cc(Cl)ccc4c(N)c3[C@H](C1)C2
REMARK SMILES IDX 1 1 2 2 3 3 4 4 5 5 6 6 7 7 8 8 9 9 10 10 11 11 12 12 13 13
REMARK SMILES IDX 14 14 15 15 17 16 18 17 19 18 20 19 16 20
REMARK H PARENT 16 21 16 22
ROOT
ATOM      1  C   UNL     1      10.417 -62.722 -23.263  1.00  0.00     0.039 C 
ATOM      2  C   UNL     1      10.411 -61.225 -23.124  1.00  0.00    -0.076 C 
ATOM      3  C   UNL     1       9.293 -60.566 -22.817  1.00  0.00    -0.024 C 
ATOM      4  C   UNL     1      10.183 -57.835 -22.220  1.00  0.00     0.018 C 
ATOM      5  C   UNL     1       9.437 -58.710 -23.170  1.00  0.00     0.064 C 
ATOM      6  C   UNL     1      10.545 -59.192 -24.031  1.00  0.00     0.047 A 
ATOM      7  N   UNL     1      10.303 -59.206 -25.353  1.00  0.00    -0.252 NA
ATOM      8  C   UNL     1      11.219 -59.618 -26.241  1.00  0.00     0.074 A 
ATOM      9  C   UNL     1      10.889 -59.600 -27.584  1.00  0.00     0.049 A 
ATOM     10  C   UNL     1      11.839 -60.027 -28.479  1.00  0.00     0.043 A 
ATOM     11  Cl  UNL     1      11.587 -60.071 -30.225  1.00  0.00    -0.084 Cl
ATOM     12  C   UNL     1      13.093 -60.463 -28.069  1.00  0.00     0.021 A 
ATOM     13  C   UNL     1      13.427 -60.484 -26.738  1.00  0.00     0.014 A 
ATOM     14  C   UNL     1      12.463 -60.053 -25.851  1.00  0.00     0.024 A 
ATOM     15  C   UNL     1      12.708 -60.038 -24.505  1.00  0.00     0.046 A 
ATOM     16  C   UNL     1      11.768 -59.614 -23.587  1.00  0.00     0.001 A 
ATOM     17  C   UNL     1      11.952 -59.566 -22.107  1.00  0.00     0.028 C 
ATOM     18  C   UNL     1      11.664 -60.418 -23.324  1.00  0.00     0.039 C 
ATOM     19  C   UNL     1      11.040 -58.653 -21.284  1.00  0.00     0.017 C 
ENDROOT
BRANCH  15  20
ATOM     20  N   UNL     1      13.957 -60.463 -23.972  1.00  0.00    -0.398 N 
ATOM     21  H   UNL     1      14.348 -61.089 -24.738  1.00  0.00     0.156 HD
ATOM     22  H   UNL     1      14.599 -60.392 -23.155  1.00  0.00     0.156 HD
ENDBRANCH  15  20
TORSDOF 1
ENDMDL
MODEL 4
REMARK VINA RESULT:    -9.077      2.500      3.430
REMARK INTER + INTRA:          -9.342
REMARK INTER:                  -9.342
REMARK INTRA:                   0.000
REMARK UNBOUND:                 0.000
REMARK SMILES CC1=C[C@@H]2Cc3nc4cc(Cl)ccc4c(N)c3[C@H](C1)C2
REMARK SMILES IDX 1 1 2 2 3 3 4 4 5 5 6 6 7 7 8 8 9 9 10 10 11 11 12 12 13 13
REMARK SMILES IDX 14 14 15 15 17 16 18 17 19 18 20 19 16 20
REMARK H PARENT 16 21 16 22
ROOT
ATOM      1  C   UNL     1      11.647 -59.358 -25.807  1.00  0.00     0.039 C 
ATOM      2  C   UNL     1      11.437 -59.057 -24.349  1.00  0.00    -0.076 C 
ATOM      3  C   UNL     1      12.453 -59.088 -23.485  1.00  0.00    -0.024 C 
ATOM      4  C   UNL     1      11.372 -57.904 -21.028  1.00  0.00     0.018 C 
ATOM      5  C   UNL     1      11.862 -59.150 -21.686  1.00  0.00     0.064 C 
ATOM      6  C   UNL     1      10.621 -59.618 -22.351  1.00  0.00     0.047 A 
ATOM      7  N   UNL     1      10.360 -60.933 -22.256  1.00  0.00    -0.252 NA
ATOM      8  C   UNL     1       9.272 -61.486 -22.811  1.00  0.00     0.074 A 
ATOM      9  C   UNL     1       9.078 -62.848 -22.667  1.00  0.00     0.049 A 
ATOM     10  C   UNL     1       7.958 -63.397 -23.242  1.00  0.00     0.043 A 
ATOM     11  Cl  UNL     1       7.557 -65.112 -23.157  1.00  0.00    -0.084 Cl
ATOM     12  C   UNL     1       7.041 -62.626 -23.948  1.00  0.00     0.021 A 
ATOM     13  C   UNL     1       7.227 -61.275 -24.095  1.00  0.00     0.014 A 
ATOM     14  C   UNL     1       8.355 -60.738 -23.512  1.00  0.00     0.024 A 
ATOM     15  C   UNL     1       8.622 -59.399 -23.607  1.00  0.00     0.046 A 
ATOM     16  C   UNL     1       9.741 -58.826 -23.037  1.00  0.00     0.001 A 
ATOM     17  C   UNL     1      10.107 -57.381 -23.093  1.00  0.00     0.028 C 
ATOM     18  C   UNL     1      10.076 -58.711 -23.812  1.00  0.00     0.039 C 
ATOM     19  C   UNL     1      11.078 -56.829 -22.047  1.00  0.00     0.017 C 
ENDROOT
BRANCH  15  20
ATOM     20  N   UNL     1       7.752 -58.516 -24.305  1.00  0.00    -0.398 N 
ATOM     21  H   UNL     1       7.405 -57.863 -23.541  1.00  0.00     0.156 HD
ATOM     22  H   UNL     1       7.350 -58.282 -25.237  1.00  0.00     0.156 HD
ENDBRANCH  15  20
TORSDOF 1
ENDMDL
MODEL 5
REMARK VINA RESULT:    -8.971      8.239     10.494
REMARK INTER + INTRA:          -9.233
REMARK INTER:                  -9.233
REMARK INTRA:                   0.000
REMARK UNBOUND:                 0.000
REMARK SMILES CC1=C[C@@H]2Cc3nc4cc(Cl)ccc4c(N)c3[C@H](C1)C2
REMARK SMILES IDX 1 1 2 2 3 3 4 4 5 5 6 6 7 7 8 8 9 9 10 10 11 11 12 12 13 13
REMARK SMILES IDX 14 14 15 15 17 16 18 17 19 18 20 19 16 20
REMARK H PARENT 16 21 16 22
ROOT
ATOM      1  C   UNL     1      15.996 -50.781 -22.938  1.00  0.00     0.039 C 
ATOM      2  C   UNL     1      14.778 -50.000 -23.346  1.00  0.00    -0.076 C 
ATOM      3  C   UNL     1      14.320 -48.997 -22.597  1.00  0.00    -0.024 C 
ATOM      4  C   UNL     1      12.309 -47.677 -24.277  1.00  0.00     0.018 C 
ATOM      5  C   UNL     1      12.549 -48.507 -23.061  1.00  0.00     0.064 C 
ATOM      6  C   UNL     1      12.573 -49.867 -23.654  1.00  0.00     0.047 A 
ATOM      7  N   UNL     1      11.905 -50.818 -22.980  1.00  0.00    -0.252 NA
ATOM      8  C   UNL     1      11.847 -52.088 -23.407  1.00  0.00     0.074 A 
ATOM      9  C   UNL     1      11.137 -53.005 -22.654  1.00  0.00     0.049 A 
ATOM     10  C   UNL     1      11.089 -54.301 -23.106  1.00  0.00     0.043 A 
ATOM     11  Cl  UNL     1      10.232 -55.596 -22.271  1.00  0.00    -0.084 Cl
ATOM     12  C   UNL     1      11.725 -54.694 -24.278  1.00  0.00     0.021 A 
ATOM     13  C   UNL     1      12.431 -53.790 -25.030  1.00  0.00     0.014 A 
ATOM     14  C   UNL     1      12.470 -52.494 -24.563  1.00  0.00     0.024 A 
ATOM     15  C   UNL     1      13.150 -51.524 -25.249  1.00  0.00     0.046 A 
ATOM     16  C   UNL     1      13.212 -50.215 -24.813  1.00  0.00     0.001 A 
ATOM     17  C   UNL     1      13.929 -49.100 -25.497  1.00  0.00     0.028 C 
ATOM     18  C   UNL     1      14.033 -50.322 -24.612  1.00  0.00     0.039 C 
ATOM     19  C   UNL     1      13.523 -47.660 -25.174  1.00  0.00     0.017 C 
ENDROOT
BRANCH  15  20
ATOM     20  N   UNL     1      13.838 -51.814 -26.460  1.00  0.00    -0.398 N 
ATOM     21  H   UNL     1      13.077 -51.725 -27.199  1.00  0.00     0.156 HD
ATOM     22  H   UNL     1      14.760 -52.067 -26.873  1.00  0.00     0.156 HD
ENDBRANCH  15  20
TORSDOF 1
ENDMDL
MODEL 6
REMARK VINA RESULT:    -8.245      1.829      3.451
REMARK INTER + INTRA:          -8.486
REMARK INTER:                  -8.486
REMARK INTRA:                   0.000
REMARK UNBOUND:                 0.000
REMARK SMILES CC1=C[C@@H]2Cc3nc4cc(Cl)ccc4c(N)c3[C@H](C1)C2
REMARK SMILES IDX 1 1 2 2 3 3 4 4 5 5 6 6 7 7 8 8 9 9 10 10 11 11 12 12 13 13
REMARK SMILES IDX 14 14 15 15 17 16 18 17 19 18 20 19 16 20
REMARK H PARENT 16 21 16 22
ROOT
ATOM      1  C   UNL     1      13.563 -61.064 -24.250  1.00  0.00     0.039 C 
ATOM      2  C   UNL     1      12.533 -60.042 -23.858  1.00  0.00    -0.076 C 
ATOM      3  C   UNL     1      12.364 -59.689 -22.583  1.00  0.00    -0.024 C 
ATOM      4  C   UNL     1      10.609 -57.340 -22.693  1.00  0.00     0.018 C 
ATOM      5  C   UNL     1      10.727 -58.775 -22.305  1.00  0.00     0.064 C 
ATOM      6  C   UNL     1      10.403 -59.438 -23.593  1.00  0.00     0.047 A 
ATOM      7  N   UNL     1       9.577 -60.495 -23.522  1.00  0.00    -0.252 NA
ATOM      8  C   UNL     1       9.204 -61.183 -24.611  1.00  0.00     0.074 A 
ATOM      9  C   UNL     1       8.351 -62.259 -24.450  1.00  0.00     0.049 A 
ATOM     10  C   UNL     1       7.980 -62.952 -25.576  1.00  0.00     0.043 A 
ATOM     11  Cl  UNL     1       6.901 -64.348 -25.554  1.00  0.00    -0.084 Cl
ATOM     12  C   UNL     1       8.436 -62.599 -26.841  1.00  0.00     0.021 A 
ATOM     13  C   UNL     1       9.283 -61.533 -27.008  1.00  0.00     0.014 A 
ATOM     14  C   UNL     1       9.646 -60.847 -25.868  1.00  0.00     0.024 A 
ATOM     15  C   UNL     1      10.487 -59.769 -25.938  1.00  0.00     0.046 A 
ATOM     16  C   UNL     1      10.873 -59.058 -24.820  1.00  0.00     0.001 A 
ATOM     17  C   UNL     1      11.783 -57.876 -24.808  1.00  0.00     0.028 C 
ATOM     18  C   UNL     1      11.659 -59.381 -24.887  1.00  0.00     0.039 C 
ATOM     19  C   UNL     1      11.738 -56.928 -23.607  1.00  0.00     0.017 C 
ENDROOT
BRANCH  15  20
ATOM     20  N   UNL     1      11.014 -59.318 -27.181  1.00  0.00    -0.398 N 
ATOM     21  H   UNL     1      10.540 -59.952 -27.891  1.00  0.00     0.156 HD
ATOM     22  H   UNL     1      11.658 -58.634 -27.631  1.00  0.00     0.156 HD
ENDBRANCH  15  20
TORSDOF 1
ENDMDL
MODEL 7
REMARK VINA RESULT:    -8.122     10.012     12.379
REMARK INTER + INTRA:          -8.359
REMARK INTER:                  -8.359
REMARK INTRA:                   0.000
REMARK UNBOUND:                 0.000
REMARK SMILES CC1=C[C@@H]2Cc3nc4cc(Cl)ccc4c(N)c3[C@H](C1)C2
REMARK SMILES IDX 1 1 2 2 3 3 4 4 5 5 6 6 7 7 8 8 9 9 10 10 11 11 12 12 13 13
REMARK SMILES IDX 14 14 15 15 17 16 18 17 19 18 20 19 16 20
REMARK H PARENT 16 21 16 22
ROOT
ATOM      1  C   UNL     1      14.496 -47.587 -21.290  1.00  0.00     0.039 C 
ATOM      2  C   UNL     1      13.269 -47.206 -22.071  1.00  0.00    -0.076 C 
ATOM      3  C   UNL     1      12.362 -46.370 -21.564  1.00  0.00    -0.024 C 
ATOM      4  C   UNL     1      10.604 -45.726 -23.823  1.00  0.00     0.018 C 
ATOM      5  C   UNL     1      10.723 -46.431 -22.513  1.00  0.00     0.064 C 
ATOM      6  C   UNL     1      11.288 -47.732 -22.949  1.00  0.00     0.047 A 
ATOM      7  N   UNL     1      10.753 -48.827 -22.383  1.00  0.00    -0.252 NA
ATOM      8  C   UNL     1      11.172 -50.064 -22.689  1.00  0.00     0.074 A 
ATOM      9  C   UNL     1      10.567 -51.137 -22.061  1.00  0.00     0.049 A 
ATOM     10  C   UNL     1      11.009 -52.397 -22.386  1.00  0.00     0.043 A 
ATOM     11  Cl  UNL     1      10.352 -53.875 -21.681  1.00  0.00    -0.084 Cl
ATOM     12  C   UNL     1      12.026 -52.604 -23.311  1.00  0.00     0.021 A 
ATOM     13  C   UNL     1      12.630 -51.543 -23.937  1.00  0.00     0.014 A 
ATOM     14  C   UNL     1      12.176 -50.286 -23.601  1.00  0.00     0.024 A 
ATOM     15  C   UNL     1      12.719 -49.169 -24.176  1.00  0.00     0.046 A 
ATOM     16  C   UNL     1      12.291 -47.894 -23.865  1.00  0.00     0.001 A 
ATOM     17  C   UNL     1      12.827 -46.627 -24.443  1.00  0.00     0.028 C 
ATOM     18  C   UNL     1      13.021 -47.751 -23.450  1.00  0.00     0.039 C 
ATOM     19  C   UNL     1      11.963 -45.366 -24.373  1.00  0.00     0.017 C 
ENDROOT
BRANCH  15  20
ATOM     20  N   UNL     1      13.765 -49.262 -25.136  1.00  0.00    -0.398 N 
ATOM     21  H   UNL     1      13.410 -48.664 -25.942  1.00  0.00     0.156 HD
ATOM     22  H   UNL     1      14.700 -49.675 -25.335  1.00  0.00     0.156 HD
ENDBRANCH  15  20
TORSDOF 1
ENDMDL
MODEL 8
REMARK VINA RESULT:    -7.923     10.463     12.885
REMARK INTER + INTRA:          -8.155
REMARK INTER:                  -8.155
REMARK INTRA:                   0.000
REMARK UNBOUND:                 0.000
REMARK SMILES CC1=C[C@@H]2Cc3nc4cc(Cl)ccc4c(N)c3[C@H](C1)C2
REMARK SMILES IDX 1 1 2 2 3 3 4 4 5 5 6 6 7 7 8 8 9 9 10 10 11 11 12 12 13 13
REMARK SMILES IDX 14 14 15 15 17 16 18 17 19 18 20 19 16 20
REMARK H PARENT 16 21 16 22
ROOT
ATOM      1  C   UNL     1      15.843 -48.948 -22.393  1.00  0.00     0.039 C 
ATOM      2  C   UNL     1      15.033 -49.556 -23.503  1.00  0.00    -0.076 C 
ATOM      3  C   UNL     1      15.541 -49.699 -24.728  1.00  0.00    -0.024 C 
ATOM      4  C   UNL     1      13.607 -51.393 -26.140  1.00  0.00     0.018 C 
ATOM      5  C   UNL     1      14.201 -50.030 -26.026  1.00  0.00     0.064 C 
ATOM      6  C   UNL     1      13.348 -49.445 -24.961  1.00  0.00     0.047 A 
ATOM      7  N   UNL     1      12.931 -48.184 -25.164  1.00  0.00    -0.252 NA
ATOM      8  C   UNL     1      12.156 -47.538 -24.281  1.00  0.00     0.074 A 
ATOM      9  C   UNL     1      11.771 -46.242 -24.567  1.00  0.00     0.049 A 
ATOM     10  C   UNL     1      10.977 -45.596 -23.651  1.00  0.00     0.043 A 
ATOM     11  Cl  UNL     1      10.395 -43.943 -23.855  1.00  0.00    -0.084 Cl
ATOM     12  C   UNL     1      10.566 -46.208 -22.473  1.00  0.00     0.021 A 
ATOM     13  C   UNL     1      10.945 -47.494 -22.182  1.00  0.00     0.014 A 
ATOM     14  C   UNL     1      11.741 -48.130 -23.111  1.00  0.00     0.024 A 
ATOM     15  C   UNL     1      12.167 -49.414 -22.906  1.00  0.00     0.046 A 
ATOM     16  C   UNL     1      12.965 -50.083 -23.813  1.00  0.00     0.001 A 
ATOM     17  C   UNL     1      13.472 -51.478 -23.668  1.00  0.00     0.028 C 
ATOM     18  C   UNL     1      13.623 -50.025 -23.275  1.00  0.00     0.039 C 
ATOM     19  C   UNL     1      13.923 -52.229 -24.923  1.00  0.00     0.017 C 
ENDROOT
BRANCH  15  20
ATOM     20  N   UNL     1      11.807 -50.138 -21.736  1.00  0.00    -0.398 N 
ATOM     21  H   UNL     1      12.737 -50.521 -21.390  1.00  0.00     0.156 HD
ATOM     22  H   UNL     1      11.013 -50.418 -21.122  1.00  0.00     0.156 HD
ENDBRANCH  15  20
TORSDOF 1
ENDMDL
MODEL 9
REMARK VINA RESULT:    -7.629      9.603     11.888
REMARK INTER + INTRA:          -7.852
REMARK INTER:                  -7.852
REMARK INTRA:                   0.000
REMARK UNBOUND:                 0.000
REMARK SMILES CC1=C[C@@H]2Cc3nc4cc(Cl)ccc4c(N)c3[C@H](C1)C2
REMARK SMILES IDX 1 1 2 2 3 3 4 4 5 5 6 6 7 7 8 8 9 9 10 10 11 11 12 12 13 13
REMARK SMILES IDX 14 14 15 15 17 16 18 17 19 18 20 19 16 20
REMARK H PARENT 16 21 16 22
ROOT
ATOM      1  C   UNL     1      14.363 -49.898 -27.390  1.00  0.00     0.039 C 
ATOM      2  C   UNL     1      14.087 -50.394 -25.998  1.00  0.00    -0.076 C 
ATOM      3  C   UNL     1      13.387 -49.663 -25.131  1.00  0.00    -0.024 C 
ATOM      4  C   UNL     1      12.840 -51.483 -22.897  1.00  0.00     0.018 C 
ATOM      5  C   UNL     1      13.589 -50.275 -23.349  1.00  0.00     0.064 C 
ATOM      6  C   UNL     1      14.794 -50.903 -23.945  1.00  0.00     0.047 A 
ATOM      7  N   UNL     1      15.969 -50.322 -23.651  1.00  0.00    -0.252 NA
ATOM      8  C   UNL     1      17.134 -50.789 -24.123  1.00  0.00     0.074 A 
ATOM      9  C   UNL     1      18.299 -50.132 -23.772  1.00  0.00     0.049 A 
ATOM     10  C   UNL     1      19.482 -50.625 -24.266  1.00  0.00     0.043 A 
ATOM     11  Cl  UNL     1      21.057 -49.911 -23.920  1.00  0.00    -0.084 Cl
ATOM     12  C   UNL     1      19.526 -51.743 -25.090  1.00  0.00     0.021 A 
ATOM     13  C   UNL     1      18.375 -52.400 -25.443  1.00  0.00     0.014 A 
ATOM     14  C   UNL     1      17.195 -51.894 -24.940  1.00  0.00     0.024 A 
ATOM     15  C   UNL     1      15.997 -52.484 -25.238  1.00  0.00     0.046 A 
ATOM     16  C   UNL     1      14.795 -52.007 -24.754  1.00  0.00     0.001 A 
ATOM     17  C   UNL     1      13.449 -52.588 -25.029  1.00  0.00     0.028 C 
ATOM     18  C   UNL     1      14.590 -51.733 -25.534  1.00  0.00     0.039 C 
ATOM     19  C   UNL     1      12.300 -52.262 -24.072  1.00  0.00     0.017 C 
ENDROOT
BRANCH  15  20
ATOM     20  N   UNL     1      15.923 -53.635 -26.072  1.00  0.00    -0.398 N 
ATOM     21  H   UNL     1      15.960 -54.441 -25.379  1.00  0.00     0.156 HD
ATOM     22  H   UNL     1      15.849 -53.965 -27.057  1.00  0.00     0.156 HD
ENDBRANCH  15  20
TORSDOF 1
ENDMDL
