MODEL 1
REMARK VINA RESULT:   -13.199      0.000      0.000
REMARK INTER + INTRA:         -17.140
REMARK INTER:                 -16.285
REMARK INTRA:                  -0.855
REMARK UNBOUND:                -0.855
REMARK SMILES O=C(Nc1ccc2c(c1)CN(C(=O)c1ccccc1)C(=O)C2)c1ccccc1
REMARK SMILES IDX 4 1 5 2 6 3 7 4 8 5 9 6 10 7 11 8 20 9 21 10 22 11 3 12 2 13
REMARK SMILES IDX 1 14 23 16 24 17 28 18 25 19 27 20 26 21 12 22 13 23 14 24
REMARK SMILES IDX 15 25 19 26 16 27 18 28 17 29
REMARK H PARENT 3 15
ROOT
ATOM      1  C   UNL     1      10.763 -56.969 -22.473  1.00  0.00     0.041 A 
ATOM      2  C   UNL     1      11.552 -57.648 -21.535  1.00  0.00     0.026 A 
ATOM      3  C   UNL     1      11.275 -58.973 -21.191  1.00  0.00     0.007 A 
ATOM      4  C   UNL     1      10.208 -59.643 -21.792  1.00  0.00    -0.033 A 
ATOM      5  C   UNL     1       9.412 -58.973 -22.726  1.00  0.00    -0.022 A 
ATOM      6  C   UNL     1       9.685 -57.638 -23.056  1.00  0.00     0.032 A 
ATOM      7  C   UNL     1       8.237 -59.707 -23.309  1.00  0.00     0.164 C 
ATOM      8  N   UNL     1       8.543 -61.110 -23.541  1.00  0.00    -0.274 N 
ATOM      9  C   UNL     1       9.112 -61.839 -22.497  1.00  0.00     0.234 C 
ATOM     10  O   UNL     1       9.054 -63.066 -22.402  1.00  0.00    -0.274 OA
ATOM     11  C   UNL     1       9.849 -61.053 -21.419  1.00  0.00     0.136 C 
ENDROOT
BRANCH   1  12
ATOM     12  N   UNL     1      11.105 -55.630 -22.753  1.00  0.00    -0.322 N 
ATOM     13  C   UNL     1      10.492 -54.489 -22.268  1.00  0.00     0.255 C 
ATOM     14  O   UNL     1       9.494 -54.436 -21.559  1.00  0.00    -0.269 OA
ATOM     15  H   UNL     1      11.834 -55.499 -23.442  1.00  0.00     0.170 HD
BRANCH  13  16
ATOM     16  C   UNL     1      11.112 -53.208 -22.713  1.00  0.00     0.040 A 
ATOM     17  C   UNL     1      11.949 -53.147 -23.837  1.00  0.00     0.014 A 
ATOM     18  C   UNL     1      10.867 -52.051 -21.964  1.00  0.00     0.014 A 
ATOM     19  C   UNL     1      12.510 -51.927 -24.219  1.00  0.00     0.001 A 
ATOM     20  C   UNL     1      11.430 -50.834 -22.352  1.00  0.00     0.001 A 
ATOM     21  C   UNL     1      12.247 -50.773 -23.481  1.00  0.00     0.000 A 
ENDBRANCH  13  16
ENDBRANCH   1  12
BRANCH   8  22
ATOM     22  C   UNL     1       7.709 -61.743 -24.466  1.00  0.00     0.260 C 
ATOM     23  O   UNL     1       6.538 -62.028 -24.217  1.00  0.00    -0.269 OA
BRANCH  22  24
ATOM     24  C   UNL     1       8.254 -62.064 -25.815  1.00  0.00     0.040 A 
ATOM     25  C   UNL     1       7.722 -63.156 -26.514  1.00  0.00     0.014 A 
ATOM     26  C   UNL     1       9.227 -61.259 -26.423  1.00  0.00     0.014 A 
ATOM     27  C   UNL     1       8.181 -63.458 -27.796  1.00  0.00     0.001 A 
ATOM     28  C   UNL     1       9.684 -61.567 -27.707  1.00  0.00     0.001 A 
ATOM     29  C   UNL     1       9.163 -62.666 -28.390  1.00  0.00     0.000 A 
ENDBRANCH  22  24
ENDBRANCH   8  22
TORSDOF 4
ENDMDL
MODEL 2
REMARK VINA RESULT:   -11.789      1.516      1.918
REMARK INTER + INTRA:         -15.401
REMARK INTER:                 -14.860
REMARK INTRA:                  -0.541
REMARK UNBOUND:                -0.855
REMARK SMILES O=C(Nc1ccc2c(c1)CN(C(=O)c1ccccc1)C(=O)C2)c1ccccc1
REMARK SMILES IDX 4 1 5 2 6 3 7 4 8 5 9 6 10 7 11 8 20 9 21 10 22 11 3 12 2 13
REMARK SMILES IDX 1 14 23 16 24 17 28 18 25 19 27 20 26 21 12 22 13 23 14 24
REMARK SMILES IDX 15 25 19 26 16 27 18 28 17 29
REMARK H PARENT 3 15
ROOT
ATOM      1  C   UNL     1      10.804 -56.286 -22.080  1.00  0.00     0.041 A 
ATOM      2  C   UNL     1      11.429 -56.935 -21.007  1.00  0.00     0.026 A 
ATOM      3  C   UNL     1      11.362 -58.324 -20.874  1.00  0.00     0.007 A 
ATOM      4  C   UNL     1      10.677 -59.085 -21.823  1.00  0.00    -0.033 A 
ATOM      5  C   UNL     1      10.047 -58.447 -22.894  1.00  0.00    -0.022 A 
ATOM      6  C   UNL     1      10.105 -57.051 -23.015  1.00  0.00     0.032 A 
ATOM      7  C   UNL     1       9.270 -59.292 -23.863  1.00  0.00     0.164 C 
ATOM      8  N   UNL     1       9.925 -60.568 -24.107  1.00  0.00    -0.274 N 
ATOM      9  C   UNL     1      10.325 -61.321 -23.004  1.00  0.00     0.234 C 
ATOM     10  O   UNL     1      10.511 -62.539 -23.033  1.00  0.00    -0.274 OA
ATOM     11  C   UNL     1      10.543 -60.576 -21.693  1.00  0.00     0.136 C 
ENDROOT
BRANCH   1  12
ATOM     12  N   UNL     1      10.912 -54.880 -22.133  1.00  0.00    -0.322 N 
ATOM     13  C   UNL     1      11.135 -54.098 -23.252  1.00  0.00     0.255 C 
ATOM     14  O   UNL     1      11.347 -54.492 -24.393  1.00  0.00    -0.269 OA
ATOM     15  H   UNL     1      10.896 -54.405 -21.241  1.00  0.00     0.170 HD
BRANCH  13  16
ATOM     16  C   UNL     1      11.155 -52.630 -22.996  1.00  0.00     0.040 A 
ATOM     17  C   UNL     1      12.217 -51.822 -23.427  1.00  0.00     0.014 A 
ATOM     18  C   UNL     1      10.094 -52.062 -22.281  1.00  0.00     0.014 A 
ATOM     19  C   UNL     1      12.197 -50.450 -23.165  1.00  0.00     0.001 A 
ATOM     20  C   UNL     1      10.079 -50.690 -22.023  1.00  0.00     0.001 A 
ATOM     21  C   UNL     1      11.128 -49.885 -22.469  1.00  0.00     0.000 A 
ENDBRANCH  13  16
ENDBRANCH   1  12
BRANCH   8  22
ATOM     22  C   UNL     1       9.540 -61.204 -25.290  1.00  0.00     0.260 C 
ATOM     23  O   UNL     1       8.624 -62.025 -25.334  1.00  0.00    -0.269 OA
BRANCH  22  24
ATOM     24  C   UNL     1      10.253 -60.857 -26.551  1.00  0.00     0.040 A 
ATOM     25  C   UNL     1       9.737 -61.326 -27.767  1.00  0.00     0.014 A 
ATOM     26  C   UNL     1      11.374 -60.016 -26.553  1.00  0.00     0.014 A 
ATOM     27  C   UNL     1      10.356 -60.984 -28.970  1.00  0.00     0.001 A 
ATOM     28  C   UNL     1      11.991 -59.677 -27.760  1.00  0.00     0.001 A 
ATOM     29  C   UNL     1      11.484 -60.163 -28.965  1.00  0.00     0.000 A 
ENDBRANCH  22  24
ENDBRANCH   8  22
TORSDOF 4
ENDMDL
MODEL 3
REMARK VINA RESULT:   -11.385      1.603      2.120
REMARK INTER + INTRA:         -14.903
REMARK INTER:                 -15.161
REMARK INTRA:                   0.259
REMARK UNBOUND:                -0.855
REMARK SMILES O=C(Nc1ccc2c(c1)CN(C(=O)c1ccccc1)C(=O)C2)c1ccccc1
REMARK SMILES IDX 4 1 5 2 6 3 7 4 8 5 9 6 10 7 11 8 20 9 21 10 22 11 3 12 2 13
REMARK SMILES IDX 1 14 23 16 24 17 28 18 25 19 27 20 26 21 12 22 13 23 14 24
REMARK SMILES IDX 15 25 19 26 16 27 18 28 17 29
REMARK H PARENT 3 15
ROOT
ATOM      1  C   UNL     1      10.818 -56.151 -22.045  1.00  0.00     0.041 A 
ATOM      2  C   UNL     1      11.401 -56.797 -20.947  1.00  0.00     0.026 A 
ATOM      3  C   UNL     1      11.394 -58.190 -20.849  1.00  0.00     0.007 A 
ATOM      4  C   UNL     1      10.811 -58.959 -21.859  1.00  0.00    -0.033 A 
ATOM      5  C   UNL     1      10.222 -58.324 -22.956  1.00  0.00    -0.022 A 
ATOM      6  C   UNL     1      10.220 -56.924 -23.041  1.00  0.00     0.032 A 
ATOM      7  C   UNL     1       9.553 -59.181 -23.993  1.00  0.00     0.164 C 
ATOM      8  N   UNL     1      10.285 -60.417 -24.221  1.00  0.00    -0.274 N 
ATOM      9  C   UNL     1      10.648 -61.178 -23.111  1.00  0.00     0.234 C 
ATOM     10  O   UNL     1      10.895 -62.385 -23.154  1.00  0.00    -0.274 OA
ATOM     11  C   UNL     1      10.742 -60.458 -21.771  1.00  0.00     0.136 C 
ENDROOT
BRANCH   1  12
ATOM     12  N   UNL     1      10.860 -54.741 -22.059  1.00  0.00    -0.322 N 
ATOM     13  C   UNL     1      11.118 -53.922 -23.143  1.00  0.00     0.255 C 
ATOM     14  O   UNL     1      11.425 -54.275 -24.275  1.00  0.00    -0.269 OA
ATOM     15  H   UNL     1      10.761 -54.291 -21.160  1.00  0.00     0.170 HD
BRANCH  13  16
ATOM     16  C   UNL     1      11.049 -52.461 -22.853  1.00  0.00     0.040 A 
ATOM     17  C   UNL     1      12.134 -51.609 -23.102  1.00  0.00     0.014 A 
ATOM     18  C   UNL     1       9.875 -51.946 -22.292  1.00  0.00     0.014 A 
ATOM     19  C   UNL     1      12.028 -50.246 -22.815  1.00  0.00     0.001 A 
ATOM     20  C   UNL     1       9.774 -50.582 -22.008  1.00  0.00     0.001 A 
ATOM     21  C   UNL     1      10.849 -49.734 -22.274  1.00  0.00     0.000 A 
ENDBRANCH  13  16
ENDBRANCH   1  12
BRANCH   8  22
ATOM     22  C   UNL     1      10.011 -61.041 -25.440  1.00  0.00     0.260 C 
ATOM     23  O   UNL     1      10.692 -60.854 -26.449  1.00  0.00    -0.269 OA
BRANCH  22  24
ATOM     24  C   UNL     1       8.864 -61.989 -25.515  1.00  0.00     0.040 A 
ATOM     25  C   UNL     1       8.644 -62.686 -26.710  1.00  0.00     0.014 A 
ATOM     26  C   UNL     1       8.055 -62.250 -24.401  1.00  0.00     0.014 A 
ATOM     27  C   UNL     1       7.603 -63.612 -26.800  1.00  0.00     0.001 A 
ATOM     28  C   UNL     1       7.014 -63.177 -24.496  1.00  0.00     0.001 A 
ATOM     29  C   UNL     1       6.788 -63.854 -25.695  1.00  0.00     0.000 A 
ENDBRANCH  22  24
ENDBRANCH   8  22
TORSDOF 4
ENDMDL
MODEL 4
REMARK VINA RESULT:   -10.799      4.236     10.940
REMARK INTER + INTRA:         -14.179
REMARK INTER:                 -13.432
REMARK INTRA:                  -0.747
REMARK UNBOUND:                -0.855
REMARK SMILES O=C(Nc1ccc2c(c1)CN(C(=O)c1ccccc1)C(=O)C2)c1ccccc1
REMARK SMILES IDX 4 1 5 2 6 3 7 4 8 5 9 6 10 7 11 8 20 9 21 10 22 11 3 12 2 13
REMARK SMILES IDX 1 14 23 16 24 17 28 18 25 19 27 20 26 21 12 22 13 23 14 24
REMARK SMILES IDX 15 25 19 26 16 27 18 28 17 29
REMARK H PARENT 3 15
ROOT
ATOM      1  C   UNL     1      10.884 -53.116 -22.382  1.00  0.00     0.041 A 
ATOM      2  C   UNL     1       9.589 -52.591 -22.277  1.00  0.00     0.026 A 
ATOM      3  C   UNL     1       9.368 -51.213 -22.331  1.00  0.00     0.007 A 
ATOM      4  C   UNL     1      10.444 -50.340 -22.504  1.00  0.00    -0.033 A 
ATOM      5  C   UNL     1      11.740 -50.852 -22.605  1.00  0.00    -0.022 A 
ATOM      6  C   UNL     1      11.957 -52.236 -22.536  1.00  0.00     0.032 A 
ATOM      7  C   UNL     1      12.877 -49.879 -22.731  1.00  0.00     0.164 C 
ATOM      8  N   UNL     1      12.519 -48.739 -23.561  1.00  0.00    -0.274 N 
ATOM      9  C   UNL     1      11.327 -48.073 -23.279  1.00  0.00     0.234 C 
ATOM     10  O   UNL     1      11.096 -46.907 -23.605  1.00  0.00    -0.274 OA
ATOM     11  C   UNL     1      10.255 -48.848 -22.523  1.00  0.00     0.136 C 
ENDROOT
BRANCH   1  12
ATOM     12  N   UNL     1      11.018 -54.518 -22.307  1.00  0.00    -0.322 N 
ATOM     13  C   UNL     1      11.290 -55.391 -23.345  1.00  0.00     0.255 C 
ATOM     14  O   UNL     1      11.397 -55.110 -24.533  1.00  0.00    -0.269 OA
ATOM     15  H   UNL     1      10.821 -54.930 -21.405  1.00  0.00     0.170 HD
BRANCH  13  16
ATOM     16  C   UNL     1      11.417 -56.821 -22.943  1.00  0.00     0.040 A 
ATOM     17  C   UNL     1      11.207 -57.235 -21.620  1.00  0.00     0.014 A 
ATOM     18  C   UNL     1      11.783 -57.759 -23.916  1.00  0.00     0.014 A 
ATOM     19  C   UNL     1      11.336 -58.585 -21.286  1.00  0.00     0.001 A 
ATOM     20  C   UNL     1      11.910 -59.107 -23.576  1.00  0.00     0.001 A 
ATOM     21  C   UNL     1      11.682 -59.518 -22.262  1.00  0.00     0.000 A 
ENDBRANCH  13  16
ENDBRANCH   1  12
BRANCH   8  22
ATOM     22  C   UNL     1      13.605 -48.040 -24.093  1.00  0.00     0.260 C 
ATOM     23  O   UNL     1      14.212 -47.176 -23.461  1.00  0.00    -0.269 OA
BRANCH  22  24
ATOM     24  C   UNL     1      14.060 -48.373 -25.472  1.00  0.00     0.040 A 
ATOM     25  C   UNL     1      14.633 -47.362 -26.254  1.00  0.00     0.014 A 
ATOM     26  C   UNL     1      13.995 -49.681 -25.970  1.00  0.00     0.014 A 
ATOM     27  C   UNL     1      15.108 -47.650 -27.535  1.00  0.00     0.001 A 
ATOM     28  C   UNL     1      14.470 -49.965 -27.253  1.00  0.00     0.001 A 
ATOM     29  C   UNL     1      15.023 -48.949 -28.034  1.00  0.00     0.000 A 
ENDBRANCH  22  24
ENDBRANCH   8  22
TORSDOF 4
ENDMDL
MODEL 5
REMARK VINA RESULT:   -10.653      3.747     11.028
REMARK INTER + INTRA:         -13.999
REMARK INTER:                 -13.697
REMARK INTRA:                  -0.302
REMARK UNBOUND:                -0.855
REMARK SMILES O=C(Nc1ccc2c(c1)CN(C(=O)c1ccccc1)C(=O)C2)c1ccccc1
REMARK SMILES IDX 4 1 5 2 6 3 7 4 8 5 9 6 10 7 11 8 20 9 21 10 22 11 3 12 2 13
REMARK SMILES IDX 1 14 23 16 24 17 28 18 25 19 27 20 26 21 12 22 13 23 14 24
REMARK SMILES IDX 15 25 19 26 16 27 18 28 17 29
REMARK H PARENT 3 15
ROOT
ATOM      1  C   UNL     1      12.085 -54.694 -24.503  1.00  0.00     0.041 A 
ATOM      2  C   UNL     1      12.845 -54.790 -25.676  1.00  0.00     0.026 A 
ATOM      3  C   UNL     1      13.420 -53.655 -26.253  1.00  0.00     0.007 A 
ATOM      4  C   UNL     1      13.251 -52.405 -25.654  1.00  0.00    -0.033 A 
ATOM      5  C   UNL     1      12.490 -52.297 -24.486  1.00  0.00    -0.022 A 
ATOM      6  C   UNL     1      11.904 -53.438 -23.920  1.00  0.00     0.032 A 
ATOM      7  C   UNL     1      12.281 -50.929 -23.902  1.00  0.00     0.164 C 
ATOM      8  N   UNL     1      13.472 -50.103 -24.030  1.00  0.00    -0.274 N 
ATOM      9  C   UNL     1      14.080 -50.019 -25.282  1.00  0.00     0.234 C 
ATOM     10  O   UNL     1      14.812 -49.091 -25.632  1.00  0.00    -0.274 OA
ATOM     11  C   UNL     1      13.814 -51.153 -26.265  1.00  0.00     0.136 C 
ENDROOT
BRANCH   1  12
ATOM     12  N   UNL     1      11.532 -55.887 -23.994  1.00  0.00    -0.322 N 
ATOM     13  C   UNL     1      11.149 -56.144 -22.690  1.00  0.00     0.255 C 
ATOM     14  O   UNL     1      11.285 -55.402 -21.724  1.00  0.00    -0.269 OA
ATOM     15  H   UNL     1      11.480 -56.659 -24.645  1.00  0.00     0.170 HD
BRANCH  13  16
ATOM     16  C   UNL     1      10.553 -57.493 -22.467  1.00  0.00     0.040 A 
ATOM     17  C   UNL     1       9.391 -57.903 -23.136  1.00  0.00     0.014 A 
ATOM     18  C   UNL     1      11.163 -58.349 -21.543  1.00  0.00     0.014 A 
ATOM     19  C   UNL     1       8.865 -59.174 -22.898  1.00  0.00     0.001 A 
ATOM     20  C   UNL     1      10.633 -59.619 -21.310  1.00  0.00     0.001 A 
ATOM     21  C   UNL     1       9.487 -60.032 -21.991  1.00  0.00     0.000 A 
ENDBRANCH  13  16
ENDBRANCH   1  12
BRANCH   8  22
ATOM     22  C   UNL     1      13.530 -49.022 -23.148  1.00  0.00     0.260 C 
ATOM     23  O   UNL     1      14.428 -48.891 -22.317  1.00  0.00    -0.269 OA
BRANCH  22  24
ATOM     24  C   UNL     1      12.474 -47.974 -23.234  1.00  0.00     0.040 A 
ATOM     25  C   UNL     1      11.933 -47.465 -22.046  1.00  0.00     0.014 A 
ATOM     26  C   UNL     1      12.071 -47.439 -24.464  1.00  0.00     0.014 A 
ATOM     27  C   UNL     1      10.972 -46.453 -22.090  1.00  0.00     0.001 A 
ATOM     28  C   UNL     1      11.108 -46.426 -24.504  1.00  0.00     0.001 A 
ATOM     29  C   UNL     1      10.559 -45.938 -23.318  1.00  0.00     0.000 A 
ENDBRANCH  22  24
ENDBRANCH   8  22
TORSDOF 4
ENDMDL
MODEL 6
REMARK VINA RESULT:   -10.520      1.807      9.116
REMARK INTER + INTRA:         -13.835
REMARK INTER:                 -13.490
REMARK INTRA:                  -0.345
REMARK UNBOUND:                -0.855
REMARK SMILES O=C(Nc1ccc2c(c1)CN(C(=O)c1ccccc1)C(=O)C2)c1ccccc1
REMARK SMILES IDX 4 1 5 2 6 3 7 4 8 5 9 6 10 7 11 8 20 9 21 10 22 11 3 12 2 13
REMARK SMILES IDX 1 14 23 16 24 17 28 18 25 19 27 20 26 21 12 22 13 23 14 24
REMARK SMILES IDX 15 25 19 26 16 27 18 28 17 29
REMARK H PARENT 3 15
ROOT
ATOM      1  C   UNL     1       9.956 -59.073 -23.543  1.00  0.00     0.041 A 
ATOM      2  C   UNL     1      10.451 -59.522 -22.312  1.00  0.00     0.026 A 
ATOM      3  C   UNL     1      10.949 -58.621 -21.368  1.00  0.00     0.007 A 
ATOM      4  C   UNL     1      10.945 -57.251 -21.639  1.00  0.00    -0.033 A 
ATOM      5  C   UNL     1      10.457 -56.793 -22.866  1.00  0.00    -0.022 A 
ATOM      6  C   UNL     1       9.972 -57.704 -23.816  1.00  0.00     0.032 A 
ATOM      7  C   UNL     1      10.523 -55.318 -23.147  1.00  0.00     0.164 C 
ATOM      8  N   UNL     1      10.244 -54.532 -21.954  1.00  0.00    -0.274 N 
ATOM      9  C   UNL     1      10.938 -54.845 -20.786  1.00  0.00     0.234 C 
ATOM     10  O   UNL     1      11.109 -54.056 -19.855  1.00  0.00    -0.274 OA
ATOM     11  C   UNL     1      11.511 -56.252 -20.670  1.00  0.00     0.136 C 
ENDROOT
BRANCH   1  12
ATOM     12  N   UNL     1       9.483 -60.051 -24.443  1.00  0.00    -0.322 N 
ATOM     13  C   UNL     1       9.950 -60.311 -25.719  1.00  0.00     0.255 C 
ATOM     14  O   UNL     1      10.816 -59.691 -26.325  1.00  0.00    -0.269 OA
ATOM     15  H   UNL     1       8.667 -60.565 -24.142  1.00  0.00     0.170 HD
BRANCH  13  16
ATOM     16  C   UNL     1       9.273 -61.444 -26.413  1.00  0.00     0.040 A 
ATOM     17  C   UNL     1       9.447 -61.674 -27.785  1.00  0.00     0.014 A 
ATOM     18  C   UNL     1       8.425 -62.272 -25.670  1.00  0.00     0.014 A 
ATOM     19  C   UNL     1       8.794 -62.746 -28.398  1.00  0.00     0.001 A 
ATOM     20  C   UNL     1       7.776 -63.344 -26.287  1.00  0.00     0.001 A 
ATOM     21  C   UNL     1       7.965 -63.582 -27.649  1.00  0.00     0.000 A 
ENDBRANCH  13  16
ENDBRANCH   1  12
BRANCH   8  22
ATOM     22  C   UNL     1       9.844 -53.217 -22.203  1.00  0.00     0.260 C 
ATOM     23  O   UNL     1       8.682 -52.838 -22.055  1.00  0.00    -0.269 OA
BRANCH  22  24
ATOM     24  C   UNL     1      10.870 -52.230 -22.642  1.00  0.00     0.040 A 
ATOM     25  C   UNL     1      10.880 -50.961 -22.049  1.00  0.00     0.014 A 
ATOM     26  C   UNL     1      11.863 -52.569 -23.571  1.00  0.00     0.014 A 
ATOM     27  C   UNL     1      11.853 -50.027 -22.408  1.00  0.00     0.001 A 
ATOM     28  C   UNL     1      12.835 -51.631 -23.928  1.00  0.00     0.001 A 
ATOM     29  C   UNL     1      12.827 -50.361 -23.348  1.00  0.00     0.000 A 
ENDBRANCH  22  24
ENDBRANCH   8  22
TORSDOF 4
ENDMDL
MODEL 7
REMARK VINA RESULT:   -10.344      3.487     10.193
REMARK INTER + INTRA:         -13.618
REMARK INTER:                 -13.189
REMARK INTRA:                  -0.428
REMARK UNBOUND:                -0.855
REMARK SMILES O=C(Nc1ccc2c(c1)CN(C(=O)c1ccccc1)C(=O)C2)c1ccccc1
REMARK SMILES IDX 4 1 5 2 6 3 7 4 8 5 9 6 10 7 11 8 20 9 21 10 22 11 3 12 2 13
REMARK SMILES IDX 1 14 23 16 24 17 28 18 25 19 27 20 26 21 12 22 13 23 14 24
REMARK SMILES IDX 15 25 19 26 16 27 18 28 17 29
REMARK H PARENT 3 15
ROOT
ATOM      1  C   UNL     1      10.360 -54.504 -23.294  1.00  0.00     0.041 A 
ATOM      2  C   UNL     1       9.754 -53.518 -22.504  1.00  0.00     0.026 A 
ATOM      3  C   UNL     1      10.314 -52.243 -22.395  1.00  0.00     0.007 A 
ATOM      4  C   UNL     1      11.486 -51.933 -23.087  1.00  0.00    -0.033 A 
ATOM      5  C   UNL     1      12.102 -52.911 -23.874  1.00  0.00    -0.022 A 
ATOM      6  C   UNL     1      11.543 -54.194 -23.968  1.00  0.00     0.032 A 
ATOM      7  C   UNL     1      13.393 -52.559 -24.556  1.00  0.00     0.164 C 
ATOM      8  N   UNL     1      13.389 -51.186 -25.038  1.00  0.00    -0.274 N 
ATOM      9  C   UNL     1      13.010 -50.181 -24.149  1.00  0.00     0.234 C 
ATOM     10  O   UNL     1      13.330 -48.997 -24.271  1.00  0.00    -0.274 OA
ATOM     11  C   UNL     1      12.146 -50.589 -22.962  1.00  0.00     0.136 C 
ENDROOT
BRANCH   1  12
ATOM     12  N   UNL     1       9.734 -55.767 -23.340  1.00  0.00    -0.322 N 
ATOM     13  C   UNL     1      10.197 -56.951 -22.794  1.00  0.00     0.255 C 
ATOM     14  O   UNL     1      11.269 -57.132 -22.230  1.00  0.00    -0.269 OA
ATOM     15  H   UNL     1       8.892 -55.819 -23.896  1.00  0.00     0.170 HD
BRANCH  13  16
ATOM     16  C   UNL     1       9.285 -58.119 -22.970  1.00  0.00     0.040 A 
ATOM     17  C   UNL     1       9.672 -59.416 -22.604  1.00  0.00     0.014 A 
ATOM     18  C   UNL     1       8.027 -57.903 -23.543  1.00  0.00     0.014 A 
ATOM     19  C   UNL     1       8.788 -60.481 -22.786  1.00  0.00     0.001 A 
ATOM     20  C   UNL     1       7.147 -58.972 -23.721  1.00  0.00     0.001 A 
ATOM     21  C   UNL     1       7.527 -60.259 -23.339  1.00  0.00     0.000 A 
ENDBRANCH  13  16
ENDBRANCH   1  12
BRANCH   8  22
ATOM     22  C   UNL     1      14.319 -50.919 -26.045  1.00  0.00     0.260 C 
ATOM     23  O   UNL     1      13.987 -50.654 -27.201  1.00  0.00    -0.269 OA
BRANCH  22  24
ATOM     24  C   UNL     1      15.768 -50.931 -25.700  1.00  0.00     0.040 A 
ATOM     25  C   UNL     1      16.365 -52.147 -25.344  1.00  0.00     0.014 A 
ATOM     26  C   UNL     1      16.554 -49.775 -25.796  1.00  0.00     0.014 A 
ATOM     27  C   UNL     1      17.730 -52.201 -25.055  1.00  0.00     0.001 A 
ATOM     28  C   UNL     1      17.920 -49.833 -25.505  1.00  0.00     0.001 A 
ATOM     29  C   UNL     1      18.504 -51.044 -25.132  1.00  0.00     0.000 A 
ENDBRANCH  22  24
ENDBRANCH   8  22
TORSDOF 4
ENDMDL
