MODEL 1
REMARK VINA RESULT:   -10.136      0.000      0.000
REMARK INTER + INTRA:         -15.958
REMARK INTER:                 -15.173
REMARK INTRA:                  -0.785
REMARK UNBOUND:                -0.785
REMARK SMILES COc1cc2c(cc1OC)S[C@H](C(O)=CCc1cc[n+](Cc3ccsc3)cc1)C2
REMARK SMILES IDX 15 1 13 2 14 3 12 5 29 6 11 7 5 8 6 9 4 10 7 11 3 12 8 13
REMARK SMILES IDX 2 14 1 15 9 16 10 17 16 18 17 19 18 20 28 21 19 22 27 23
REMARK SMILES IDX 20 24 21 25 22 26 23 27 26 28 24 29 25 30
REMARK H PARENT 14 4
ROOT
ATOM      1  C   UNL     1      10.061 -58.270 -22.747  1.00  0.00     0.020 C 
ENDROOT
BRANCH   1   2
ATOM      2  C   UNL     1       9.836 -59.584 -22.573  1.00  0.00     0.102 C 
BRANCH   2   3
ATOM      3  O   UNL     1       8.531 -60.005 -22.336  1.00  0.00    -0.511 OA
ATOM      4  H   UNL     1       8.066 -60.015 -23.196  1.00  0.00     0.293 HD
ENDBRANCH   2   3
BRANCH   2   5
ATOM      5  C   UNL     1      10.878 -60.696 -22.749  1.00  0.00     0.121 C 
ATOM      6  C   UNL     1      11.966 -60.473 -23.827  1.00  0.00     0.059 C 
ATOM      7  S   UNL     1       9.953 -62.161 -23.410  1.00  0.00    -0.114 SA
ATOM      8  C   UNL     1      11.291 -60.719 -25.155  1.00  0.00    -0.029 A 
ATOM      9  C   UNL     1      10.224 -61.621 -25.075  1.00  0.00     0.015 A 
ATOM     10  C   UNL     1      11.631 -60.117 -26.364  1.00  0.00     0.055 A 
ATOM     11  C   UNL     1       9.459 -61.925 -26.185  1.00  0.00     0.065 A 
ATOM     12  C   UNL     1      10.857 -60.394 -27.496  1.00  0.00     0.161 A 
ATOM     13  C   UNL     1       9.782 -61.304 -27.393  1.00  0.00     0.161 A 
BRANCH  12  14
ATOM     14  O   UNL     1      11.029 -59.795 -28.717  1.00  0.00    -0.493 OA
ATOM     15  C   UNL     1      11.815 -58.609 -28.746  1.00  0.00     0.278 C 
ENDBRANCH  12  14
BRANCH  13  16
ATOM     16  O   UNL     1       8.953 -61.542 -28.464  1.00  0.00    -0.493 OA
ATOM     17  C   UNL     1       8.577 -62.923 -28.487  1.00  0.00     0.278 C 
ENDBRANCH  13  16
ENDBRANCH   2   5
ENDBRANCH   1   2
BRANCH   1  18
ATOM     18  C   UNL     1      11.226 -57.521 -22.160  1.00  0.00     0.067 C 
BRANCH  18  19
ATOM     19  C   UNL     1      10.978 -56.025 -22.231  1.00  0.00    -0.032 A 
ATOM     20  C   UNL     1      10.967 -55.255 -21.069  1.00  0.00     0.075 A 
ATOM     21  C   UNL     1      10.658 -55.403 -23.443  1.00  0.00     0.075 A 
ATOM     22  C   UNL     1      10.621 -53.911 -21.136  1.00  0.00     0.308 A 
ATOM     23  C   UNL     1      10.297 -54.061 -23.459  1.00  0.00     0.308 A 
ATOM     24  N   UNL     1      10.286 -53.338 -22.315  1.00  0.00    -0.201 N 
BRANCH  24  25
ATOM     25  C   UNL     1       9.884 -51.912 -22.353  1.00  0.00     0.394 C 
BRANCH  25  26
ATOM     26  C   UNL     1      11.079 -51.044 -22.596  1.00  0.00     0.027 A 
ATOM     27  C   UNL     1      12.360 -51.528 -23.030  1.00  0.00     0.022 A 
ATOM     28  C   UNL     1      11.116 -49.670 -22.424  1.00  0.00     0.075 A 
ATOM     29  C   UNL     1      13.287 -50.522 -23.185  1.00  0.00     0.065 A 
ATOM     30  S   UNL     1      12.637 -48.990 -22.809  1.00  0.00    -0.152 S 
ENDBRANCH  25  26
ENDBRANCH  24  25
ENDBRANCH  18  19
ENDBRANCH   1  18
TORSDOF 9
ENDMDL
MODEL 2
REMARK VINA RESULT:   -10.024      1.352      1.694
REMARK INTER + INTRA:         -15.790
REMARK INTER:                 -15.108
REMARK INTRA:                  -0.683
REMARK UNBOUND:                -0.785
REMARK SMILES COc1cc2c(cc1OC)S[C@H](C(O)=CCc1cc[n+](Cc3ccsc3)cc1)C2
REMARK SMILES IDX 15 1 13 2 14 3 12 5 29 6 11 7 5 8 6 9 4 10 7 11 3 12 8 13
REMARK SMILES IDX 2 14 1 15 9 16 10 17 16 18 17 19 18 20 28 21 19 22 27 23
REMARK SMILES IDX 20 24 21 25 22 26 23 27 26 28 24 29 25 30
REMARK H PARENT 14 4
ROOT
ATOM      1  C   UNL     1      10.822 -57.656 -22.696  1.00  0.00     0.020 C 
ENDROOT
BRANCH   1   2
ATOM      2  C   UNL     1      10.526 -58.962 -22.582  1.00  0.00     0.102 C 
BRANCH   2   3
ATOM      3  O   UNL     1       9.193 -59.324 -22.406  1.00  0.00    -0.511 OA
ATOM      4  H   UNL     1       8.719 -59.106 -23.233  1.00  0.00     0.293 HD
ENDBRANCH   2   3
BRANCH   2   5
ATOM      5  C   UNL     1      11.516 -60.120 -22.767  1.00  0.00     0.121 C 
ATOM      6  C   UNL     1      12.517 -60.004 -23.941  1.00  0.00     0.059 C 
ATOM      7  S   UNL     1      10.495 -61.590 -23.252  1.00  0.00    -0.114 SA
ATOM      8  C   UNL     1      11.727 -60.311 -25.191  1.00  0.00    -0.029 A 
ATOM      9  C   UNL     1      10.644 -61.168 -24.966  1.00  0.00     0.015 A 
ATOM     10  C   UNL     1      11.984 -59.799 -26.461  1.00  0.00     0.055 A 
ATOM     11  C   UNL     1       9.781 -61.514 -25.988  1.00  0.00     0.065 A 
ATOM     12  C   UNL     1      11.112 -60.121 -27.507  1.00  0.00     0.161 A 
ATOM     13  C   UNL     1      10.022 -60.984 -27.257  1.00  0.00     0.161 A 
BRANCH  12  14
ATOM     14  O   UNL     1      11.200 -59.608 -28.775  1.00  0.00    -0.493 OA
ATOM     15  C   UNL     1      11.958 -58.413 -28.933  1.00  0.00     0.278 C 
ENDBRANCH  12  14
BRANCH  13  16
ATOM     16  O   UNL     1       9.100 -61.260 -28.239  1.00  0.00    -0.493 OA
ATOM     17  C   UNL     1       8.815 -62.662 -28.254  1.00  0.00     0.278 C 
ENDBRANCH  13  16
ENDBRANCH   2   5
ENDBRANCH   1   2
BRANCH   1  18
ATOM     18  C   UNL     1       9.801 -56.553 -22.756  1.00  0.00     0.067 C 
BRANCH  18  19
ATOM     19  C   UNL     1      10.490 -55.201 -22.786  1.00  0.00    -0.032 A 
ATOM     20  C   UNL     1      10.306 -54.292 -21.745  1.00  0.00     0.075 A 
ATOM     21  C   UNL     1      11.238 -54.796 -23.896  1.00  0.00     0.075 A 
ATOM     22  C   UNL     1      10.844 -53.015 -21.842  1.00  0.00     0.308 A 
ATOM     23  C   UNL     1      11.739 -53.501 -23.960  1.00  0.00     0.308 A 
ATOM     24  N   UNL     1      11.539 -52.635 -22.939  1.00  0.00    -0.201 N 
BRANCH  24  25
ATOM     25  C   UNL     1      12.071 -51.256 -23.034  1.00  0.00     0.394 C 
BRANCH  25  26
ATOM     26  C   UNL     1      13.273 -51.224 -23.925  1.00  0.00     0.027 A 
ATOM     27  C   UNL     1      13.227 -51.009 -25.344  1.00  0.00     0.022 A 
ATOM     28  C   UNL     1      14.581 -51.409 -23.509  1.00  0.00     0.075 A 
ATOM     29  C   UNL     1      14.474 -51.019 -25.928  1.00  0.00     0.065 A 
ATOM     30  S   UNL     1      15.711 -51.291 -24.786  1.00  0.00    -0.152 S 
ENDBRANCH  25  26
ENDBRANCH  24  25
ENDBRANCH  18  19
ENDBRANCH   1  18
TORSDOF 9
ENDMDL
MODEL 3
REMARK VINA RESULT:    -9.427      1.988      2.736
REMARK INTER + INTRA:         -14.897
REMARK INTER:                 -14.224
REMARK INTRA:                  -0.672
REMARK UNBOUND:                -0.785
REMARK SMILES COc1cc2c(cc1OC)S[C@H](C(O)=CCc1cc[n+](Cc3ccsc3)cc1)C2
REMARK SMILES IDX 15 1 13 2 14 3 12 5 29 6 11 7 5 8 6 9 4 10 7 11 3 12 8 13
REMARK SMILES IDX 2 14 1 15 9 16 10 17 16 18 17 19 18 20 28 21 19 22 27 23
REMARK SMILES IDX 20 24 21 25 22 26 23 27 26 28 24 29 25 30
REMARK H PARENT 14 4
ROOT
ATOM      1  C   UNL     1      10.785 -57.050 -22.288  1.00  0.00     0.020 C 
ENDROOT
BRANCH   1   2
ATOM      2  C   UNL     1      11.435 -57.940 -23.059  1.00  0.00     0.102 C 
BRANCH   2   3
ATOM      3  O   UNL     1      11.744 -57.580 -24.367  1.00  0.00    -0.511 OA
ATOM      4  H   UNL     1      11.344 -56.704 -24.531  1.00  0.00     0.293 HD
ENDBRANCH   2   3
BRANCH   2   5
ATOM      5  C   UNL     1      11.999 -59.286 -22.583  1.00  0.00     0.121 C 
ATOM      6  C   UNL     1      12.320 -60.336 -23.673  1.00  0.00     0.059 C 
ATOM      7  S   UNL     1      10.634 -60.101 -21.629  1.00  0.00    -0.114 SA
ATOM      8  C   UNL     1      10.989 -60.902 -24.108  1.00  0.00    -0.029 A 
ATOM      9  C   UNL     1      10.015 -60.864 -23.103  1.00  0.00     0.015 A 
ATOM     10  C   UNL     1      10.691 -61.399 -25.374  1.00  0.00     0.055 A 
ATOM     11  C   UNL     1       8.724 -61.293 -23.341  1.00  0.00     0.065 A 
ATOM     12  C   UNL     1       9.385 -61.820 -25.644  1.00  0.00     0.161 A 
ATOM     13  C   UNL     1       8.416 -61.769 -24.617  1.00  0.00     0.161 A 
BRANCH  12  14
ATOM     14  O   UNL     1       8.943 -62.238 -26.872  1.00  0.00    -0.493 OA
ATOM     15  C   UNL     1       9.513 -61.601 -28.011  1.00  0.00     0.278 C 
ENDBRANCH  12  14
BRANCH  13  16
ATOM     16  O   UNL     1       7.105 -62.101 -24.865  1.00  0.00    -0.493 OA
ATOM     17  C   UNL     1       6.883 -63.475 -24.534  1.00  0.00     0.278 C 
ENDBRANCH  13  16
ENDBRANCH   2   5
ENDBRANCH   1   2
BRANCH   1  18
ATOM     18  C   UNL     1       9.883 -55.968 -22.815  1.00  0.00     0.067 C 
BRANCH  18  19
ATOM     19  C   UNL     1      10.594 -54.628 -22.780  1.00  0.00    -0.032 A 
ATOM     20  C   UNL     1      10.433 -53.771 -21.692  1.00  0.00     0.075 A 
ATOM     21  C   UNL     1      11.341 -54.178 -23.874  1.00  0.00     0.075 A 
ATOM     22  C   UNL     1      10.993 -52.500 -21.727  1.00  0.00     0.308 A 
ATOM     23  C   UNL     1      11.864 -52.890 -23.875  1.00  0.00     0.308 A 
ATOM     24  N   UNL     1      11.687 -52.076 -22.809  1.00  0.00    -0.201 N 
BRANCH  24  25
ATOM     25  C   UNL     1      12.241 -50.702 -22.837  1.00  0.00     0.394 C 
BRANCH  25  26
ATOM     26  C   UNL     1      13.434 -50.643 -23.739  1.00  0.00     0.027 A 
ATOM     27  C   UNL     1      14.746 -51.103 -23.380  1.00  0.00     0.022 A 
ATOM     28  C   UNL     1      13.439 -50.127 -25.024  1.00  0.00     0.075 A 
ATOM     29  C   UNL     1      15.665 -50.941 -24.393  1.00  0.00     0.065 A 
ATOM     30  S   UNL     1      14.969 -50.231 -25.779  1.00  0.00    -0.152 S 
ENDBRANCH  25  26
ENDBRANCH  24  25
ENDBRANCH  18  19
ENDBRANCH   1  18
TORSDOF 9
ENDMDL
MODEL 4
REMARK VINA RESULT:    -9.262      1.875      2.934
REMARK INTER + INTRA:         -14.650
REMARK INTER:                 -14.195
REMARK INTRA:                  -0.455
REMARK UNBOUND:                -0.785
REMARK SMILES COc1cc2c(cc1OC)S[C@H](C(O)=CCc1cc[n+](Cc3ccsc3)cc1)C2
REMARK SMILES IDX 15 1 13 2 14 3 12 5 29 6 11 7 5 8 6 9 4 10 7 11 3 12 8 13
REMARK SMILES IDX 2 14 1 15 9 16 10 17 16 18 17 19 18 20 28 21 19 22 27 23
REMARK SMILES IDX 20 24 21 25 22 26 23 27 26 28 24 29 25 30
REMARK H PARENT 14 4
ROOT
ATOM      1  C   UNL     1      10.767 -56.751 -22.307  1.00  0.00     0.020 C 
ENDROOT
BRANCH   1   2
ATOM      2  C   UNL     1      11.429 -57.671 -23.029  1.00  0.00     0.102 C 
BRANCH   2   3
ATOM      3  O   UNL     1      11.755 -57.368 -24.347  1.00  0.00    -0.511 OA
ATOM      4  H   UNL     1      11.993 -56.420 -24.379  1.00  0.00     0.293 HD
ENDBRANCH   2   3
BRANCH   2   5
ATOM      5  C   UNL     1      11.990 -58.993 -22.488  1.00  0.00     0.121 C 
ATOM      6  C   UNL     1      12.309 -60.097 -23.525  1.00  0.00     0.059 C 
ATOM      7  S   UNL     1      10.625 -59.757 -21.494  1.00  0.00    -0.114 SA
ATOM      8  C   UNL     1      10.976 -60.681 -23.931  1.00  0.00    -0.029 A 
ATOM      9  C   UNL     1      10.003 -60.591 -22.928  1.00  0.00     0.015 A 
ATOM     10  C   UNL     1      10.676 -61.238 -25.171  1.00  0.00     0.055 A 
ATOM     11  C   UNL     1       8.711 -61.028 -23.144  1.00  0.00     0.065 A 
ATOM     12  C   UNL     1       9.369 -61.670 -25.419  1.00  0.00     0.161 A 
ATOM     13  C   UNL     1       8.401 -61.566 -24.395  1.00  0.00     0.161 A 
BRANCH  12  14
ATOM     14  O   UNL     1       8.926 -62.146 -26.625  1.00  0.00    -0.493 OA
ATOM     15  C   UNL     1       9.528 -61.599 -27.793  1.00  0.00     0.278 C 
ENDBRANCH  12  14
BRANCH  13  16
ATOM     16  O   UNL     1       7.089 -61.906 -24.626  1.00  0.00    -0.493 OA
ATOM     17  C   UNL     1       6.888 -63.290 -24.320  1.00  0.00     0.278 C 
ENDBRANCH  13  16
ENDBRANCH   2   5
ENDBRANCH   1   2
BRANCH   1  18
ATOM     18  C   UNL     1       9.890 -55.679 -22.893  1.00  0.00     0.067 C 
BRANCH  18  19
ATOM     19  C   UNL     1      10.621 -54.349 -22.903  1.00  0.00    -0.032 A 
ATOM     20  C   UNL     1      11.372 -53.964 -24.013  1.00  0.00     0.075 A 
ATOM     21  C   UNL     1      10.642 -53.528 -21.771  1.00  0.00     0.075 A 
ATOM     22  C   UNL     1      12.131 -52.803 -23.962  1.00  0.00     0.308 A 
ATOM     23  C   UNL     1      11.434 -52.386 -21.757  1.00  0.00     0.308 A 
ATOM     24  N   UNL     1      12.160 -52.039 -22.845  1.00  0.00    -0.201 N 
BRANCH  24  25
ATOM     25  C   UNL     1      13.008 -50.825 -22.803  1.00  0.00     0.394 C 
BRANCH  25  26
ATOM     26  C   UNL     1      12.159 -49.597 -22.912  1.00  0.00     0.027 A 
ATOM     27  C   UNL     1      10.762 -49.545 -22.587  1.00  0.00     0.022 A 
ATOM     28  C   UNL     1      12.599 -48.359 -23.350  1.00  0.00     0.075 A 
ATOM     29  C   UNL     1      10.217 -48.292 -22.768  1.00  0.00     0.065 A 
ATOM     30  S   UNL     1      11.370 -47.170 -23.333  1.00  0.00    -0.152 S 
ENDBRANCH  25  26
ENDBRANCH  24  25
ENDBRANCH  18  19
ENDBRANCH   1  18
TORSDOF 9
ENDMDL
MODEL 5
REMARK VINA RESULT:    -9.244      1.214      1.772
REMARK INTER + INTRA:         -14.622
REMARK INTER:                 -14.024
REMARK INTRA:                  -0.598
REMARK UNBOUND:                -0.785
REMARK SMILES COc1cc2c(cc1OC)S[C@H](C(O)=CCc1cc[n+](Cc3ccsc3)cc1)C2
REMARK SMILES IDX 15 1 13 2 14 3 12 5 29 6 11 7 5 8 6 9 4 10 7 11 3 12 8 13
REMARK SMILES IDX 2 14 1 15 9 16 10 17 16 18 17 19 18 20 28 21 19 22 27 23
REMARK SMILES IDX 20 24 21 25 22 26 23 27 26 28 24 29 25 30
REMARK H PARENT 14 4
ROOT
ATOM      1  C   UNL     1      11.028 -57.224 -23.051  1.00  0.00     0.020 C 
ENDROOT
BRANCH   1   2
ATOM      2  C   UNL     1      10.535 -58.456 -22.830  1.00  0.00     0.102 C 
BRANCH   2   3
ATOM      3  O   UNL     1       9.157 -58.604 -22.712  1.00  0.00    -0.511 OA
ATOM      4  H   UNL     1       8.856 -59.153 -23.464  1.00  0.00     0.293 HD
ENDBRANCH   2   3
BRANCH   2   5
ATOM      5  C   UNL     1      11.352 -59.755 -22.832  1.00  0.00     0.121 C 
ATOM      6  C   UNL     1      12.408 -59.917 -23.951  1.00  0.00     0.059 C 
ATOM      7  S   UNL     1      10.149 -61.112 -23.215  1.00  0.00    -0.114 SA
ATOM      8  C   UNL     1      11.635 -60.251 -25.205  1.00  0.00    -0.029 A 
ATOM      9  C   UNL     1      10.429 -60.915 -24.953  1.00  0.00     0.015 A 
ATOM     10  C   UNL     1      12.017 -59.930 -26.506  1.00  0.00     0.055 A 
ATOM     11  C   UNL     1       9.569 -61.251 -25.980  1.00  0.00     0.065 A 
ATOM     12  C   UNL     1      11.152 -60.244 -27.559  1.00  0.00     0.161 A 
ATOM     13  C   UNL     1       9.938 -60.910 -27.282  1.00  0.00     0.161 A 
BRANCH  12  14
ATOM     14  O   UNL     1      11.367 -59.897 -28.868  1.00  0.00    -0.493 OA
ATOM     15  C   UNL     1      12.048 -58.669 -29.104  1.00  0.00     0.278 C 
ENDBRANCH  12  14
BRANCH  13  16
ATOM     16  O   UNL     1       9.027 -61.164 -28.281  1.00  0.00    -0.493 OA
ATOM     17  C   UNL     1       8.557 -62.512 -28.175  1.00  0.00     0.278 C 
ENDBRANCH  13  16
ENDBRANCH   2   5
ENDBRANCH   1   2
BRANCH   1  18
ATOM     18  C   UNL     1      10.400 -55.954 -22.547  1.00  0.00     0.067 C 
BRANCH  18  19
ATOM     19  C   UNL     1      11.132 -54.748 -23.109  1.00  0.00    -0.032 A 
ATOM     20  C   UNL     1      11.049 -53.511 -22.471  1.00  0.00     0.075 A 
ATOM     21  C   UNL     1      11.819 -54.822 -24.325  1.00  0.00     0.075 A 
ATOM     22  C   UNL     1      11.623 -52.392 -23.059  1.00  0.00     0.308 A 
ATOM     23  C   UNL     1      12.359 -53.672 -24.888  1.00  0.00     0.308 A 
ATOM     24  N   UNL     1      12.257 -52.482 -24.252  1.00  0.00    -0.201 N 
BRANCH  24  25
ATOM     25  C   UNL     1      12.828 -51.266 -24.876  1.00  0.00     0.394 C 
BRANCH  25  26
ATOM     26  C   UNL     1      12.897 -50.153 -23.876  1.00  0.00     0.027 A 
ATOM     27  C   UNL     1      11.781 -49.331 -23.500  1.00  0.00     0.022 A 
ATOM     28  C   UNL     1      14.037 -49.760 -23.196  1.00  0.00     0.075 A 
ATOM     29  C   UNL     1      12.110 -48.384 -22.556  1.00  0.00     0.065 A 
ATOM     30  S   UNL     1      13.755 -48.466 -22.115  1.00  0.00    -0.152 S 
ENDBRANCH  25  26
ENDBRANCH  24  25
ENDBRANCH  18  19
ENDBRANCH   1  18
TORSDOF 9
ENDMDL
MODEL 6
REMARK VINA RESULT:    -9.152      3.718      9.366
REMARK INTER + INTRA:         -14.485
REMARK INTER:                 -13.454
REMARK INTRA:                  -1.031
REMARK UNBOUND:                -0.785
REMARK SMILES COc1cc2c(cc1OC)S[C@H](C(O)=CCc1cc[n+](Cc3ccsc3)cc1)C2
REMARK SMILES IDX 15 1 13 2 14 3 12 5 29 6 11 7 5 8 6 9 4 10 7 11 3 12 8 13
REMARK SMILES IDX 2 14 1 15 9 16 10 17 16 18 17 19 18 20 28 21 19 22 27 23
REMARK SMILES IDX 20 24 21 25 22 26 23 27 26 28 24 29 25 30
REMARK H PARENT 14 4
ROOT
ATOM      1  C   UNL     1      11.418 -56.152 -22.014  1.00  0.00     0.020 C 
ENDROOT
BRANCH   1   2
ATOM      2  C   UNL     1      10.818 -55.006 -21.647  1.00  0.00     0.102 C 
BRANCH   2   3
ATOM      3  O   UNL     1      11.074 -54.505 -20.374  1.00  0.00    -0.511 OA
ATOM      4  H   UNL     1      10.520 -55.007 -19.744  1.00  0.00     0.293 HD
ENDBRANCH   2   3
BRANCH   2   5
ATOM      5  C   UNL     1       9.972 -54.111 -22.561  1.00  0.00     0.121 C 
ATOM      6  C   UNL     1      10.372 -54.058 -24.056  1.00  0.00     0.059 C 
ATOM      7  S   UNL     1      10.282 -52.371 -22.001  1.00  0.00    -0.114 SA
ATOM      8  C   UNL     1      11.601 -53.184 -24.125  1.00  0.00    -0.029 A 
ATOM      9  C   UNL     1      11.658 -52.226 -23.106  1.00  0.00     0.015 A 
ATOM     10  C   UNL     1      12.624 -53.292 -25.064  1.00  0.00     0.055 A 
ATOM     11  C   UNL     1      12.739 -51.374 -22.985  1.00  0.00     0.065 A 
ATOM     12  C   UNL     1      13.737 -52.453 -24.949  1.00  0.00     0.161 A 
ATOM     13  C   UNL     1      13.777 -51.495 -23.911  1.00  0.00     0.161 A 
BRANCH  12  14
ATOM     14  O   UNL     1      14.848 -52.525 -25.749  1.00  0.00    -0.493 OA
ATOM     15  C   UNL     1      15.798 -53.539 -25.441  1.00  0.00     0.278 C 
ENDBRANCH  12  14
BRANCH  13  16
ATOM     16  O   UNL     1      14.887 -50.708 -23.718  1.00  0.00    -0.493 OA
ATOM     17  C   UNL     1      14.618 -49.375 -24.165  1.00  0.00     0.278 C 
ENDBRANCH  13  16
ENDBRANCH   2   5
ENDBRANCH   1   2
BRANCH   1  18
ATOM     18  C   UNL     1      11.285 -57.456 -21.276  1.00  0.00     0.067 C 
BRANCH  18  19
ATOM     19  C   UNL     1      10.994 -58.583 -22.251  1.00  0.00    -0.032 A 
ATOM     20  C   UNL     1      11.999 -59.476 -22.619  1.00  0.00     0.075 A 
ATOM     21  C   UNL     1       9.747 -58.693 -22.877  1.00  0.00     0.075 A 
ATOM     22  C   UNL     1      11.752 -60.426 -23.600  1.00  0.00     0.308 A 
ATOM     23  C   UNL     1       9.551 -59.646 -23.870  1.00  0.00     0.308 A 
ATOM     24  N   UNL     1      10.547 -60.495 -24.214  1.00  0.00    -0.201 N 
BRANCH  24  25
ATOM     25  C   UNL     1      10.321 -61.494 -25.284  1.00  0.00     0.394 C 
BRANCH  25  26
ATOM     26  C   UNL     1       9.168 -62.382 -24.929  1.00  0.00     0.027 A 
ATOM     27  C   UNL     1       9.039 -63.083 -23.683  1.00  0.00     0.022 A 
ATOM     28  C   UNL     1       8.089 -62.656 -25.751  1.00  0.00     0.075 A 
ATOM     29  C   UNL     1       7.882 -63.827 -23.606  1.00  0.00     0.065 A 
ATOM     30  S   UNL     1       6.944 -63.697 -25.025  1.00  0.00    -0.152 S 
ENDBRANCH  25  26
ENDBRANCH  24  25
ENDBRANCH  18  19
ENDBRANCH   1  18
TORSDOF 9
ENDMDL
MODEL 7
REMARK VINA RESULT:    -8.669      3.267      4.941
REMARK INTER + INTRA:         -13.762
REMARK INTER:                 -12.958
REMARK INTRA:                  -0.804
REMARK UNBOUND:                -0.785
REMARK SMILES COc1cc2c(cc1OC)S[C@H](C(O)=CCc1cc[n+](Cc3ccsc3)cc1)C2
REMARK SMILES IDX 15 1 13 2 14 3 12 5 29 6 11 7 5 8 6 9 4 10 7 11 3 12 8 13
REMARK SMILES IDX 2 14 1 15 9 16 10 17 16 18 17 19 18 20 28 21 19 22 27 23
REMARK SMILES IDX 20 24 21 25 22 26 23 27 26 28 24 29 25 30
REMARK H PARENT 14 4
ROOT
ATOM      1  C   UNL     1      11.674 -54.594 -24.992  1.00  0.00     0.020 C 
ENDROOT
BRANCH   1   2
ATOM      2  C   UNL     1      11.757 -55.719 -24.261  1.00  0.00     0.102 C 
BRANCH   2   3
ATOM      3  O   UNL     1      12.361 -56.835 -24.832  1.00  0.00    -0.511 OA
ATOM      4  H   UNL     1      12.898 -57.265 -24.137  1.00  0.00     0.293 HD
ENDBRANCH   2   3
BRANCH   2   5
ATOM      5  C   UNL     1      11.366 -55.851 -22.783  1.00  0.00     0.121 C 
ATOM      6  C   UNL     1      11.586 -57.232 -22.120  1.00  0.00     0.059 C 
ATOM      7  S   UNL     1       9.523 -55.666 -22.725  1.00  0.00    -0.114 SA
ATOM      8  C   UNL     1      10.472 -58.116 -22.626  1.00  0.00    -0.029 A 
ATOM      9  C   UNL     1       9.308 -57.410 -22.953  1.00  0.00     0.015 A 
ATOM     10  C   UNL     1      10.543 -59.497 -22.799  1.00  0.00     0.055 A 
ATOM     11  C   UNL     1       8.205 -58.052 -23.481  1.00  0.00     0.065 A 
ATOM     12  C   UNL     1       9.445 -60.165 -23.351  1.00  0.00     0.161 A 
ATOM     13  C   UNL     1       8.282 -59.432 -23.678  1.00  0.00     0.161 A 
BRANCH  12  14
ATOM     14  O   UNL     1       9.425 -61.500 -23.659  1.00  0.00    -0.493 OA
ATOM     15  C   UNL     1      10.525 -62.281 -23.201  1.00  0.00     0.278 C 
ENDBRANCH  12  14
BRANCH  13  16
ATOM     16  O   UNL     1       7.214 -60.040 -24.293  1.00  0.00    -0.493 OA
ATOM     17  C   UNL     1       6.104 -60.097 -23.390  1.00  0.00     0.278 C 
ENDBRANCH  13  16
ENDBRANCH   2   5
ENDBRANCH   1   2
BRANCH   1  18
ATOM     18  C   UNL     1      12.832 -53.962 -25.715  1.00  0.00     0.067 C 
BRANCH  18  19
ATOM     19  C   UNL     1      13.051 -52.544 -25.216  1.00  0.00    -0.032 A 
ATOM     20  C   UNL     1      13.693 -51.604 -26.020  1.00  0.00     0.075 A 
ATOM     21  C   UNL     1      12.708 -52.177 -23.911  1.00  0.00     0.075 A 
ATOM     22  C   UNL     1      13.994 -50.349 -25.508  1.00  0.00     0.308 A 
ATOM     23  C   UNL     1      13.048 -50.917 -23.433  1.00  0.00     0.308 A 
ATOM     24  N   UNL     1      13.679 -50.026 -24.232  1.00  0.00    -0.201 N 
BRANCH  24  25
ATOM     25  C   UNL     1      14.044 -48.693 -23.698  1.00  0.00     0.394 C 
BRANCH  25  26
ATOM     26  C   UNL     1      12.815 -47.862 -23.493  1.00  0.00     0.027 A 
ATOM     27  C   UNL     1      12.017 -47.319 -24.555  1.00  0.00     0.022 A 
ATOM     28  C   UNL     1      12.294 -47.497 -22.263  1.00  0.00     0.075 A 
ATOM     29  C   UNL     1      10.937 -46.597 -24.097  1.00  0.00     0.065 A 
ATOM     30  S   UNL     1      10.870 -46.560 -22.393  1.00  0.00    -0.152 S 
ENDBRANCH  25  26
ENDBRANCH  24  25
ENDBRANCH  18  19
ENDBRANCH   1  18
TORSDOF 9
ENDMDL
MODEL 8
REMARK VINA RESULT:    -8.467      2.186      3.665
REMARK INTER + INTRA:         -13.459
REMARK INTER:                 -13.531
REMARK INTRA:                   0.072
REMARK UNBOUND:                -0.785
REMARK SMILES COc1cc2c(cc1OC)S[C@H](C(O)=CCc1cc[n+](Cc3ccsc3)cc1)C2
REMARK SMILES IDX 15 1 13 2 14 3 12 5 29 6 11 7 5 8 6 9 4 10 7 11 3 12 8 13
REMARK SMILES IDX 2 14 1 15 9 16 10 17 16 18 17 19 18 20 28 21 19 22 27 23
REMARK SMILES IDX 20 24 21 25 22 26 23 27 26 28 24 29 25 30
REMARK H PARENT 14 4
ROOT
ATOM      1  C   UNL     1       9.894 -55.281 -22.992  1.00  0.00     0.020 C 
ENDROOT
BRANCH   1   2
ATOM      2  C   UNL     1      10.108 -56.608 -22.985  1.00  0.00     0.102 C 
BRANCH   2   3
ATOM      3  O   UNL     1       9.048 -57.450 -23.307  1.00  0.00    -0.511 OA
ATOM      4  H   UNL     1       8.553 -57.031 -24.039  1.00  0.00     0.293 HD
ENDBRANCH   2   3
BRANCH   2   5
ATOM      5  C   UNL     1      11.468 -57.289 -22.786  1.00  0.00     0.121 C 
ATOM      6  C   UNL     1      12.023 -58.109 -23.976  1.00  0.00     0.059 C 
ATOM      7  S   UNL     1      11.202 -58.590 -21.492  1.00  0.00    -0.114 SA
ATOM      8  C   UNL     1      11.236 -59.398 -23.994  1.00  0.00    -0.029 A 
ATOM      9  C   UNL     1      10.769 -59.780 -22.731  1.00  0.00     0.015 A 
ATOM     10  C   UNL     1      10.945 -60.158 -25.124  1.00  0.00     0.055 A 
ATOM     11  C   UNL     1       9.987 -60.907 -22.568  1.00  0.00     0.065 A 
ATOM     12  C   UNL     1      10.138 -61.292 -24.986  1.00  0.00     0.161 A 
ATOM     13  C   UNL     1       9.674 -61.658 -23.702  1.00  0.00     0.161 A 
BRANCH  12  14
ATOM     14  O   UNL     1       9.703 -62.066 -26.030  1.00  0.00    -0.493 OA
ATOM     15  C   UNL     1       9.419 -61.394 -27.252  1.00  0.00     0.278 C 
ENDBRANCH  12  14
BRANCH  13  16
ATOM     16  O   UNL     1       8.816 -62.719 -23.537  1.00  0.00    -0.493 OA
ATOM     17  C   UNL     1       9.288 -63.562 -22.481  1.00  0.00     0.278 C 
ENDBRANCH  13  16
ENDBRANCH   2   5
ENDBRANCH   1   2
BRANCH   1  18
ATOM     18  C   UNL     1      10.185 -54.366 -21.834  1.00  0.00     0.067 C 
BRANCH  18  19
ATOM     19  C   UNL     1      10.815 -53.076 -22.328  1.00  0.00    -0.032 A 
ATOM     20  C   UNL     1      11.705 -53.091 -23.401  1.00  0.00     0.075 A 
ATOM     21  C   UNL     1      10.597 -51.865 -21.663  1.00  0.00     0.075 A 
ATOM     22  C   UNL     1      12.364 -51.924 -23.765  1.00  0.00     0.308 A 
ATOM     23  C   UNL     1      11.296 -50.727 -22.048  1.00  0.00     0.308 A 
ATOM     24  N   UNL     1      12.161 -50.770 -23.087  1.00  0.00    -0.201 N 
BRANCH  24  25
ATOM     25  C   UNL     1      12.905 -49.549 -23.473  1.00  0.00     0.394 C 
BRANCH  25  26
ATOM     26  C   UNL     1      13.976 -49.885 -24.464  1.00  0.00     0.027 A 
ATOM     27  C   UNL     1      13.842 -49.732 -25.885  1.00  0.00     0.022 A 
ATOM     28  C   UNL     1      15.223 -50.397 -24.149  1.00  0.00     0.075 A 
ATOM     29  C   UNL     1      14.976 -50.107 -26.572  1.00  0.00     0.065 A 
ATOM     30  S   UNL     1      16.207 -50.649 -25.524  1.00  0.00    -0.152 S 
ENDBRANCH  25  26
ENDBRANCH  24  25
ENDBRANCH  18  19
ENDBRANCH   1  18
TORSDOF 9
ENDMDL
MODEL 9
REMARK VINA RESULT:    -8.367      4.662      9.977
REMARK INTER + INTRA:         -13.310
REMARK INTER:                 -12.035
REMARK INTRA:                  -1.275
REMARK UNBOUND:                -0.785
REMARK SMILES COc1cc2c(cc1OC)S[C@H](C(O)=CCc1cc[n+](Cc3ccsc3)cc1)C2
REMARK SMILES IDX 15 1 13 2 14 3 12 5 29 6 11 7 5 8 6 9 4 10 7 11 3 12 8 13
REMARK SMILES IDX 2 14 1 15 9 16 10 17 16 18 17 19 18 20 28 21 19 22 27 23
REMARK SMILES IDX 20 24 21 25 22 26 23 27 26 28 24 29 25 30
REMARK H PARENT 14 4
ROOT
ATOM      1  C   UNL     1      11.772 -51.406 -21.750  1.00  0.00     0.020 C 
ENDROOT
BRANCH   1   2
ATOM      2  C   UNL     1      12.072 -50.168 -22.181  1.00  0.00     0.102 C 
BRANCH   2   3
ATOM      3  O   UNL     1      12.509 -49.232 -21.248  1.00  0.00    -0.511 OA
ATOM      4  H   UNL     1      12.352 -48.345 -21.628  1.00  0.00     0.293 HD
ENDBRANCH   2   3
BRANCH   2   5
ATOM      5  C   UNL     1      12.109 -49.720 -23.648  1.00  0.00     0.121 C 
ATOM      6  C   UNL     1      12.732 -50.705 -24.666  1.00  0.00     0.059 C 
ATOM      7  S   UNL     1      13.278 -48.283 -23.712  1.00  0.00    -0.114 SA
ATOM      8  C   UNL     1      14.226 -50.617 -24.468  1.00  0.00    -0.029 A 
ATOM      9  C   UNL     1      14.649 -49.370 -23.993  1.00  0.00     0.015 A 
ATOM     10  C   UNL     1      15.139 -51.645 -24.689  1.00  0.00     0.055 A 
ATOM     11  C   UNL     1      15.978 -49.127 -23.705  1.00  0.00     0.065 A 
ATOM     12  C   UNL     1      16.487 -51.428 -24.385  1.00  0.00     0.161 A 
ATOM     13  C   UNL     1      16.892 -50.163 -23.903  1.00  0.00     0.161 A 
BRANCH  12  14
ATOM     14  O   UNL     1      17.464 -52.386 -24.468  1.00  0.00    -0.493 OA
ATOM     15  C   UNL     1      18.046 -52.601 -25.749  1.00  0.00     0.278 C 
ENDBRANCH  12  14
BRANCH  13  16
ATOM     16  O   UNL     1      18.193 -49.937 -23.521  1.00  0.00    -0.493 OA
ATOM     17  C   UNL     1      18.232 -49.560 -22.140  1.00  0.00     0.278 C 
ENDBRANCH  13  16
ENDBRANCH   2   5
ENDBRANCH   1   2
BRANCH   1  18
ATOM     18  C   UNL     1      10.460 -52.098 -21.998  1.00  0.00     0.067 C 
BRANCH  18  19
ATOM     19  C   UNL     1      10.697 -53.538 -22.420  1.00  0.00    -0.032 A 
ATOM     20  C   UNL     1      10.673 -54.563 -21.476  1.00  0.00     0.075 A 
ATOM     21  C   UNL     1      11.042 -53.856 -23.737  1.00  0.00     0.075 A 
ATOM     22  C   UNL     1      11.009 -55.856 -21.854  1.00  0.00     0.308 A 
ATOM     23  C   UNL     1      11.392 -55.161 -24.066  1.00  0.00     0.308 A 
ATOM     24  N   UNL     1      11.369 -56.136 -23.129  1.00  0.00    -0.201 N 
BRANCH  24  25
ATOM     25  C   UNL     1      11.759 -57.517 -23.498  1.00  0.00     0.394 C 
BRANCH  25  26
ATOM     26  C   UNL     1      10.735 -58.493 -23.008  1.00  0.00     0.027 A 
ATOM     27  C   UNL     1      10.947 -59.420 -21.932  1.00  0.00     0.022 A 
ATOM     28  C   UNL     1       9.462 -58.644 -23.531  1.00  0.00     0.075 A 
ATOM     29  C   UNL     1       9.843 -60.203 -21.676  1.00  0.00     0.065 A 
ATOM     30  S   UNL     1       8.546 -59.841 -22.723  1.00  0.00    -0.152 S 
ENDBRANCH  25  26
ENDBRANCH  24  25
ENDBRANCH  18  19
ENDBRANCH   1  18
TORSDOF 9
ENDMDL
