MODEL 1
REMARK VINA RESULT:   -10.123      0.000      0.000
REMARK INTER + INTRA:         -15.213
REMARK INTER:                 -13.970
REMARK INTRA:                  -1.243
REMARK UNBOUND:                -1.243
REMARK SMILES COc1cccc([C@@H]2CC(c3cc(F)ccc3F)=NN2c2ccc(S(N)(=O)=O)cc2)c1OC
REMARK SMILES IDX 21 1 22 2 23 3 24 4 29 5 30 6 20 7 8 8 9 9 10 10 19 11 7 12
REMARK SMILES IDX 3 13 4 14 31 15 5 16 6 17 2 18 1 19 32 20 33 21 11 22 12 23
REMARK SMILES IDX 17 24 13 25 16 26 15 27 18 28 14 29 25 30 27 31 28 32 26 33
REMARK H PARENT 26 34 26 35
ROOT
ATOM      1  C   UNL     1      11.994 -52.333 -23.571  1.00  0.00     0.060 A 
ATOM      2  C   UNL     1      12.163 -53.321 -24.559  1.00  0.00     0.029 A 
ATOM      3  C   UNL     1      11.741 -54.641 -24.366  1.00  0.00     0.024 A 
ATOM      4  C   UNL     1      11.142 -54.996 -23.161  1.00  0.00     0.082 A 
ATOM      5  C   UNL     1      10.943 -54.043 -22.164  1.00  0.00     0.024 A 
ATOM      6  C   UNL     1      11.371 -52.727 -22.374  1.00  0.00     0.029 A 
ENDROOT
BRANCH   1   7
ATOM      7  N   UNL     1      12.422 -51.025 -23.794  1.00  0.00    -0.257 N 
ATOM      8  C   UNL     1      13.360 -50.595 -24.840  1.00  0.00     0.148 C 
ATOM      9  C   UNL     1      13.150 -49.079 -24.874  1.00  0.00     0.091 C 
ATOM     10  C   UNL     1      12.331 -48.889 -23.627  1.00  0.00     0.074 C 
ATOM     11  N   UNL     1      11.915 -49.985 -23.068  1.00  0.00    -0.176 NA
BRANCH   8  12
ATOM     12  C   UNL     1      14.814 -50.934 -24.541  1.00  0.00     0.023 A 
ATOM     13  C   UNL     1      17.091 -51.360 -25.355  1.00  0.00     0.161 A 
ATOM     14  C   UNL     1      17.511 -51.560 -24.037  1.00  0.00     0.050 A 
ATOM     15  C   UNL     1      15.747 -51.008 -25.597  1.00  0.00     0.166 A 
ATOM     16  C   UNL     1      16.609 -51.440 -22.980  1.00  0.00     0.004 A 
ATOM     17  C   UNL     1      15.273 -51.134 -23.229  1.00  0.00     0.010 A 
BRANCH  13  18
ATOM     18  O   UNL     1      17.907 -51.492 -26.447  1.00  0.00    -0.493 OA
ATOM     19  C   UNL     1      19.248 -51.908 -26.221  1.00  0.00     0.278 C 
ENDBRANCH  13  18
BRANCH  15  20
ATOM     20  O   UNL     1      15.245 -50.781 -26.859  1.00  0.00    -0.492 OA
ATOM     21  C   UNL     1      15.621 -49.517 -27.405  1.00  0.00     0.278 C 
ENDBRANCH  15  20
ENDBRANCH   8  12
BRANCH  10  22
ATOM     22  C   UNL     1      12.000 -47.550 -23.092  1.00  0.00     0.037 A 
ATOM     23  C   UNL     1      11.121 -46.736 -23.818  1.00  0.00     0.052 A 
ATOM     24  C   UNL     1      12.535 -47.072 -21.894  1.00  0.00     0.132 A 
ATOM     25  C   UNL     1      10.793 -45.473 -23.335  1.00  0.00     0.124 A 
ATOM     26  C   UNL     1      12.202 -45.804 -21.414  1.00  0.00     0.043 A 
ATOM     27  C   UNL     1      11.324 -44.999 -22.140  1.00  0.00     0.042 A 
ATOM     28  F   UNL     1      13.393 -47.804 -21.170  1.00  0.00    -0.206 F 
ATOM     29  F   UNL     1       9.952 -44.699 -24.031  1.00  0.00    -0.207 F 
ENDBRANCH  10  22
ENDBRANCH   1   7
BRANCH   4  30
ATOM     30  S   UNL     1      10.613 -56.667 -22.912  1.00  0.00     0.238 S 
ATOM     31  O   UNL     1      11.080 -57.115 -21.619  1.00  0.00    -0.207 OA
ATOM     32  O   UNL     1       9.234 -56.780 -23.321  1.00  0.00    -0.207 OA
BRANCH  30  33
ATOM     33  N   UNL     1      11.561 -57.489 -24.038  1.00  0.00    -0.225 NA
ATOM     34  H   UNL     1      12.081 -56.863 -24.653  1.00  0.00     0.137 HD
ATOM     35  H   UNL     1      12.177 -58.133 -23.540  1.00  0.00     0.137 HD
ENDBRANCH  30  33
ENDBRANCH   4  30
TORSDOF 7
ENDMDL
MODEL 2
REMARK VINA RESULT:    -9.117      1.302      2.035
REMARK INTER + INTRA:         -13.824
REMARK INTER:                 -12.372
REMARK INTRA:                  -1.452
REMARK UNBOUND:                -1.243
REMARK SMILES COc1cccc([C@@H]2CC(c3cc(F)ccc3F)=NN2c2ccc(S(N)(=O)=O)cc2)c1OC
REMARK SMILES IDX 21 1 22 2 23 3 24 4 29 5 30 6 20 7 8 8 9 9 10 10 19 11 7 12
REMARK SMILES IDX 3 13 4 14 31 15 5 16 6 17 2 18 1 19 32 20 33 21 11 22 12 23
REMARK SMILES IDX 17 24 13 25 16 26 15 27 18 28 14 29 25 30 27 31 28 32 26 33
REMARK H PARENT 26 34 26 35
ROOT
ATOM      1  C   UNL     1      12.308 -51.529 -23.903  1.00  0.00     0.060 A 
ATOM      2  C   UNL     1      11.550 -51.901 -22.777  1.00  0.00     0.029 A 
ATOM      3  C   UNL     1      11.119 -53.217 -22.576  1.00  0.00     0.024 A 
ATOM      4  C   UNL     1      11.441 -54.191 -23.517  1.00  0.00     0.082 A 
ATOM      5  C   UNL     1      12.202 -53.865 -24.638  1.00  0.00     0.024 A 
ATOM      6  C   UNL     1      12.625 -52.544 -24.823  1.00  0.00     0.029 A 
ENDROOT
BRANCH   1   7
ATOM      7  N   UNL     1      12.725 -50.210 -24.074  1.00  0.00    -0.257 N 
ATOM      8  C   UNL     1      13.785 -49.755 -24.984  1.00  0.00     0.148 C 
ATOM      9  C   UNL     1      13.539 -48.246 -25.055  1.00  0.00     0.091 C 
ATOM     10  C   UNL     1      12.551 -48.077 -23.934  1.00  0.00     0.074 C 
ATOM     11  N   UNL     1      12.094 -49.184 -23.431  1.00  0.00    -0.176 NA
BRANCH   8  12
ATOM     12  C   UNL     1      15.194 -50.051 -24.484  1.00  0.00     0.023 A 
ATOM     13  C   UNL     1      17.511 -50.702 -24.972  1.00  0.00     0.161 A 
ATOM     14  C   UNL     1      17.810 -50.608 -23.610  1.00  0.00     0.050 A 
ATOM     15  C   UNL     1      16.208 -50.383 -25.408  1.00  0.00     0.166 A 
ATOM     16  C   UNL     1      16.828 -50.232 -22.693  1.00  0.00     0.004 A 
ATOM     17  C   UNL     1      15.532 -49.959 -23.125  1.00  0.00     0.010 A 
BRANCH  13  18
ATOM     18  O   UNL     1      18.409 -51.096 -25.928  1.00  0.00    -0.493 OA
ATOM     19  C   UNL     1      18.561 -52.492 -26.152  1.00  0.00     0.278 C 
ENDBRANCH  13  18
BRANCH  15  20
ATOM     20  O   UNL     1      15.824 -50.436 -26.729  1.00  0.00    -0.492 OA
ATOM     21  C   UNL     1      16.210 -49.287 -27.484  1.00  0.00     0.278 C 
ENDBRANCH  15  20
ENDBRANCH   8  12
BRANCH  10  22
ATOM     22  C   UNL     1      12.111 -46.747 -23.458  1.00  0.00     0.037 A 
ATOM     23  C   UNL     1      12.866 -46.104 -22.470  1.00  0.00     0.052 A 
ATOM     24  C   UNL     1      10.969 -46.116 -23.958  1.00  0.00     0.132 A 
ATOM     25  C   UNL     1      12.474 -44.852 -22.008  1.00  0.00     0.124 A 
ATOM     26  C   UNL     1      10.579 -44.860 -23.489  1.00  0.00     0.043 A 
ATOM     27  C   UNL     1      11.338 -44.223 -22.507  1.00  0.00     0.042 A 
ATOM     28  F   UNL     1      10.202 -46.696 -24.891  1.00  0.00    -0.206 F 
ATOM     29  F   UNL     1      13.200 -44.240 -21.064  1.00  0.00    -0.207 F 
ENDBRANCH  10  22
ENDBRANCH   1   7
BRANCH   4  30
ATOM     30  S   UNL     1      10.891 -55.855 -23.268  1.00  0.00     0.238 S 
ATOM     31  O   UNL     1       9.455 -55.900 -23.431  1.00  0.00    -0.207 OA
ATOM     32  O   UNL     1      11.781 -56.745 -23.975  1.00  0.00    -0.207 OA
BRANCH  30  33
ATOM     33  N   UNL     1      11.161 -56.053 -21.617  1.00  0.00    -0.225 NA
ATOM     34  H   UNL     1      12.148 -56.156 -21.383  1.00  0.00     0.137 HD
ATOM     35  H   UNL     1      10.731 -55.272 -21.119  1.00  0.00     0.137 HD
ENDBRANCH  30  33
ENDBRANCH   4  30
TORSDOF 7
ENDMDL
MODEL 3
REMARK VINA RESULT:    -9.060      4.535      7.450
REMARK INTER + INTRA:         -13.745
REMARK INTER:                 -12.222
REMARK INTRA:                  -1.523
REMARK UNBOUND:                -1.243
REMARK SMILES COc1cccc([C@@H]2CC(c3cc(F)ccc3F)=NN2c2ccc(S(N)(=O)=O)cc2)c1OC
REMARK SMILES IDX 21 1 22 2 23 3 24 4 29 5 30 6 20 7 8 8 9 9 10 10 19 11 7 12
REMARK SMILES IDX 3 13 4 14 31 15 5 16 6 17 2 18 1 19 32 20 33 21 11 22 12 23
REMARK SMILES IDX 17 24 13 25 16 26 15 27 18 28 14 29 25 30 27 31 28 32 26 33
REMARK H PARENT 26 34 26 35
ROOT
ATOM      1  C   UNL     1      12.708 -47.610 -23.706  1.00  0.00     0.060 A 
ATOM      2  C   UNL     1      11.408 -47.198 -24.054  1.00  0.00     0.029 A 
ATOM      3  C   UNL     1      11.027 -45.851 -24.035  1.00  0.00     0.024 A 
ATOM      4  C   UNL     1      11.956 -44.886 -23.656  1.00  0.00     0.082 A 
ATOM      5  C   UNL     1      13.258 -45.253 -23.320  1.00  0.00     0.024 A 
ATOM      6  C   UNL     1      13.621 -46.604 -23.344  1.00  0.00     0.029 A 
ENDROOT
BRANCH   1   7
ATOM      7  N   UNL     1      13.058 -48.959 -23.738  1.00  0.00    -0.257 N 
ATOM      8  C   UNL     1      14.423 -49.491 -23.845  1.00  0.00     0.148 C 
ATOM      9  C   UNL     1      14.244 -50.955 -23.436  1.00  0.00     0.091 C 
ATOM     10  C   UNL     1      12.744 -51.060 -23.449  1.00  0.00     0.074 C 
ATOM     11  N   UNL     1      12.113 -49.934 -23.586  1.00  0.00    -0.176 NA
BRANCH   8  12
ATOM     12  C   UNL     1      15.015 -49.387 -25.244  1.00  0.00     0.023 A 
ATOM     13  C   UNL     1      16.943 -48.908 -26.688  1.00  0.00     0.161 A 
ATOM     14  C   UNL     1      16.155 -49.182 -27.809  1.00  0.00     0.050 A 
ATOM     15  C   UNL     1      16.377 -49.051 -25.405  1.00  0.00     0.166 A 
ATOM     16  C   UNL     1      14.821 -49.565 -27.661  1.00  0.00     0.004 A 
ATOM     17  C   UNL     1      14.256 -49.664 -26.392  1.00  0.00     0.010 A 
BRANCH  13  18
ATOM     18  O   UNL     1      18.248 -48.496 -26.751  1.00  0.00    -0.493 OA
ATOM     19  C   UNL     1      19.211 -49.432 -27.220  1.00  0.00     0.278 C 
ENDBRANCH  13  18
BRANCH  15  20
ATOM     20  O   UNL     1      17.078 -48.814 -24.243  1.00  0.00    -0.492 OA
ATOM     21  C   UNL     1      17.838 -49.936 -23.794  1.00  0.00     0.278 C 
ENDBRANCH  15  20
ENDBRANCH   8  12
BRANCH  10  22
ATOM     22  C   UNL     1      12.039 -52.351 -23.288  1.00  0.00     0.037 A 
ATOM     23  C   UNL     1      11.353 -52.597 -22.091  1.00  0.00     0.052 A 
ATOM     24  C   UNL     1      12.036 -53.330 -24.285  1.00  0.00     0.132 A 
ATOM     25  C   UNL     1      10.680 -53.802 -21.917  1.00  0.00     0.124 A 
ATOM     26  C   UNL     1      11.360 -54.538 -24.104  1.00  0.00     0.043 A 
ATOM     27  C   UNL     1      10.676 -54.775 -22.911  1.00  0.00     0.042 A 
ATOM     28  F   UNL     1      12.691 -53.151 -25.440  1.00  0.00    -0.206 F 
ATOM     29  F   UNL     1      10.025 -54.033 -20.773  1.00  0.00    -0.207 F 
ENDBRANCH  10  22
ENDBRANCH   1   7
BRANCH   4  30
ATOM     30  S   UNL     1      11.475 -43.182 -23.625  1.00  0.00     0.238 S 
ATOM     31  O   UNL     1      10.822 -42.907 -22.366  1.00  0.00    -0.207 OA
ATOM     32  O   UNL     1      12.571 -42.385 -24.122  1.00  0.00    -0.207 OA
BRANCH  30  33
ATOM     33  N   UNL     1      10.248 -43.160 -24.780  1.00  0.00    -0.225 NA
ATOM     34  H   UNL     1       9.350 -42.858 -24.403  1.00  0.00     0.137 HD
ATOM     35  H   UNL     1      10.547 -42.578 -25.564  1.00  0.00     0.137 HD
ENDBRANCH  30  33
ENDBRANCH   4  30
TORSDOF 7
ENDMDL
MODEL 4
REMARK VINA RESULT:    -8.692      3.245      5.922
REMARK INTER + INTRA:         -13.238
REMARK INTER:                 -11.955
REMARK INTRA:                  -1.283
REMARK UNBOUND:                -1.243
REMARK SMILES COc1cccc([C@@H]2CC(c3cc(F)ccc3F)=NN2c2ccc(S(N)(=O)=O)cc2)c1OC
REMARK SMILES IDX 21 1 22 2 23 3 24 4 29 5 30 6 20 7 8 8 9 9 10 10 19 11 7 12
REMARK SMILES IDX 3 13 4 14 31 15 5 16 6 17 2 18 1 19 32 20 33 21 11 22 12 23
REMARK SMILES IDX 17 24 13 25 16 26 15 27 18 28 14 29 25 30 27 31 28 32 26 33
REMARK H PARENT 26 34 26 35
ROOT
ATOM      1  C   UNL     1      13.291 -51.694 -25.065  1.00  0.00     0.060 A 
ATOM      2  C   UNL     1      12.571 -51.541 -23.865  1.00  0.00     0.029 A 
ATOM      3  C   UNL     1      11.816 -52.583 -23.315  1.00  0.00     0.024 A 
ATOM      4  C   UNL     1      11.767 -53.809 -23.972  1.00  0.00     0.082 A 
ATOM      5  C   UNL     1      12.478 -54.005 -25.154  1.00  0.00     0.024 A 
ATOM      6  C   UNL     1      13.228 -52.952 -25.691  1.00  0.00     0.029 A 
ENDROOT
BRANCH   1   7
ATOM      7  N   UNL     1      14.036 -50.638 -25.587  1.00  0.00    -0.257 N 
ATOM      8  C   UNL     1      14.700 -49.587 -24.805  1.00  0.00     0.148 C 
ATOM      9  C   UNL     1      15.660 -48.969 -25.824  1.00  0.00     0.091 C 
ATOM     10  C   UNL     1      15.154 -49.598 -27.092  1.00  0.00     0.074 C 
ATOM     11  N   UNL     1      14.278 -50.542 -26.927  1.00  0.00    -0.176 NA
BRANCH   8  12
ATOM     12  C   UNL     1      13.747 -48.536 -24.251  1.00  0.00     0.023 A 
ATOM     13  C   UNL     1      13.048 -47.093 -22.391  1.00  0.00     0.161 A 
ATOM     14  C   UNL     1      12.011 -46.595 -23.183  1.00  0.00     0.050 A 
ATOM     15  C   UNL     1      13.938 -48.036 -22.945  1.00  0.00     0.166 A 
ATOM     16  C   UNL     1      11.842 -47.044 -24.494  1.00  0.00     0.004 A 
ATOM     17  C   UNL     1      12.699 -48.007 -25.021  1.00  0.00     0.010 A 
BRANCH  13  18
ATOM     18  O   UNL     1      13.260 -46.727 -21.088  1.00  0.00    -0.493 OA
ATOM     19  C   UNL     1      13.627 -45.377 -20.835  1.00  0.00     0.278 C 
ENDBRANCH  13  18
BRANCH  15  20
ATOM     20  O   UNL     1      14.995 -48.574 -22.245  1.00  0.00    -0.492 OA
ATOM     21  C   UNL     1      16.160 -47.749 -22.243  1.00  0.00     0.278 C 
ENDBRANCH  15  20
ENDBRANCH   8  12
BRANCH  10  22
ATOM     22  C   UNL     1      15.641 -49.191 -28.429  1.00  0.00     0.037 A 
ATOM     23  C   UNL     1      14.777 -48.478 -29.269  1.00  0.00     0.052 A 
ATOM     24  C   UNL     1      16.928 -49.497 -28.880  1.00  0.00     0.132 A 
ATOM     25  C   UNL     1      15.212 -48.082 -30.530  1.00  0.00     0.124 A 
ATOM     26  C   UNL     1      17.358 -49.098 -30.146  1.00  0.00     0.043 A 
ATOM     27  C   UNL     1      16.495 -48.385 -30.977  1.00  0.00     0.042 A 
ATOM     28  F   UNL     1      17.786 -50.192 -28.121  1.00  0.00    -0.206 F 
ATOM     29  F   UNL     1      14.384 -47.399 -31.330  1.00  0.00    -0.207 F 
ENDBRANCH  10  22
ENDBRANCH   1   7
BRANCH   4  30
ATOM     30  S   UNL     1      10.808 -55.127 -23.281  1.00  0.00     0.238 S 
ATOM     31  O   UNL     1      11.019 -55.155 -21.851  1.00  0.00    -0.207 OA
ATOM     32  O   UNL     1       9.492 -55.098 -23.872  1.00  0.00    -0.207 OA
BRANCH  30  33
ATOM     33  N   UNL     1      11.619 -56.479 -23.879  1.00  0.00    -0.225 NA
ATOM     34  H   UNL     1      12.606 -56.496 -23.624  1.00  0.00     0.137 HD
ATOM     35  H   UNL     1      11.130 -57.319 -23.566  1.00  0.00     0.137 HD
ENDBRANCH  30  33
ENDBRANCH   4  30
TORSDOF 7
ENDMDL
MODEL 5
REMARK VINA RESULT:    -8.580      5.284      8.485
REMARK INTER + INTRA:         -13.083
REMARK INTER:                 -11.646
REMARK INTRA:                  -1.437
REMARK UNBOUND:                -1.243
REMARK SMILES COc1cccc([C@@H]2CC(c3cc(F)ccc3F)=NN2c2ccc(S(N)(=O)=O)cc2)c1OC
REMARK SMILES IDX 21 1 22 2 23 3 24 4 29 5 30 6 20 7 8 8 9 9 10 10 19 11 7 12
REMARK SMILES IDX 3 13 4 14 31 15 5 16 6 17 2 18 1 19 32 20 33 21 11 22 12 23
REMARK SMILES IDX 17 24 13 25 16 26 15 27 18 28 14 29 25 30 27 31 28 32 26 33
REMARK H PARENT 26 34 26 35
ROOT
ATOM      1  C   UNL     1      14.420 -47.736 -21.203  1.00  0.00     0.060 A 
ATOM      2  C   UNL     1      14.012 -47.017 -20.063  1.00  0.00     0.029 A 
ATOM      3  C   UNL     1      14.932 -46.414 -19.199  1.00  0.00     0.024 A 
ATOM      4  C   UNL     1      16.294 -46.529 -19.465  1.00  0.00     0.082 A 
ATOM      5  C   UNL     1      16.737 -47.219 -20.592  1.00  0.00     0.024 A 
ATOM      6  C   UNL     1      15.802 -47.816 -21.446  1.00  0.00     0.029 A 
ENDROOT
BRANCH   1   7
ATOM      7  N   UNL     1      13.478 -48.323 -22.047  1.00  0.00    -0.257 N 
ATOM      8  C   UNL     1      13.072 -47.817 -23.365  1.00  0.00     0.148 C 
ATOM      9  C   UNL     1      12.356 -49.022 -23.979  1.00  0.00     0.091 C 
ATOM     10  C   UNL     1      12.234 -49.911 -22.773  1.00  0.00     0.074 C 
ATOM     11  N   UNL     1      12.893 -49.514 -21.726  1.00  0.00    -0.176 NA
BRANCH   8  12
ATOM     12  C   UNL     1      12.144 -46.610 -23.301  1.00  0.00     0.023 A 
ATOM     13  C   UNL     1      11.602 -44.326 -24.020  1.00  0.00     0.161 A 
ATOM     14  C   UNL     1      10.460 -44.357 -23.216  1.00  0.00     0.050 A 
ATOM     15  C   UNL     1      12.420 -45.472 -24.089  1.00  0.00     0.166 A 
ATOM     16  C   UNL     1      10.148 -45.495 -22.471  1.00  0.00     0.004 A 
ATOM     17  C   UNL     1      10.983 -46.610 -22.511  1.00  0.00     0.010 A 
BRANCH  13  18
ATOM     18  O   UNL     1      11.993 -43.237 -24.754  1.00  0.00    -0.493 OA
ATOM     19  C   UNL     1      10.999 -42.274 -25.082  1.00  0.00     0.278 C 
ENDBRANCH  13  18
BRANCH  15  20
ATOM     20  O   UNL     1      13.558 -45.539 -24.861  1.00  0.00    -0.492 OA
ATOM     21  C   UNL     1      14.730 -45.069 -24.195  1.00  0.00     0.278 C 
ENDBRANCH  15  20
ENDBRANCH   8  12
BRANCH  10  22
ATOM     22  C   UNL     1      11.444 -51.162 -22.786  1.00  0.00     0.037 A 
ATOM     23  C   UNL     1      12.005 -52.304 -23.373  1.00  0.00     0.052 A 
ATOM     24  C   UNL     1      10.161 -51.240 -22.238  1.00  0.00     0.132 A 
ATOM     25  C   UNL     1      11.282 -53.493 -23.395  1.00  0.00     0.124 A 
ATOM     26  C   UNL     1       9.441 -52.436 -22.265  1.00  0.00     0.043 A 
ATOM     27  C   UNL     1      10.006 -53.571 -22.847  1.00  0.00     0.042 A 
ATOM     28  F   UNL     1       9.573 -50.173 -21.681  1.00  0.00    -0.206 F 
ATOM     29  F   UNL     1      11.822 -54.582 -23.955  1.00  0.00    -0.207 F 
ENDBRANCH  10  22
ENDBRANCH   1   7
BRANCH   4  30
ATOM     30  S   UNL     1      17.461 -45.772 -18.369  1.00  0.00     0.238 S 
ATOM     31  O   UNL     1      18.599 -46.651 -18.224  1.00  0.00    -0.207 OA
ATOM     32  O   UNL     1      17.594 -44.381 -18.728  1.00  0.00    -0.207 OA
BRANCH  30  33
ATOM     33  N   UNL     1      16.641 -45.856 -16.899  1.00  0.00    -0.225 NA
ATOM     34  H   UNL     1      16.518 -46.811 -16.565  1.00  0.00     0.137 HD
ATOM     35  H   UNL     1      17.130 -45.274 -16.218  1.00  0.00     0.137 HD
ENDBRANCH  30  33
ENDBRANCH   4  30
TORSDOF 7
ENDMDL
MODEL 6
REMARK VINA RESULT:    -8.357      4.453      7.065
REMARK INTER + INTRA:         -12.775
REMARK INTER:                 -11.249
REMARK INTRA:                  -1.526
REMARK UNBOUND:                -1.243
REMARK SMILES COc1cccc([C@@H]2CC(c3cc(F)ccc3F)=NN2c2ccc(S(N)(=O)=O)cc2)c1OC
REMARK SMILES IDX 21 1 22 2 23 3 24 4 29 5 30 6 20 7 8 8 9 9 10 10 19 11 7 12
REMARK SMILES IDX 3 13 4 14 31 15 5 16 6 17 2 18 1 19 32 20 33 21 11 22 12 23
REMARK SMILES IDX 17 24 13 25 16 26 15 27 18 28 14 29 25 30 27 31 28 32 26 33
REMARK H PARENT 26 34 26 35
ROOT
ATOM      1  C   UNL     1      16.872 -51.213 -24.957  1.00  0.00     0.060 A 
ATOM      2  C   UNL     1      17.566 -50.302 -24.138  1.00  0.00     0.029 A 
ATOM      3  C   UNL     1      18.963 -50.293 -24.058  1.00  0.00     0.024 A 
ATOM      4  C   UNL     1      19.694 -51.215 -24.802  1.00  0.00     0.082 A 
ATOM      5  C   UNL     1      19.044 -52.123 -25.636  1.00  0.00     0.024 A 
ATOM      6  C   UNL     1      17.646 -52.117 -25.705  1.00  0.00     0.029 A 
ENDROOT
BRANCH   1   7
ATOM      7  N   UNL     1      15.479 -51.194 -25.019  1.00  0.00    -0.257 N 
ATOM      8  C   UNL     1      14.676 -50.766 -26.172  1.00  0.00     0.148 C 
ATOM      9  C   UNL     1      13.289 -51.320 -25.837  1.00  0.00     0.091 C 
ATOM     10  C   UNL     1      13.494 -51.720 -24.402  1.00  0.00     0.074 C 
ATOM     11  N   UNL     1      14.723 -51.670 -23.986  1.00  0.00    -0.176 NA
BRANCH   8  12
ATOM     12  C   UNL     1      14.624 -49.255 -26.359  1.00  0.00     0.023 A 
ATOM     13  C   UNL     1      15.139 -47.280 -27.724  1.00  0.00     0.161 A 
ATOM     14  C   UNL     1      14.553 -46.469 -26.749  1.00  0.00     0.050 A 
ATOM     15  C   UNL     1      15.136 -48.678 -27.541  1.00  0.00     0.166 A 
ATOM     16  C   UNL     1      13.999 -47.032 -25.599  1.00  0.00     0.004 A 
ATOM     17  C   UNL     1      14.036 -48.410 -25.404  1.00  0.00     0.010 A 
BRANCH  13  18
ATOM     18  O   UNL     1      15.732 -46.802 -28.863  1.00  0.00    -0.493 OA
ATOM     19  C   UNL     1      16.802 -45.878 -28.709  1.00  0.00     0.278 C 
ENDBRANCH  13  18
BRANCH  15  20
ATOM     20  O   UNL     1      15.679 -49.557 -28.452  1.00  0.00    -0.492 OA
ATOM     21  C   UNL     1      17.105 -49.610 -28.416  1.00  0.00     0.278 C 
ENDBRANCH  15  20
ENDBRANCH   8  12
BRANCH  10  22
ATOM     22  C   UNL     1      12.380 -52.165 -23.536  1.00  0.00     0.037 A 
ATOM     23  C   UNL     1      11.748 -53.380 -23.827  1.00  0.00     0.052 A 
ATOM     24  C   UNL     1      11.938 -51.413 -22.444  1.00  0.00     0.132 A 
ATOM     25  C   UNL     1      10.699 -53.821 -23.025  1.00  0.00     0.124 A 
ATOM     26  C   UNL     1      10.885 -51.861 -21.644  1.00  0.00     0.043 A 
ATOM     27  C   UNL     1      10.261 -53.073 -21.936  1.00  0.00     0.042 A 
ATOM     28  F   UNL     1      12.498 -50.236 -22.133  1.00  0.00    -0.206 F 
ATOM     29  F   UNL     1      10.098 -54.983 -23.305  1.00  0.00    -0.207 F 
ENDBRANCH  10  22
ENDBRANCH   1   7
BRANCH   4  30
ATOM     30  S   UNL     1      21.461 -51.211 -24.696  1.00  0.00     0.238 S 
ATOM     31  O   UNL     1      21.980 -50.233 -25.626  1.00  0.00    -0.207 OA
ATOM     32  O   UNL     1      21.840 -51.236 -23.304  1.00  0.00    -0.207 OA
BRANCH  30  33
ATOM     33  N   UNL     1      21.839 -52.710 -25.367  1.00  0.00    -0.225 NA
ATOM     34  H   UNL     1      22.479 -53.256 -24.789  1.00  0.00     0.137 HD
ATOM     35  H   UNL     1      20.971 -53.214 -25.554  1.00  0.00     0.137 HD
ENDBRANCH  30  33
ENDBRANCH   4  30
TORSDOF 7
ENDMDL
MODEL 7
REMARK VINA RESULT:    -8.214      4.618      7.763
REMARK INTER + INTRA:         -12.579
REMARK INTER:                 -11.822
REMARK INTRA:                  -0.756
REMARK UNBOUND:                -1.243
REMARK SMILES COc1cccc([C@@H]2CC(c3cc(F)ccc3F)=NN2c2ccc(S(N)(=O)=O)cc2)c1OC
REMARK SMILES IDX 21 1 22 2 23 3 24 4 29 5 30 6 20 7 8 8 9 9 10 10 19 11 7 12
REMARK SMILES IDX 3 13 4 14 31 15 5 16 6 17 2 18 1 19 32 20 33 21 11 22 12 23
REMARK SMILES IDX 17 24 13 25 16 26 15 27 18 28 14 29 25 30 27 31 28 32 26 33
REMARK H PARENT 26 34 26 35
ROOT
ATOM      1  C   UNL     1      13.997 -49.165 -25.825  1.00  0.00     0.060 A 
ATOM      2  C   UNL     1      14.148 -47.770 -25.941  1.00  0.00     0.029 A 
ATOM      3  C   UNL     1      14.727 -47.180 -27.070  1.00  0.00     0.024 A 
ATOM      4  C   UNL     1      15.175 -47.990 -28.109  1.00  0.00     0.082 A 
ATOM      5  C   UNL     1      15.029 -49.374 -28.038  1.00  0.00     0.024 A 
ATOM      6  C   UNL     1      14.447 -49.948 -26.902  1.00  0.00     0.029 A 
ENDROOT
BRANCH   1   7
ATOM      7  N   UNL     1      13.412 -49.724 -24.689  1.00  0.00    -0.257 N 
ATOM      8  C   UNL     1      13.046 -48.997 -23.466  1.00  0.00     0.148 C 
ATOM      9  C   UNL     1      12.116 -49.983 -22.757  1.00  0.00     0.091 C 
ATOM     10  C   UNL     1      12.354 -51.221 -23.578  1.00  0.00     0.074 C 
ATOM     11  N   UNL     1      13.049 -51.039 -24.660  1.00  0.00    -0.176 NA
BRANCH   8  12
ATOM     12  C   UNL     1      14.235 -48.642 -22.582  1.00  0.00     0.023 A 
ATOM     13  C   UNL     1      15.181 -47.295 -20.760  1.00  0.00     0.161 A 
ATOM     14  C   UNL     1      16.403 -47.952 -20.925  1.00  0.00     0.050 A 
ATOM     15  C   UNL     1      14.088 -47.673 -21.567  1.00  0.00     0.166 A 
ATOM     16  C   UNL     1      16.547 -48.948 -21.892  1.00  0.00     0.004 A 
ATOM     17  C   UNL     1      15.475 -49.288 -22.714  1.00  0.00     0.010 A 
BRANCH  13  18
ATOM     18  O   UNL     1      14.969 -46.286 -19.857  1.00  0.00    -0.493 OA
ATOM     19  C   UNL     1      15.850 -46.205 -18.743  1.00  0.00     0.278 C 
ENDBRANCH  13  18
BRANCH  15  20
ATOM     20  O   UNL     1      12.844 -47.090 -21.468  1.00  0.00    -0.492 OA
ATOM     21  C   UNL     1      12.749 -45.828 -22.129  1.00  0.00     0.278 C 
ENDBRANCH  15  20
ENDBRANCH   8  12
BRANCH  10  22
ATOM     22  C   UNL     1      11.810 -52.543 -23.196  1.00  0.00     0.037 A 
ATOM     23  C   UNL     1      11.282 -52.705 -21.908  1.00  0.00     0.052 A 
ATOM     24  C   UNL     1      11.811 -53.631 -24.071  1.00  0.00     0.132 A 
ATOM     25  C   UNL     1      10.764 -53.938 -21.526  1.00  0.00     0.124 A 
ATOM     26  C   UNL     1      11.290 -54.867 -23.681  1.00  0.00     0.043 A 
ATOM     27  C   UNL     1      10.762 -55.021 -22.399  1.00  0.00     0.042 A 
ATOM     28  F   UNL     1      12.319 -53.534 -25.307  1.00  0.00    -0.206 F 
ATOM     29  F   UNL     1      10.258 -54.089 -20.296  1.00  0.00    -0.207 F 
ENDBRANCH  10  22
ENDBRANCH   1   7
BRANCH   4  30
ATOM     30  S   UNL     1      15.915 -47.245 -29.535  1.00  0.00     0.238 S 
ATOM     31  O   UNL     1      16.921 -48.142 -30.058  1.00  0.00    -0.207 OA
ATOM     32  O   UNL     1      14.869 -46.686 -30.357  1.00  0.00    -0.207 OA
BRANCH  30  33
ATOM     33  N   UNL     1      16.770 -45.970 -28.840  1.00  0.00    -0.225 NA
ATOM     34  H   UNL     1      16.278 -45.079 -28.903  1.00  0.00     0.137 HD
ATOM     35  H   UNL     1      16.996 -46.214 -27.875  1.00  0.00     0.137 HD
ENDBRANCH  30  33
ENDBRANCH   4  30
TORSDOF 7
ENDMDL
MODEL 8
REMARK VINA RESULT:    -8.189      4.607      7.449
REMARK INTER + INTRA:         -12.544
REMARK INTER:                 -11.229
REMARK INTRA:                  -1.315
REMARK UNBOUND:                -1.243
REMARK SMILES COc1cccc([C@@H]2CC(c3cc(F)ccc3F)=NN2c2ccc(S(N)(=O)=O)cc2)c1OC
REMARK SMILES IDX 21 1 22 2 23 3 24 4 29 5 30 6 20 7 8 8 9 9 10 10 19 11 7 12
REMARK SMILES IDX 3 13 4 14 31 15 5 16 6 17 2 18 1 19 32 20 33 21 11 22 12 23
REMARK SMILES IDX 17 24 13 25 16 26 15 27 18 28 14 29 25 30 27 31 28 32 26 33
REMARK H PARENT 26 34 26 35
ROOT
ATOM      1  C   UNL     1      14.145 -49.126 -25.955  1.00  0.00     0.060 A 
ATOM      2  C   UNL     1      14.515 -49.868 -27.093  1.00  0.00     0.029 A 
ATOM      3  C   UNL     1      14.991 -49.253 -28.256  1.00  0.00     0.024 A 
ATOM      4  C   UNL     1      15.098 -47.866 -28.299  1.00  0.00     0.082 A 
ATOM      5  C   UNL     1      14.756 -47.097 -27.188  1.00  0.00     0.024 A 
ATOM      6  C   UNL     1      14.282 -47.729 -26.032  1.00  0.00     0.029 A 
ENDROOT
BRANCH   1   7
ATOM      7  N   UNL     1      13.677 -49.769 -24.810  1.00  0.00    -0.257 N 
ATOM      8  C   UNL     1      13.806 -49.272 -23.433  1.00  0.00     0.148 C 
ATOM      9  C   UNL     1      12.801 -50.137 -22.671  1.00  0.00     0.091 C 
ATOM     10  C   UNL     1      12.488 -51.175 -23.713  1.00  0.00     0.074 C 
ATOM     11  N   UNL     1      12.961 -50.928 -24.897  1.00  0.00    -0.176 NA
BRANCH   8  12
ATOM     12  C   UNL     1      15.206 -49.428 -22.852  1.00  0.00     0.023 A 
ATOM     13  C   UNL     1      17.054 -48.501 -21.528  1.00  0.00     0.161 A 
ATOM     14  C   UNL     1      17.787 -49.669 -21.757  1.00  0.00     0.050 A 
ATOM     15  C   UNL     1      15.747 -48.403 -22.046  1.00  0.00     0.166 A 
ATOM     16  C   UNL     1      17.243 -50.710 -22.510  1.00  0.00     0.004 A 
ATOM     17  C   UNL     1      15.967 -50.590 -23.054  1.00  0.00     0.010 A 
BRANCH  13  18
ATOM     18  O   UNL     1      17.530 -47.423 -20.828  1.00  0.00    -0.493 OA
ATOM     19  C   UNL     1      18.425 -46.546 -21.499  1.00  0.00     0.278 C 
ENDBRANCH  13  18
BRANCH  15  20
ATOM     20  O   UNL     1      14.946 -47.298 -21.863  1.00  0.00    -0.492 OA
ATOM     21  C   UNL     1      14.300 -47.263 -20.590  1.00  0.00     0.278 C 
ENDBRANCH  15  20
ENDBRANCH   8  12
BRANCH  10  22
ATOM     22  C   UNL     1      11.677 -52.377 -23.418  1.00  0.00     0.037 A 
ATOM     23  C   UNL     1      12.073 -53.605 -23.962  1.00  0.00     0.052 A 
ATOM     24  C   UNL     1      10.531 -52.326 -22.620  1.00  0.00     0.132 A 
ATOM     25  C   UNL     1      11.328 -54.750 -23.697  1.00  0.00     0.124 A 
ATOM     26  C   UNL     1       9.787 -53.478 -22.358  1.00  0.00     0.043 A 
ATOM     27  C   UNL     1      10.189 -54.699 -22.900  1.00  0.00     0.042 A 
ATOM     28  F   UNL     1      10.100 -51.174 -22.089  1.00  0.00    -0.206 F 
ATOM     29  F   UNL     1      11.711 -55.922 -24.218  1.00  0.00    -0.207 F 
ENDBRANCH  10  22
ENDBRANCH   1   7
BRANCH   4  30
ATOM     30  S   UNL     1      15.693 -47.085 -29.772  1.00  0.00     0.238 S 
ATOM     31  O   UNL     1      16.419 -45.890 -29.404  1.00  0.00    -0.207 OA
ATOM     32  O   UNL     1      16.250 -48.096 -30.637  1.00  0.00    -0.207 OA
BRANCH  30  33
ATOM     33  N   UNL     1      14.257 -46.540 -30.465  1.00  0.00    -0.225 NA
ATOM     34  H   UNL     1      13.670 -46.022 -29.811  1.00  0.00     0.137 HD
ATOM     35  H   UNL     1      14.482 -45.987 -31.294  1.00  0.00     0.137 HD
ENDBRANCH  30  33
ENDBRANCH   4  30
TORSDOF 7
ENDMDL
MODEL 9
REMARK VINA RESULT:    -8.134      4.714      7.069
REMARK INTER + INTRA:         -12.468
REMARK INTER:                 -10.998
REMARK INTRA:                  -1.471
REMARK UNBOUND:                -1.243
REMARK SMILES COc1cccc([C@@H]2CC(c3cc(F)ccc3F)=NN2c2ccc(S(N)(=O)=O)cc2)c1OC
REMARK SMILES IDX 21 1 22 2 23 3 24 4 29 5 30 6 20 7 8 8 9 9 10 10 19 11 7 12
REMARK SMILES IDX 3 13 4 14 31 15 5 16 6 17 2 18 1 19 32 20 33 21 11 22 12 23
REMARK SMILES IDX 17 24 13 25 16 26 15 27 18 28 14 29 25 30 27 31 28 32 26 33
REMARK H PARENT 26 34 26 35
ROOT
ATOM      1  C   UNL     1      14.682 -48.831 -26.673  1.00  0.00     0.060 A 
ATOM      2  C   UNL     1      14.905 -49.590 -27.838  1.00  0.00     0.029 A 
ATOM      3  C   UNL     1      15.130 -48.990 -29.082  1.00  0.00     0.024 A 
ATOM      4  C   UNL     1      15.129 -47.601 -29.178  1.00  0.00     0.082 A 
ATOM      5  C   UNL     1      14.928 -46.815 -28.045  1.00  0.00     0.024 A 
ATOM      6  C   UNL     1      14.704 -47.432 -26.809  1.00  0.00     0.029 A 
ENDROOT
BRANCH   1   7
ATOM      7  N   UNL     1      14.464 -49.460 -25.448  1.00  0.00    -0.257 N 
ATOM      8  C   UNL     1      15.387 -49.459 -24.305  1.00  0.00     0.148 C 
ATOM      9  C   UNL     1      14.494 -49.927 -23.154  1.00  0.00     0.091 C 
ATOM     10  C   UNL     1      13.284 -50.389 -23.918  1.00  0.00     0.074 C 
ATOM     11  N   UNL     1      13.281 -50.088 -25.181  1.00  0.00    -0.176 NA
BRANCH   8  12
ATOM     12  C   UNL     1      16.581 -50.389 -24.478  1.00  0.00     0.023 A 
ATOM     13  C   UNL     1      18.998 -50.775 -24.293  1.00  0.00     0.161 A 
ATOM     14  C   UNL     1      18.817 -52.071 -24.781  1.00  0.00     0.050 A 
ATOM     15  C   UNL     1      17.869 -49.951 -24.106  1.00  0.00     0.166 A 
ATOM     16  C   UNL     1      17.540 -52.534 -25.105  1.00  0.00     0.004 A 
ATOM     17  C   UNL     1      16.434 -51.700 -24.958  1.00  0.00     0.010 A 
BRANCH  13  18
ATOM     18  O   UNL     1      20.220 -50.237 -23.983  1.00  0.00    -0.493 OA
ATOM     19  C   UNL     1      21.363 -51.067 -24.143  1.00  0.00     0.278 C 
ENDBRANCH  13  18
BRANCH  15  20
ATOM     20  O   UNL     1      17.949 -48.665 -23.621  1.00  0.00    -0.492 OA
ATOM     21  C   UNL     1      18.001 -48.593 -22.195  1.00  0.00     0.278 C 
ENDBRANCH  15  20
ENDBRANCH   8  12
BRANCH  10  22
ATOM     22  C   UNL     1      12.165 -51.110 -23.271  1.00  0.00     0.037 A 
ATOM     23  C   UNL     1      12.151 -52.509 -23.320  1.00  0.00     0.052 A 
ATOM     24  C   UNL     1      11.125 -50.443 -22.619  1.00  0.00     0.132 A 
ATOM     25  C   UNL     1      11.111 -53.210 -22.717  1.00  0.00     0.124 A 
ATOM     26  C   UNL     1      10.084 -51.151 -22.017  1.00  0.00     0.043 A 
ATOM     27  C   UNL     1      10.077 -52.545 -22.066  1.00  0.00     0.042 A 
ATOM     28  F   UNL     1      11.083 -49.104 -22.559  1.00  0.00    -0.206 F 
ATOM     29  F   UNL     1      11.102 -54.548 -22.764  1.00  0.00    -0.207 F 
ENDBRANCH  10  22
ENDBRANCH   1   7
BRANCH   4  30
ATOM     30  S   UNL     1      15.408 -46.839 -30.752  1.00  0.00     0.238 S 
ATOM     31  O   UNL     1      16.294 -45.711 -30.571  1.00  0.00    -0.207 OA
ATOM     32  O   UNL     1      15.655 -47.873 -31.727  1.00  0.00    -0.207 OA
BRANCH  30  33
ATOM     33  N   UNL     1      13.893 -46.171 -31.072  1.00  0.00    -0.225 NA
ATOM     34  H   UNL     1      13.948 -45.242 -31.489  1.00  0.00     0.137 HD
ATOM     35  H   UNL     1      13.366 -46.821 -31.657  1.00  0.00     0.137 HD
ENDBRANCH  30  33
ENDBRANCH   4  30
TORSDOF 7
ENDMDL
