MODEL 1
REMARK VINA RESULT:   -12.115      0.000      0.000
REMARK INTER + INTRA:         -18.076
REMARK INTER:                 -17.072
REMARK INTRA:                  -1.004
REMARK UNBOUND:                -1.004
REMARK SMILES O=C1C(=NCCCN=c2c3c([nH]c4cc(Cl)ccc24)CCCC3)C=C(O)c2c(O)cccc21
REMARK SMILES IDX 5 1 4 2 3 3 25 4 24 5 27 6 28 7 33 8 2 9 30 10 32 11 31 12
REMARK SMILES IDX 1 13 26 14 29 16 6 18 7 19 8 20 9 21 10 22 19 23 11 24 23 25
REMARK SMILES IDX 18 26 13 27 12 28 20 29 22 30 17 31 14 32 21 33 15 34 16 36
REMARK H PARENT 26 15 29 17 12 35
ROOT
ATOM      1  C   UNL     1       9.819 -58.071 -22.608  1.00  0.00     0.145 C 
ENDROOT
BRANCH   1   2
ATOM      2  N   UNL     1       9.820 -56.921 -23.511  1.00  0.00    -0.281 NA
BRANCH   2   3
ATOM      3  C   UNL     1      10.511 -55.859 -23.257  1.00  0.00     0.109 C 
ATOM      4  C   UNL     1      10.730 -53.941 -21.738  1.00  0.00     0.129 C 
ATOM      5  C   UNL     1      10.291 -55.182 -21.961  1.00  0.00     0.079 C 
ATOM      6  C   UNL     1      11.461 -53.157 -22.759  1.00  0.00     0.069 A 
ATOM      7  C   UNL     1      11.805 -51.801 -22.602  1.00  0.00     0.127 A 
ATOM      8  C   UNL     1      11.859 -53.784 -23.949  1.00  0.00     0.039 A 
ATOM      9  C   UNL     1      11.550 -55.214 -24.167  1.00  0.00     0.211 C 
ATOM     10  C   UNL     1      12.511 -51.100 -23.586  1.00  0.00     0.047 A 
ATOM     11  C   UNL     1      12.577 -53.091 -24.937  1.00  0.00     0.013 A 
ATOM     12  C   UNL     1      12.897 -51.750 -24.754  1.00  0.00     0.005 A 
ATOM     13  O   UNL     1      12.147 -55.847 -25.026  1.00  0.00    -0.287 OA
BRANCH   4  14
ATOM     14  O   UNL     1      10.465 -53.354 -20.515  1.00  0.00    -0.507 OA
ATOM     15  H   UNL     1      10.059 -52.479 -20.685  1.00  0.00     0.293 HD
ENDBRANCH   4  14
BRANCH   7  16
ATOM     16  O   UNL     1      11.445 -51.142 -21.451  1.00  0.00    -0.507 OA
ATOM     17  H   UNL     1      10.869 -50.391 -21.688  1.00  0.00     0.293 HD
ENDBRANCH   7  16
ENDBRANCH   2   3
ENDBRANCH   1   2
BRANCH   1  18
ATOM     18  C   UNL     1      11.208 -58.705 -22.571  1.00  0.00     0.047 C 
BRANCH  18  19
ATOM     19  C   UNL     1      11.146 -60.219 -22.368  1.00  0.00     0.145 C 
BRANCH  19  20
ATOM     20  N   UNL     1      11.469 -60.874 -23.619  1.00  0.00    -0.284 NA
BRANCH  20  21
ATOM     21  C   UNL     1      10.648 -61.120 -24.574  1.00  0.00     0.072 A 
ATOM     22  C   UNL     1       9.404 -61.995 -24.584  1.00  0.00    -0.003 A 
ATOM     23  C   UNL     1      10.975 -60.455 -25.886  1.00  0.00     0.024 A 
ATOM     24  C   UNL     1       8.881 -62.347 -25.782  1.00  0.00     0.021 A 
ATOM     25  C   UNL     1       8.741 -62.372 -23.286  1.00  0.00     0.039 C 
ATOM     26  C   UNL     1      11.949 -59.445 -25.950  1.00  0.00     0.014 A 
ATOM     27  C   UNL     1      10.330 -60.886 -27.052  1.00  0.00     0.049 A 
ATOM     28  N   UNL     1       9.394 -61.925 -26.991  1.00  0.00    -0.358 N 
ATOM     29  C   UNL     1       7.649 -63.227 -25.890  1.00  0.00     0.054 C 
ATOM     30  C   UNL     1       7.308 -62.885 -23.440  1.00  0.00     0.005 C 
ATOM     31  C   UNL     1      12.282 -58.871 -27.178  1.00  0.00     0.021 A 
ATOM     32  C   UNL     1      10.690 -60.323 -28.282  1.00  0.00     0.047 A 
ATOM     33  C   UNL     1       7.225 -63.885 -24.581  1.00  0.00     0.007 C 
ATOM     34  C   UNL     1      11.654 -59.316 -28.338  1.00  0.00     0.043 A 
ATOM     35  H   UNL     1       8.814 -62.069 -27.810  1.00  0.00     0.166 HD
ATOM     36  Cl  UNL     1      12.074 -58.622 -29.856  1.00  0.00    -0.084 Cl
ENDBRANCH  20  21
ENDBRANCH  19  20
ENDBRANCH  18  19
ENDBRANCH   1  18
TORSDOF 8
ENDMDL
MODEL 2
REMARK VINA RESULT:   -12.031      0.936      2.021
REMARK INTER + INTRA:         -17.958
REMARK INTER:                 -17.080
REMARK INTRA:                  -0.878
REMARK UNBOUND:                -1.004
REMARK SMILES O=C1C(=NCCCN=c2c3c([nH]c4cc(Cl)ccc24)CCCC3)C=C(O)c2c(O)cccc21
REMARK SMILES IDX 5 1 4 2 3 3 25 4 24 5 27 6 28 7 33 8 2 9 30 10 32 11 31 12
REMARK SMILES IDX 1 13 26 14 29 16 6 18 7 19 8 20 9 21 10 22 19 23 11 24 23 25
REMARK SMILES IDX 18 26 13 27 12 28 20 29 22 30 17 31 14 32 21 33 15 34 16 36
REMARK H PARENT 26 15 29 17 12 35
ROOT
ATOM      1  C   UNL     1      10.549 -57.836 -22.741  1.00  0.00     0.145 C 
ENDROOT
BRANCH   1   2
ATOM      2  N   UNL     1      10.779 -56.599 -21.997  1.00  0.00    -0.281 NA
BRANCH   2   3
ATOM      3  C   UNL     1      10.939 -55.466 -22.597  1.00  0.00     0.109 C 
ATOM      4  C   UNL     1      11.865 -54.385 -24.600  1.00  0.00     0.129 C 
ATOM      5  C   UNL     1      11.396 -55.484 -24.004  1.00  0.00     0.079 C 
ATOM      6  C   UNL     1      11.963 -53.081 -23.907  1.00  0.00     0.069 A 
ATOM      7  C   UNL     1      12.586 -51.947 -24.463  1.00  0.00     0.127 A 
ATOM      8  C   UNL     1      11.395 -52.937 -22.633  1.00  0.00     0.039 A 
ATOM      9  C   UNL     1      10.704 -54.082 -22.001  1.00  0.00     0.211 C 
ATOM     10  C   UNL     1      12.642 -50.727 -23.781  1.00  0.00     0.047 A 
ATOM     11  C   UNL     1      11.438 -51.713 -21.945  1.00  0.00     0.013 A 
ATOM     12  C   UNL     1      12.066 -50.613 -22.520  1.00  0.00     0.005 A 
ATOM     13  O   UNL     1       9.945 -53.899 -21.061  1.00  0.00    -0.287 OA
BRANCH   4  14
ATOM     14  O   UNL     1      12.304 -54.477 -25.907  1.00  0.00    -0.507 OA
ATOM     15  H   UNL     1      11.642 -54.035 -26.477  1.00  0.00     0.293 HD
ENDBRANCH   4  14
BRANCH   7  16
ATOM     16  O   UNL     1      13.152 -52.033 -25.713  1.00  0.00    -0.507 OA
ATOM     17  H   UNL     1      13.727 -52.821 -25.743  1.00  0.00     0.293 HD
ENDBRANCH   7  16
ENDBRANCH   2   3
ENDBRANCH   1   2
BRANCH   1  18
ATOM     18  C   UNL     1      11.624 -58.862 -22.391  1.00  0.00     0.047 C 
BRANCH  18  19
ATOM     19  C   UNL     1      11.072 -60.287 -22.352  1.00  0.00     0.145 C 
BRANCH  19  20
ATOM     20  N   UNL     1      11.413 -60.958 -23.589  1.00  0.00    -0.284 NA
BRANCH  20  21
ATOM     21  C   UNL     1      10.619 -61.169 -24.576  1.00  0.00     0.072 A 
ATOM     22  C   UNL     1       9.384 -62.052 -24.656  1.00  0.00    -0.003 A 
ATOM     23  C   UNL     1      10.975 -60.445 -25.849  1.00  0.00     0.024 A 
ATOM     24  C   UNL     1       8.895 -62.356 -25.881  1.00  0.00     0.021 A 
ATOM     25  C   UNL     1       8.691 -62.489 -23.393  1.00  0.00     0.039 C 
ATOM     26  C   UNL     1      11.941 -59.426 -25.845  1.00  0.00     0.014 A 
ATOM     27  C   UNL     1      10.363 -60.831 -27.048  1.00  0.00     0.049 A 
ATOM     28  N   UNL     1       9.435 -61.878 -27.057  1.00  0.00    -0.358 N 
ATOM     29  C   UNL     1       7.674 -63.240 -26.059  1.00  0.00     0.054 C 
ATOM     30  C   UNL     1       7.267 -63.006 -23.606  1.00  0.00     0.005 C 
ATOM     31  C   UNL     1      12.301 -58.797 -27.037  1.00  0.00     0.021 A 
ATOM     32  C   UNL     1      10.750 -60.213 -28.244  1.00  0.00     0.047 A 
ATOM     33  C   UNL     1       7.222 -63.957 -24.790  1.00  0.00     0.007 C 
ATOM     34  C   UNL     1      11.706 -59.196 -28.231  1.00  0.00     0.043 A 
ATOM     35  H   UNL     1       8.878 -61.992 -27.896  1.00  0.00     0.166 HD
ATOM     36  Cl  UNL     1      12.160 -58.435 -29.707  1.00  0.00    -0.084 Cl
ENDBRANCH  20  21
ENDBRANCH  19  20
ENDBRANCH  18  19
ENDBRANCH   1  18
TORSDOF 8
ENDMDL
MODEL 3
REMARK VINA RESULT:   -11.206      2.158      4.036
REMARK INTER + INTRA:         -16.795
REMARK INTER:                 -15.993
REMARK INTRA:                  -0.802
REMARK UNBOUND:                -1.004
REMARK SMILES O=C1C(=NCCCN=c2c3c([nH]c4cc(Cl)ccc24)CCCC3)C=C(O)c2c(O)cccc21
REMARK SMILES IDX 5 1 4 2 3 3 25 4 24 5 27 6 28 7 33 8 2 9 30 10 32 11 31 12
REMARK SMILES IDX 1 13 26 14 29 16 6 18 7 19 8 20 9 21 10 22 19 23 11 24 23 25
REMARK SMILES IDX 18 26 13 27 12 28 20 29 22 30 17 31 14 32 21 33 15 34 16 36
REMARK H PARENT 26 15 29 17 12 35
ROOT
ATOM      1  C   UNL     1      10.580 -56.025 -22.672  1.00  0.00     0.145 C 
ENDROOT
BRANCH   1   2
ATOM      2  N   UNL     1      10.709 -55.161 -23.844  1.00  0.00    -0.281 NA
BRANCH   2   3
ATOM      3  C   UNL     1      11.466 -54.115 -23.836  1.00  0.00     0.109 C 
ATOM      4  C   UNL     1      11.886 -51.967 -22.718  1.00  0.00     0.129 C 
ATOM      5  C   UNL     1      11.373 -53.200 -22.678  1.00  0.00     0.079 C 
ATOM      6  C   UNL     1      12.577 -51.429 -23.911  1.00  0.00     0.069 A 
ATOM      7  C   UNL     1      12.996 -50.090 -24.031  1.00  0.00     0.127 A 
ATOM      8  C   UNL     1      12.858 -52.285 -24.986  1.00  0.00     0.039 A 
ATOM      9  C   UNL     1      12.467 -53.709 -24.914  1.00  0.00     0.211 C 
ATOM     10  C   UNL     1      13.661 -49.624 -25.170  1.00  0.00     0.047 A 
ATOM     11  C   UNL     1      13.535 -51.829 -26.128  1.00  0.00     0.013 A 
ATOM     12  C   UNL     1      13.930 -50.498 -26.219  1.00  0.00     0.005 A 
ATOM     13  O   UNL     1      12.969 -54.524 -25.675  1.00  0.00    -0.287 OA
BRANCH   4  14
ATOM     14  O   UNL     1      11.737 -51.152 -21.612  1.00  0.00    -0.507 OA
ATOM     15  H   UNL     1      12.631 -50.958 -21.261  1.00  0.00     0.293 HD
ENDBRANCH   4  14
BRANCH   7  16
ATOM     16  O   UNL     1      12.751 -49.212 -23.003  1.00  0.00    -0.507 OA
ATOM     17  H   UNL     1      11.804 -48.976 -23.011  1.00  0.00     0.293 HD
ENDBRANCH   7  16
ENDBRANCH   2   3
ENDBRANCH   1   2
BRANCH   1  18
ATOM     18  C   UNL     1      10.551 -57.489 -23.104  1.00  0.00     0.047 C 
BRANCH  18  19
ATOM     19  C   UNL     1      11.796 -57.881 -23.901  1.00  0.00     0.145 C 
BRANCH  19  20
ATOM     20  N   UNL     1      11.898 -59.325 -23.935  1.00  0.00    -0.284 NA
BRANCH  20  21
ATOM     21  C   UNL     1      11.356 -60.098 -24.806  1.00  0.00     0.072 A 
ATOM     22  C   UNL     1      11.440 -60.058 -26.323  1.00  0.00    -0.003 A 
ATOM     23  C   UNL     1      10.497 -61.198 -24.238  1.00  0.00     0.024 A 
ATOM     24  C   UNL     1      10.538 -60.779 -27.031  1.00  0.00     0.021 A 
ATOM     25  C   UNL     1      12.555 -59.303 -26.995  1.00  0.00     0.039 C 
ATOM     26  C   UNL     1      10.526 -61.489 -22.865  1.00  0.00     0.014 A 
ATOM     27  C   UNL     1       9.634 -61.899 -25.089  1.00  0.00     0.049 A 
ATOM     28  N   UNL     1       9.573 -61.575 -26.449  1.00  0.00    -0.358 N 
ATOM     29  C   UNL     1      10.537 -60.791 -28.549  1.00  0.00     0.054 C 
ATOM     30  C   UNL     1      12.768 -59.673 -28.464  1.00  0.00     0.005 C 
ATOM     31  C   UNL     1       9.689 -62.475 -22.341  1.00  0.00     0.021 A 
ATOM     32  C   UNL     1       8.779 -62.868 -24.550  1.00  0.00     0.047 A 
ATOM     33  C   UNL     1      11.436 -59.738 -29.190  1.00  0.00     0.007 C 
ATOM     34  C   UNL     1       8.817 -63.157 -23.185  1.00  0.00     0.043 A 
ATOM     35  H   UNL     1       9.091 -62.228 -27.057  1.00  0.00     0.166 HD
ATOM     36  Cl  UNL     1       7.771 -64.362 -22.539  1.00  0.00    -0.084 Cl
ENDBRANCH  20  21
ENDBRANCH  19  20
ENDBRANCH  18  19
ENDBRANCH   1  18
TORSDOF 8
ENDMDL
MODEL 4
REMARK VINA RESULT:   -11.159      2.281      4.304
REMARK INTER + INTRA:         -16.729
REMARK INTER:                 -15.831
REMARK INTRA:                  -0.898
REMARK UNBOUND:                -1.004
REMARK SMILES O=C1C(=NCCCN=c2c3c([nH]c4cc(Cl)ccc24)CCCC3)C=C(O)c2c(O)cccc21
REMARK SMILES IDX 5 1 4 2 3 3 25 4 24 5 27 6 28 7 33 8 2 9 30 10 32 11 31 12
REMARK SMILES IDX 1 13 26 14 29 16 6 18 7 19 8 20 9 21 10 22 19 23 11 24 23 25
REMARK SMILES IDX 18 26 13 27 12 28 20 29 22 30 17 31 14 32 21 33 15 34 16 36
REMARK H PARENT 26 15 29 17 12 35
ROOT
ATOM      1  C   UNL     1      11.164 -56.516 -21.910  1.00  0.00     0.145 C 
ENDROOT
BRANCH   1   2
ATOM      2  N   UNL     1      10.439 -55.758 -22.929  1.00  0.00    -0.281 NA
BRANCH   2   3
ATOM      3  C   UNL     1      10.831 -54.588 -23.311  1.00  0.00     0.109 C 
ATOM      4  C   UNL     1      12.410 -53.391 -24.764  1.00  0.00     0.129 C 
ATOM      5  C   UNL     1      11.729 -54.505 -24.483  1.00  0.00     0.079 C 
ATOM      6  C   UNL     1      12.320 -52.169 -23.934  1.00  0.00     0.069 A 
ATOM      7  C   UNL     1      13.133 -51.036 -24.123  1.00  0.00     0.127 A 
ATOM      8  C   UNL     1      11.365 -52.106 -22.908  1.00  0.00     0.039 A 
ATOM      9  C   UNL     1      10.462 -53.253 -22.671  1.00  0.00     0.211 C 
ATOM     10  C   UNL     1      13.005 -49.893 -23.326  1.00  0.00     0.047 A 
ATOM     11  C   UNL     1      11.222 -50.960 -22.109  1.00  0.00     0.013 A 
ATOM     12  C   UNL     1      12.046 -49.858 -22.318  1.00  0.00     0.005 A 
ATOM     13  O   UNL     1       9.440 -53.106 -22.016  1.00  0.00    -0.287 OA
BRANCH   4  14
ATOM     14  O   UNL     1      13.256 -53.390 -25.857  1.00  0.00    -0.507 OA
ATOM     15  H   UNL     1      13.983 -52.760 -25.673  1.00  0.00     0.293 HD
ENDBRANCH   4  14
BRANCH   7  16
ATOM     16  O   UNL     1      14.079 -51.043 -25.120  1.00  0.00    -0.507 OA
ATOM     17  H   UNL     1      13.760 -50.492 -25.859  1.00  0.00     0.293 HD
ENDBRANCH   7  16
ENDBRANCH   2   3
ENDBRANCH   1   2
BRANCH   1  18
ATOM     18  C   UNL     1      11.232 -57.989 -22.309  1.00  0.00     0.047 C 
BRANCH  18  19
ATOM     19  C   UNL     1      11.772 -58.179 -23.727  1.00  0.00     0.145 C 
BRANCH  19  20
ATOM     20  N   UNL     1      11.989 -59.591 -23.962  1.00  0.00    -0.284 NA
BRANCH  20  21
ATOM     21  C   UNL     1      11.397 -60.306 -24.850  1.00  0.00     0.072 A 
ATOM     22  C   UNL     1      11.452 -60.212 -26.366  1.00  0.00    -0.003 A 
ATOM     23  C   UNL     1      10.503 -61.390 -24.305  1.00  0.00     0.024 A 
ATOM     24  C   UNL     1      10.507 -60.867 -27.081  1.00  0.00     0.021 A 
ATOM     25  C   UNL     1      12.586 -59.480 -27.032  1.00  0.00     0.039 C 
ATOM     26  C   UNL     1      10.547 -61.735 -22.945  1.00  0.00     0.014 A 
ATOM     27  C   UNL     1       9.594 -62.022 -25.163  1.00  0.00     0.049 A 
ATOM     28  N   UNL     1       9.521 -61.643 -26.508  1.00  0.00    -0.358 N 
ATOM     29  C   UNL     1      10.475 -60.820 -28.597  1.00  0.00     0.054 C 
ATOM     30  C   UNL     1      12.754 -59.803 -28.518  1.00  0.00     0.005 C 
ATOM     31  C   UNL     1       9.678 -62.704 -22.440  1.00  0.00     0.021 A 
ATOM     32  C   UNL     1       8.709 -62.974 -24.642  1.00  0.00     0.047 A 
ATOM     33  C   UNL     1      11.406 -59.783 -29.218  1.00  0.00     0.007 C 
ATOM     34  C   UNL     1       8.761 -63.316 -23.290  1.00  0.00     0.043 A 
ATOM     35  H   UNL     1       8.999 -62.251 -27.129  1.00  0.00     0.166 HD
ATOM     36  Cl  UNL     1       7.678 -64.499 -22.668  1.00  0.00    -0.084 Cl
ENDBRANCH  20  21
ENDBRANCH  19  20
ENDBRANCH  18  19
ENDBRANCH   1  18
TORSDOF 8
ENDMDL
MODEL 5
REMARK VINA RESULT:   -10.938      4.006      9.424
REMARK INTER + INTRA:         -16.417
REMARK INTER:                 -15.641
REMARK INTRA:                  -0.776
REMARK UNBOUND:                -1.004
REMARK SMILES O=C1C(=NCCCN=c2c3c([nH]c4cc(Cl)ccc24)CCCC3)C=C(O)c2c(O)cccc21
REMARK SMILES IDX 5 1 4 2 3 3 25 4 24 5 27 6 28 7 33 8 2 9 30 10 32 11 31 12
REMARK SMILES IDX 1 13 26 14 29 16 6 18 7 19 8 20 9 21 10 22 19 23 11 24 23 25
REMARK SMILES IDX 18 26 13 27 12 28 20 29 22 30 17 31 14 32 21 33 15 34 16 36
REMARK H PARENT 26 15 29 17 12 35
ROOT
ATOM      1  C   UNL     1       9.875 -56.154 -22.389  1.00  0.00     0.145 C 
ENDROOT
BRANCH   1   2
ATOM      2  N   UNL     1      10.426 -57.066 -23.391  1.00  0.00    -0.281 NA
BRANCH   2   3
ATOM      3  C   UNL     1       9.920 -58.237 -23.593  1.00  0.00     0.109 C 
ATOM      4  C   UNL     1       7.821 -59.511 -23.700  1.00  0.00     0.129 C 
ATOM      5  C   UNL     1       8.456 -58.338 -23.780  1.00  0.00     0.079 C 
ATOM      6  C   UNL     1       8.525 -60.782 -23.420  1.00  0.00     0.069 A 
ATOM      7  C   UNL     1       7.865 -62.004 -23.187  1.00  0.00     0.127 A 
ATOM      8  C   UNL     1       9.927 -60.800 -23.400  1.00  0.00     0.039 A 
ATOM      9  C   UNL     1      10.683 -59.556 -23.662  1.00  0.00     0.211 C 
ATOM     10  C   UNL     1       8.568 -63.188 -22.942  1.00  0.00     0.047 A 
ATOM     11  C   UNL     1      10.642 -61.986 -23.166  1.00  0.00     0.013 A 
ATOM     12  C   UNL     1       9.960 -63.176 -22.933  1.00  0.00     0.005 A 
ATOM     13  O   UNL     1      11.868 -59.607 -23.959  1.00  0.00    -0.287 OA
BRANCH   4  14
ATOM     14  O   UNL     1       6.448 -59.531 -23.854  1.00  0.00    -0.507 OA
ATOM     15  H   UNL     1       6.165 -58.638 -24.138  1.00  0.00     0.293 HD
ENDBRANCH   4  14
BRANCH   7  16
ATOM     16  O   UNL     1       6.491 -62.042 -23.203  1.00  0.00    -0.507 OA
ATOM     17  H   UNL     1       6.203 -62.654 -23.906  1.00  0.00     0.293 HD
ENDBRANCH   7  16
ENDBRANCH   2   3
ENDBRANCH   1   2
BRANCH   1  18
ATOM     18  C   UNL     1      11.009 -55.450 -21.647  1.00  0.00     0.047 C 
BRANCH  18  19
ATOM     19  C   UNL     1      10.662 -54.002 -21.302  1.00  0.00     0.145 C 
BRANCH  19  20
ATOM     20  N   UNL     1      10.340 -53.291 -22.522  1.00  0.00    -0.284 NA
BRANCH  20  21
ATOM     21  C   UNL     1      11.162 -52.610 -23.235  1.00  0.00     0.072 A 
ATOM     22  C   UNL     1      12.195 -53.084 -24.244  1.00  0.00    -0.003 A 
ATOM     23  C   UNL     1      11.103 -51.118 -23.029  1.00  0.00     0.024 A 
ATOM     24  C   UNL     1      13.152 -52.210 -24.636  1.00  0.00     0.021 A 
ATOM     25  C   UNL     1      12.084 -54.461 -24.843  1.00  0.00     0.039 C 
ATOM     26  C   UNL     1      10.044 -50.538 -22.311  1.00  0.00     0.014 A 
ATOM     27  C   UNL     1      12.141 -50.318 -23.522  1.00  0.00     0.049 A 
ATOM     28  N   UNL     1      13.218 -50.904 -24.197  1.00  0.00    -0.358 N 
ATOM     29  C   UNL     1      14.232 -52.598 -25.630  1.00  0.00     0.054 C 
ATOM     30  C   UNL     1      12.910 -54.660 -26.115  1.00  0.00     0.005 C 
ATOM     31  C   UNL     1      10.026 -49.162 -22.081  1.00  0.00     0.021 A 
ATOM     32  C   UNL     1      12.127 -48.942 -23.264  1.00  0.00     0.047 A 
ATOM     33  C   UNL     1      14.307 -54.092 -25.932  1.00  0.00     0.007 C 
ATOM     34  C   UNL     1      11.069 -48.371 -22.555  1.00  0.00     0.043 A 
ATOM     35  H   UNL     1      13.837 -50.282 -24.703  1.00  0.00     0.166 HD
ATOM     36  Cl  UNL     1      11.057 -46.676 -22.258  1.00  0.00    -0.084 Cl
ENDBRANCH  20  21
ENDBRANCH  19  20
ENDBRANCH  18  19
ENDBRANCH   1  18
TORSDOF 8
ENDMDL
MODEL 6
REMARK VINA RESULT:   -10.793      2.367      4.500
REMARK INTER + INTRA:         -16.213
REMARK INTER:                 -15.703
REMARK INTRA:                  -0.510
REMARK UNBOUND:                -1.004
REMARK SMILES O=C1C(=NCCCN=c2c3c([nH]c4cc(Cl)ccc24)CCCC3)C=C(O)c2c(O)cccc21
REMARK SMILES IDX 5 1 4 2 3 3 25 4 24 5 27 6 28 7 33 8 2 9 30 10 32 11 31 12
REMARK SMILES IDX 1 13 26 14 29 16 6 18 7 19 8 20 9 21 10 22 19 23 11 24 23 25
REMARK SMILES IDX 18 26 13 27 12 28 20 29 22 30 17 31 14 32 21 33 15 34 16 36
REMARK H PARENT 26 15 29 17 12 35
ROOT
ATOM      1  C   UNL     1      12.537 -56.631 -27.153  1.00  0.00     0.145 C 
ENDROOT
BRANCH   1   2
ATOM      2  N   UNL     1      12.554 -56.228 -25.748  1.00  0.00    -0.281 NA
BRANCH   2   3
ATOM      3  C   UNL     1      12.391 -54.997 -25.393  1.00  0.00     0.109 C 
ATOM      4  C   UNL     1      13.301 -52.725 -25.603  1.00  0.00     0.129 C 
ATOM      5  C   UNL     1      13.184 -53.963 -26.091  1.00  0.00     0.079 C 
ATOM      6  C   UNL     1      12.655 -52.299 -24.342  1.00  0.00     0.069 A 
ATOM      7  C   UNL     1      12.880 -51.050 -23.733  1.00  0.00     0.127 A 
ATOM      8  C   UNL     1      11.749 -53.164 -23.710  1.00  0.00     0.039 A 
ATOM      9  C   UNL     1      11.449 -54.482 -24.309  1.00  0.00     0.211 C 
ATOM     10  C   UNL     1      12.236 -50.680 -22.548  1.00  0.00     0.047 A 
ATOM     11  C   UNL     1      11.090 -52.797 -22.525  1.00  0.00     0.013 A 
ATOM     12  C   UNL     1      11.339 -51.557 -21.945  1.00  0.00     0.005 A 
ATOM     13  O   UNL     1      10.454 -55.103 -23.963  1.00  0.00    -0.287 OA
BRANCH   4  14
ATOM     14  O   UNL     1      14.082 -51.814 -26.289  1.00  0.00    -0.507 OA
ATOM     15  H   UNL     1      14.517 -51.236 -25.629  1.00  0.00     0.293 HD
ENDBRANCH   4  14
BRANCH   7  16
ATOM     16  O   UNL     1      13.752 -50.163 -24.316  1.00  0.00    -0.507 OA
ATOM     17  H   UNL     1      13.818 -50.368 -25.268  1.00  0.00     0.293 HD
ENDBRANCH   7  16
ENDBRANCH   2   3
ENDBRANCH   1   2
BRANCH   1  18
ATOM     18  C   UNL     1      12.135 -58.100 -27.269  1.00  0.00     0.047 C 
BRANCH  18  19
ATOM     19  C   UNL     1      12.485 -58.895 -26.010  1.00  0.00     0.145 C 
BRANCH  19  20
ATOM     20  N   UNL     1      11.548 -59.990 -25.869  1.00  0.00    -0.284 NA
BRANCH  20  21
ATOM     21  C   UNL     1      10.830 -60.238 -24.834  1.00  0.00     0.072 A 
ATOM     22  C   UNL     1      10.929 -59.674 -23.426  1.00  0.00    -0.003 A 
ATOM     23  C   UNL     1       9.734 -61.251 -25.045  1.00  0.00     0.024 A 
ATOM     24  C   UNL     1      10.267 -60.314 -22.434  1.00  0.00     0.021 A 
ATOM     25  C   UNL     1      11.676 -58.391 -23.182  1.00  0.00     0.039 C 
ATOM     26  C   UNL     1       9.386 -61.667 -26.339  1.00  0.00     0.014 A 
ATOM     27  C   UNL     1       9.096 -61.810 -23.930  1.00  0.00     0.049 A 
ATOM     28  N   UNL     1       9.478 -61.428 -22.639  1.00  0.00    -0.358 N 
ATOM     29  C   UNL     1      10.318 -59.832 -20.996  1.00  0.00     0.054 C 
ATOM     30  C   UNL     1      11.360 -57.726 -21.841  1.00  0.00     0.005 C 
ATOM     31  C   UNL     1       8.406 -62.644 -26.521  1.00  0.00     0.021 A 
ATOM     32  C   UNL     1       8.133 -62.808 -24.121  1.00  0.00     0.047 A 
ATOM     33  C   UNL     1      11.368 -58.758 -20.726  1.00  0.00     0.007 C 
ATOM     34  C   UNL     1       7.787 -63.213 -25.411  1.00  0.00     0.043 A 
ATOM     35  H   UNL     1       8.867 -61.702 -21.878  1.00  0.00     0.166 HD
ATOM     36  Cl  UNL     1       6.590 -64.430 -25.631  1.00  0.00    -0.084 Cl
ENDBRANCH  20  21
ENDBRANCH  19  20
ENDBRANCH  18  19
ENDBRANCH   1  18
TORSDOF 8
ENDMDL
MODEL 7
REMARK VINA RESULT:   -10.469      1.559      2.485
REMARK INTER + INTRA:         -15.757
REMARK INTER:                 -15.296
REMARK INTRA:                  -0.461
REMARK UNBOUND:                -1.004
REMARK SMILES O=C1C(=NCCCN=c2c3c([nH]c4cc(Cl)ccc24)CCCC3)C=C(O)c2c(O)cccc21
REMARK SMILES IDX 5 1 4 2 3 3 25 4 24 5 27 6 28 7 33 8 2 9 30 10 32 11 31 12
REMARK SMILES IDX 1 13 26 14 29 16 6 18 7 19 8 20 9 21 10 22 19 23 11 24 23 25
REMARK SMILES IDX 18 26 13 27 12 28 20 29 22 30 17 31 14 32 21 33 15 34 16 36
REMARK H PARENT 26 15 29 17 12 35
ROOT
ATOM      1  C   UNL     1      10.973 -55.383 -22.337  1.00  0.00     0.145 C 
ENDROOT
BRANCH   1   2
ATOM      2  N   UNL     1      10.850 -54.471 -23.474  1.00  0.00    -0.281 NA
BRANCH   2   3
ATOM      3  C   UNL     1      11.634 -53.454 -23.615  1.00  0.00     0.109 C 
ATOM      4  C   UNL     1      12.175 -51.220 -22.749  1.00  0.00     0.129 C 
ATOM      5  C   UNL     1      11.633 -52.425 -22.554  1.00  0.00     0.079 C 
ATOM      6  C   UNL     1      12.809 -50.827 -24.027  1.00  0.00     0.069 A 
ATOM      7  C   UNL     1      13.256 -49.522 -24.308  1.00  0.00     0.127 A 
ATOM      8  C   UNL     1      13.003 -51.797 -25.023  1.00  0.00     0.039 A 
ATOM      9  C   UNL     1      12.580 -53.193 -24.783  1.00  0.00     0.211 C 
ATOM     10  C   UNL     1      13.865 -49.196 -25.524  1.00  0.00     0.047 A 
ATOM     11  C   UNL     1      13.624 -51.481 -26.242  1.00  0.00     0.013 A 
ATOM     12  C   UNL     1      14.049 -50.179 -26.491  1.00  0.00     0.005 A 
ATOM     13  O   UNL     1      13.014 -54.096 -25.483  1.00  0.00    -0.287 OA
BRANCH   4  14
ATOM     14  O   UNL     1      12.114 -50.293 -21.726  1.00  0.00    -0.507 OA
ATOM     15  H   UNL     1      12.285 -49.409 -22.112  1.00  0.00     0.293 HD
ENDBRANCH   4  14
BRANCH   7  16
ATOM     16  O   UNL     1      13.096 -48.537 -23.363  1.00  0.00    -0.507 OA
ATOM     17  H   UNL     1      13.379 -48.884 -22.497  1.00  0.00     0.293 HD
ENDBRANCH   7  16
ENDBRANCH   2   3
ENDBRANCH   1   2
BRANCH   1  18
ATOM     18  C   UNL     1      10.922 -56.830 -22.823  1.00  0.00     0.047 C 
BRANCH  18  19
ATOM     19  C   UNL     1      11.942 -57.104 -23.929  1.00  0.00     0.145 C 
BRANCH  19  20
ATOM     20  N   UNL     1      12.245 -58.520 -23.950  1.00  0.00    -0.284 NA
BRANCH  20  21
ATOM     21  C   UNL     1      11.514 -59.439 -24.470  1.00  0.00     0.072 A 
ATOM     22  C   UNL     1      10.671 -60.507 -23.792  1.00  0.00    -0.003 A 
ATOM     23  C   UNL     1      11.506 -59.473 -25.976  1.00  0.00     0.024 A 
ATOM     24  C   UNL     1      10.242 -61.551 -24.540  1.00  0.00     0.021 A 
ATOM     25  C   UNL     1      10.262 -60.340 -22.353  1.00  0.00     0.039 C 
ATOM     26  C   UNL     1      12.045 -58.410 -26.717  1.00  0.00     0.014 A 
ATOM     27  C   UNL     1      10.994 -60.600 -26.632  1.00  0.00     0.049 A 
ATOM     28  N   UNL     1      10.499 -61.679 -25.889  1.00  0.00    -0.358 N 
ATOM     29  C   UNL     1       9.406 -62.670 -23.947  1.00  0.00     0.054 C 
ATOM     30  C   UNL     1       9.103 -61.241 -21.922  1.00  0.00     0.005 C 
ATOM     31  C   UNL     1      12.080 -58.474 -28.111  1.00  0.00     0.021 A 
ATOM     32  C   UNL     1      11.057 -60.667 -28.029  1.00  0.00     0.047 A 
ATOM     33  C   UNL     1       9.321 -62.658 -22.424  1.00  0.00     0.007 C 
ATOM     34  C   UNL     1      11.589 -59.604 -28.760  1.00  0.00     0.043 A 
ATOM     35  H   UNL     1       9.965 -62.377 -26.393  1.00  0.00     0.166 HD
ATOM     36  Cl  UNL     1      11.645 -59.694 -30.478  1.00  0.00    -0.084 Cl
ENDBRANCH  20  21
ENDBRANCH  19  20
ENDBRANCH  18  19
ENDBRANCH   1  18
TORSDOF 8
ENDMDL
MODEL 8
REMARK VINA RESULT:   -10.107      3.855      9.515
REMARK INTER + INTRA:         -15.247
REMARK INTER:                 -14.678
REMARK INTRA:                  -0.569
REMARK UNBOUND:                -1.004
REMARK SMILES O=C1C(=NCCCN=c2c3c([nH]c4cc(Cl)ccc24)CCCC3)C=C(O)c2c(O)cccc21
REMARK SMILES IDX 5 1 4 2 3 3 25 4 24 5 27 6 28 7 33 8 2 9 30 10 32 11 31 12
REMARK SMILES IDX 1 13 26 14 29 16 6 18 7 19 8 20 9 21 10 22 19 23 11 24 23 25
REMARK SMILES IDX 18 26 13 27 12 28 20 29 22 30 17 31 14 32 21 33 15 34 16 36
REMARK H PARENT 26 15 29 17 12 35
ROOT
ATOM      1  C   UNL     1       8.960 -57.482 -23.222  1.00  0.00     0.145 C 
ENDROOT
BRANCH   1   2
ATOM      2  N   UNL     1       9.477 -58.830 -22.991  1.00  0.00    -0.281 NA
BRANCH   2   3
ATOM      3  C   UNL     1       9.571 -59.694 -23.947  1.00  0.00     0.109 C 
ATOM      4  C   UNL     1      10.278 -60.018 -26.277  1.00  0.00     0.129 C 
ATOM      5  C   UNL     1      10.366 -59.326 -25.138  1.00  0.00     0.079 C 
ATOM      6  C   UNL     1       9.389 -61.190 -26.433  1.00  0.00     0.069 A 
ATOM      7  C   UNL     1       9.168 -61.844 -27.660  1.00  0.00     0.127 A 
ATOM      8  C   UNL     1       8.732 -61.706 -25.306  1.00  0.00     0.039 A 
ATOM      9  C   UNL     1       8.938 -61.081 -23.982  1.00  0.00     0.211 C 
ATOM     10  C   UNL     1       8.331 -62.960 -27.761  1.00  0.00     0.047 A 
ATOM     11  C   UNL     1       7.898 -62.833 -25.397  1.00  0.00     0.013 A 
ATOM     12  C   UNL     1       7.696 -63.454 -26.625  1.00  0.00     0.005 A 
ATOM     13  O   UNL     1       8.642 -61.688 -22.963  1.00  0.00    -0.287 OA
BRANCH   4  14
ATOM     14  O   UNL     1      11.026 -59.603 -27.363  1.00  0.00    -0.507 OA
ATOM     15  H   UNL     1      11.763 -60.238 -27.480  1.00  0.00     0.293 HD
ENDBRANCH   4  14
BRANCH   7  16
ATOM     16  O   UNL     1       9.794 -61.382 -28.793  1.00  0.00    -0.507 OA
ATOM     17  H   UNL     1      10.744 -61.268 -28.602  1.00  0.00     0.293 HD
ENDBRANCH   7  16
ENDBRANCH   2   3
ENDBRANCH   1   2
BRANCH   1  18
ATOM     18  C   UNL     1       9.952 -56.447 -22.695  1.00  0.00     0.047 C 
BRANCH  18  19
ATOM     19  C   UNL     1       9.450 -55.016 -22.888  1.00  0.00     0.145 C 
BRANCH  19  20
ATOM     20  N   UNL     1      10.474 -54.094 -22.444  1.00  0.00    -0.284 NA
BRANCH  20  21
ATOM     21  C   UNL     1      11.159 -53.311 -23.196  1.00  0.00     0.072 A 
ATOM     22  C   UNL     1      12.175 -53.646 -24.277  1.00  0.00    -0.003 A 
ATOM     23  C   UNL     1      10.935 -51.839 -22.960  1.00  0.00     0.024 A 
ATOM     24  C   UNL     1      12.993 -52.659 -24.713  1.00  0.00     0.021 A 
ATOM     25  C   UNL     1      12.192 -55.020 -24.891  1.00  0.00     0.039 C 
ATOM     26  C   UNL     1       9.863 -51.399 -22.167  1.00  0.00     0.014 A 
ATOM     27  C   UNL     1      11.835 -50.914 -23.504  1.00  0.00     0.049 A 
ATOM     28  N   UNL     1      12.929 -51.359 -24.255  1.00  0.00    -0.358 N 
ATOM     29  C   UNL     1      14.045 -52.903 -25.779  1.00  0.00     0.054 C 
ATOM     30  C   UNL     1      12.951 -55.106 -26.216  1.00  0.00     0.005 C 
ATOM     31  C   UNL     1       9.694 -50.038 -21.911  1.00  0.00     0.021 A 
ATOM     32  C   UNL     1      11.672 -49.553 -23.221  1.00  0.00     0.047 A 
ATOM     33  C   UNL     1      14.279 -54.374 -26.111  1.00  0.00     0.007 C 
ATOM     34  C   UNL     1      10.601 -49.122 -22.437  1.00  0.00     0.043 A 
ATOM     35  H   UNL     1      13.434 -50.661 -24.789  1.00  0.00     0.166 HD
ATOM     36  Cl  UNL     1      10.405 -47.443 -22.110  1.00  0.00    -0.084 Cl
ENDBRANCH  20  21
ENDBRANCH  19  20
ENDBRANCH  18  19
ENDBRANCH   1  18
TORSDOF 8
ENDMDL
MODEL 9
REMARK VINA RESULT:    -9.785      6.149     10.645
REMARK INTER + INTRA:         -14.793
REMARK INTER:                 -13.953
REMARK INTRA:                  -0.841
REMARK UNBOUND:                -1.004
REMARK SMILES O=C1C(=NCCCN=c2c3c([nH]c4cc(Cl)ccc24)CCCC3)C=C(O)c2c(O)cccc21
REMARK SMILES IDX 5 1 4 2 3 3 25 4 24 5 27 6 28 7 33 8 2 9 30 10 32 11 31 12
REMARK SMILES IDX 1 13 26 14 29 16 6 18 7 19 8 20 9 21 10 22 19 23 11 24 23 25
REMARK SMILES IDX 18 26 13 27 12 28 20 29 22 30 17 31 14 32 21 33 15 34 16 36
REMARK H PARENT 26 15 29 17 12 35
ROOT
ATOM      1  C   UNL     1      11.064 -47.344 -21.965  1.00  0.00     0.145 C 
ENDROOT
BRANCH   1   2
ATOM      2  N   UNL     1      10.463 -46.011 -21.957  1.00  0.00    -0.281 NA
BRANCH   2   3
ATOM      3  C   UNL     1      11.024 -45.011 -22.551  1.00  0.00     0.109 C 
ATOM      4  C   UNL     1      10.781 -43.386 -24.378  1.00  0.00     0.129 C 
ATOM      5  C   UNL     1      10.215 -44.233 -23.514  1.00  0.00     0.079 C 
ATOM      6  C   UNL     1      12.243 -43.165 -24.438  1.00  0.00     0.069 A 
ATOM      7  C   UNL     1      12.875 -42.392 -25.431  1.00  0.00     0.127 A 
ATOM      8  C   UNL     1      13.063 -43.731 -23.451  1.00  0.00     0.039 A 
ATOM      9  C   UNL     1      12.461 -44.534 -22.365  1.00  0.00     0.211 C 
ATOM     10  C   UNL     1      14.259 -42.194 -25.443  1.00  0.00     0.047 A 
ATOM     11  C   UNL     1      14.453 -43.529 -23.449  1.00  0.00     0.013 A 
ATOM     12  C   UNL     1      15.048 -42.765 -24.448  1.00  0.00     0.005 A 
ATOM     13  O   UNL     1      13.095 -44.763 -21.345  1.00  0.00    -0.287 OA
BRANCH   4  14
ATOM     14  O   UNL     1       9.970 -42.712 -25.272  1.00  0.00    -0.507 OA
ATOM     15  H   UNL     1       9.412 -43.375 -25.728  1.00  0.00     0.293 HD
ENDBRANCH   4  14
BRANCH   7  16
ATOM     16  O   UNL     1      12.115 -41.809 -26.417  1.00  0.00    -0.507 OA
ATOM     17  H   UNL     1      11.218 -41.649 -26.068  1.00  0.00     0.293 HD
ENDBRANCH   7  16
ENDBRANCH   2   3
ENDBRANCH   1   2
BRANCH   1  18
ATOM     18  C   UNL     1      10.311 -48.248 -22.939  1.00  0.00     0.047 C 
BRANCH  18  19
ATOM     19  C   UNL     1       9.963 -49.602 -22.318  1.00  0.00     0.145 C 
BRANCH  19  20
ATOM     20  N   UNL     1      11.185 -50.346 -22.095  1.00  0.00    -0.284 NA
BRANCH  20  21
ATOM     21  C   UNL     1      11.755 -51.128 -22.940  1.00  0.00     0.072 A 
ATOM     22  C   UNL     1      12.671 -50.794 -24.106  1.00  0.00    -0.003 A 
ATOM     23  C   UNL     1      11.457 -52.593 -22.756  1.00  0.00     0.024 A 
ATOM     24  C   UNL     1      12.894 -51.751 -25.037  1.00  0.00     0.021 A 
ATOM     25  C   UNL     1      13.368 -49.461 -24.155  1.00  0.00     0.039 C 
ATOM     26  C   UNL     1      10.825 -53.052 -21.589  1.00  0.00     0.014 A 
ATOM     27  C   UNL     1      11.777 -53.490 -23.783  1.00  0.00     0.049 A 
ATOM     28  N   UNL     1      12.364 -53.023 -24.964  1.00  0.00    -0.358 N 
ATOM     29  C   UNL     1      13.784 -51.505 -26.241  1.00  0.00     0.054 C 
ATOM     30  C   UNL     1      14.551 -49.407 -25.125  1.00  0.00     0.005 C 
ATOM     31  C   UNL     1      10.507 -54.404 -21.450  1.00  0.00     0.021 A 
ATOM     32  C   UNL     1      11.430 -54.840 -23.646  1.00  0.00     0.047 A 
ATOM     33  C   UNL     1      14.175 -50.045 -26.451  1.00  0.00     0.007 C 
ATOM     34  C   UNL     1      10.808 -55.290 -22.481  1.00  0.00     0.043 A 
ATOM     35  H   UNL     1      12.755 -53.718 -25.589  1.00  0.00     0.166 HD
ATOM     36  Cl  UNL     1      10.402 -56.955 -22.320  1.00  0.00    -0.084 Cl
ENDBRANCH  20  21
ENDBRANCH  19  20
ENDBRANCH  18  19
ENDBRANCH   1  18
TORSDOF 8
ENDMDL
