MODEL 1
REMARK VINA RESULT:   -12.720      0.000      0.000
REMARK INTER + INTRA:         -19.241
REMARK INTER:                 -18.297
REMARK INTRA:                  -0.943
REMARK UNBOUND:                -0.943
REMARK SMILES Cc1cc(O)nc2c1C(=O)C(=NCCCCNc1c3c(nc4cc(Cl)ccc14)CCCC3)CC2=O
REMARK SMILES IDX 14 1 13 2 12 3 11 4 33 5 34 6 7 7 9 8 6 9 8 10 4 11 2 12
REMARK SMILES IDX 3 13 35 14 10 15 1 16 5 17 15 19 16 20 17 21 18 23 19 24
REMARK SMILES IDX 28 25 20 26 32 27 27 28 22 29 21 30 29 31 31 32 26 33 23 34
REMARK SMILES IDX 30 35 24 36 25 37
REMARK H PARENT 5 18 17 22
ROOT
ATOM      1  C   UNL     1      11.376 -57.936 -21.614  1.00  0.00     0.025 C 
ENDROOT
BRANCH   1   2
ATOM      2  C   UNL     1      10.693 -57.534 -22.921  1.00  0.00     0.142 C 
BRANCH   2   3
ATOM      3  N   UNL     1      11.508 -56.533 -23.603  1.00  0.00    -0.285 NA
BRANCH   3   4
ATOM      4  C   UNL     1      11.101 -55.311 -23.639  1.00  0.00     0.091 C 
ATOM      5  C   UNL     1       9.988 -54.699 -22.852  1.00  0.00     0.142 C 
ATOM      6  C   UNL     1      10.215 -53.272 -22.440  1.00  0.00     0.188 C 
ATOM      7  C   UNL     1      11.396 -52.535 -22.988  1.00  0.00     0.122 A 
ATOM      8  C   UNL     1      11.799 -54.361 -24.580  1.00  0.00     0.209 C 
ATOM      9  N   UNL     1      11.635 -51.328 -22.418  1.00  0.00    -0.210 NA
ATOM     10  C   UNL     1      12.154 -53.045 -24.034  1.00  0.00     0.056 A 
ATOM     11  C   UNL     1      12.649 -50.606 -22.911  1.00  0.00     0.211 A 
ATOM     12  C   UNL     1      13.219 -52.274 -24.536  1.00  0.00    -0.032 A 
ATOM     13  C   UNL     1      13.458 -51.022 -23.954  1.00  0.00     0.072 A 
ATOM     14  O   UNL     1       9.421 -52.726 -21.675  1.00  0.00    -0.292 OA
ATOM     15  O   UNL     1      12.032 -54.695 -25.729  1.00  0.00    -0.287 OA
ATOM     16  C   UNL     1      14.095 -52.735 -25.667  1.00  0.00     0.045 C 
BRANCH  11  17
ATOM     17  O   UNL     1      12.842 -49.403 -22.303  1.00  0.00    -0.493 OA
ATOM     18  H   UNL     1      13.718 -49.067 -22.538  1.00  0.00     0.295 HD
ENDBRANCH  11  17
ENDBRANCH   3   4
ENDBRANCH   2   3
ENDBRANCH   1   2
BRANCH   1  19
ATOM     19  C   UNL     1      10.997 -59.324 -21.084  1.00  0.00     0.023 C 
BRANCH  19  20
ATOM     20  C   UNL     1      10.073 -60.137 -21.991  1.00  0.00     0.113 C 
BRANCH  20  21
ATOM     21  N   UNL     1      10.851 -61.125 -22.755  1.00  0.00    -0.384 N 
ATOM     22  H   UNL     1      10.985 -61.967 -22.201  1.00  0.00     0.160 HD
BRANCH  21  23
ATOM     23  C   UNL     1      10.199 -61.462 -23.979  1.00  0.00     0.049 A 
ATOM     24  C   UNL     1       9.043 -62.257 -23.993  1.00  0.00    -0.003 A 
ATOM     25  C   UNL     1      10.661 -60.897 -25.198  1.00  0.00     0.024 A 
ATOM     26  C   UNL     1       8.393 -62.441 -25.216  1.00  0.00     0.046 A 
ATOM     27  C   UNL     1       8.400 -62.880 -22.781  1.00  0.00     0.039 C 
ATOM     28  C   UNL     1      11.831 -60.109 -25.292  1.00  0.00     0.014 A 
ATOM     29  C   UNL     1       9.921 -61.155 -26.374  1.00  0.00     0.074 A 
ATOM     30  N   UNL     1       8.810 -61.902 -26.381  1.00  0.00    -0.252 NA
ATOM     31  C   UNL     1       7.120 -63.248 -25.242  1.00  0.00     0.056 C 
ATOM     32  C   UNL     1       7.937 -64.315 -23.056  1.00  0.00     0.005 C 
ATOM     33  C   UNL     1      12.247 -59.573 -26.509  1.00  0.00     0.021 A 
ATOM     34  C   UNL     1      10.349 -60.613 -27.576  1.00  0.00     0.049 A 
ATOM     35  C   UNL     1       7.281 -64.528 -24.427  1.00  0.00     0.007 C 
ATOM     36  C   UNL     1      11.498 -59.828 -27.649  1.00  0.00     0.043 A 
ATOM     37  Cl  UNL     1      11.996 -59.177 -29.162  1.00  0.00    -0.084 Cl
ENDBRANCH  21  23
ENDBRANCH  20  21
ENDBRANCH  19  20
ENDBRANCH   1  19
TORSDOF 8
ENDMDL
MODEL 2
REMARK VINA RESULT:   -11.385      4.090     10.814
REMARK INTER + INTRA:         -17.320
REMARK INTER:                 -16.816
REMARK INTRA:                  -0.504
REMARK UNBOUND:                -0.943
REMARK SMILES Cc1cc(O)nc2c1C(=O)C(=NCCCCNc1c3c(nc4cc(Cl)ccc14)CCCC3)CC2=O
REMARK SMILES IDX 14 1 13 2 12 3 11 4 33 5 34 6 7 7 9 8 6 9 8 10 4 11 2 12
REMARK SMILES IDX 3 13 35 14 10 15 1 16 5 17 15 19 16 20 17 21 18 23 19 24
REMARK SMILES IDX 28 25 20 26 32 27 27 28 22 29 21 30 29 31 31 32 26 33 23 34
REMARK SMILES IDX 30 35 24 36 25 37
REMARK H PARENT 5 18 17 22
ROOT
ATOM      1  C   UNL     1      10.597 -55.204 -22.598  1.00  0.00     0.025 C 
ENDROOT
BRANCH   1   2
ATOM      2  C   UNL     1      11.055 -56.658 -22.482  1.00  0.00     0.142 C 
BRANCH   2   3
ATOM      3  N   UNL     1      10.365 -57.462 -23.486  1.00  0.00    -0.285 NA
BRANCH   3   4
ATOM      4  C   UNL     1       9.393 -58.225 -23.118  1.00  0.00     0.091 C 
ATOM      5  C   UNL     1       7.944 -57.873 -23.030  1.00  0.00     0.142 C 
ATOM      6  C   UNL     1       6.999 -58.987 -23.385  1.00  0.00     0.188 C 
ATOM      7  C   UNL     1       7.545 -60.363 -23.600  1.00  0.00     0.122 A 
ATOM      8  C   UNL     1       9.720 -59.641 -22.715  1.00  0.00     0.209 C 
ATOM      9  N   UNL     1       6.662 -61.259 -24.104  1.00  0.00    -0.210 NA
ATOM     10  C   UNL     1       8.851 -60.691 -23.261  1.00  0.00     0.056 A 
ATOM     11  C   UNL     1       7.088 -62.518 -24.265  1.00  0.00     0.211 A 
ATOM     12  C   UNL     1       9.283 -62.018 -23.441  1.00  0.00    -0.032 A 
ATOM     13  C   UNL     1       8.366 -62.947 -23.951  1.00  0.00     0.072 A 
ATOM     14  O   UNL     1       5.795 -58.757 -23.475  1.00  0.00    -0.292 OA
ATOM     15  O   UNL     1      10.655 -59.866 -21.965  1.00  0.00    -0.287 OA
ATOM     16  C   UNL     1      10.674 -62.476 -23.101  1.00  0.00     0.045 C 
BRANCH  11  17
ATOM     17  O   UNL     1       6.159 -63.375 -24.771  1.00  0.00    -0.493 OA
ATOM     18  H   UNL     1       5.693 -63.804 -24.040  1.00  0.00     0.295 HD
ENDBRANCH  11  17
ENDBRANCH   3   4
ENDBRANCH   2   3
ENDBRANCH   1   2
BRANCH   1  19
ATOM     19  C   UNL     1      11.395 -54.348 -23.590  1.00  0.00     0.023 C 
BRANCH  19  20
ATOM     20  C   UNL     1      11.135 -52.844 -23.507  1.00  0.00     0.113 C 
BRANCH  20  21
ATOM     21  N   UNL     1      12.255 -52.171 -22.831  1.00  0.00    -0.384 N 
ATOM     22  H   UNL     1      13.005 -52.835 -22.656  1.00  0.00     0.160 HD
BRANCH  21  23
ATOM     23  C   UNL     1      12.755 -51.087 -23.614  1.00  0.00     0.049 A 
ATOM     24  C   UNL     1      13.759 -51.285 -24.574  1.00  0.00    -0.003 A 
ATOM     25  C   UNL     1      12.155 -49.804 -23.498  1.00  0.00     0.024 A 
ATOM     26  C   UNL     1      14.108 -50.201 -25.385  1.00  0.00     0.046 A 
ATOM     27  C   UNL     1      14.451 -52.594 -24.854  1.00  0.00     0.039 C 
ATOM     28  C   UNL     1      11.160 -49.498 -22.542  1.00  0.00     0.014 A 
ATOM     29  C   UNL     1      12.592 -48.784 -24.372  1.00  0.00     0.074 A 
ATOM     30  N   UNL     1      13.540 -48.980 -25.298  1.00  0.00    -0.252 NA
ATOM     31  C   UNL     1      15.145 -50.408 -26.458  1.00  0.00     0.056 C 
ATOM     32  C   UNL     1      15.957 -52.407 -25.068  1.00  0.00     0.005 C 
ATOM     33  C   UNL     1      10.597 -48.226 -22.465  1.00  0.00     0.021 A 
ATOM     34  C   UNL     1      12.021 -47.524 -24.281  1.00  0.00     0.049 A 
ATOM     35  C   UNL     1      16.340 -51.180 -25.904  1.00  0.00     0.007 C 
ATOM     36  C   UNL     1      11.032 -47.242 -23.342  1.00  0.00     0.043 A 
ATOM     37  Cl  UNL     1      10.351 -45.664 -23.261  1.00  0.00    -0.084 Cl
ENDBRANCH  21  23
ENDBRANCH  20  21
ENDBRANCH  19  20
ENDBRANCH   1  19
TORSDOF 8
ENDMDL
MODEL 3
REMARK VINA RESULT:   -11.126      1.350      2.324
REMARK INTER + INTRA:         -16.948
REMARK INTER:                 -16.699
REMARK INTRA:                  -0.248
REMARK UNBOUND:                -0.943
REMARK SMILES Cc1cc(O)nc2c1C(=O)C(=NCCCCNc1c3c(nc4cc(Cl)ccc14)CCCC3)CC2=O
REMARK SMILES IDX 14 1 13 2 12 3 11 4 33 5 34 6 7 7 9 8 6 9 8 10 4 11 2 12
REMARK SMILES IDX 3 13 35 14 10 15 1 16 5 17 15 19 16 20 17 21 18 23 19 24
REMARK SMILES IDX 28 25 20 26 32 27 27 28 22 29 21 30 29 31 31 32 26 33 23 34
REMARK SMILES IDX 30 35 24 36 25 37
REMARK H PARENT 5 18 17 22
ROOT
ATOM      1  C   UNL     1      10.179 -57.585 -23.370  1.00  0.00     0.025 C 
ENDROOT
BRANCH   1   2
ATOM      2  C   UNL     1       9.682 -56.285 -22.738  1.00  0.00     0.142 C 
BRANCH   2   3
ATOM      3  N   UNL     1       9.841 -55.193 -23.692  1.00  0.00    -0.285 NA
BRANCH   3   4
ATOM      4  C   UNL     1      10.991 -54.621 -23.806  1.00  0.00     0.091 C 
ATOM      5  C   UNL     1      12.088 -54.967 -24.759  1.00  0.00     0.142 C 
ATOM      6  C   UNL     1      12.878 -53.794 -25.267  1.00  0.00     0.188 C 
ATOM      7  C   UNL     1      12.651 -52.446 -24.660  1.00  0.00     0.122 A 
ATOM      8  C   UNL     1      11.303 -53.472 -22.881  1.00  0.00     0.209 C 
ATOM      9  N   UNL     1      13.256 -51.417 -25.302  1.00  0.00    -0.210 NA
ATOM     10  C   UNL     1      11.908 -52.285 -23.497  1.00  0.00     0.056 A 
ATOM     11  C   UNL     1      13.126 -50.197 -24.767  1.00  0.00     0.211 A 
ATOM     12  C   UNL     1      11.779 -50.994 -22.951  1.00  0.00    -0.032 A 
ATOM     13  C   UNL     1      12.414 -49.933 -23.610  1.00  0.00     0.072 A 
ATOM     14  O   UNL     1      13.710 -53.960 -26.157  1.00  0.00    -0.292 OA
ATOM     15  O   UNL     1      11.064 -53.561 -21.689  1.00  0.00    -0.287 OA
ATOM     16  C   UNL     1      11.000 -50.715 -21.696  1.00  0.00     0.045 C 
BRANCH  11  17
ATOM     17  O   UNL     1      13.756 -49.203 -25.452  1.00  0.00    -0.493 OA
ATOM     18  H   UNL     1      14.402 -49.596 -26.055  1.00  0.00     0.295 HD
ENDBRANCH  11  17
ENDBRANCH   3   4
ENDBRANCH   2   3
ENDBRANCH   1   2
BRANCH   1  19
ATOM     19  C   UNL     1      11.232 -58.344 -22.554  1.00  0.00     0.023 C 
BRANCH  19  20
ATOM     20  C   UNL     1      12.175 -59.229 -23.371  1.00  0.00     0.113 C 
BRANCH  20  21
ATOM     21  N   UNL     1      11.817 -60.646 -23.199  1.00  0.00    -0.384 N 
ATOM     22  H   UNL     1      11.389 -60.789 -22.287  1.00  0.00     0.160 HD
BRANCH  21  23
ATOM     23  C   UNL     1      10.915 -61.078 -24.218  1.00  0.00     0.049 A 
ATOM     24  C   UNL     1       9.741 -61.778 -23.903  1.00  0.00    -0.003 A 
ATOM     25  C   UNL     1      11.151 -60.702 -25.568  1.00  0.00     0.024 A 
ATOM     26  C   UNL     1       8.850 -62.059 -24.942  1.00  0.00     0.046 A 
ATOM     27  C   UNL     1       9.323 -62.199 -22.517  1.00  0.00     0.039 C 
ATOM     28  C   UNL     1      12.317 -60.023 -25.990  1.00  0.00     0.014 A 
ATOM     29  C   UNL     1      10.178 -61.043 -26.534  1.00  0.00     0.074 A 
ATOM     30  N   UNL     1       9.051 -61.699 -26.227  1.00  0.00    -0.252 NA
ATOM     31  C   UNL     1       7.559 -62.763 -24.614  1.00  0.00     0.056 C 
ATOM     32  C   UNL     1       8.742 -63.616 -22.503  1.00  0.00     0.005 C 
ATOM     33  C   UNL     1      12.507 -59.672 -27.325  1.00  0.00     0.021 A 
ATOM     34  C   UNL     1      10.384 -60.685 -27.858  1.00  0.00     0.049 A 
ATOM     35  C   UNL     1       7.815 -63.943 -23.681  1.00  0.00     0.007 C 
ATOM     36  C   UNL     1      11.533 -60.005 -28.255  1.00  0.00     0.043 A 
ATOM     37  Cl  UNL     1      11.749 -59.582 -29.908  1.00  0.00    -0.084 Cl
ENDBRANCH  21  23
ENDBRANCH  20  21
ENDBRANCH  19  20
ENDBRANCH   1  19
TORSDOF 8
ENDMDL
MODEL 4
REMARK VINA RESULT:   -10.865      3.803     10.563
REMARK INTER + INTRA:         -16.572
REMARK INTER:                 -16.604
REMARK INTRA:                   0.033
REMARK UNBOUND:                -0.943
REMARK SMILES Cc1cc(O)nc2c1C(=O)C(=NCCCCNc1c3c(nc4cc(Cl)ccc14)CCCC3)CC2=O
REMARK SMILES IDX 14 1 13 2 12 3 11 4 33 5 34 6 7 7 9 8 6 9 8 10 4 11 2 12
REMARK SMILES IDX 3 13 35 14 10 15 1 16 5 17 15 19 16 20 17 21 18 23 19 24
REMARK SMILES IDX 28 25 20 26 32 27 27 28 22 29 21 30 29 31 31 32 26 33 23 34
REMARK SMILES IDX 30 35 24 36 25 37
REMARK H PARENT 5 18 17 22
ROOT
ATOM      1  C   UNL     1      10.691 -55.443 -22.624  1.00  0.00     0.025 C 
ENDROOT
BRANCH   1   2
ATOM      2  C   UNL     1      11.138 -56.898 -22.493  1.00  0.00     0.142 C 
BRANCH   2   3
ATOM      3  N   UNL     1      10.451 -57.706 -23.495  1.00  0.00    -0.285 NA
BRANCH   3   4
ATOM      4  C   UNL     1       9.441 -58.423 -23.138  1.00  0.00     0.091 C 
ATOM      5  C   UNL     1       8.006 -58.011 -23.087  1.00  0.00     0.142 C 
ATOM      6  C   UNL     1       7.024 -59.090 -23.447  1.00  0.00     0.188 C 
ATOM      7  C   UNL     1       7.517 -60.490 -23.630  1.00  0.00     0.122 A 
ATOM      8  C   UNL     1       9.700 -59.845 -22.708  1.00  0.00     0.209 C 
ATOM      9  N   UNL     1       6.608 -61.357 -24.141  1.00  0.00    -0.210 NA
ATOM     10  C   UNL     1       8.801 -60.867 -23.258  1.00  0.00     0.056 A 
ATOM     11  C   UNL     1       6.985 -62.635 -24.275  1.00  0.00     0.211 A 
ATOM     12  C   UNL     1       9.181 -62.214 -23.410  1.00  0.00    -0.032 A 
ATOM     13  C   UNL     1       8.237 -63.111 -23.927  1.00  0.00     0.072 A 
ATOM     14  O   UNL     1       5.832 -58.813 -23.566  1.00  0.00    -0.292 OA
ATOM     15  O   UNL     1      10.609 -60.097 -21.935  1.00  0.00    -0.287 OA
ATOM     16  C   UNL     1      10.544 -62.722 -23.034  1.00  0.00     0.045 C 
BRANCH  11  17
ATOM     17  O   UNL     1       6.033 -63.460 -24.790  1.00  0.00    -0.493 OA
ATOM     18  H   UNL     1       6.393 -63.915 -25.564  1.00  0.00     0.295 HD
ENDBRANCH  11  17
ENDBRANCH   3   4
ENDBRANCH   2   3
ENDBRANCH   1   2
BRANCH   1  19
ATOM     19  C   UNL     1      11.394 -54.644 -23.727  1.00  0.00     0.023 C 
BRANCH  19  20
ATOM     20  C   UNL     1      11.300 -53.123 -23.590  1.00  0.00     0.113 C 
BRANCH  20  21
ATOM     21  N   UNL     1      12.641 -52.523 -23.663  1.00  0.00    -0.384 N 
ATOM     22  H   UNL     1      13.188 -52.979 -24.389  1.00  0.00     0.160 HD
BRANCH  21  23
ATOM     23  C   UNL     1      12.567 -51.124 -23.934  1.00  0.00     0.049 A 
ATOM     24  C   UNL     1      11.780 -50.270 -23.146  1.00  0.00    -0.003 A 
ATOM     25  C   UNL     1      13.387 -50.562 -24.950  1.00  0.00     0.024 A 
ATOM     26  C   UNL     1      11.856 -48.898 -23.396  1.00  0.00     0.046 A 
ATOM     27  C   UNL     1      10.903 -50.705 -22.000  1.00  0.00     0.039 C 
ATOM     28  C   UNL     1      14.191 -51.340 -25.814  1.00  0.00     0.014 A 
ATOM     29  C   UNL     1      13.379 -49.159 -25.111  1.00  0.00     0.074 A 
ATOM     30  N   UNL     1      12.637 -48.346 -24.348  1.00  0.00    -0.252 NA
ATOM     31  C   UNL     1      11.058 -47.961 -22.526  1.00  0.00     0.056 C 
ATOM     32  C   UNL     1       9.556 -49.975 -22.005  1.00  0.00     0.005 C 
ATOM     33  C   UNL     1      14.981 -50.748 -26.797  1.00  0.00     0.021 A 
ATOM     34  C   UNL     1      14.172 -48.586 -26.094  1.00  0.00     0.049 A 
ATOM     35  C   UNL     1       9.635 -48.481 -22.344  1.00  0.00     0.007 C 
ATOM     36  C   UNL     1      14.968 -49.367 -26.930  1.00  0.00     0.043 A 
ATOM     37  Cl  UNL     1      15.934 -48.615 -28.138  1.00  0.00    -0.084 Cl
ENDBRANCH  21  23
ENDBRANCH  20  21
ENDBRANCH  19  20
ENDBRANCH   1  19
TORSDOF 8
ENDMDL
MODEL 5
REMARK VINA RESULT:   -10.188      3.971     11.080
REMARK INTER + INTRA:         -15.598
REMARK INTER:                 -14.886
REMARK INTRA:                  -0.712
REMARK UNBOUND:                -0.943
REMARK SMILES Cc1cc(O)nc2c1C(=O)C(=NCCCCNc1c3c(nc4cc(Cl)ccc14)CCCC3)CC2=O
REMARK SMILES IDX 14 1 13 2 12 3 11 4 33 5 34 6 7 7 9 8 6 9 8 10 4 11 2 12
REMARK SMILES IDX 3 13 35 14 10 15 1 16 5 17 15 19 16 20 17 21 18 23 19 24
REMARK SMILES IDX 28 25 20 26 32 27 27 28 22 29 21 30 29 31 31 32 26 33 23 34
REMARK SMILES IDX 30 35 24 36 25 37
REMARK H PARENT 5 18 17 22
ROOT
ATOM      1  C   UNL     1      11.087 -53.550 -22.888  1.00  0.00     0.025 C 
ENDROOT
BRANCH   1   2
ATOM      2  C   UNL     1      10.264 -54.836 -22.802  1.00  0.00     0.142 C 
BRANCH   2   3
ATOM      3  N   UNL     1      10.878 -55.858 -23.644  1.00  0.00    -0.285 NA
BRANCH   3   4
ATOM      4  C   UNL     1      11.297 -56.949 -23.101  1.00  0.00     0.091 C 
ATOM      5  C   UNL     1      11.384 -57.265 -21.644  1.00  0.00     0.142 C 
ATOM      6  C   UNL     1      11.101 -58.698 -21.289  1.00  0.00     0.188 C 
ATOM      7  C   UNL     1      10.953 -59.704 -22.386  1.00  0.00     0.122 A 
ATOM      8  C   UNL     1      11.771 -58.054 -24.012  1.00  0.00     0.209 C 
ATOM      9  N   UNL     1      10.509 -60.923 -21.992  1.00  0.00    -0.210 NA
ATOM     10  C   UNL     1      11.293 -59.407 -23.700  1.00  0.00     0.056 A 
ATOM     11  C   UNL     1      10.410 -61.873 -22.930  1.00  0.00     0.211 A 
ATOM     12  C   UNL     1      11.179 -60.417 -24.672  1.00  0.00    -0.032 A 
ATOM     13  C   UNL     1      10.731 -61.680 -24.262  1.00  0.00     0.072 A 
ATOM     14  O   UNL     1      11.014 -59.026 -20.107  1.00  0.00    -0.292 OA
ATOM     15  O   UNL     1      12.521 -57.806 -24.941  1.00  0.00    -0.287 OA
ATOM     16  C   UNL     1      11.525 -60.198 -26.119  1.00  0.00     0.045 C 
BRANCH  11  17
ATOM     17  O   UNL     1       9.962 -63.076 -22.478  1.00  0.00    -0.493 OA
ATOM     18  H   UNL     1       9.436 -63.499 -23.172  1.00  0.00     0.295 HD
ENDBRANCH  11  17
ENDBRANCH   3   4
ENDBRANCH   2   3
ENDBRANCH   1   2
BRANCH   1  19
ATOM     19  C   UNL     1      11.893 -53.380 -24.180  1.00  0.00     0.023 C 
BRANCH  19  20
ATOM     20  C   UNL     1      12.688 -52.077 -24.285  1.00  0.00     0.113 C 
BRANCH  20  21
ATOM     21  N   UNL     1      12.929 -51.521 -22.944  1.00  0.00    -0.384 N 
ATOM     22  H   UNL     1      13.480 -52.172 -22.391  1.00  0.00     0.160 HD
BRANCH  21  23
ATOM     23  C   UNL     1      13.610 -50.269 -23.020  1.00  0.00     0.049 A 
ATOM     24  C   UNL     1      15.008 -50.205 -23.121  1.00  0.00    -0.003 A 
ATOM     25  C   UNL     1      12.858 -49.066 -23.103  1.00  0.00     0.024 A 
ATOM     26  C   UNL     1      15.591 -48.950 -23.314  1.00  0.00     0.046 A 
ATOM     27  C   UNL     1      15.938 -51.392 -23.105  1.00  0.00     0.039 C 
ATOM     28  C   UNL     1      11.450 -49.023 -22.982  1.00  0.00     0.014 A 
ATOM     29  C   UNL     1      13.559 -47.855 -23.298  1.00  0.00     0.074 A 
ATOM     30  N   UNL     1      14.893 -47.799 -23.408  1.00  0.00    -0.252 NA
ATOM     31  C   UNL     1      17.087 -48.868 -23.478  1.00  0.00     0.056 C 
ATOM     32  C   UNL     1      17.187 -51.124 -22.260  1.00  0.00     0.005 C 
ATOM     33  C   UNL     1      10.752 -47.820 -23.071  1.00  0.00     0.021 A 
ATOM     34  C   UNL     1      12.849 -46.667 -23.384  1.00  0.00     0.049 A 
ATOM     35  C   UNL     1      17.789 -49.722 -22.426  1.00  0.00     0.007 C 
ATOM     36  C   UNL     1      11.460 -46.644 -23.275  1.00  0.00     0.043 A 
ATOM     37  Cl  UNL     1      10.617 -45.148 -23.386  1.00  0.00    -0.084 Cl
ENDBRANCH  21  23
ENDBRANCH  20  21
ENDBRANCH  19  20
ENDBRANCH   1  19
TORSDOF 8
ENDMDL
MODEL 6
REMARK VINA RESULT:    -9.963      5.790     12.015
REMARK INTER + INTRA:         -15.274
REMARK INTER:                 -13.727
REMARK INTRA:                  -1.547
REMARK UNBOUND:                -0.943
REMARK SMILES Cc1cc(O)nc2c1C(=O)C(=NCCCCNc1c3c(nc4cc(Cl)ccc14)CCCC3)CC2=O
REMARK SMILES IDX 14 1 13 2 12 3 11 4 33 5 34 6 7 7 9 8 6 9 8 10 4 11 2 12
REMARK SMILES IDX 3 13 35 14 10 15 1 16 5 17 15 19 16 20 17 21 18 23 19 24
REMARK SMILES IDX 28 25 20 26 32 27 27 28 22 29 21 30 29 31 31 32 26 33 23 34
REMARK SMILES IDX 30 35 24 36 25 37
REMARK H PARENT 5 18 17 22
ROOT
ATOM      1  C   UNL     1      14.479 -49.907 -26.274  1.00  0.00     0.025 C 
ENDROOT
BRANCH   1   2
ATOM      2  C   UNL     1      15.458 -50.955 -25.743  1.00  0.00     0.142 C 
BRANCH   2   3
ATOM      3  N   UNL     1      14.812 -51.726 -24.687  1.00  0.00    -0.285 NA
BRANCH   3   4
ATOM      4  C   UNL     1      13.717 -52.354 -24.949  1.00  0.00     0.091 C 
ATOM      5  C   UNL     1      13.474 -53.342 -26.043  1.00  0.00     0.142 C 
ATOM      6  C   UNL     1      12.536 -54.461 -25.689  1.00  0.00     0.188 C 
ATOM      7  C   UNL     1      11.791 -54.404 -24.393  1.00  0.00     0.122 A 
ATOM      8  C   UNL     1      12.518 -52.080 -24.075  1.00  0.00     0.209 C 
ATOM      9  N   UNL     1      11.122 -55.536 -24.064  1.00  0.00    -0.210 NA
ATOM     10  C   UNL     1      11.762 -53.252 -23.618  1.00  0.00     0.056 A 
ATOM     11  C   UNL     1      10.397 -55.517 -22.938  1.00  0.00     0.211 A 
ATOM     12  C   UNL     1      10.998 -53.251 -22.436  1.00  0.00    -0.032 A 
ATOM     13  C   UNL     1      10.298 -54.418 -22.103  1.00  0.00     0.072 A 
ATOM     14  O   UNL     1      12.380 -55.395 -26.473  1.00  0.00    -0.292 OA
ATOM     15  O   UNL     1      12.215 -50.933 -23.792  1.00  0.00    -0.287 OA
ATOM     16  C   UNL     1      10.898 -52.055 -21.532  1.00  0.00     0.045 C 
BRANCH  11  17
ATOM     17  O   UNL     1       9.746 -56.679 -22.659  1.00  0.00    -0.493 OA
ATOM     18  H   UNL     1      10.343 -57.268 -22.177  1.00  0.00     0.295 HD
ENDBRANCH  11  17
ENDBRANCH   3   4
ENDBRANCH   2   3
ENDBRANCH   1   2
BRANCH   1  19
ATOM     19  C   UNL     1      14.899 -48.450 -26.043  1.00  0.00     0.023 C 
BRANCH  19  20
ATOM     20  C   UNL     1      15.363 -48.124 -24.623  1.00  0.00     0.113 C 
BRANCH  20  21
ATOM     21  N   UNL     1      14.471 -48.759 -23.639  1.00  0.00    -0.384 N 
ATOM     22  H   UNL     1      14.976 -49.476 -23.124  1.00  0.00     0.160 HD
BRANCH  21  23
ATOM     23  C   UNL     1      13.945 -47.799 -22.724  1.00  0.00     0.049 A 
ATOM     24  C   UNL     1      12.652 -47.276 -22.879  1.00  0.00    -0.003 A 
ATOM     25  C   UNL     1      14.698 -47.443 -21.572  1.00  0.00     0.024 A 
ATOM     26  C   UNL     1      12.164 -46.436 -21.875  1.00  0.00     0.046 A 
ATOM     27  C   UNL     1      11.712 -47.600 -24.012  1.00  0.00     0.039 C 
ATOM     28  C   UNL     1      16.019 -47.892 -21.341  1.00  0.00     0.014 A 
ATOM     29  C   UNL     1      14.099 -46.582 -20.625  1.00  0.00     0.074 A 
ATOM     30  N   UNL     1      12.859 -46.097 -20.770  1.00  0.00    -0.252 NA
ATOM     31  C   UNL     1      10.757 -45.908 -21.998  1.00  0.00     0.056 C 
ATOM     32  C   UNL     1      10.978 -46.354 -24.516  1.00  0.00     0.005 C 
ATOM     33  C   UNL     1      16.720 -47.518 -20.197  1.00  0.00     0.021 A 
ATOM     34  C   UNL     1      14.812 -46.221 -19.492  1.00  0.00     0.049 A 
ATOM     35  C   UNL     1      10.499 -45.400 -23.414  1.00  0.00     0.007 C 
ATOM     36  C   UNL     1      16.108 -46.683 -19.274  1.00  0.00     0.043 A 
ATOM     37  Cl  UNL     1      16.958 -46.208 -17.855  1.00  0.00    -0.084 Cl
ENDBRANCH  21  23
ENDBRANCH  20  21
ENDBRANCH  19  20
ENDBRANCH   1  19
TORSDOF 8
ENDMDL
MODEL 7
REMARK VINA RESULT:    -9.905      6.281     10.446
REMARK INTER + INTRA:         -15.191
REMARK INTER:                 -14.178
REMARK INTRA:                  -1.014
REMARK UNBOUND:                -0.943
REMARK SMILES Cc1cc(O)nc2c1C(=O)C(=NCCCCNc1c3c(nc4cc(Cl)ccc14)CCCC3)CC2=O
REMARK SMILES IDX 14 1 13 2 12 3 11 4 33 5 34 6 7 7 9 8 6 9 8 10 4 11 2 12
REMARK SMILES IDX 3 13 35 14 10 15 1 16 5 17 15 19 16 20 17 21 18 23 19 24
REMARK SMILES IDX 28 25 20 26 32 27 27 28 22 29 21 30 29 31 31 32 26 33 23 34
REMARK SMILES IDX 30 35 24 36 25 37
REMARK H PARENT 5 18 17 22
ROOT
ATOM      1  C   UNL     1      10.679 -46.696 -22.400  1.00  0.00     0.025 C 
ENDROOT
BRANCH   1   2
ATOM      2  C   UNL     1      11.962 -46.306 -21.666  1.00  0.00     0.142 C 
BRANCH   2   3
ATOM      3  N   UNL     1      13.094 -46.419 -22.581  1.00  0.00    -0.285 NA
BRANCH   3   4
ATOM      4  C   UNL     1      13.338 -45.452 -23.398  1.00  0.00     0.091 C 
ATOM      5  C   UNL     1      13.630 -45.550 -24.860  1.00  0.00     0.142 C 
ATOM      6  C   UNL     1      13.087 -44.420 -25.690  1.00  0.00     0.188 C 
ATOM      7  C   UNL     1      12.492 -43.233 -25.003  1.00  0.00     0.122 A 
ATOM      8  C   UNL     1      13.347 -44.048 -22.849  1.00  0.00     0.209 C 
ATOM      9  N   UNL     1      11.855 -42.356 -25.818  1.00  0.00    -0.210 NA
ATOM     10  C   UNL     1      12.630 -43.036 -23.635  1.00  0.00     0.056 A 
ATOM     11  C   UNL     1      11.351 -41.250 -25.257  1.00  0.00     0.211 A 
ATOM     12  C   UNL     1      12.090 -41.869 -23.062  1.00  0.00    -0.032 A 
ATOM     13  C   UNL     1      11.442 -40.959 -23.907  1.00  0.00     0.072 A 
ATOM     14  O   UNL     1      13.156 -44.479 -26.916  1.00  0.00    -0.292 OA
ATOM     15  O   UNL     1      13.938 -43.797 -21.813  1.00  0.00    -0.287 OA
ATOM     16  C   UNL     1      12.190 -41.562 -21.594  1.00  0.00     0.045 C 
BRANCH  11  17
ATOM     17  O   UNL     1      10.725 -40.406 -26.122  1.00  0.00    -0.493 OA
ATOM     18  H   UNL     1      10.760 -39.507 -25.767  1.00  0.00     0.295 HD
ENDBRANCH  11  17
ENDBRANCH   3   4
ENDBRANCH   2   3
ENDBRANCH   1   2
BRANCH   1  19
ATOM     19  C   UNL     1      10.754 -48.011 -23.186  1.00  0.00     0.023 C 
BRANCH  19  20
ATOM     20  C   UNL     1      10.415 -49.268 -22.385  1.00  0.00     0.113 C 
BRANCH  20  21
ATOM     21  N   UNL     1      11.649 -49.968 -21.992  1.00  0.00    -0.384 N 
ATOM     22  H   UNL     1      11.539 -50.371 -21.065  1.00  0.00     0.160 HD
BRANCH  21  23
ATOM     23  C   UNL     1      11.976 -51.000 -22.923  1.00  0.00     0.049 A 
ATOM     24  C   UNL     1      11.391 -52.273 -22.834  1.00  0.00    -0.003 A 
ATOM     25  C   UNL     1      12.825 -50.708 -24.024  1.00  0.00     0.024 A 
ATOM     26  C   UNL     1      11.668 -53.189 -23.851  1.00  0.00     0.046 A 
ATOM     27  C   UNL     1      10.430 -52.717 -21.761  1.00  0.00     0.039 C 
ATOM     28  C   UNL     1      13.484 -49.467 -24.185  1.00  0.00     0.014 A 
ATOM     29  C   UNL     1      13.032 -51.716 -24.991  1.00  0.00     0.074 A 
ATOM     30  N   UNL     1      12.461 -52.925 -24.910  1.00  0.00    -0.252 NA
ATOM     31  C   UNL     1      11.007 -54.543 -23.801  1.00  0.00     0.056 C 
ATOM     32  C   UNL     1      10.731 -54.141 -21.282  1.00  0.00     0.005 C 
ATOM     33  C   UNL     1      14.307 -49.222 -25.282  1.00  0.00     0.021 A 
ATOM     34  C   UNL     1      13.855 -51.455 -26.076  1.00  0.00     0.049 A 
ATOM     35  C   UNL     1      11.097 -55.130 -22.396  1.00  0.00     0.007 C 
ATOM     36  C   UNL     1      14.487 -50.223 -26.227  1.00  0.00     0.043 A 
ATOM     37  Cl  UNL     1      15.502 -49.942 -27.587  1.00  0.00    -0.084 Cl
ENDBRANCH  21  23
ENDBRANCH  20  21
ENDBRANCH  19  20
ENDBRANCH   1  19
TORSDOF 8
ENDMDL
MODEL 8
REMARK VINA RESULT:    -9.758      5.495     11.588
REMARK INTER + INTRA:         -14.979
REMARK INTER:                 -13.129
REMARK INTRA:                  -1.850
REMARK UNBOUND:                -0.943
REMARK SMILES Cc1cc(O)nc2c1C(=O)C(=NCCCCNc1c3c(nc4cc(Cl)ccc14)CCCC3)CC2=O
REMARK SMILES IDX 14 1 13 2 12 3 11 4 33 5 34 6 7 7 9 8 6 9 8 10 4 11 2 12
REMARK SMILES IDX 3 13 35 14 10 15 1 16 5 17 15 19 16 20 17 21 18 23 19 24
REMARK SMILES IDX 28 25 20 26 32 27 27 28 22 29 21 30 29 31 31 32 26 33 23 34
REMARK SMILES IDX 30 35 24 36 25 37
REMARK H PARENT 5 18 17 22
ROOT
ATOM      1  C   UNL     1      15.852 -51.094 -22.808  1.00  0.00     0.025 C 
ENDROOT
BRANCH   1   2
ATOM      2  C   UNL     1      15.757 -51.961 -24.064  1.00  0.00     0.142 C 
BRANCH   2   3
ATOM      3  N   UNL     1      14.697 -51.448 -24.926  1.00  0.00    -0.285 NA
BRANCH   3   4
ATOM      4  C   UNL     1      13.635 -52.157 -25.102  1.00  0.00     0.091 C 
ATOM      5  C   UNL     1      13.393 -53.187 -26.157  1.00  0.00     0.142 C 
ATOM      6  C   UNL     1      12.560 -54.358 -25.718  1.00  0.00     0.188 C 
ATOM      7  C   UNL     1      11.896 -54.318 -24.379  1.00  0.00     0.122 A 
ATOM      8  C   UNL     1      12.477 -51.942 -24.160  1.00  0.00     0.209 C 
ATOM      9  N   UNL     1      11.330 -55.485 -23.982  1.00  0.00    -0.210 NA
ATOM     10  C   UNL     1      11.835 -53.151 -23.629  1.00  0.00     0.056 A 
ATOM     11  C   UNL     1      10.678 -55.485 -22.813  1.00  0.00     0.211 A 
ATOM     12  C   UNL     1      11.149 -53.171 -22.401  1.00  0.00    -0.032 A 
ATOM     13  C   UNL     1      10.554 -54.374 -21.997  1.00  0.00     0.072 A 
ATOM     14  O   UNL     1      12.421 -55.321 -26.470  1.00  0.00    -0.292 OA
ATOM     15  O   UNL     1      12.112 -50.811 -23.883  1.00  0.00    -0.287 OA
ATOM     16  C   UNL     1      11.022 -51.961 -21.518  1.00  0.00     0.045 C 
BRANCH  11  17
ATOM     17  O   UNL     1      10.128 -56.681 -22.467  1.00  0.00    -0.493 OA
ATOM     18  H   UNL     1       9.265 -56.768 -22.895  1.00  0.00     0.295 HD
ENDBRANCH  11  17
ENDBRANCH   3   4
ENDBRANCH   2   3
ENDBRANCH   1   2
BRANCH   1  19
ATOM     19  C   UNL     1      16.315 -49.652 -23.048  1.00  0.00     0.023 C 
BRANCH  19  20
ATOM     20  C   UNL     1      15.275 -48.575 -22.742  1.00  0.00     0.113 C 
BRANCH  20  21
ATOM     21  N   UNL     1      14.058 -48.802 -23.537  1.00  0.00    -0.384 N 
ATOM     22  H   UNL     1      13.305 -49.126 -22.936  1.00  0.00     0.160 HD
BRANCH  21  23
ATOM     23  C   UNL     1      13.650 -47.611 -24.209  1.00  0.00     0.049 A 
ATOM     24  C   UNL     1      12.801 -46.681 -23.590  1.00  0.00    -0.003 A 
ATOM     25  C   UNL     1      14.195 -47.304 -25.485  1.00  0.00     0.024 A 
ATOM     26  C   UNL     1      12.546 -45.483 -24.263  1.00  0.00     0.046 A 
ATOM     27  C   UNL     1      12.189 -46.835 -22.221  1.00  0.00     0.039 C 
ATOM     28  C   UNL     1      15.033 -48.188 -26.202  1.00  0.00     0.014 A 
ATOM     29  C   UNL     1      13.863 -46.061 -26.069  1.00  0.00     0.074 A 
ATOM     30  N   UNL     1      13.064 -45.169 -25.469  1.00  0.00    -0.252 NA
ATOM     31  C   UNL     1      11.679 -44.449 -23.590  1.00  0.00     0.056 C 
ATOM     32  C   UNL     1      10.726 -46.381 -22.197  1.00  0.00     0.005 C 
ATOM     33  C   UNL     1      15.547 -47.845 -27.451  1.00  0.00     0.021 A 
ATOM     34  C   UNL     1      14.383 -45.736 -27.312  1.00  0.00     0.049 A 
ATOM     35  C   UNL     1      10.437 -45.101 -22.990  1.00  0.00     0.007 C 
ATOM     36  C   UNL     1      15.219 -46.614 -28.000  1.00  0.00     0.043 A 
ATOM     37  Cl  UNL     1      15.841 -46.172 -29.542  1.00  0.00    -0.084 Cl
ENDBRANCH  21  23
ENDBRANCH  20  21
ENDBRANCH  19  20
ENDBRANCH   1  19
TORSDOF 8
ENDMDL
