MODEL 1
REMARK VINA RESULT:   -10.283      0.000      0.000
REMARK INTER + INTRA:         -13.161
REMARK INTER:                 -12.688
REMARK INTRA:                  -0.474
REMARK UNBOUND:                -0.474
REMARK SMILES C[N@H+]1CC[C@H](/C=C/C=C2\Cc3ccccc3C2=O)CC1
REMARK SMILES IDX 7 1 6 2 5 3 2 4 3 5 20 6 4 7 19 8 1 9 8 11 9 12 10 13 17 14
REMARK SMILES IDX 11 15 16 16 12 17 15 18 13 19 14 20 18 21
REMARK H PARENT 2 10
ROOT
ATOM      1  C   UNL     1      11.007 -56.357 -22.008  1.00  0.00    -0.004 C 
ENDROOT
BRANCH   1   2
ATOM      2  C   UNL     1      11.452 -57.536 -22.473  1.00  0.00    -0.023 C 
BRANCH   2   3
ATOM      3  C   UNL     1      10.691 -58.838 -22.589  1.00  0.00     0.023 C 
ATOM      4  N   UNL     1      10.481 -61.753 -22.624  1.00  0.00    -0.337 N 
ATOM      5  C   UNL     1       9.829 -60.960 -21.520  1.00  0.00     0.262 C 
ATOM      6  C   UNL     1      10.532 -60.984 -23.922  1.00  0.00     0.262 C 
ATOM      7  C   UNL     1      10.601 -59.667 -21.299  1.00  0.00     0.069 C 
ATOM      8  C   UNL     1      11.299 -59.687 -23.716  1.00  0.00     0.069 C 
ATOM      9  C   UNL     1       9.830 -63.098 -22.803  1.00  0.00     0.332 C 
ATOM     10  H   UNL     1      11.454 -61.940 -22.340  1.00  0.00     0.347 HD
ENDBRANCH   2   3
ENDBRANCH   1   2
BRANCH   1  11
ATOM     11  C   UNL     1      10.463 -55.346 -22.889  1.00  0.00     0.008 C 
BRANCH  11  12
ATOM     12  C   UNL     1      11.138 -54.287 -23.355  1.00  0.00     0.004 C 
ATOM     13  C   UNL     1      11.264 -52.882 -22.823  1.00  0.00     0.076 C 
ATOM     14  C   UNL     1      11.938 -54.386 -24.617  1.00  0.00     0.189 C 
ATOM     15  C   UNL     1      12.152 -52.202 -23.823  1.00  0.00    -0.032 A 
ATOM     16  C   UNL     1      12.535 -53.069 -24.848  1.00  0.00     0.026 A 
ATOM     17  C   UNL     1      12.596 -50.890 -23.823  1.00  0.00     0.005 A 
ATOM     18  C   UNL     1      13.354 -52.677 -25.890  1.00  0.00     0.012 A 
ATOM     19  C   UNL     1      13.426 -50.470 -24.868  1.00  0.00     0.000 A 
ATOM     20  C   UNL     1      13.803 -51.357 -25.895  1.00  0.00     0.001 A 
ATOM     21  O   UNL     1      12.073 -55.370 -25.316  1.00  0.00    -0.289 OA
ENDBRANCH  11  12
ENDBRANCH   1  11
TORSDOF 4
ENDMDL
MODEL 2
REMARK VINA RESULT:   -10.172      1.321      2.218
REMARK INTER + INTRA:         -13.024
REMARK INTER:                 -12.545
REMARK INTRA:                  -0.479
REMARK UNBOUND:                -0.474
REMARK SMILES C[N@H+]1CC[C@H](/C=C/C=C2\Cc3ccccc3C2=O)CC1
REMARK SMILES IDX 7 1 6 2 5 3 2 4 3 5 20 6 4 7 19 8 1 9 8 11 9 12 10 13 17 14
REMARK SMILES IDX 11 15 16 16 12 17 15 18 13 19 14 20 18 21
REMARK H PARENT 2 10
ROOT
ATOM      1  C   UNL     1      11.024 -57.050 -22.113  1.00  0.00    -0.004 C 
ENDROOT
BRANCH   1   2
ATOM      2  C   UNL     1      11.589 -58.056 -22.800  1.00  0.00    -0.023 C 
BRANCH   2   3
ATOM      3  C   UNL     1      11.371 -59.542 -22.622  1.00  0.00     0.023 C 
ATOM      4  N   UNL     1       9.796 -61.998 -22.806  1.00  0.00    -0.337 N 
ATOM      5  C   UNL     1      11.044 -61.834 -23.638  1.00  0.00     0.262 C 
ATOM      6  C   UNL     1       9.885 -61.255 -21.496  1.00  0.00     0.262 C 
ATOM      7  C   UNL     1      11.275 -60.357 -23.922  1.00  0.00     0.069 C 
ATOM      8  C   UNL     1      10.118 -59.776 -21.764  1.00  0.00     0.069 C 
ATOM      9  C   UNL     1       9.453 -63.448 -22.599  1.00  0.00     0.332 C 
ATOM     10  H   UNL     1       9.013 -61.590 -23.338  1.00  0.00     0.347 HD
ENDBRANCH   2   3
ENDBRANCH   1   2
BRANCH   1  11
ATOM     11  C   UNL     1      10.347 -55.958 -22.778  1.00  0.00     0.008 C 
BRANCH  11  12
ATOM     12  C   UNL     1      10.927 -54.815 -23.167  1.00  0.00     0.004 C 
ATOM     13  C   UNL     1      11.747 -54.487 -24.390  1.00  0.00     0.076 C 
ATOM     14  C   UNL     1      10.819 -53.579 -22.328  1.00  0.00     0.189 C 
ATOM     15  C   UNL     1      12.094 -53.040 -24.207  1.00  0.00    -0.032 A 
ATOM     16  C   UNL     1      11.561 -52.525 -23.024  1.00  0.00     0.026 A 
ATOM     17  C   UNL     1      12.842 -52.225 -25.042  1.00  0.00     0.005 A 
ATOM     18  C   UNL     1      11.742 -51.212 -22.631  1.00  0.00     0.012 A 
ATOM     19  C   UNL     1      13.040 -50.892 -24.664  1.00  0.00     0.000 A 
ATOM     20  C   UNL     1      12.494 -50.389 -23.468  1.00  0.00     0.001 A 
ATOM     21  O   UNL     1      10.228 -53.468 -21.274  1.00  0.00    -0.289 OA
ENDBRANCH  11  12
ENDBRANCH   1  11
TORSDOF 4
ENDMDL
MODEL 3
REMARK VINA RESULT:   -10.145      1.031      1.814
REMARK INTER + INTRA:         -12.991
REMARK INTER:                 -12.537
REMARK INTRA:                  -0.454
REMARK UNBOUND:                -0.474
REMARK SMILES C[N@H+]1CC[C@H](/C=C/C=C2\Cc3ccccc3C2=O)CC1
REMARK SMILES IDX 7 1 6 2 5 3 2 4 3 5 20 6 4 7 19 8 1 9 8 11 9 12 10 13 17 14
REMARK SMILES IDX 11 15 16 16 12 17 15 18 13 19 14 20 18 21
REMARK H PARENT 2 10
ROOT
ATOM      1  C   UNL     1      11.106 -57.228 -22.015  1.00  0.00    -0.004 C 
ENDROOT
BRANCH   1   2
ATOM      2  C   UNL     1      11.640 -58.254 -22.698  1.00  0.00    -0.023 C 
BRANCH   2   3
ATOM      3  C   UNL     1      11.352 -59.730 -22.538  1.00  0.00     0.023 C 
ATOM      4  N   UNL     1       9.669 -62.108 -22.774  1.00  0.00    -0.337 N 
ATOM      5  C   UNL     1      10.938 -61.995 -23.581  1.00  0.00     0.262 C 
ATOM      6  C   UNL     1       9.768 -61.381 -21.455  1.00  0.00     0.262 C 
ATOM      7  C   UNL     1      11.241 -60.527 -23.847  1.00  0.00     0.069 C 
ATOM      8  C   UNL     1      10.074 -59.913 -21.704  1.00  0.00     0.069 C 
ATOM      9  C   UNL     1       9.255 -63.543 -22.586  1.00  0.00     0.332 C 
ATOM     10  H   UNL     1       8.915 -61.660 -23.315  1.00  0.00     0.347 HD
ENDBRANCH   2   3
ENDBRANCH   1   2
BRANCH   1  11
ATOM     11  C   UNL     1      10.422 -56.142 -22.683  1.00  0.00     0.008 C 
BRANCH  11  12
ATOM     12  C   UNL     1      10.816 -54.861 -22.670  1.00  0.00     0.004 C 
ATOM     13  C   UNL     1      10.687 -53.796 -21.610  1.00  0.00     0.076 C 
ATOM     14  C   UNL     1      11.510 -54.263 -23.855  1.00  0.00     0.189 C 
ATOM     15  C   UNL     1      11.324 -52.592 -22.237  1.00  0.00    -0.032 A 
ATOM     16  C   UNL     1      11.793 -52.865 -23.523  1.00  0.00     0.026 A 
ATOM     17  C   UNL     1      11.478 -51.325 -21.698  1.00  0.00     0.005 A 
ATOM     18  C   UNL     1      12.420 -51.915 -24.308  1.00  0.00     0.012 A 
ATOM     19  C   UNL     1      12.110 -50.346 -22.474  1.00  0.00     0.000 A 
ATOM     20  C   UNL     1      12.577 -50.638 -23.769  1.00  0.00     0.001 A 
ATOM     21  O   UNL     1      11.790 -54.828 -24.893  1.00  0.00    -0.289 OA
ENDBRANCH  11  12
ENDBRANCH   1  11
TORSDOF 4
ENDMDL
MODEL 4
REMARK VINA RESULT:    -9.921      2.773      8.342
REMARK INTER + INTRA:         -12.714
REMARK INTER:                 -12.227
REMARK INTRA:                  -0.488
REMARK UNBOUND:                -0.474
REMARK SMILES C[N@H+]1CC[C@H](/C=C/C=C2\Cc3ccccc3C2=O)CC1
REMARK SMILES IDX 7 1 6 2 5 3 2 4 3 5 20 6 4 7 19 8 1 9 8 11 9 12 10 13 17 14
REMARK SMILES IDX 11 15 16 16 12 17 15 18 13 19 14 20 18 21
REMARK H PARENT 2 10
ROOT
ATOM      1  C   UNL     1      10.589 -55.637 -22.315  1.00  0.00    -0.004 C 
ENDROOT
BRANCH   1   2
ATOM      2  C   UNL     1      10.911 -54.802 -23.316  1.00  0.00    -0.023 C 
BRANCH   2   3
ATOM      3  C   UNL     1      11.082 -53.300 -23.257  1.00  0.00     0.023 C 
ATOM      4  N   UNL     1      12.400 -50.849 -22.361  1.00  0.00    -0.337 N 
ATOM      5  C   UNL     1      12.430 -51.237 -23.819  1.00  0.00     0.262 C 
ATOM      6  C   UNL     1      11.145 -51.326 -21.672  1.00  0.00     0.262 C 
ATOM      7  C   UNL     1      12.342 -52.751 -23.944  1.00  0.00     0.069 C 
ATOM      8  C   UNL     1      11.042 -52.839 -21.791  1.00  0.00     0.069 C 
ATOM      9  C   UNL     1      12.607 -49.371 -22.174  1.00  0.00     0.332 C 
ATOM     10  H   UNL     1      13.197 -51.312 -21.900  1.00  0.00     0.347 HD
ENDBRANCH   2   3
ENDBRANCH   1   2
BRANCH   1  11
ATOM     11  C   UNL     1      11.419 -56.771 -21.971  1.00  0.00     0.008 C 
BRANCH  11  12
ATOM     12  C   UNL     1      11.094 -58.054 -22.177  1.00  0.00     0.004 C 
ATOM     13  C   UNL     1      10.572 -59.106 -21.231  1.00  0.00     0.076 C 
ATOM     14  C   UNL     1      11.233 -58.670 -23.534  1.00  0.00     0.189 C 
ATOM     15  C   UNL     1      10.428 -60.322 -22.097  1.00  0.00    -0.032 A 
ATOM     16  C   UNL     1      10.809 -60.067 -23.415  1.00  0.00     0.026 A 
ATOM     17  C   UNL     1       9.984 -61.585 -21.737  1.00  0.00     0.005 A 
ATOM     18  C   UNL     1      10.766 -61.030 -24.406  1.00  0.00     0.012 A 
ATOM     19  C   UNL     1       9.933 -62.576 -22.722  1.00  0.00     0.000 A 
ATOM     20  C   UNL     1      10.320 -62.302 -24.047  1.00  0.00     0.001 A 
ATOM     21  O   UNL     1      11.621 -58.119 -24.545  1.00  0.00    -0.289 OA
ENDBRANCH  11  12
ENDBRANCH   1  11
TORSDOF 4
ENDMDL
MODEL 5
REMARK VINA RESULT:    -9.808      2.041      2.732
REMARK INTER + INTRA:         -12.575
REMARK INTER:                 -11.987
REMARK INTRA:                  -0.588
REMARK UNBOUND:                -0.474
REMARK SMILES C[N@H+]1CC[C@H](/C=C/C=C2\Cc3ccccc3C2=O)CC1
REMARK SMILES IDX 7 1 6 2 5 3 2 4 3 5 20 6 4 7 19 8 1 9 8 11 9 12 10 13 17 14
REMARK SMILES IDX 11 15 16 16 12 17 15 18 13 19 14 20 18 21
REMARK H PARENT 2 10
ROOT
ATOM      1  C   UNL     1      10.323 -54.755 -22.534  1.00  0.00    -0.004 C 
ENDROOT
BRANCH   1   2
ATOM      2  C   UNL     1      10.690 -55.898 -21.931  1.00  0.00    -0.023 C 
BRANCH   2   3
ATOM      3  C   UNL     1      10.902 -57.256 -22.563  1.00  0.00     0.023 C 
ATOM      4  N   UNL     1      12.557 -59.464 -23.527  1.00  0.00    -0.337 N 
ATOM      5  C   UNL     1      11.633 -59.666 -22.352  1.00  0.00     0.262 C 
ATOM      6  C   UNL     1      12.024 -58.440 -24.499  1.00  0.00     0.262 C 
ATOM      7  C   UNL     1      11.443 -58.344 -21.622  1.00  0.00     0.069 C 
ATOM      8  C   UNL     1      11.825 -57.113 -23.783  1.00  0.00     0.069 C 
ATOM      9  C   UNL     1      12.878 -60.764 -24.213  1.00  0.00     0.332 C 
ATOM     10  H   UNL     1      13.450 -59.103 -23.162  1.00  0.00     0.347 HD
ENDBRANCH   2   3
ENDBRANCH   1   2
BRANCH   1  11
ATOM     11  C   UNL     1      11.015 -53.508 -22.289  1.00  0.00     0.008 C 
BRANCH  11  12
ATOM     12  C   UNL     1      11.697 -52.811 -23.208  1.00  0.00     0.004 C 
ATOM     13  C   UNL     1      12.359 -53.248 -24.491  1.00  0.00     0.076 C 
ATOM     14  C   UNL     1      11.910 -51.338 -23.047  1.00  0.00     0.189 C 
ATOM     15  C   UNL     1      12.948 -51.981 -25.036  1.00  0.00    -0.032 A 
ATOM     16  C   UNL     1      12.688 -50.890 -24.205  1.00  0.00     0.026 A 
ATOM     17  C   UNL     1      13.674 -51.805 -26.203  1.00  0.00     0.005 A 
ATOM     18  C   UNL     1      13.126 -49.611 -24.491  1.00  0.00     0.012 A 
ATOM     19  C   UNL     1      14.129 -50.519 -26.514  1.00  0.00     0.000 A 
ATOM     20  C   UNL     1      13.857 -49.430 -25.665  1.00  0.00     0.001 A 
ATOM     21  O   UNL     1      11.512 -50.642 -22.135  1.00  0.00    -0.289 OA
ENDBRANCH  11  12
ENDBRANCH   1  11
TORSDOF 4
ENDMDL
MODEL 6
REMARK VINA RESULT:    -9.604      2.297      4.123
REMARK INTER + INTRA:         -12.324
REMARK INTER:                 -12.039
REMARK INTRA:                  -0.284
REMARK UNBOUND:                -0.474
REMARK SMILES C[N@H+]1CC[C@H](/C=C/C=C2\Cc3ccccc3C2=O)CC1
REMARK SMILES IDX 7 1 6 2 5 3 2 4 3 5 20 6 4 7 19 8 1 9 8 11 9 12 10 13 17 14
REMARK SMILES IDX 11 15 16 16 12 17 15 18 13 19 14 20 18 21
REMARK H PARENT 2 10
ROOT
ATOM      1  C   UNL     1      11.442 -60.239 -23.625  1.00  0.00    -0.004 C 
ENDROOT
BRANCH   1   2
ATOM      2  C   UNL     1      11.006 -61.443 -23.221  1.00  0.00    -0.023 C 
BRANCH   2   3
ATOM      3  C   UNL     1      10.051 -62.374 -23.934  1.00  0.00     0.023 C 
ATOM      4  N   UNL     1       7.395 -63.246 -24.792  1.00  0.00    -0.337 N 
ATOM      5  C   UNL     1       8.411 -62.794 -25.812  1.00  0.00     0.262 C 
ATOM      6  C   UNL     1       8.045 -63.879 -23.587  1.00  0.00     0.262 C 
ATOM      7  C   UNL     1       9.358 -61.787 -25.174  1.00  0.00     0.069 C 
ATOM      8  C   UNL     1       8.997 -62.886 -22.939  1.00  0.00     0.069 C 
ATOM      9  C   UNL     1       6.359 -64.149 -25.402  1.00  0.00     0.332 C 
ATOM     10  H   UNL     1       6.891 -62.409 -24.464  1.00  0.00     0.347 HD
ENDBRANCH   2   3
ENDBRANCH   1   2
BRANCH   1  11
ATOM     11  C   UNL     1      12.064 -59.307 -22.710  1.00  0.00     0.008 C 
BRANCH  11  12
ATOM     12  C   UNL     1      11.728 -58.017 -22.578  1.00  0.00     0.004 C 
ATOM     13  C   UNL     1      11.254 -57.236 -21.378  1.00  0.00     0.076 C 
ATOM     14  C   UNL     1      11.787 -57.088 -23.750  1.00  0.00     0.189 C 
ATOM     15  C   UNL     1      11.048 -55.851 -21.915  1.00  0.00    -0.032 A 
ATOM     16  C   UNL     1      11.355 -55.772 -23.275  1.00  0.00     0.026 A 
ATOM     17  C   UNL     1      10.613 -54.724 -21.237  1.00  0.00     0.005 A 
ATOM     18  C   UNL     1      11.245 -54.600 -23.999  1.00  0.00     0.012 A 
ATOM     19  C   UNL     1      10.494 -53.525 -21.949  1.00  0.00     0.000 A 
ATOM     20  C   UNL     1      10.808 -53.463 -23.320  1.00  0.00     0.001 A 
ATOM     21  O   UNL     1      12.132 -57.367 -24.881  1.00  0.00    -0.289 OA
ENDBRANCH  11  12
ENDBRANCH   1  11
TORSDOF 4
ENDMDL
MODEL 7
REMARK VINA RESULT:    -9.430      4.238      6.777
REMARK INTER + INTRA:         -12.108
REMARK INTER:                 -11.418
REMARK INTRA:                  -0.691
REMARK UNBOUND:                -0.474
REMARK SMILES C[N@H+]1CC[C@H](/C=C/C=C2\Cc3ccccc3C2=O)CC1
REMARK SMILES IDX 7 1 6 2 5 3 2 4 3 5 20 6 4 7 19 8 1 9 8 11 9 12 10 13 17 14
REMARK SMILES IDX 11 15 16 16 12 17 15 18 13 19 14 20 18 21
REMARK H PARENT 2 10
ROOT
ATOM      1  C   UNL     1       7.377 -62.691 -24.237  1.00  0.00    -0.004 C 
ENDROOT
BRANCH   1   2
ATOM      2  C   UNL     1       8.147 -62.971 -25.301  1.00  0.00    -0.023 C 
BRANCH   2   3
ATOM      3  C   UNL     1       8.704 -62.007 -26.326  1.00  0.00     0.023 C 
ATOM      4  N   UNL     1      10.769 -61.029 -28.148  1.00  0.00    -0.337 N 
ATOM      5  C   UNL     1       9.459 -61.540 -28.693  1.00  0.00     0.262 C 
ATOM      6  C   UNL     1      10.613 -60.409 -26.781  1.00  0.00     0.262 C 
ATOM      7  C   UNL     1       8.884 -62.579 -27.741  1.00  0.00     0.069 C 
ATOM      8  C   UNL     1      10.037 -61.435 -25.819  1.00  0.00     0.069 C 
ATOM      9  C   UNL     1      11.442 -60.088 -29.110  1.00  0.00     0.332 C 
ATOM     10  H   UNL     1      11.400 -61.837 -28.048  1.00  0.00     0.347 HD
ENDBRANCH   2   3
ENDBRANCH   1   2
BRANCH   1  11
ATOM     11  C   UNL     1       7.163 -61.333 -23.787  1.00  0.00     0.008 C 
BRANCH  11  12
ATOM     12  C   UNL     1       8.108 -60.533 -23.274  1.00  0.00     0.004 C 
ATOM     13  C   UNL     1       9.196 -60.806 -22.266  1.00  0.00     0.076 C 
ATOM     14  C   UNL     1       8.203 -59.098 -23.691  1.00  0.00     0.189 C 
ATOM     15  C   UNL     1       9.894 -59.486 -22.130  1.00  0.00    -0.032 A 
ATOM     16  C   UNL     1       9.320 -58.511 -22.949  1.00  0.00     0.026 A 
ATOM     17  C   UNL     1      10.977 -59.166 -21.327  1.00  0.00     0.005 A 
ATOM     18  C   UNL     1       9.787 -57.211 -23.002  1.00  0.00     0.012 A 
ATOM     19  C   UNL     1      11.467 -57.856 -21.364  1.00  0.00     0.000 A 
ATOM     20  C   UNL     1      10.877 -56.885 -22.195  1.00  0.00     0.001 A 
ATOM     21  O   UNL     1       7.492 -58.527 -24.493  1.00  0.00    -0.289 OA
ENDBRANCH  11  12
ENDBRANCH   1  11
TORSDOF 4
ENDMDL
MODEL 8
REMARK VINA RESULT:    -9.223      2.076      2.962
REMARK INTER + INTRA:         -11.853
REMARK INTER:                 -11.474
REMARK INTRA:                  -0.379
REMARK UNBOUND:                -0.474
REMARK SMILES C[N@H+]1CC[C@H](/C=C/C=C2\Cc3ccccc3C2=O)CC1
REMARK SMILES IDX 7 1 6 2 5 3 2 4 3 5 20 6 4 7 19 8 1 9 8 11 9 12 10 13 17 14
REMARK SMILES IDX 11 15 16 16 12 17 15 18 13 19 14 20 18 21
REMARK H PARENT 2 10
ROOT
ATOM      1  C   UNL     1      10.687 -55.115 -23.037  1.00  0.00    -0.004 C 
ENDROOT
BRANCH   1   2
ATOM      2  C   UNL     1      11.287 -56.231 -22.590  1.00  0.00    -0.023 C 
BRANCH   2   3
ATOM      3  C   UNL     1      10.919 -57.668 -22.885  1.00  0.00     0.023 C 
ATOM      4  N   UNL     1       9.580 -60.200 -22.300  1.00  0.00    -0.337 N 
ATOM      5  C   UNL     1       9.171 -59.386 -23.502  1.00  0.00     0.262 C 
ATOM      6  C   UNL     1      11.041 -60.023 -21.964  1.00  0.00     0.262 C 
ATOM      7  C   UNL     1       9.443 -57.913 -23.236  1.00  0.00     0.069 C 
ATOM      8  C   UNL     1      11.329 -58.554 -21.698  1.00  0.00     0.069 C 
ATOM      9  C   UNL     1       9.220 -61.651 -22.461  1.00  0.00     0.332 C 
ATOM     10  H   UNL     1       9.037 -59.856 -21.494  1.00  0.00     0.347 HD
ENDBRANCH   2   3
ENDBRANCH   1   2
BRANCH   1  11
ATOM     11  C   UNL     1      10.593 -53.922 -22.224  1.00  0.00     0.008 C 
BRANCH  11  12
ATOM     12  C   UNL     1      11.020 -52.706 -22.589  1.00  0.00     0.004 C 
ATOM     13  C   UNL     1      12.261 -52.273 -23.329  1.00  0.00     0.076 C 
ATOM     14  C   UNL     1      10.219 -51.484 -22.260  1.00  0.00     0.189 C 
ATOM     15  C   UNL     1      12.130 -50.781 -23.399  1.00  0.00    -0.032 A 
ATOM     16  C   UNL     1      10.959 -50.335 -22.785  1.00  0.00     0.026 A 
ATOM     17  C   UNL     1      13.000 -49.870 -23.976  1.00  0.00     0.005 A 
ATOM     18  C   UNL     1      10.611 -48.998 -22.719  1.00  0.00     0.012 A 
ATOM     19  C   UNL     1      12.671 -48.511 -23.921  1.00  0.00     0.000 A 
ATOM     20  C   UNL     1      11.485 -48.078 -23.298  1.00  0.00     0.001 A 
ATOM     21  O   UNL     1       9.156 -51.450 -21.673  1.00  0.00    -0.289 OA
ENDBRANCH  11  12
ENDBRANCH   1  11
TORSDOF 4
ENDMDL
MODEL 9
REMARK VINA RESULT:    -9.188      3.086      8.557
REMARK INTER + INTRA:         -11.810
REMARK INTER:                 -11.414
REMARK INTRA:                  -0.396
REMARK UNBOUND:                -0.474
REMARK SMILES C[N@H+]1CC[C@H](/C=C/C=C2\Cc3ccccc3C2=O)CC1
REMARK SMILES IDX 7 1 6 2 5 3 2 4 3 5 20 6 4 7 19 8 1 9 8 11 9 12 10 13 17 14
REMARK SMILES IDX 11 15 16 16 12 17 15 18 13 19 14 20 18 21
REMARK H PARENT 2 10
ROOT
ATOM      1  C   UNL     1      11.410 -57.509 -22.763  1.00  0.00    -0.004 C 
ENDROOT
BRANCH   1   2
ATOM      2  C   UNL     1      10.676 -56.418 -22.490  1.00  0.00    -0.023 C 
BRANCH   2   3
ATOM      3  C   UNL     1      11.153 -54.991 -22.334  1.00  0.00     0.023 C 
ATOM      4  N   UNL     1      10.936 -52.101 -22.718  1.00  0.00    -0.337 N 
ATOM      5  C   UNL     1      10.851 -52.690 -21.332  1.00  0.00     0.262 C 
ATOM      6  C   UNL     1      11.817 -52.920 -23.629  1.00  0.00     0.262 C 
ATOM      7  C   UNL     1      10.298 -54.106 -21.415  1.00  0.00     0.069 C 
ATOM      8  C   UNL     1      11.279 -54.339 -23.720  1.00  0.00     0.069 C 
ATOM      9  C   UNL     1      11.362 -50.659 -22.685  1.00  0.00     0.332 C 
ATOM     10  H   UNL     1       9.987 -52.112 -23.119  1.00  0.00     0.347 HD
ENDBRANCH   2   3
ENDBRANCH   1   2
BRANCH   1  11
ATOM     11  C   UNL     1      11.121 -58.792 -22.161  1.00  0.00     0.008 C 
BRANCH  11  12
ATOM     12  C   UNL     1      10.195 -59.657 -22.597  1.00  0.00     0.004 C 
ATOM     13  C   UNL     1       8.693 -59.547 -22.669  1.00  0.00     0.076 C 
ATOM     14  C   UNL     1      10.594 -61.001 -23.125  1.00  0.00     0.189 C 
ATOM     15  C   UNL     1       8.268 -60.864 -23.246  1.00  0.00    -0.032 A 
ATOM     16  C   UNL     1       9.360 -61.693 -23.505  1.00  0.00     0.026 A 
ATOM     17  C   UNL     1       6.983 -61.302 -23.527  1.00  0.00     0.005 A 
ATOM     18  C   UNL     1       9.227 -62.960 -24.040  1.00  0.00     0.012 A 
ATOM     19  C   UNL     1       6.823 -62.583 -24.068  1.00  0.00     0.000 A 
ATOM     20  C   UNL     1       7.936 -63.406 -24.324  1.00  0.00     0.001 A 
ATOM     21  O   UNL     1      11.723 -61.436 -23.224  1.00  0.00    -0.289 OA
ENDBRANCH  11  12
ENDBRANCH   1  11
TORSDOF 4
ENDMDL
