MODEL 1
REMARK VINA RESULT:   -12.609      0.000      0.000
REMARK INTER + INTRA:         -19.234
REMARK INTER:                 -18.137
REMARK INTRA:                  -1.097
REMARK UNBOUND:                -1.097
REMARK SMILES Cc1cc(O)nc2c1C(=O)C(NCCCCN=c1c3c([nH]c4cc(Cl)ccc14)CCCC3)=CC2=O
REMARK SMILES IDX 14 1 15 2 16 3 17 4 18 5 21 6 20 7 22 8 19 9 29 10 23 11
REMARK SMILES IDX 28 12 32 13 30 14 24 15 27 16 31 17 26 18 25 20 13 21 12 22
REMARK SMILES IDX 11 24 33 25 9 26 34 27 8 28 7 29 2 30 6 31 3 32 4 33 10 34
REMARK SMILES IDX 35 35 1 36 5 37
REMARK H PARENT 21 19 12 23 5 38
ROOT
ATOM      1  C   UNL     1      11.351 -57.544 -22.538  1.00  0.00     0.023 C 
ENDROOT
BRANCH   1   2
ATOM      2  C   UNL     1      11.435 -58.515 -21.361  1.00  0.00     0.025 C 
BRANCH   2   3
ATOM      3  C   UNL     1      10.673 -59.811 -21.650  1.00  0.00     0.143 C 
BRANCH   3   4
ATOM      4  N   UNL     1      11.275 -60.421 -22.817  1.00  0.00    -0.284 NA
BRANCH   4   5
ATOM      5  C   UNL     1      10.638 -61.020 -23.758  1.00  0.00     0.072 A 
ATOM      6  N   UNL     1       8.992 -61.674 -25.974  1.00  0.00    -0.358 N 
ATOM      7  C   UNL     1       8.808 -62.325 -24.771  1.00  0.00     0.021 A 
ATOM      8  C   UNL     1      10.153 -60.932 -26.217  1.00  0.00     0.049 A 
ATOM      9  C   UNL     1       9.562 -62.090 -23.672  1.00  0.00    -0.003 A 
ATOM     10  C   UNL     1       7.702 -63.366 -24.776  1.00  0.00     0.054 C 
ATOM     11  C   UNL     1      10.441 -60.461 -27.504  1.00  0.00     0.047 A 
ATOM     12  C   UNL     1      10.999 -60.586 -25.154  1.00  0.00     0.024 A 
ATOM     13  C   UNL     1       9.419 -62.913 -22.419  1.00  0.00     0.039 C 
ATOM     14  C   UNL     1       7.347 -63.918 -23.399  1.00  0.00     0.007 C 
ATOM     15  C   UNL     1      11.582 -59.691 -27.729  1.00  0.00     0.043 A 
ATOM     16  C   UNL     1      12.141 -59.806 -25.389  1.00  0.00     0.014 A 
ATOM     17  C   UNL     1       8.611 -64.199 -22.605  1.00  0.00     0.005 C 
ATOM     18  C   UNL     1      12.436 -59.365 -26.679  1.00  0.00     0.021 A 
ATOM     19  H   UNL     1       8.521 -62.067 -26.782  1.00  0.00     0.166 HD
ATOM     20  Cl  UNL     1      11.933 -59.134 -29.319  1.00  0.00    -0.084 Cl
ENDBRANCH   4   5
ENDBRANCH   3   4
ENDBRANCH   2   3
ENDBRANCH   1   2
BRANCH   1  21
ATOM     21  C   UNL     1       9.957 -56.929 -22.648  1.00  0.00     0.113 C 
BRANCH  21  22
ATOM     22  N   UNL     1       9.973 -55.856 -23.629  1.00  0.00    -0.382 N 
ATOM     23  H   UNL     1       9.184 -55.869 -24.287  1.00  0.00     0.160 HD
BRANCH  22  24
ATOM     24  C   UNL     1      10.375 -54.545 -23.393  1.00  0.00     0.087 C 
ATOM     25  C   UNL     1       9.828 -53.709 -22.507  1.00  0.00     0.084 C 
ATOM     26  C   UNL     1      11.531 -54.073 -24.238  1.00  0.00     0.211 C 
ATOM     27  C   UNL     1      10.306 -52.334 -22.297  1.00  0.00     0.207 C 
ATOM     28  C   UNL     1      12.094 -52.724 -24.003  1.00  0.00     0.057 A 
ATOM     29  C   UNL     1      11.491 -51.889 -23.068  1.00  0.00     0.126 A 
ATOM     30  C   UNL     1      13.222 -52.231 -24.694  1.00  0.00    -0.032 A 
ATOM     31  N   UNL     1      11.915 -50.626 -22.784  1.00  0.00    -0.209 NA
ATOM     32  C   UNL     1      13.664 -50.931 -24.407  1.00  0.00     0.072 A 
ATOM     33  C   UNL     1      12.980 -50.199 -23.462  1.00  0.00     0.211 A 
ATOM     34  O   UNL     1      11.968 -54.818 -25.111  1.00  0.00    -0.287 OA
ATOM     35  O   UNL     1       9.723 -51.612 -21.497  1.00  0.00    -0.287 OA
ATOM     36  C   UNL     1      13.974 -53.026 -25.725  1.00  0.00     0.045 C 
BRANCH  33  37
ATOM     37  O   UNL     1      13.370 -48.940 -23.151  1.00  0.00    -0.493 OA
ATOM     38  H   UNL     1      13.756 -49.086 -22.267  1.00  0.00     0.295 HD
ENDBRANCH  33  37
ENDBRANCH  22  24
ENDBRANCH  21  22
ENDBRANCH   1  21
TORSDOF 8
ENDMDL
MODEL 2
REMARK VINA RESULT:   -12.205      1.371      2.325
REMARK INTER + INTRA:         -18.653
REMARK INTER:                 -17.782
REMARK INTRA:                  -0.871
REMARK UNBOUND:                -1.097
REMARK SMILES Cc1cc(O)nc2c1C(=O)C(NCCCCN=c1c3c([nH]c4cc(Cl)ccc14)CCCC3)=CC2=O
REMARK SMILES IDX 14 1 15 2 16 3 17 4 18 5 21 6 20 7 22 8 19 9 29 10 23 11
REMARK SMILES IDX 28 12 32 13 30 14 24 15 27 16 31 17 26 18 25 20 13 21 12 22
REMARK SMILES IDX 11 24 33 25 9 26 34 27 8 28 7 29 2 30 6 31 3 32 4 33 10 34
REMARK SMILES IDX 35 35 1 36 5 37
REMARK H PARENT 21 19 12 23 5 38
ROOT
ATOM      1  C   UNL     1      11.016 -56.760 -21.993  1.00  0.00     0.023 C 
ENDROOT
BRANCH   1   2
ATOM      2  C   UNL     1      11.368 -57.876 -22.976  1.00  0.00     0.025 C 
BRANCH   2   3
ATOM      3  C   UNL     1      11.251 -59.255 -22.322  1.00  0.00     0.143 C 
BRANCH   3   4
ATOM      4  N   UNL     1      11.704 -60.235 -23.285  1.00  0.00    -0.284 NA
BRANCH   4   5
ATOM      5  C   UNL     1      10.953 -60.878 -24.105  1.00  0.00     0.072 A 
ATOM      6  N   UNL     1       9.069 -61.634 -26.087  1.00  0.00    -0.358 N 
ATOM      7  C   UNL     1       8.981 -62.175 -24.820  1.00  0.00     0.021 A 
ATOM      8  C   UNL     1      10.228 -60.971 -26.504  1.00  0.00     0.049 A 
ATOM      9  C   UNL     1       9.851 -61.886 -23.823  1.00  0.00    -0.003 A 
ATOM     10  C   UNL     1       7.841 -63.159 -24.628  1.00  0.00     0.054 C 
ATOM     11  C   UNL     1      10.404 -60.622 -27.849  1.00  0.00     0.047 A 
ATOM     12  C   UNL     1      11.189 -60.579 -25.562  1.00  0.00     0.024 A 
ATOM     13  C   UNL     1       9.802 -62.596 -22.496  1.00  0.00     0.039 C 
ATOM     14  C   UNL     1       7.604 -63.578 -23.180  1.00  0.00     0.007 C 
ATOM     15  C   UNL     1      11.545 -59.928 -28.249  1.00  0.00     0.043 A 
ATOM     16  C   UNL     1      12.332 -59.876 -25.973  1.00  0.00     0.014 A 
ATOM     17  C   UNL     1       8.929 -63.853 -22.490  1.00  0.00     0.005 C 
ATOM     18  C   UNL     1      12.513 -59.557 -27.319  1.00  0.00     0.021 A 
ATOM     19  H   UNL     1       8.505 -62.070 -26.808  1.00  0.00     0.166 HD
ATOM     20  Cl  UNL     1      11.757 -59.520 -29.908  1.00  0.00    -0.084 Cl
ENDBRANCH   4   5
ENDBRANCH   3   4
ENDBRANCH   2   3
ENDBRANCH   1   2
BRANCH   1  21
ATOM     21  C   UNL     1       9.896 -55.876 -22.539  1.00  0.00     0.113 C 
BRANCH  21  22
ATOM     22  N   UNL     1      10.346 -54.494 -22.589  1.00  0.00    -0.382 N 
ATOM     23  H   UNL     1      10.488 -54.059 -21.670  1.00  0.00     0.160 HD
BRANCH  22  24
ATOM     24  C   UNL     1      11.244 -53.965 -23.511  1.00  0.00     0.087 C 
ATOM     25  C   UNL     1      11.764 -54.616 -24.555  1.00  0.00     0.084 C 
ATOM     26  C   UNL     1      11.637 -52.531 -23.265  1.00  0.00     0.211 C 
ATOM     27  C   UNL     1      12.704 -53.996 -25.501  1.00  0.00     0.207 C 
ATOM     28  C   UNL     1      12.517 -51.846 -24.238  1.00  0.00     0.057 A 
ATOM     29  C   UNL     1      13.034 -52.564 -25.311  1.00  0.00     0.126 A 
ATOM     30  C   UNL     1      12.873 -50.483 -24.126  1.00  0.00    -0.032 A 
ATOM     31  N   UNL     1      13.864 -52.040 -26.255  1.00  0.00    -0.209 NA
ATOM     32  C   UNL     1      13.728 -49.936 -25.095  1.00  0.00     0.072 A 
ATOM     33  C   UNL     1      14.177 -50.751 -26.109  1.00  0.00     0.211 A 
ATOM     34  O   UNL     1      11.224 -51.970 -22.253  1.00  0.00    -0.287 OA
ATOM     35  O   UNL     1      13.174 -54.672 -26.409  1.00  0.00    -0.287 OA
ATOM     36  C   UNL     1      12.384 -49.587 -23.022  1.00  0.00     0.045 C 
BRANCH  33  37
ATOM     37  O   UNL     1      15.004 -50.269 -27.067  1.00  0.00    -0.493 OA
ATOM     38  H   UNL     1      15.868 -50.562 -26.721  1.00  0.00     0.295 HD
ENDBRANCH  33  37
ENDBRANCH  22  24
ENDBRANCH  21  22
ENDBRANCH   1  21
TORSDOF 8
ENDMDL
MODEL 3
REMARK VINA RESULT:   -11.321      3.509     10.567
REMARK INTER + INTRA:         -17.381
REMARK INTER:                 -16.542
REMARK INTRA:                  -0.840
REMARK UNBOUND:                -1.097
REMARK SMILES Cc1cc(O)nc2c1C(=O)C(NCCCCN=c1c3c([nH]c4cc(Cl)ccc14)CCCC3)=CC2=O
REMARK SMILES IDX 14 1 15 2 16 3 17 4 18 5 21 6 20 7 22 8 19 9 29 10 23 11
REMARK SMILES IDX 28 12 32 13 30 14 24 15 27 16 31 17 26 18 25 20 13 21 12 22
REMARK SMILES IDX 11 24 33 25 9 26 34 27 8 28 7 29 2 30 6 31 3 32 4 33 10 34
REMARK SMILES IDX 35 35 1 36 5 37
REMARK H PARENT 21 19 12 23 5 38
ROOT
ATOM      1  C   UNL     1      10.778 -54.750 -21.876  1.00  0.00     0.023 C 
ENDROOT
BRANCH   1   2
ATOM      2  C   UNL     1       9.924 -53.532 -22.223  1.00  0.00     0.025 C 
BRANCH   2   3
ATOM      3  C   UNL     1      10.579 -52.234 -21.742  1.00  0.00     0.143 C 
BRANCH   3   4
ATOM      4  N   UNL     1      10.723 -51.365 -22.891  1.00  0.00    -0.284 NA
BRANCH   4   5
ATOM      5  C   UNL     1      11.696 -50.552 -23.094  1.00  0.00     0.072 A 
ATOM      6  N   UNL     1      14.201 -49.220 -23.117  1.00  0.00    -0.358 N 
ATOM      7  C   UNL     1      13.066 -48.535 -22.732  1.00  0.00     0.021 A 
ATOM      8  C   UNL     1      14.105 -50.447 -23.784  1.00  0.00     0.049 A 
ATOM      9  C   UNL     1      11.831 -49.088 -22.713  1.00  0.00    -0.003 A 
ATOM     10  C   UNL     1      13.301 -47.083 -22.354  1.00  0.00     0.054 C 
ATOM     11  C   UNL     1      15.235 -51.029 -24.370  1.00  0.00     0.047 A 
ATOM     12  C   UNL     1      12.888 -51.142 -23.802  1.00  0.00     0.024 A 
ATOM     13  C   UNL     1      10.601 -48.272 -22.414  1.00  0.00     0.039 C 
ATOM     14  C   UNL     1      12.100 -46.394 -21.713  1.00  0.00     0.007 C 
ATOM     15  C   UNL     1      15.138 -52.270 -25.000  1.00  0.00     0.043 A 
ATOM     16  C   UNL     1      12.800 -52.392 -24.433  1.00  0.00     0.014 A 
ATOM     17  C   UNL     1      10.827 -46.759 -22.458  1.00  0.00     0.005 C 
ATOM     18  C   UNL     1      13.925 -52.952 -25.039  1.00  0.00     0.021 A 
ATOM     19  H   UNL     1      15.030 -48.665 -23.295  1.00  0.00     0.166 HD
ATOM     20  Cl  UNL     1      16.532 -52.966 -25.731  1.00  0.00    -0.084 Cl
ENDBRANCH   4   5
ENDBRANCH   3   4
ENDBRANCH   2   3
ENDBRANCH   1   2
BRANCH   1  21
ATOM     21  C   UNL     1      10.917 -55.686 -23.075  1.00  0.00     0.113 C 
BRANCH  21  22
ATOM     22  N   UNL     1      10.815 -57.067 -22.630  1.00  0.00    -0.382 N 
ATOM     23  H   UNL     1      11.121 -57.226 -21.662  1.00  0.00     0.160 HD
BRANCH  22  24
ATOM     24  C   UNL     1       9.795 -57.953 -22.960  1.00  0.00     0.087 C 
ATOM     25  C   UNL     1       8.532 -57.620 -23.236  1.00  0.00     0.084 C 
ATOM     26  C   UNL     1      10.200 -59.405 -22.992  1.00  0.00     0.211 C 
ATOM     27  C   UNL     1       7.499 -58.607 -23.589  1.00  0.00     0.207 C 
ATOM     28  C   UNL     1       9.212 -60.421 -23.420  1.00  0.00     0.057 A 
ATOM     29  C   UNL     1       7.908 -60.027 -23.698  1.00  0.00     0.126 A 
ATOM     30  C   UNL     1       9.527 -61.792 -23.552  1.00  0.00    -0.032 A 
ATOM     31  N   UNL     1       6.916 -60.878 -24.084  1.00  0.00    -0.209 NA
ATOM     32  C   UNL     1       8.511 -62.674 -23.948  1.00  0.00     0.072 A 
ATOM     33  C   UNL     1       7.256 -62.163 -24.192  1.00  0.00     0.211 A 
ATOM     34  O   UNL     1      11.340 -59.709 -22.649  1.00  0.00    -0.287 OA
ATOM     35  O   UNL     1       6.350 -58.228 -23.785  1.00  0.00    -0.287 OA
ATOM     36  C   UNL     1      10.896 -62.356 -23.288  1.00  0.00     0.045 C 
BRANCH  33  37
ATOM     37  O   UNL     1       6.243 -62.975 -24.576  1.00  0.00    -0.493 OA
ATOM     38  H   UNL     1       5.964 -62.534 -25.400  1.00  0.00     0.295 HD
ENDBRANCH  33  37
ENDBRANCH  22  24
ENDBRANCH  21  22
ENDBRANCH   1  21
TORSDOF 8
ENDMDL
MODEL 4
REMARK VINA RESULT:   -11.163      2.254      4.434
REMARK INTER + INTRA:         -17.154
REMARK INTER:                 -16.321
REMARK INTRA:                  -0.833
REMARK UNBOUND:                -1.097
REMARK SMILES Cc1cc(O)nc2c1C(=O)C(NCCCCN=c1c3c([nH]c4cc(Cl)ccc14)CCCC3)=CC2=O
REMARK SMILES IDX 14 1 15 2 16 3 17 4 18 5 21 6 20 7 22 8 19 9 29 10 23 11
REMARK SMILES IDX 28 12 32 13 30 14 24 15 27 16 31 17 26 18 25 20 13 21 12 22
REMARK SMILES IDX 11 24 33 25 9 26 34 27 8 28 7 29 2 30 6 31 3 32 4 33 10 34
REMARK SMILES IDX 35 35 1 36 5 37
REMARK H PARENT 21 19 12 23 5 38
ROOT
ATOM      1  C   UNL     1      12.130 -57.765 -28.085  1.00  0.00     0.023 C 
ENDROOT
BRANCH   1   2
ATOM      2  C   UNL     1      12.299 -58.906 -27.083  1.00  0.00     0.025 C 
BRANCH   2   3
ATOM      3  C   UNL     1      11.287 -60.025 -27.334  1.00  0.00     0.143 C 
BRANCH   3   4
ATOM      4  N   UNL     1      10.134 -59.769 -26.497  1.00  0.00    -0.284 NA
BRANCH   4   5
ATOM      5  C   UNL     1       9.874 -60.358 -25.386  1.00  0.00     0.072 A 
ATOM      6  N   UNL     1       8.622 -61.471 -23.096  1.00  0.00    -0.358 N 
ATOM      7  C   UNL     1       9.655 -60.570 -22.939  1.00  0.00     0.021 A 
ATOM      8  C   UNL     1       8.383 -62.079 -24.334  1.00  0.00     0.049 A 
ATOM      9  C   UNL     1      10.321 -60.009 -23.976  1.00  0.00    -0.003 A 
ATOM     10  C   UNL     1      10.021 -60.271 -21.496  1.00  0.00     0.054 C 
ATOM     11  C   UNL     1       7.488 -63.150 -24.440  1.00  0.00     0.047 A 
ATOM     12  C   UNL     1       8.981 -61.566 -25.493  1.00  0.00     0.024 A 
ATOM     13  C   UNL     1      11.527 -59.133 -23.764  1.00  0.00     0.039 C 
ATOM     14  C   UNL     1      10.998 -59.112 -21.318  1.00  0.00     0.007 C 
ATOM     15  C   UNL     1       7.228 -63.725 -25.683  1.00  0.00     0.043 A 
ATOM     16  C   UNL     1       8.709 -62.147 -26.741  1.00  0.00     0.014 A 
ATOM     17  C   UNL     1      12.109 -59.201 -22.351  1.00  0.00     0.005 C 
ATOM     18  C   UNL     1       7.838 -63.233 -26.835  1.00  0.00     0.021 A 
ATOM     19  H   UNL     1       8.335 -61.985 -22.270  1.00  0.00     0.166 HD
ATOM     20  Cl  UNL     1       6.139 -65.053 -25.798  1.00  0.00    -0.084 Cl
ENDBRANCH   4   5
ENDBRANCH   3   4
ENDBRANCH   2   3
ENDBRANCH   1   2
BRANCH   1  21
ATOM     21  C   UNL     1      12.822 -56.493 -27.597  1.00  0.00     0.113 C 
BRANCH  21  22
ATOM     22  N   UNL     1      12.470 -56.249 -26.207  1.00  0.00    -0.382 N 
ATOM     23  H   UNL     1      12.769 -56.985 -25.557  1.00  0.00     0.160 HD
BRANCH  22  24
ATOM     24  C   UNL     1      12.490 -55.012 -25.570  1.00  0.00     0.087 C 
ATOM     25  C   UNL     1      13.158 -53.932 -25.984  1.00  0.00     0.084 C 
ATOM     26  C   UNL     1      11.674 -54.936 -24.305  1.00  0.00     0.211 C 
ATOM     27  C   UNL     1      13.130 -52.647 -25.269  1.00  0.00     0.207 C 
ATOM     28  C   UNL     1      11.555 -53.640 -23.599  1.00  0.00     0.057 A 
ATOM     29  C   UNL     1      12.269 -52.542 -24.068  1.00  0.00     0.126 A 
ATOM     30  C   UNL     1      10.751 -53.461 -22.451  1.00  0.00    -0.032 A 
ATOM     31  N   UNL     1      12.246 -51.310 -23.488  1.00  0.00    -0.209 NA
ATOM     32  C   UNL     1      10.723 -52.195 -21.849  1.00  0.00     0.072 A 
ATOM     33  C   UNL     1      11.478 -51.186 -22.405  1.00  0.00     0.211 A 
ATOM     34  O   UNL     1      11.137 -55.958 -23.885  1.00  0.00    -0.287 OA
ATOM     35  O   UNL     1      13.806 -51.714 -25.686  1.00  0.00    -0.287 OA
ATOM     36  C   UNL     1       9.925 -54.558 -21.840  1.00  0.00     0.045 C 
BRANCH  33  37
ATOM     37  O   UNL     1      11.483 -49.947 -21.859  1.00  0.00    -0.493 OA
ATOM     38  H   UNL     1      12.362 -49.631 -22.141  1.00  0.00     0.295 HD
ENDBRANCH  33  37
ENDBRANCH  22  24
ENDBRANCH  21  22
ENDBRANCH   1  21
TORSDOF 8
ENDMDL
MODEL 5
REMARK VINA RESULT:   -11.128      2.230      4.047
REMARK INTER + INTRA:         -17.104
REMARK INTER:                 -16.292
REMARK INTRA:                  -0.811
REMARK UNBOUND:                -1.097
REMARK SMILES Cc1cc(O)nc2c1C(=O)C(NCCCCN=c1c3c([nH]c4cc(Cl)ccc14)CCCC3)=CC2=O
REMARK SMILES IDX 14 1 15 2 16 3 17 4 18 5 21 6 20 7 22 8 19 9 29 10 23 11
REMARK SMILES IDX 28 12 32 13 30 14 24 15 27 16 31 17 26 18 25 20 13 21 12 22
REMARK SMILES IDX 11 24 33 25 9 26 34 27 8 28 7 29 2 30 6 31 3 32 4 33 10 34
REMARK SMILES IDX 35 35 1 36 5 37
REMARK H PARENT 21 19 12 23 5 38
ROOT
ATOM      1  C   UNL     1      11.944 -57.920 -28.099  1.00  0.00     0.023 C 
ENDROOT
BRANCH   1   2
ATOM      2  C   UNL     1      12.162 -59.160 -27.233  1.00  0.00     0.025 C 
BRANCH   2   3
ATOM      3  C   UNL     1      10.839 -59.868 -26.927  1.00  0.00     0.143 C 
BRANCH   3   4
ATOM      4  N   UNL     1      11.108 -60.885 -25.933  1.00  0.00    -0.284 NA
BRANCH   4   5
ATOM      5  C   UNL     1      10.367 -61.147 -24.916  1.00  0.00     0.072 A 
ATOM      6  N   UNL     1       9.364 -61.912 -22.376  1.00  0.00    -0.358 N 
ATOM      7  C   UNL     1       8.848 -62.493 -23.516  1.00  0.00     0.021 A 
ATOM      8  C   UNL     1      10.138 -60.749 -22.451  1.00  0.00     0.049 A 
ATOM      9  C   UNL     1       9.254 -62.171 -24.767  1.00  0.00    -0.003 A 
ATOM     10  C   UNL     1       7.752 -63.514 -23.268  1.00  0.00     0.054 C 
ATOM     11  C   UNL     1      10.470 -60.038 -21.291  1.00  0.00     0.047 A 
ATOM     12  C   UNL     1      10.654 -60.330 -23.684  1.00  0.00     0.024 A 
ATOM     13  C   UNL     1       8.576 -62.729 -25.990  1.00  0.00     0.039 C 
ATOM     14  C   UNL     1       7.345 -64.318 -24.499  1.00  0.00     0.007 C 
ATOM     15  C   UNL     1      11.273 -58.901 -21.372  1.00  0.00     0.043 A 
ATOM     16  C   UNL     1      11.466 -59.188 -23.756  1.00  0.00     0.014 A 
ATOM     17  C   UNL     1       7.232 -63.405 -25.708  1.00  0.00     0.005 C 
ATOM     18  C   UNL     1      11.769 -58.469 -22.600  1.00  0.00     0.021 A 
ATOM     19  H   UNL     1       8.852 -62.068 -21.514  1.00  0.00     0.166 HD
ATOM     20  Cl  UNL     1      11.660 -58.027 -19.941  1.00  0.00    -0.084 Cl
ENDBRANCH   4   5
ENDBRANCH   3   4
ENDBRANCH   2   3
ENDBRANCH   1   2
BRANCH   1  21
ATOM     21  C   UNL     1      12.854 -56.774 -27.661  1.00  0.00     0.113 C 
BRANCH  21  22
ATOM     22  N   UNL     1      12.513 -56.370 -26.306  1.00  0.00    -0.382 N 
ATOM     23  H   UNL     1      12.704 -57.081 -25.590  1.00  0.00     0.160 HD
BRANCH  22  24
ATOM     24  C   UNL     1      12.680 -55.097 -25.771  1.00  0.00     0.087 C 
ATOM     25  C   UNL     1      13.510 -54.159 -26.235  1.00  0.00     0.084 C 
ATOM     26  C   UNL     1      11.830 -54.798 -24.562  1.00  0.00     0.211 C 
ATOM     27  C   UNL     1      13.635 -52.825 -25.629  1.00  0.00     0.207 C 
ATOM     28  C   UNL     1      11.866 -53.442 -23.971  1.00  0.00     0.057 A 
ATOM     29  C   UNL     1      12.747 -52.497 -24.489  1.00  0.00     0.126 A 
ATOM     30  C   UNL     1      11.048 -53.054 -22.887  1.00  0.00    -0.032 A 
ATOM     31  N   UNL     1      12.874 -51.227 -24.013  1.00  0.00    -0.209 NA
ATOM     32  C   UNL     1      11.174 -51.747 -22.392  1.00  0.00     0.072 A 
ATOM     33  C   UNL     1      12.086 -50.904 -22.987  1.00  0.00     0.211 A 
ATOM     34  O   UNL     1      11.138 -55.696 -24.090  1.00  0.00    -0.287 OA
ATOM     35  O   UNL     1      14.452 -52.033 -26.084  1.00  0.00    -0.287 OA
ATOM     36  C   UNL     1      10.050 -53.968 -22.234  1.00  0.00     0.045 C 
BRANCH  33  37
ATOM     37  O   UNL     1      12.242 -49.635 -22.544  1.00  0.00    -0.493 OA
ATOM     38  H   UNL     1      12.248 -49.150 -23.391  1.00  0.00     0.295 HD
ENDBRANCH  33  37
ENDBRANCH  22  24
ENDBRANCH  21  22
ENDBRANCH   1  21
TORSDOF 8
ENDMDL
MODEL 6
REMARK VINA RESULT:   -10.999      4.032     10.941
REMARK INTER + INTRA:         -16.918
REMARK INTER:                 -16.332
REMARK INTRA:                  -0.585
REMARK UNBOUND:                -1.097
REMARK SMILES Cc1cc(O)nc2c1C(=O)C(NCCCCN=c1c3c([nH]c4cc(Cl)ccc14)CCCC3)=CC2=O
REMARK SMILES IDX 14 1 15 2 16 3 17 4 18 5 21 6 20 7 22 8 19 9 29 10 23 11
REMARK SMILES IDX 28 12 32 13 30 14 24 15 27 16 31 17 26 18 25 20 13 21 12 22
REMARK SMILES IDX 11 24 33 25 9 26 34 27 8 28 7 29 2 30 6 31 3 32 4 33 10 34
REMARK SMILES IDX 35 35 1 36 5 37
REMARK H PARENT 21 19 12 23 5 38
ROOT
ATOM      1  C   UNL     1      10.835 -54.577 -22.164  1.00  0.00     0.023 C 
ENDROOT
BRANCH   1   2
ATOM      2  C   UNL     1      10.767 -53.073 -22.428  1.00  0.00     0.025 C 
BRANCH   2   3
ATOM      3  C   UNL     1      11.780 -52.646 -23.493  1.00  0.00     0.143 C 
BRANCH   3   4
ATOM      4  N   UNL     1      12.675 -51.686 -22.885  1.00  0.00    -0.284 NA
BRANCH   4   5
ATOM      5  C   UNL     1      13.320 -50.767 -23.510  1.00  0.00     0.072 A 
ATOM      6  N   UNL     1      14.165 -48.755 -25.322  1.00  0.00    -0.358 N 
ATOM      7  C   UNL     1      14.979 -49.844 -25.084  1.00  0.00     0.021 A 
ATOM      8  C   UNL     1      13.091 -48.463 -24.474  1.00  0.00     0.049 A 
ATOM      9  C   UNL     1      14.662 -50.837 -24.220  1.00  0.00    -0.003 A 
ATOM     10  C   UNL     1      16.290 -49.835 -25.848  1.00  0.00     0.054 C 
ATOM     11  C   UNL     1      12.408 -47.246 -24.582  1.00  0.00     0.047 A 
ATOM     12  C   UNL     1      12.638 -49.425 -23.561  1.00  0.00     0.024 A 
ATOM     13  C   UNL     1      15.632 -51.939 -23.888  1.00  0.00     0.039 C 
ATOM     14  C   UNL     1      17.081 -51.137 -25.764  1.00  0.00     0.007 C 
ATOM     15  C   UNL     1      11.315 -46.979 -23.758  1.00  0.00     0.043 A 
ATOM     16  C   UNL     1      11.534 -49.152 -22.739  1.00  0.00     0.014 A 
ATOM     17  C   UNL     1      17.068 -51.667 -24.340  1.00  0.00     0.005 C 
ATOM     18  C   UNL     1      10.877 -47.924 -22.833  1.00  0.00     0.021 A 
ATOM     19  H   UNL     1      14.582 -47.975 -25.819  1.00  0.00     0.166 HD
ATOM     20  Cl  UNL     1      10.496 -45.471 -23.888  1.00  0.00    -0.084 Cl
ENDBRANCH   4   5
ENDBRANCH   3   4
ENDBRANCH   2   3
ENDBRANCH   1   2
BRANCH   1  21
ATOM     21  C   UNL     1       9.892 -55.343 -23.090  1.00  0.00     0.113 C 
BRANCH  21  22
ATOM     22  N   UNL     1      10.208 -56.762 -23.043  1.00  0.00    -0.382 N 
ATOM     23  H   UNL     1      10.903 -57.019 -22.332  1.00  0.00     0.160 HD
BRANCH  22  24
ATOM     24  C   UNL     1       9.303 -57.802 -23.224  1.00  0.00     0.087 C 
ATOM     25  C   UNL     1       7.975 -57.676 -23.303  1.00  0.00     0.084 C 
ATOM     26  C   UNL     1       9.922 -59.173 -23.331  1.00  0.00     0.211 C 
ATOM     27  C   UNL     1       7.070 -58.818 -23.505  1.00  0.00     0.207 C 
ATOM     28  C   UNL     1       9.053 -60.338 -23.614  1.00  0.00     0.057 A 
ATOM     29  C   UNL     1       7.676 -60.158 -23.688  1.00  0.00     0.126 A 
ATOM     30  C   UNL     1       9.557 -61.643 -23.805  1.00  0.00    -0.032 A 
ATOM     31  N   UNL     1       6.785 -61.159 -23.928  1.00  0.00    -0.209 NA
ATOM     32  C   UNL     1       8.645 -62.680 -24.051  1.00  0.00     0.072 A 
ATOM     33  C   UNL     1       7.303 -62.376 -24.098  1.00  0.00     0.211 A 
ATOM     34  O   UNL     1      11.133 -59.288 -23.167  1.00  0.00    -0.287 OA
ATOM     35  O   UNL     1       5.859 -58.628 -23.522  1.00  0.00    -0.287 OA
ATOM     36  C   UNL     1      11.021 -61.982 -23.756  1.00  0.00     0.045 C 
BRANCH  33  37
ATOM     37  O   UNL     1       6.385 -63.343 -24.333  1.00  0.00    -0.493 OA
ATOM     38  H   UNL     1       5.560 -62.854 -24.150  1.00  0.00     0.295 HD
ENDBRANCH  33  37
ENDBRANCH  22  24
ENDBRANCH  21  22
ENDBRANCH   1  21
TORSDOF 8
ENDMDL
MODEL 7
REMARK VINA RESULT:   -10.513      3.280     10.642
REMARK INTER + INTRA:         -16.219
REMARK INTER:                 -15.197
REMARK INTRA:                  -1.023
REMARK UNBOUND:                -1.097
REMARK SMILES Cc1cc(O)nc2c1C(=O)C(NCCCCN=c1c3c([nH]c4cc(Cl)ccc14)CCCC3)=CC2=O
REMARK SMILES IDX 14 1 15 2 16 3 17 4 18 5 21 6 20 7 22 8 19 9 29 10 23 11
REMARK SMILES IDX 28 12 32 13 30 14 24 15 27 16 31 17 26 18 25 20 13 21 12 22
REMARK SMILES IDX 11 24 33 25 9 26 34 27 8 28 7 29 2 30 6 31 3 32 4 33 10 34
REMARK SMILES IDX 35 35 1 36 5 37
REMARK H PARENT 21 19 12 23 5 38
ROOT
ATOM      1  C   UNL     1      10.557 -53.743 -21.910  1.00  0.00     0.023 C 
ENDROOT
BRANCH   1   2
ATOM      2  C   UNL     1       9.599 -52.650 -22.382  1.00  0.00     0.025 C 
BRANCH   2   3
ATOM      3  C   UNL     1      10.082 -51.261 -21.955  1.00  0.00     0.143 C 
BRANCH   3   4
ATOM      4  N   UNL     1      10.750 -50.662 -23.090  1.00  0.00    -0.284 NA
BRANCH   4   5
ATOM      5  C   UNL     1      11.884 -50.059 -23.055  1.00  0.00     0.072 A 
ATOM      6  N   UNL     1      14.575 -49.298 -22.581  1.00  0.00    -0.358 N 
ATOM      7  C   UNL     1      13.553 -48.432 -22.249  1.00  0.00     0.021 A 
ATOM      8  C   UNL     1      14.343 -50.395 -23.418  1.00  0.00     0.049 A 
ATOM      9  C   UNL     1      12.244 -48.707 -22.461  1.00  0.00    -0.003 A 
ATOM     10  C   UNL     1      14.008 -47.115 -21.648  1.00  0.00     0.054 C 
ATOM     11  C   UNL     1      15.412 -51.138 -23.932  1.00  0.00     0.047 A 
ATOM     12  C   UNL     1      13.030 -50.808 -23.683  1.00  0.00     0.024 A 
ATOM     13  C   UNL     1      11.168 -47.685 -22.209  1.00  0.00     0.039 C 
ATOM     14  C   UNL     1      12.883 -46.259 -21.073  1.00  0.00     0.007 C 
ATOM     15  C   UNL     1      15.169 -52.252 -24.735  1.00  0.00     0.043 A 
ATOM     16  C   UNL     1      12.794 -51.933 -24.487  1.00  0.00     0.014 A 
ATOM     17  C   UNL     1      11.691 -46.260 -22.015  1.00  0.00     0.005 C 
ATOM     18  C   UNL     1      13.865 -52.651 -25.019  1.00  0.00     0.021 A 
ATOM     19  H   UNL     1      15.515 -48.917 -22.575  1.00  0.00     0.166 HD
ATOM     20  Cl  UNL     1      16.493 -53.147 -25.375  1.00  0.00    -0.084 Cl
ENDBRANCH   4   5
ENDBRANCH   3   4
ENDBRANCH   2   3
ENDBRANCH   1   2
BRANCH   1  21
ATOM     21  C   UNL     1      10.963 -54.657 -23.065  1.00  0.00     0.113 C 
BRANCH  21  22
ATOM     22  N   UNL     1       9.964 -55.699 -23.237  1.00  0.00    -0.382 N 
ATOM     23  H   UNL     1       9.249 -55.491 -23.944  1.00  0.00     0.160 HD
BRANCH  22  24
ATOM     24  C   UNL     1      10.203 -57.069 -23.190  1.00  0.00     0.087 C 
ATOM     25  C   UNL     1      11.398 -57.648 -23.046  1.00  0.00     0.084 C 
ATOM     26  C   UNL     1       8.974 -57.933 -23.320  1.00  0.00     0.211 C 
ATOM     27  C   UNL     1      11.583 -59.106 -22.994  1.00  0.00     0.207 C 
ATOM     28  C   UNL     1       9.108 -59.402 -23.193  1.00  0.00     0.057 A 
ATOM     29  C   UNL     1      10.373 -59.960 -23.044  1.00  0.00     0.126 A 
ATOM     30  C   UNL     1       8.002 -60.280 -23.226  1.00  0.00    -0.032 A 
ATOM     31  N   UNL     1      10.613 -61.296 -22.933  1.00  0.00    -0.209 NA
ATOM     32  C   UNL     1       8.241 -61.658 -23.113  1.00  0.00     0.072 A 
ATOM     33  C   UNL     1       9.541 -62.089 -22.973  1.00  0.00     0.211 A 
ATOM     34  O   UNL     1       7.893 -57.395 -23.542  1.00  0.00    -0.287 OA
ATOM     35  O   UNL     1      12.717 -59.564 -22.906  1.00  0.00    -0.287 OA
ATOM     36  C   UNL     1       6.580 -59.816 -23.377  1.00  0.00     0.045 C 
BRANCH  33  37
ATOM     37  O   UNL     1       9.822 -63.409 -22.860  1.00  0.00    -0.493 OA
ATOM     38  H   UNL     1       9.017 -63.724 -22.408  1.00  0.00     0.295 HD
ENDBRANCH  33  37
ENDBRANCH  22  24
ENDBRANCH  21  22
ENDBRANCH   1  21
TORSDOF 8
ENDMDL
MODEL 8
REMARK VINA RESULT:   -10.226      2.282      3.660
REMARK INTER + INTRA:         -15.807
REMARK INTER:                 -15.582
REMARK INTRA:                  -0.225
REMARK UNBOUND:                -1.097
REMARK SMILES Cc1cc(O)nc2c1C(=O)C(NCCCCN=c1c3c([nH]c4cc(Cl)ccc14)CCCC3)=CC2=O
REMARK SMILES IDX 14 1 15 2 16 3 17 4 18 5 21 6 20 7 22 8 19 9 29 10 23 11
REMARK SMILES IDX 28 12 32 13 30 14 24 15 27 16 31 17 26 18 25 20 13 21 12 22
REMARK SMILES IDX 11 24 33 25 9 26 34 27 8 28 7 29 2 30 6 31 3 32 4 33 10 34
REMARK SMILES IDX 35 35 1 36 5 37
REMARK H PARENT 21 19 12 23 5 38
ROOT
ATOM      1  C   UNL     1      12.144 -57.858 -27.898  1.00  0.00     0.023 C 
ENDROOT
BRANCH   1   2
ATOM      2  C   UNL     1      12.167 -58.866 -26.750  1.00  0.00     0.025 C 
BRANCH   2   3
ATOM      3  C   UNL     1      11.069 -59.920 -26.908  1.00  0.00     0.143 C 
BRANCH   3   4
ATOM      4  N   UNL     1      11.274 -60.922 -25.884  1.00  0.00    -0.284 NA
BRANCH   4   5
ATOM      5  C   UNL     1      10.468 -61.175 -24.916  1.00  0.00     0.072 A 
ATOM      6  N   UNL     1       9.297 -61.938 -22.448  1.00  0.00    -0.358 N 
ATOM      7  C   UNL     1       8.834 -62.494 -23.623  1.00  0.00     0.021 A 
ATOM      8  C   UNL     1      10.104 -60.795 -22.464  1.00  0.00     0.049 A 
ATOM      9  C   UNL     1       9.322 -62.170 -24.844  1.00  0.00    -0.003 A 
ATOM     10  C   UNL     1       7.700 -63.487 -23.451  1.00  0.00     0.054 C 
ATOM     11  C   UNL     1      10.385 -60.105 -21.279  1.00  0.00     0.047 A 
ATOM     12  C   UNL     1      10.703 -60.377 -23.660  1.00  0.00     0.024 A 
ATOM     13  C   UNL     1       8.703 -62.698 -26.111  1.00  0.00     0.039 C 
ATOM     14  C   UNL     1       7.346 -64.268 -24.714  1.00  0.00     0.007 C 
ATOM     15  C   UNL     1      11.221 -58.988 -21.299  1.00  0.00     0.043 A 
ATOM     16  C   UNL     1      11.547 -59.256 -23.671  1.00  0.00     0.014 A 
ATOM     17  C   UNL     1       7.328 -63.340 -25.916  1.00  0.00     0.005 C 
ATOM     18  C   UNL     1      11.800 -58.557 -22.491  1.00  0.00     0.021 A 
ATOM     19  H   UNL     1       8.731 -62.088 -21.619  1.00  0.00     0.166 HD
ATOM     20  Cl  UNL     1      11.545 -58.139 -19.838  1.00  0.00    -0.084 Cl
ENDBRANCH   4   5
ENDBRANCH   3   4
ENDBRANCH   2   3
ENDBRANCH   1   2
BRANCH   1  21
ATOM     21  C   UNL     1      12.518 -56.459 -27.414  1.00  0.00     0.113 C 
BRANCH  21  22
ATOM     22  N   UNL     1      12.701 -56.475 -25.971  1.00  0.00    -0.382 N 
ATOM     23  H   UNL     1      13.629 -56.791 -25.664  1.00  0.00     0.160 HD
BRANCH  22  24
ATOM     24  C   UNL     1      12.198 -55.534 -25.078  1.00  0.00     0.087 C 
ATOM     25  C   UNL     1      11.362 -55.788 -24.068  1.00  0.00     0.084 C 
ATOM     26  C   UNL     1      12.662 -54.120 -25.316  1.00  0.00     0.211 C 
ATOM     27  C   UNL     1      10.872 -54.748 -23.150  1.00  0.00     0.207 C 
ATOM     28  C   UNL     1      12.256 -53.057 -24.368  1.00  0.00     0.057 A 
ATOM     29  C   UNL     1      11.385 -53.369 -23.330  1.00  0.00     0.126 A 
ATOM     30  C   UNL     1      12.706 -51.723 -24.471  1.00  0.00    -0.032 A 
ATOM     31  N   UNL     1      10.935 -52.469 -22.411  1.00  0.00    -0.209 NA
ATOM     32  C   UNL     1      12.247 -50.790 -23.529  1.00  0.00     0.072 A 
ATOM     33  C   UNL     1      11.381 -51.220 -22.548  1.00  0.00     0.211 A 
ATOM     34  O   UNL     1      13.357 -53.883 -26.300  1.00  0.00    -0.287 OA
ATOM     35  O   UNL     1      10.070 -55.050 -22.274  1.00  0.00    -0.287 OA
ATOM     36  C   UNL     1      13.652 -51.247 -25.538  1.00  0.00     0.045 C 
BRANCH  33  37
ATOM     37  O   UNL     1      10.911 -50.357 -21.617  1.00  0.00    -0.493 OA
ATOM     38  H   UNL     1      11.718 -50.204 -21.091  1.00  0.00     0.295 HD
ENDBRANCH  33  37
ENDBRANCH  22  24
ENDBRANCH  21  22
ENDBRANCH   1  21
TORSDOF 8
ENDMDL
MODEL 9
REMARK VINA RESULT:    -9.900      3.793     11.058
REMARK INTER + INTRA:         -15.338
REMARK INTER:                 -14.866
REMARK INTRA:                  -0.472
REMARK UNBOUND:                -1.097
REMARK SMILES Cc1cc(O)nc2c1C(=O)C(NCCCCN=c1c3c([nH]c4cc(Cl)ccc14)CCCC3)=CC2=O
REMARK SMILES IDX 14 1 15 2 16 3 17 4 18 5 21 6 20 7 22 8 19 9 29 10 23 11
REMARK SMILES IDX 28 12 32 13 30 14 24 15 27 16 31 17 26 18 25 20 13 21 12 22
REMARK SMILES IDX 11 24 33 25 9 26 34 27 8 28 7 29 2 30 6 31 3 32 4 33 10 34
REMARK SMILES IDX 35 35 1 36 5 37
REMARK H PARENT 21 19 12 23 5 38
ROOT
ATOM      1  C   UNL     1      11.508 -54.078 -24.036  1.00  0.00     0.023 C 
ENDROOT
BRANCH   1   2
ATOM      2  C   UNL     1      12.134 -52.734 -23.665  1.00  0.00     0.025 C 
BRANCH   2   3
ATOM      3  C   UNL     1      12.867 -52.111 -24.855  1.00  0.00     0.143 C 
BRANCH   3   4
ATOM      4  N   UNL     1      13.591 -50.956 -24.367  1.00  0.00    -0.284 NA
BRANCH   4   5
ATOM      5  C   UNL     1      13.318 -49.732 -24.646  1.00  0.00     0.072 A 
ATOM      6  N   UNL     1      13.424 -46.945 -25.160  1.00  0.00    -0.358 N 
ATOM      7  C   UNL     1      12.560 -47.429 -24.199  1.00  0.00     0.021 A 
ATOM      8  C   UNL     1      14.016 -47.806 -26.091  1.00  0.00     0.049 A 
ATOM      9  C   UNL     1      12.431 -48.744 -23.906  1.00  0.00    -0.003 A 
ATOM     10  C   UNL     1      11.727 -46.368 -23.503  1.00  0.00     0.054 C 
ATOM     11  C   UNL     1      14.708 -47.294 -27.195  1.00  0.00     0.047 A 
ATOM     12  C   UNL     1      13.987 -49.191 -25.882  1.00  0.00     0.024 A 
ATOM     13  C   UNL     1      11.384 -49.245 -22.947  1.00  0.00     0.039 C 
ATOM     14  C   UNL     1      10.946 -46.869 -22.292  1.00  0.00     0.007 C 
ATOM     15  C   UNL     1      15.327 -48.158 -28.098  1.00  0.00     0.043 A 
ATOM     16  C   UNL     1      14.617 -50.054 -26.791  1.00  0.00     0.014 A 
ATOM     17  C   UNL     1      10.309 -48.213 -22.600  1.00  0.00     0.005 C 
ATOM     18  C   UNL     1      15.281 -49.537 -27.904  1.00  0.00     0.021 A 
ATOM     19  H   UNL     1      13.295 -45.980 -25.445  1.00  0.00     0.166 HD
ATOM     20  Cl  UNL     1      16.160 -47.516 -29.460  1.00  0.00    -0.084 Cl
ENDBRANCH   4   5
ENDBRANCH   3   4
ENDBRANCH   2   3
ENDBRANCH   1   2
BRANCH   1  21
ATOM     21  C   UNL     1      10.803 -54.708 -22.837  1.00  0.00     0.113 C 
BRANCH  21  22
ATOM     22  N   UNL     1       9.919 -55.769 -23.294  1.00  0.00    -0.382 N 
ATOM     23  H   UNL     1       9.411 -55.555 -24.160  1.00  0.00     0.160 HD
BRANCH  22  24
ATOM     24  C   UNL     1      10.180 -57.133 -23.217  1.00  0.00     0.087 C 
ATOM     25  C   UNL     1      11.382 -57.688 -23.041  1.00  0.00     0.084 C 
ATOM     26  C   UNL     1       8.969 -58.021 -23.354  1.00  0.00     0.211 C 
ATOM     27  C   UNL     1      11.592 -59.142 -22.959  1.00  0.00     0.207 C 
ATOM     28  C   UNL     1       9.125 -59.485 -23.198  1.00  0.00     0.057 A 
ATOM     29  C   UNL     1      10.397 -60.018 -23.015  1.00  0.00     0.126 A 
ATOM     30  C   UNL     1       8.035 -60.382 -23.235  1.00  0.00    -0.032 A 
ATOM     31  N   UNL     1      10.657 -61.347 -22.876  1.00  0.00    -0.209 NA
ATOM     32  C   UNL     1       8.296 -61.753 -23.093  1.00  0.00     0.072 A 
ATOM     33  C   UNL     1       9.600 -62.159 -22.921  1.00  0.00     0.211 A 
ATOM     34  O   UNL     1       7.883 -57.505 -23.606  1.00  0.00    -0.287 OA
ATOM     35  O   UNL     1      12.731 -59.578 -22.842  1.00  0.00    -0.287 OA
ATOM     36  C   UNL     1       6.609 -59.946 -23.421  1.00  0.00     0.045 C 
BRANCH  33  37
ATOM     37  O   UNL     1       9.902 -63.471 -22.780  1.00  0.00    -0.493 OA
ATOM     38  H   UNL     1      10.866 -63.451 -22.928  1.00  0.00     0.295 HD
ENDBRANCH  33  37
ENDBRANCH  22  24
ENDBRANCH  21  22
ENDBRANCH   1  21
TORSDOF 8
ENDMDL
