MODEL 1
REMARK VINA RESULT:   -11.203      0.000      0.000
REMARK INTER + INTRA:         -15.586
REMARK INTER:                 -15.460
REMARK INTRA:                  -0.126
REMARK UNBOUND:                -0.126
REMARK SMILES COc1cc2c(cc1OC)C(O)=C(Cc1cc[n+](Cc3ccccc3)cc1Br)C2
REMARK SMILES IDX 14 1 13 2 11 3 6 4 29 5 7 6 5 7 8 8 4 9 3 10 12 11 9 13
REMARK SMILES IDX 10 14 2 15 1 16 15 17 16 18 27 19 17 20 26 21 18 22 28 23
REMARK SMILES IDX 19 24 20 25 21 26 25 27 22 28 24 29 23 30
REMARK H PARENT 12 12
ROOT
ATOM      1  C   UNL     1       9.664 -55.799 -22.401  1.00  0.00     0.072 C 
ENDROOT
BRANCH   1   2
ATOM      2  C   UNL     1      10.552 -54.688 -22.869  1.00  0.00    -0.019 C 
ATOM      3  C   UNL     1      10.815 -53.476 -22.345  1.00  0.00     0.123 C 
ATOM      4  C   UNL     1      11.755 -52.765 -23.204  1.00  0.00     0.024 A 
ATOM      5  C   UNL     1      11.323 -54.895 -24.163  1.00  0.00     0.071 C 
ATOM      6  C   UNL     1      12.316 -51.500 -23.109  1.00  0.00     0.062 A 
ATOM      7  C   UNL     1      12.067 -53.600 -24.284  1.00  0.00    -0.029 A 
ATOM      8  C   UNL     1      13.191 -51.073 -24.115  1.00  0.00     0.161 A 
ATOM      9  C   UNL     1      12.951 -53.206 -25.275  1.00  0.00     0.055 A 
ATOM     10  C   UNL     1      13.537 -51.942 -25.169  1.00  0.00     0.161 A 
BRANCH   3  11
ATOM     11  O   UNL     1      10.322 -52.938 -21.195  1.00  0.00    -0.507 OA
ATOM     12  H   UNL     1       9.367 -53.126 -21.176  1.00  0.00     0.293 HD
ENDBRANCH   3  11
BRANCH   8  13
ATOM     13  O   UNL     1      13.687 -49.805 -23.947  1.00  0.00    -0.493 OA
ATOM     14  C   UNL     1      12.852 -48.780 -24.485  1.00  0.00     0.278 C 
ENDBRANCH   8  13
BRANCH  10  15
ATOM     15  O   UNL     1      14.429 -51.585 -26.146  1.00  0.00    -0.493 OA
ATOM     16  C   UNL     1      15.766 -51.760 -25.671  1.00  0.00     0.278 C 
ENDBRANCH  10  15
ENDBRANCH   1   2
BRANCH   1  17
ATOM     17  C   UNL     1      10.098 -57.194 -22.791  1.00  0.00    -0.018 A 
ATOM     18  C   UNL     1      11.409 -57.597 -22.504  1.00  0.00     0.076 A 
ATOM     19  C   UNL     1       9.234 -58.135 -23.360  1.00  0.00     0.085 A 
ATOM     20  C   UNL     1      11.819 -58.896 -22.778  1.00  0.00     0.308 A 
ATOM     21  C   UNL     1       9.690 -59.426 -23.617  1.00  0.00     0.324 A 
ATOM     22  N   UNL     1      10.962 -59.786 -23.329  1.00  0.00    -0.200 N 
ATOM     23  Br  UNL     1       7.428 -57.750 -23.787  1.00  0.00    -0.044 Br
BRANCH  22  24
ATOM     24  C   UNL     1      11.418 -61.172 -23.597  1.00  0.00     0.393 C 
BRANCH  24  25
ATOM     25  C   UNL     1      10.253 -62.127 -23.623  1.00  0.00     0.017 A 
ATOM     26  C   UNL     1       9.452 -62.235 -24.772  1.00  0.00     0.010 A 
ATOM     27  C   UNL     1       9.949 -62.921 -22.506  1.00  0.00     0.010 A 
ATOM     28  C   UNL     1       8.365 -63.109 -24.795  1.00  0.00     0.001 A 
ATOM     29  C   UNL     1       8.860 -63.794 -22.536  1.00  0.00     0.001 A 
ATOM     30  C   UNL     1       8.068 -63.885 -23.677  1.00  0.00     0.000 A 
ENDBRANCH  24  25
ENDBRANCH  22  24
ENDBRANCH   1  17
TORSDOF 7
ENDMDL
MODEL 2
REMARK VINA RESULT:   -10.871      1.025      1.955
REMARK INTER + INTRA:         -15.127
REMARK INTER:                 -15.276
REMARK INTRA:                   0.149
REMARK UNBOUND:                -0.126
REMARK SMILES COc1cc2c(cc1OC)C(O)=C(Cc1cc[n+](Cc3ccccc3)cc1Br)C2
REMARK SMILES IDX 14 1 13 2 11 3 6 4 29 5 7 6 5 7 8 8 4 9 3 10 12 11 9 13
REMARK SMILES IDX 10 14 2 15 1 16 15 17 16 18 27 19 17 20 26 21 18 22 28 23
REMARK SMILES IDX 19 24 20 25 21 26 25 27 22 28 24 29 23 30
REMARK H PARENT 12 12
ROOT
ATOM      1  C   UNL     1       9.747 -55.825 -22.358  1.00  0.00     0.072 C 
ENDROOT
BRANCH   1   2
ATOM      2  C   UNL     1      10.582 -54.723 -22.934  1.00  0.00    -0.019 C 
ATOM      3  C   UNL     1      11.451 -54.707 -23.961  1.00  0.00     0.123 C 
ATOM      4  C   UNL     1      12.010 -53.367 -24.109  1.00  0.00     0.024 A 
ATOM      5  C   UNL     1      10.482 -53.349 -22.290  1.00  0.00     0.071 C 
ATOM      6  C   UNL     1      12.942 -52.849 -24.995  1.00  0.00     0.062 A 
ATOM      7  C   UNL     1      11.438 -52.552 -23.124  1.00  0.00    -0.029 A 
ATOM      8  C   UNL     1      13.306 -51.502 -24.881  1.00  0.00     0.161 A 
ATOM      9  C   UNL     1      11.764 -51.211 -23.013  1.00  0.00     0.055 A 
ATOM     10  C   UNL     1      12.684 -50.680 -23.920  1.00  0.00     0.161 A 
BRANCH   3  11
ATOM     11  O   UNL     1      11.796 -55.738 -24.781  1.00  0.00    -0.507 OA
ATOM     12  H   UNL     1      12.111 -56.463 -24.213  1.00  0.00     0.293 HD
ENDBRANCH   3  11
BRANCH   8  13
ATOM     13  O   UNL     1      14.242 -51.079 -25.790  1.00  0.00    -0.493 OA
ATOM     14  C   UNL     1      15.588 -51.369 -25.411  1.00  0.00     0.278 C 
ENDBRANCH   8  13
BRANCH  10  15
ATOM     15  O   UNL     1      12.969 -49.344 -23.809  1.00  0.00    -0.493 OA
ATOM     16  C   UNL     1      13.933 -49.136 -22.773  1.00  0.00     0.278 C 
ENDBRANCH  10  15
ENDBRANCH   1   2
BRANCH   1  17
ATOM     17  C   UNL     1      10.161 -57.229 -22.741  1.00  0.00    -0.018 A 
ATOM     18  C   UNL     1      11.445 -57.670 -22.397  1.00  0.00     0.076 A 
ATOM     19  C   UNL     1       9.299 -58.140 -23.357  1.00  0.00     0.085 A 
ATOM     20  C   UNL     1      11.832 -58.978 -22.663  1.00  0.00     0.308 A 
ATOM     21  C   UNL     1       9.731 -59.441 -23.605  1.00  0.00     0.324 A 
ATOM     22  N   UNL     1      10.977 -59.839 -23.262  1.00  0.00    -0.200 N 
ATOM     23  Br  UNL     1       7.525 -57.703 -23.864  1.00  0.00    -0.044 Br
BRANCH  22  24
ATOM     24  C   UNL     1      11.407 -61.235 -23.521  1.00  0.00     0.393 C 
BRANCH  24  25
ATOM     25  C   UNL     1      10.222 -62.163 -23.571  1.00  0.00     0.017 A 
ATOM     26  C   UNL     1       9.428 -62.236 -24.727  1.00  0.00     0.010 A 
ATOM     27  C   UNL     1       9.892 -62.969 -22.469  1.00  0.00     0.010 A 
ATOM     28  C   UNL     1       8.321 -63.085 -24.772  1.00  0.00     0.001 A 
ATOM     29  C   UNL     1       8.784 -63.816 -22.520  1.00  0.00     0.001 A 
ATOM     30  C   UNL     1       7.999 -63.871 -23.669  1.00  0.00     0.000 A 
ENDBRANCH  24  25
ENDBRANCH  22  24
ENDBRANCH   1  17
TORSDOF 7
ENDMDL
MODEL 3
REMARK VINA RESULT:   -10.134      3.497      9.490
REMARK INTER + INTRA:         -14.111
REMARK INTER:                 -13.497
REMARK INTRA:                  -0.614
REMARK UNBOUND:                -0.126
REMARK SMILES COc1cc2c(cc1OC)C(O)=C(Cc1cc[n+](Cc3ccccc3)cc1Br)C2
REMARK SMILES IDX 14 1 13 2 11 3 6 4 29 5 7 6 5 7 8 8 4 9 3 10 12 11 9 13
REMARK SMILES IDX 10 14 2 15 1 16 15 17 16 18 27 19 17 20 26 21 18 22 28 23
REMARK SMILES IDX 19 24 20 25 21 26 25 27 22 28 24 29 23 30
REMARK H PARENT 12 12
ROOT
ATOM      1  C   UNL     1      10.030 -55.254 -22.360  1.00  0.00     0.072 C 
ENDROOT
BRANCH   1   2
ATOM      2  C   UNL     1       9.909 -56.719 -22.647  1.00  0.00    -0.019 C 
ATOM      3  C   UNL     1      10.671 -57.765 -22.277  1.00  0.00     0.123 C 
ATOM      4  C   UNL     1      10.117 -58.995 -22.835  1.00  0.00     0.024 A 
ATOM      5  C   UNL     1       8.743 -57.177 -23.509  1.00  0.00     0.071 C 
ATOM      6  C   UNL     1      10.536 -60.314 -22.755  1.00  0.00     0.062 A 
ATOM      7  C   UNL     1       8.969 -58.657 -23.564  1.00  0.00    -0.029 A 
ATOM      8  C   UNL     1       9.798 -61.298 -23.424  1.00  0.00     0.161 A 
ATOM      9  C   UNL     1       8.211 -59.619 -24.209  1.00  0.00     0.055 A 
ATOM     10  C   UNL     1       8.617 -60.953 -24.110  1.00  0.00     0.161 A 
BRANCH   3  11
ATOM     11  O   UNL     1      11.789 -57.752 -21.501  1.00  0.00    -0.507 OA
ATOM     12  H   UNL     1      11.495 -57.707 -20.574  1.00  0.00     0.293 HD
ENDBRANCH   3  11
BRANCH   8  13
ATOM     13  O   UNL     1      10.292 -62.571 -23.301  1.00  0.00    -0.493 OA
ATOM     14  C   UNL     1       9.546 -63.398 -22.407  1.00  0.00     0.278 C 
ENDBRANCH   8  13
BRANCH  10  15
ATOM     15  O   UNL     1       7.834 -61.890 -24.732  1.00  0.00    -0.493 OA
ATOM     16  C   UNL     1       8.452 -62.309 -25.951  1.00  0.00     0.278 C 
ENDBRANCH  10  15
ENDBRANCH   1   2
BRANCH   1  17
ATOM     17  C   UNL     1      10.992 -54.489 -23.242  1.00  0.00    -0.018 A 
ATOM     18  C   UNL     1      11.505 -55.119 -24.383  1.00  0.00     0.076 A 
ATOM     19  C   UNL     1      11.341 -53.154 -23.018  1.00  0.00     0.085 A 
ATOM     20  C   UNL     1      12.330 -54.422 -25.258  1.00  0.00     0.308 A 
ATOM     21  C   UNL     1      12.171 -52.496 -23.922  1.00  0.00     0.324 A 
ATOM     22  N   UNL     1      12.653 -53.131 -25.016  1.00  0.00    -0.200 N 
ATOM     23  Br  UNL     1      10.712 -52.159 -21.533  1.00  0.00    -0.044 Br
BRANCH  22  24
ATOM     24  C   UNL     1      13.522 -52.402 -25.973  1.00  0.00     0.393 C 
BRANCH  24  25
ATOM     25  C   UNL     1      14.886 -52.158 -25.383  1.00  0.00     0.017 A 
ATOM     26  C   UNL     1      15.866 -53.164 -25.426  1.00  0.00     0.010 A 
ATOM     27  C   UNL     1      15.202 -50.928 -24.784  1.00  0.00     0.010 A 
ATOM     28  C   UNL     1      17.127 -52.946 -24.869  1.00  0.00     0.001 A 
ATOM     29  C   UNL     1      16.464 -50.717 -24.229  1.00  0.00     0.001 A 
ATOM     30  C   UNL     1      17.424 -51.725 -24.269  1.00  0.00     0.000 A 
ENDBRANCH  24  25
ENDBRANCH  22  24
ENDBRANCH   1  17
TORSDOF 7
ENDMDL
MODEL 4
REMARK VINA RESULT:    -9.773      3.483      9.535
REMARK INTER + INTRA:         -13.612
REMARK INTER:                 -12.991
REMARK INTRA:                  -0.621
REMARK UNBOUND:                -0.126
REMARK SMILES COc1cc2c(cc1OC)C(O)=C(Cc1cc[n+](Cc3ccccc3)cc1Br)C2
REMARK SMILES IDX 14 1 13 2 11 3 6 4 29 5 7 6 5 7 8 8 4 9 3 10 12 11 9 13
REMARK SMILES IDX 10 14 2 15 1 16 15 17 16 18 27 19 17 20 26 21 18 22 28 23
REMARK SMILES IDX 19 24 20 25 21 26 25 27 22 28 24 29 23 30
REMARK H PARENT 12 12
ROOT
ATOM      1  C   UNL     1      10.495 -55.210 -22.101  1.00  0.00     0.072 C 
ENDROOT
BRANCH   1   2
ATOM      2  C   UNL     1      10.235 -56.623 -22.526  1.00  0.00    -0.019 C 
ATOM      3  C   UNL     1       9.273 -57.157 -23.302  1.00  0.00     0.123 C 
ATOM      4  C   UNL     1       9.469 -58.600 -23.399  1.00  0.00     0.024 A 
ATOM      5  C   UNL     1      11.186 -57.698 -22.025  1.00  0.00     0.071 C 
ATOM      6  C   UNL     1       8.750 -59.586 -24.058  1.00  0.00     0.062 A 
ATOM      7  C   UNL     1      10.604 -58.931 -22.648  1.00  0.00    -0.029 A 
ATOM      8  C   UNL     1       9.175 -60.916 -23.951  1.00  0.00     0.161 A 
ATOM      9  C   UNL     1      11.056 -60.237 -22.553  1.00  0.00     0.055 A 
ATOM     10  C   UNL     1      10.348 -61.229 -23.236  1.00  0.00     0.161 A 
BRANCH   3  11
ATOM     11  O   UNL     1       8.255 -56.512 -23.934  1.00  0.00    -0.507 OA
ATOM     12  H   UNL     1       7.423 -56.878 -23.585  1.00  0.00     0.293 HD
ENDBRANCH   3  11
BRANCH   8  13
ATOM     13  O   UNL     1       8.398 -61.824 -24.624  1.00  0.00    -0.493 OA
ATOM     14  C   UNL     1       7.098 -62.002 -24.061  1.00  0.00     0.278 C 
ENDBRANCH   8  13
BRANCH  10  15
ATOM     15  O   UNL     1      10.830 -62.509 -23.151  1.00  0.00    -0.493 OA
ATOM     16  C   UNL     1       9.969 -63.301 -22.329  1.00  0.00     0.278 C 
ENDBRANCH  10  15
ENDBRANCH   1   2
BRANCH   1  17
ATOM     17  C   UNL     1      11.311 -54.375 -23.062  1.00  0.00    -0.018 A 
ATOM     18  C   UNL     1      11.757 -54.963 -24.253  1.00  0.00     0.076 A 
ATOM     19  C   UNL     1      11.583 -53.020 -22.860  1.00  0.00     0.085 A 
ATOM     20  C   UNL     1      12.443 -54.205 -25.195  1.00  0.00     0.308 A 
ATOM     21  C   UNL     1      12.275 -52.300 -23.831  1.00  0.00     0.324 A 
ATOM     22  N   UNL     1      12.694 -52.895 -24.972  1.00  0.00    -0.200 N 
ATOM     23  Br  UNL     1      11.030 -52.077 -21.311  1.00  0.00    -0.044 Br
BRANCH  22  24
ATOM     24  C   UNL     1      13.414 -52.103 -26.000  1.00  0.00     0.393 C 
BRANCH  24  25
ATOM     25  C   UNL     1      14.840 -51.854 -25.586  1.00  0.00     0.017 A 
ATOM     26  C   UNL     1      15.322 -50.540 -25.457  1.00  0.00     0.010 A 
ATOM     27  C   UNL     1      15.711 -52.924 -25.323  1.00  0.00     0.010 A 
ATOM     28  C   UNL     1      16.647 -50.306 -25.087  1.00  0.00     0.001 A 
ATOM     29  C   UNL     1      17.034 -52.683 -24.952  1.00  0.00     0.001 A 
ATOM     30  C   UNL     1      17.501 -51.377 -24.837  1.00  0.00     0.000 A 
ENDBRANCH  24  25
ENDBRANCH  22  24
ENDBRANCH   1  17
TORSDOF 7
ENDMDL
MODEL 5
REMARK VINA RESULT:    -9.501      2.027      2.837
REMARK INTER + INTRA:         -13.237
REMARK INTER:                 -12.397
REMARK INTRA:                  -0.840
REMARK UNBOUND:                -0.126
REMARK SMILES COc1cc2c(cc1OC)C(O)=C(Cc1cc[n+](Cc3ccccc3)cc1Br)C2
REMARK SMILES IDX 14 1 13 2 11 3 6 4 29 5 7 6 5 7 8 8 4 9 3 10 12 11 9 13
REMARK SMILES IDX 10 14 2 15 1 16 15 17 16 18 27 19 17 20 26 21 18 22 28 23
REMARK SMILES IDX 19 24 20 25 21 26 25 27 22 28 24 29 23 30
REMARK H PARENT 12 12
ROOT
ATOM      1  C   UNL     1       9.160 -55.922 -22.208  1.00  0.00     0.072 C 
ENDROOT
BRANCH   1   2
ATOM      2  C   UNL     1      10.120 -54.905 -22.743  1.00  0.00    -0.019 C 
ATOM      3  C   UNL     1      10.402 -53.650 -22.345  1.00  0.00     0.123 C 
ATOM      4  C   UNL     1      11.420 -53.077 -23.218  1.00  0.00     0.024 A 
ATOM      5  C   UNL     1      10.957 -55.289 -23.953  1.00  0.00     0.071 C 
ATOM      6  C   UNL     1      12.027 -51.830 -23.234  1.00  0.00     0.062 A 
ATOM      7  C   UNL     1      11.760 -54.044 -24.174  1.00  0.00    -0.029 A 
ATOM      8  C   UNL     1      12.977 -51.554 -24.225  1.00  0.00     0.161 A 
ATOM      9  C   UNL     1      12.717 -53.799 -25.145  1.00  0.00     0.055 A 
ATOM     10  C   UNL     1      13.348 -52.552 -25.147  1.00  0.00     0.161 A 
BRANCH   3  11
ATOM     11  O   UNL     1       9.865 -52.964 -21.299  1.00  0.00    -0.507 OA
ATOM     12  H   UNL     1      10.307 -52.097 -21.266  1.00  0.00     0.293 HD
ENDBRANCH   3  11
BRANCH   8  13
ATOM     13  O   UNL     1      13.515 -50.294 -24.171  1.00  0.00    -0.493 OA
ATOM     14  C   UNL     1      14.611 -50.171 -23.265  1.00  0.00     0.278 C 
ENDBRANCH   8  13
BRANCH  10  15
ATOM     15  O   UNL     1      14.311 -52.344 -26.100  1.00  0.00    -0.493 OA
ATOM     16  C   UNL     1      15.561 -52.875 -25.654  1.00  0.00     0.278 C 
ENDBRANCH  10  15
ENDBRANCH   1   2
BRANCH   1  17
ATOM     17  C   UNL     1       9.275 -57.309 -22.801  1.00  0.00    -0.018 A 
ATOM     18  C   UNL     1       8.399 -57.675 -23.831  1.00  0.00     0.076 A 
ATOM     19  C   UNL     1      10.263 -58.223 -22.425  1.00  0.00     0.085 A 
ATOM     20  C   UNL     1       8.527 -58.912 -24.453  1.00  0.00     0.308 A 
ATOM     21  C   UNL     1      10.352 -59.451 -23.076  1.00  0.00     0.324 A 
ATOM     22  N   UNL     1       9.492 -59.778 -24.067  1.00  0.00    -0.200 N 
ATOM     23  Br  UNL     1      11.534 -57.867 -21.064  1.00  0.00    -0.044 Br
BRANCH  22  24
ATOM     24  C   UNL     1       9.618 -61.086 -24.757  1.00  0.00     0.393 C 
BRANCH  24  25
ATOM     25  C   UNL     1      10.091 -60.903 -26.176  1.00  0.00     0.017 A 
ATOM     26  C   UNL     1      11.215 -60.107 -26.450  1.00  0.00     0.010 A 
ATOM     27  C   UNL     1       9.419 -61.521 -27.243  1.00  0.00     0.010 A 
ATOM     28  C   UNL     1      11.648 -59.925 -27.765  1.00  0.00     0.001 A 
ATOM     29  C   UNL     1       9.857 -61.335 -28.555  1.00  0.00     0.001 A 
ATOM     30  C   UNL     1      10.968 -60.537 -28.815  1.00  0.00     0.000 A 
ENDBRANCH  24  25
ENDBRANCH  22  24
ENDBRANCH   1  17
TORSDOF 7
ENDMDL
MODEL 6
REMARK VINA RESULT:    -9.484      3.785      6.917
REMARK INTER + INTRA:         -13.213
REMARK INTER:                 -12.331
REMARK INTRA:                  -0.883
REMARK UNBOUND:                -0.126
REMARK SMILES COc1cc2c(cc1OC)C(O)=C(Cc1cc[n+](Cc3ccccc3)cc1Br)C2
REMARK SMILES IDX 14 1 13 2 11 3 6 4 29 5 7 6 5 7 8 8 4 9 3 10 12 11 9 13
REMARK SMILES IDX 10 14 2 15 1 16 15 17 16 18 27 19 17 20 26 21 18 22 28 23
REMARK SMILES IDX 19 24 20 25 21 26 25 27 22 28 24 29 23 30
REMARK H PARENT 12 12
ROOT
ATOM      1  C   UNL     1      13.792 -50.314 -23.118  1.00  0.00     0.072 C 
ENDROOT
BRANCH   1   2
ATOM      2  C   UNL     1      13.339 -48.887 -23.055  1.00  0.00    -0.019 C 
ATOM      3  C   UNL     1      13.223 -48.034 -22.021  1.00  0.00     0.123 C 
ATOM      4  C   UNL     1      12.724 -46.749 -22.500  1.00  0.00     0.024 A 
ATOM      5  C   UNL     1      12.916 -48.222 -24.355  1.00  0.00     0.071 C 
ATOM      6  C   UNL     1      12.428 -45.569 -21.835  1.00  0.00     0.062 A 
ATOM      7  C   UNL     1      12.542 -46.849 -23.885  1.00  0.00    -0.029 A 
ATOM      8  C   UNL     1      11.936 -44.485 -22.572  1.00  0.00     0.161 A 
ATOM      9  C   UNL     1      12.083 -45.779 -24.636  1.00  0.00     0.055 A 
ATOM     10  C   UNL     1      11.807 -44.581 -23.972  1.00  0.00     0.161 A 
BRANCH   3  11
ATOM     11  O   UNL     1      13.516 -48.263 -20.711  1.00  0.00    -0.507 OA
ATOM     12  H   UNL     1      13.113 -49.117 -20.472  1.00  0.00     0.293 HD
ENDBRANCH   3  11
BRANCH   8  13
ATOM     13  O   UNL     1      11.658 -43.364 -21.832  1.00  0.00    -0.493 OA
ATOM     14  C   UNL     1      12.791 -42.526 -21.604  1.00  0.00     0.278 C 
ENDBRANCH   8  13
BRANCH  10  15
ATOM     15  O   UNL     1      11.381 -43.528 -24.739  1.00  0.00    -0.493 OA
ATOM     16  C   UNL     1      12.462 -43.036 -25.535  1.00  0.00     0.278 C 
ENDBRANCH  10  15
ENDBRANCH   1   2
BRANCH   1  17
ATOM     17  C   UNL     1      12.708 -51.354 -22.941  1.00  0.00    -0.018 A 
ATOM     18  C   UNL     1      11.871 -51.272 -21.821  1.00  0.00     0.076 A 
ATOM     19  C   UNL     1      12.448 -52.356 -23.881  1.00  0.00     0.085 A 
ATOM     20  C   UNL     1      10.817 -52.164 -21.667  1.00  0.00     0.308 A 
ATOM     21  C   UNL     1      11.380 -53.228 -23.684  1.00  0.00     0.324 A 
ATOM     22  N   UNL     1      10.589 -53.125 -22.591  1.00  0.00    -0.200 N 
ATOM     23  Br  UNL     1      13.476 -52.584 -25.457  1.00  0.00    -0.044 Br
BRANCH  22  24
ATOM     24  C   UNL     1       9.447 -54.055 -22.413  1.00  0.00     0.393 C 
BRANCH  24  25
ATOM     25  C   UNL     1       9.914 -55.487 -22.406  1.00  0.00     0.017 A 
ATOM     26  C   UNL     1       9.241 -56.456 -23.169  1.00  0.00     0.010 A 
ATOM     27  C   UNL     1      11.026 -55.877 -21.642  1.00  0.00     0.010 A 
ATOM     28  C   UNL     1       9.664 -57.786 -23.155  1.00  0.00     0.001 A 
ATOM     29  C   UNL     1      11.444 -57.209 -21.633  1.00  0.00     0.001 A 
ATOM     30  C   UNL     1      10.762 -58.161 -22.385  1.00  0.00     0.000 A 
ENDBRANCH  24  25
ENDBRANCH  22  24
ENDBRANCH   1  17
TORSDOF 7
ENDMDL
MODEL 7
REMARK VINA RESULT:    -9.477      1.983      2.906
REMARK INTER + INTRA:         -13.203
REMARK INTER:                 -12.271
REMARK INTRA:                  -0.932
REMARK UNBOUND:                -0.126
REMARK SMILES COc1cc2c(cc1OC)C(O)=C(Cc1cc[n+](Cc3ccccc3)cc1Br)C2
REMARK SMILES IDX 14 1 13 2 11 3 6 4 29 5 7 6 5 7 8 8 4 9 3 10 12 11 9 13
REMARK SMILES IDX 10 14 2 15 1 16 15 17 16 18 27 19 17 20 26 21 18 22 28 23
REMARK SMILES IDX 19 24 20 25 21 26 25 27 22 28 24 29 23 30
REMARK H PARENT 12 12
ROOT
ATOM      1  C   UNL     1      10.685 -53.679 -23.518  1.00  0.00     0.072 C 
ENDROOT
BRANCH   1   2
ATOM      2  C   UNL     1      11.928 -52.880 -23.762  1.00  0.00    -0.019 C 
ATOM      3  C   UNL     1      12.485 -51.866 -23.073  1.00  0.00     0.123 C 
ATOM      4  C   UNL     1      13.703 -51.428 -23.746  1.00  0.00     0.024 A 
ATOM      5  C   UNL     1      12.757 -53.217 -24.991  1.00  0.00     0.071 C 
ATOM      6  C   UNL     1      14.613 -50.426 -23.446  1.00  0.00     0.062 A 
ATOM      7  C   UNL     1      13.876 -52.227 -24.884  1.00  0.00    -0.029 A 
ATOM      8  C   UNL     1      15.699 -50.221 -24.305  1.00  0.00     0.161 A 
ATOM      9  C   UNL     1      14.959 -52.058 -25.731  1.00  0.00     0.055 A 
ATOM     10  C   UNL     1      15.891 -51.065 -25.418  1.00  0.00     0.161 A 
BRANCH   3  11
ATOM     11  O   UNL     1      12.040 -51.296 -21.919  1.00  0.00    -0.507 OA
ATOM     12  H   UNL     1      12.304 -50.359 -21.942  1.00  0.00     0.293 HD
ENDBRANCH   3  11
BRANCH   8  13
ATOM     13  O   UNL     1      16.540 -49.201 -23.939  1.00  0.00    -0.493 OA
ATOM     14  C   UNL     1      17.550 -49.590 -23.007  1.00  0.00     0.278 C 
ENDBRANCH   8  13
BRANCH  10  15
ATOM     15  O   UNL     1      16.968 -50.936 -26.254  1.00  0.00    -0.493 OA
ATOM     16  C   UNL     1      17.955 -51.919 -25.933  1.00  0.00     0.278 C 
ENDBRANCH  10  15
ENDBRANCH   1   2
BRANCH   1  17
ATOM     17  C   UNL     1      10.900 -55.088 -23.010  1.00  0.00    -0.018 A 
ATOM     18  C   UNL     1      11.136 -56.110 -23.939  1.00  0.00     0.076 A 
ATOM     19  C   UNL     1      10.951 -55.413 -21.652  1.00  0.00     0.085 A 
ATOM     20  C   UNL     1      11.414 -57.401 -23.506  1.00  0.00     0.308 A 
ATOM     21  C   UNL     1      11.232 -56.721 -21.264  1.00  0.00     0.324 A 
ATOM     22  N   UNL     1      11.455 -57.688 -22.184  1.00  0.00    -0.200 N 
ATOM     23  Br  UNL     1      10.675 -54.140 -20.275  1.00  0.00    -0.044 Br
BRANCH  22  24
ATOM     24  C   UNL     1      11.771 -59.070 -21.746  1.00  0.00     0.393 C 
BRANCH  24  25
ATOM     25  C   UNL     1      10.863 -60.068 -22.415  1.00  0.00     0.017 A 
ATOM     26  C   UNL     1      11.386 -61.001 -23.326  1.00  0.00     0.010 A 
ATOM     27  C   UNL     1       9.486 -60.084 -22.142  1.00  0.00     0.010 A 
ATOM     28  C   UNL     1      10.545 -61.918 -23.958  1.00  0.00     0.001 A 
ATOM     29  C   UNL     1       8.651 -61.004 -22.777  1.00  0.00     0.001 A 
ATOM     30  C   UNL     1       9.179 -61.917 -23.685  1.00  0.00     0.000 A 
ENDBRANCH  24  25
ENDBRANCH  22  24
ENDBRANCH   1  17
TORSDOF 7
ENDMDL
MODEL 8
REMARK VINA RESULT:    -9.323      3.845      9.967
REMARK INTER + INTRA:         -12.992
REMARK INTER:                 -12.569
REMARK INTRA:                  -0.423
REMARK UNBOUND:                -0.126
REMARK SMILES COc1cc2c(cc1OC)C(O)=C(Cc1cc[n+](Cc3ccccc3)cc1Br)C2
REMARK SMILES IDX 14 1 13 2 11 3 6 4 29 5 7 6 5 7 8 8 4 9 3 10 12 11 9 13
REMARK SMILES IDX 10 14 2 15 1 16 15 17 16 18 27 19 17 20 26 21 18 22 28 23
REMARK SMILES IDX 19 24 20 25 21 26 25 27 22 28 24 29 23 30
REMARK H PARENT 12 12
ROOT
ATOM      1  C   UNL     1      10.694 -52.101 -22.717  1.00  0.00     0.072 C 
ENDROOT
BRANCH   1   2
ATOM      2  C   UNL     1      10.893 -53.584 -22.639  1.00  0.00    -0.019 C 
ATOM      3  C   UNL     1      10.813 -54.441 -21.604  1.00  0.00     0.123 C 
ATOM      4  C   UNL     1      11.108 -55.793 -22.065  1.00  0.00     0.024 A 
ATOM      5  C   UNL     1      11.257 -54.317 -23.921  1.00  0.00     0.071 C 
ATOM      6  C   UNL     1      11.167 -57.004 -21.392  1.00  0.00     0.062 A 
ATOM      7  C   UNL     1      11.369 -55.732 -23.440  1.00  0.00    -0.029 A 
ATOM      8  C   UNL     1      11.501 -58.159 -22.109  1.00  0.00     0.161 A 
ATOM      9  C   UNL     1      11.673 -56.867 -24.172  1.00  0.00     0.055 A 
ATOM     10  C   UNL     1      11.709 -58.093 -23.501  1.00  0.00     0.161 A 
BRANCH   3  11
ATOM     11  O   UNL     1      10.503 -54.159 -20.309  1.00  0.00    -0.507 OA
ATOM     12  H   UNL     1       9.591 -54.465 -20.159  1.00  0.00     0.293 HD
ENDBRANCH   3  11
BRANCH   8  13
ATOM     13  O   UNL     1      11.548 -59.308 -21.362  1.00  0.00    -0.493 OA
ATOM     14  C   UNL     1      10.319 -60.033 -21.336  1.00  0.00     0.278 C 
ENDBRANCH   8  13
BRANCH  10  15
ATOM     15  O   UNL     1      11.985 -59.206 -24.252  1.00  0.00    -0.493 OA
ATOM     16  C   UNL     1      10.815 -59.614 -24.965  1.00  0.00     0.278 C 
ENDBRANCH  10  15
ENDBRANCH   1   2
BRANCH   1  17
ATOM     17  C   UNL     1      11.920 -51.293 -23.080  1.00  0.00    -0.018 A 
ATOM     18  C   UNL     1      13.082 -51.970 -23.471  1.00  0.00     0.076 A 
ATOM     19  C   UNL     1      11.932 -49.896 -23.118  1.00  0.00     0.085 A 
ATOM     20  C   UNL     1      14.202 -51.260 -23.886  1.00  0.00     0.308 A 
ATOM     21  C   UNL     1      13.079 -49.226 -23.540  1.00  0.00     0.324 A 
ATOM     22  N   UNL     1      14.187 -49.907 -23.911  1.00  0.00    -0.200 N 
ATOM     23  Br  UNL     1      10.434 -48.837 -22.641  1.00  0.00    -0.044 Br
BRANCH  22  24
ATOM     24  C   UNL     1      15.389 -49.171 -24.374  1.00  0.00     0.393 C 
BRANCH  24  25
ATOM     25  C   UNL     1      15.230 -48.724 -25.803  1.00  0.00     0.017 A 
ATOM     26  C   UNL     1      15.212 -49.668 -26.843  1.00  0.00     0.010 A 
ATOM     27  C   UNL     1      15.098 -47.362 -26.120  1.00  0.00     0.010 A 
ATOM     28  C   UNL     1      15.078 -49.256 -28.169  1.00  0.00     0.001 A 
ATOM     29  C   UNL     1      14.964 -46.957 -27.449  1.00  0.00     0.001 A 
ATOM     30  C   UNL     1      14.957 -47.902 -28.471  1.00  0.00     0.000 A 
ENDBRANCH  24  25
ENDBRANCH  22  24
ENDBRANCH   1  17
TORSDOF 7
ENDMDL
MODEL 9
REMARK VINA RESULT:    -9.268      2.370      3.870
REMARK INTER + INTRA:         -12.915
REMARK INTER:                 -12.690
REMARK INTRA:                  -0.226
REMARK UNBOUND:                -0.126
REMARK SMILES COc1cc2c(cc1OC)C(O)=C(Cc1cc[n+](Cc3ccccc3)cc1Br)C2
REMARK SMILES IDX 14 1 13 2 11 3 6 4 29 5 7 6 5 7 8 8 4 9 3 10 12 11 9 13
REMARK SMILES IDX 10 14 2 15 1 16 15 17 16 18 27 19 17 20 26 21 18 22 28 23
REMARK SMILES IDX 19 24 20 25 21 26 25 27 22 28 24 29 23 30
REMARK H PARENT 12 12
ROOT
ATOM      1  C   UNL     1      11.386 -53.883 -24.710  1.00  0.00     0.072 C 
ENDROOT
BRANCH   1   2
ATOM      2  C   UNL     1      12.686 -53.139 -24.730  1.00  0.00    -0.019 C 
ATOM      3  C   UNL     1      13.854 -53.402 -25.344  1.00  0.00     0.123 C 
ATOM      4  C   UNL     1      14.818 -52.352 -25.032  1.00  0.00     0.024 A 
ATOM      5  C   UNL     1      12.773 -51.847 -23.932  1.00  0.00     0.071 C 
ATOM      6  C   UNL     1      16.142 -52.176 -25.405  1.00  0.00     0.062 A 
ATOM      7  C   UNL     1      14.185 -51.422 -24.198  1.00  0.00    -0.029 A 
ATOM      8  C   UNL     1      16.835 -51.058 -24.924  1.00  0.00     0.161 A 
ATOM      9  C   UNL     1      14.845 -50.295 -23.735  1.00  0.00     0.055 A 
ATOM     10  C   UNL     1      16.172 -50.102 -24.128  1.00  0.00     0.161 A 
BRANCH   3  11
ATOM     11  O   UNL     1      14.156 -54.457 -26.150  1.00  0.00    -0.507 OA
ATOM     12  H   UNL     1      14.295 -54.103 -27.047  1.00  0.00     0.293 HD
ENDBRANCH   3  11
BRANCH   8  13
ATOM     13  O   UNL     1      18.141 -50.971 -25.332  1.00  0.00    -0.493 OA
ATOM     14  C   UNL     1      18.610 -52.129 -26.021  1.00  0.00     0.278 C 
ENDBRANCH   8  13
BRANCH  10  15
ATOM     15  O   UNL     1      16.795 -48.966 -23.681  1.00  0.00    -0.493 OA
ATOM     16  C   UNL     1      16.563 -47.892 -24.594  1.00  0.00     0.278 C 
ENDBRANCH  10  15
ENDBRANCH   1   2
BRANCH   1  17
ATOM     17  C   UNL     1      11.330 -55.080 -23.787  1.00  0.00    -0.018 A 
ATOM     18  C   UNL     1      11.741 -56.327 -24.274  1.00  0.00     0.076 A 
ATOM     19  C   UNL     1      10.958 -54.993 -22.442  1.00  0.00     0.085 A 
ATOM     20  C   UNL     1      11.777 -57.432 -23.432  1.00  0.00     0.308 A 
ATOM     21  C   UNL     1      11.008 -56.128 -21.636  1.00  0.00     0.324 A 
ATOM     22  N   UNL     1      11.409 -57.320 -22.135  1.00  0.00    -0.200 N 
ATOM     23  Br  UNL     1      10.398 -53.375 -21.629  1.00  0.00    -0.044 Br
BRANCH  22  24
ATOM     24  C   UNL     1      11.471 -58.510 -21.252  1.00  0.00     0.393 C 
BRANCH  24  25
ATOM     25  C   UNL     1      11.076 -59.757 -21.999  1.00  0.00     0.017 A 
ATOM     26  C   UNL     1      11.838 -60.197 -23.094  1.00  0.00     0.010 A 
ATOM     27  C   UNL     1       9.946 -60.497 -21.617  1.00  0.00     0.010 A 
ATOM     28  C   UNL     1      11.467 -61.344 -23.797  1.00  0.00     0.001 A 
ATOM     29  C   UNL     1       9.580 -61.643 -22.324  1.00  0.00     0.001 A 
ATOM     30  C   UNL     1      10.339 -62.064 -23.413  1.00  0.00     0.000 A 
ENDBRANCH  24  25
ENDBRANCH  22  24
ENDBRANCH   1  17
TORSDOF 7
ENDMDL
