MODEL 1
REMARK VINA RESULT:   -13.209      0.000      0.000
REMARK INTER + INTRA:         -19.469
REMARK INTER:                 -18.229
REMARK INTRA:                  -1.241
REMARK UNBOUND:                -1.241
REMARK SMILES COc1cc2c(cc1O)C(=O)[C@@H](Cc1cc[n+](Cc3cccc(Cl)c3)cc1C(C)=O)C2
REMARK SMILES IDX 14 1 15 2 16 3 17 4 26 5 27 6 13 7 12 8 3 9 4 10 8 11 5 12
REMARK SMILES IDX 7 13 6 14 31 15 10 16 11 17 2 18 1 19 9 20 28 22 29 23 30 24
REMARK SMILES IDX 18 25 19 26 20 27 25 28 21 29 23 30 22 31 24 32
REMARK H PARENT 9 21
ROOT
ATOM      1  C   UNL     1      10.384 -58.808 -22.192  1.00  0.00    -0.025 A 
ATOM      2  C   UNL     1      11.355 -57.967 -21.618  1.00  0.00     0.075 A 
ATOM      3  C   UNL     1      11.299 -56.587 -21.782  1.00  0.00     0.308 A 
ATOM      4  N   UNL     1      10.308 -56.031 -22.505  1.00  0.00    -0.200 N 
ATOM      5  C   UNL     1       9.390 -56.808 -23.123  1.00  0.00     0.320 A 
ATOM      6  C   UNL     1       9.397 -58.207 -23.000  1.00  0.00     0.084 A 
ENDROOT
BRANCH   1   7
ATOM      7  C   UNL     1      10.427 -60.271 -21.780  1.00  0.00     0.049 C 
BRANCH   7   8
ATOM      8  C   UNL     1      11.122 -61.235 -22.767  1.00  0.00     0.070 C 
ATOM      9  C   UNL     1       9.674 -61.310 -27.284  1.00  0.00     0.160 A 
ATOM     10  C   UNL     1       9.428 -61.932 -26.057  1.00  0.00     0.055 A 
ATOM     11  C   UNL     1      10.713 -60.361 -27.389  1.00  0.00     0.158 A 
ATOM     12  C   UNL     1      10.227 -61.591 -24.972  1.00  0.00    -0.032 A 
ATOM     13  C   UNL     1      11.533 -60.036 -26.316  1.00  0.00     0.062 A 
ATOM     14  C   UNL     1      11.267 -60.679 -25.125  1.00  0.00     0.025 A 
ATOM     15  C   UNL     1      10.147 -62.127 -23.577  1.00  0.00     0.048 C 
ATOM     16  C   UNL     1      11.904 -60.486 -23.828  1.00  0.00     0.167 C 
ATOM     17  O   UNL     1      12.844 -59.740 -23.631  1.00  0.00    -0.294 OA
BRANCH   9  18
ATOM     18  O   UNL     1       8.968 -61.513 -28.441  1.00  0.00    -0.493 OA
ATOM     19  C   UNL     1       8.635 -62.862 -28.756  1.00  0.00     0.278 C 
ENDBRANCH   9  18
BRANCH  11  20
ATOM     20  O   UNL     1      10.934 -59.723 -28.580  1.00  0.00    -0.504 OA
ATOM     21  H   UNL     1      11.157 -58.799 -28.348  1.00  0.00     0.293 HD
ENDBRANCH  11  20
ENDBRANCH   7   8
ENDBRANCH   1   7
BRANCH   6  22
ATOM     22  C   UNL     1       8.281 -58.851 -23.764  1.00  0.00     0.166 C 
ATOM     23  C   UNL     1       7.189 -59.623 -23.087  1.00  0.00     0.094 C 
ATOM     24  O   UNL     1       8.331 -58.790 -24.994  1.00  0.00    -0.294 OA
ENDBRANCH   6  22
BRANCH   4  25
ATOM     25  C   UNL     1      10.214 -54.553 -22.631  1.00  0.00     0.393 C 
BRANCH  25  26
ATOM     26  C   UNL     1      11.223 -54.018 -23.615  1.00  0.00     0.018 A 
ATOM     27  C   UNL     1      11.689 -54.804 -24.682  1.00  0.00     0.010 A 
ATOM     28  C   UNL     1      11.706 -52.705 -23.483  1.00  0.00     0.030 A 
ATOM     29  C   UNL     1      12.633 -54.295 -25.578  1.00  0.00     0.002 A 
ATOM     30  C   UNL     1      12.646 -52.204 -24.385  1.00  0.00     0.041 A 
ATOM     31  C   UNL     1      13.114 -52.996 -25.429  1.00  0.00     0.020 A 
ATOM     32  Cl  UNL     1      13.227 -50.596 -24.200  1.00  0.00    -0.084 Cl
ENDBRANCH  25  26
ENDBRANCH   4  25
TORSDOF 7
ENDMDL
MODEL 2
REMARK VINA RESULT:   -11.052      4.171      8.645
REMARK INTER + INTRA:         -16.492
REMARK INTER:                 -16.178
REMARK INTRA:                  -0.315
REMARK UNBOUND:                -1.241
REMARK SMILES COc1cc2c(cc1O)C(=O)[C@@H](Cc1cc[n+](Cc3cccc(Cl)c3)cc1C(C)=O)C2
REMARK SMILES IDX 14 1 15 2 16 3 17 4 26 5 27 6 13 7 12 8 3 9 4 10 8 11 5 12
REMARK SMILES IDX 7 13 6 14 31 15 10 16 11 17 2 18 1 19 9 20 28 22 29 23 30 24
REMARK SMILES IDX 18 25 19 26 20 27 25 28 21 29 23 30 22 31 24 32
REMARK H PARENT 9 21
ROOT
ATOM      1  C   UNL     1      10.762 -57.694 -22.564  1.00  0.00    -0.025 A 
ATOM      2  C   UNL     1      11.947 -58.449 -22.490  1.00  0.00     0.075 A 
ATOM      3  C   UNL     1      12.026 -59.720 -23.049  1.00  0.00     0.308 A 
ATOM      4  N   UNL     1      10.957 -60.255 -23.669  1.00  0.00    -0.200 N 
ATOM      5  C   UNL     1       9.781 -59.588 -23.709  1.00  0.00     0.320 A 
ATOM      6  C   UNL     1       9.637 -58.304 -23.157  1.00  0.00     0.084 A 
ENDROOT
BRANCH   1   7
ATOM      7  C   UNL     1      10.851 -56.247 -22.104  1.00  0.00     0.049 C 
BRANCH   7   8
ATOM      8  C   UNL     1      10.287 -55.188 -23.076  1.00  0.00     0.070 C 
ATOM      9  C   UNL     1      11.807 -50.710 -22.704  1.00  0.00     0.160 A 
ATOM     10  C   UNL     1      10.797 -51.554 -22.233  1.00  0.00     0.055 A 
ATOM     11  C   UNL     1      12.724 -51.188 -23.666  1.00  0.00     0.158 A 
ATOM     12  C   UNL     1      10.731 -52.848 -22.737  1.00  0.00    -0.032 A 
ATOM     13  C   UNL     1      12.646 -52.470 -24.192  1.00  0.00     0.062 A 
ATOM     14  C   UNL     1      11.630 -53.270 -23.712  1.00  0.00     0.025 A 
ATOM     15  C   UNL     1       9.742 -53.915 -22.381  1.00  0.00     0.048 C 
ATOM     16  C   UNL     1      11.352 -54.667 -24.020  1.00  0.00     0.167 C 
ATOM     17  O   UNL     1      11.974 -55.326 -24.831  1.00  0.00    -0.294 OA
BRANCH   9  18
ATOM     18  O   UNL     1      12.026 -49.420 -22.298  1.00  0.00    -0.493 OA
ATOM     19  C   UNL     1      11.117 -48.435 -22.782  1.00  0.00     0.278 C 
ENDBRANCH   9  18
BRANCH  11  20
ATOM     20  O   UNL     1      13.735 -50.376 -24.103  1.00  0.00    -0.504 OA
ATOM     21  H   UNL     1      13.932 -49.773 -23.358  1.00  0.00     0.293 HD
ENDBRANCH  11  20
ENDBRANCH   7   8
ENDBRANCH   1   7
BRANCH   6  22
ATOM     22  C   UNL     1       8.251 -57.763 -23.330  1.00  0.00     0.166 C 
ATOM     23  C   UNL     1       7.040 -58.485 -22.820  1.00  0.00     0.094 C 
ATOM     24  O   UNL     1       8.129 -56.726 -23.984  1.00  0.00    -0.294 OA
ENDBRANCH   6  22
BRANCH   4  25
ATOM     25  C   UNL     1      11.058 -61.589 -24.318  1.00  0.00     0.393 C 
BRANCH  25  26
ATOM     26  C   UNL     1       9.899 -62.474 -23.940  1.00  0.00     0.018 A 
ATOM     27  C   UNL     1       9.798 -63.038 -22.658  1.00  0.00     0.010 A 
ATOM     28  C   UNL     1       8.884 -62.740 -24.875  1.00  0.00     0.030 A 
ATOM     29  C   UNL     1       8.722 -63.867 -22.329  1.00  0.00     0.002 A 
ATOM     30  C   UNL     1       7.809 -63.565 -24.536  1.00  0.00     0.041 A 
ATOM     31  C   UNL     1       7.727 -64.132 -23.269  1.00  0.00     0.020 A 
ATOM     32  Cl  UNL     1       6.582 -63.880 -25.699  1.00  0.00    -0.084 Cl
ENDBRANCH  25  26
ENDBRANCH   4  25
TORSDOF 7
ENDMDL
MODEL 3
REMARK VINA RESULT:   -10.812      3.675      8.143
REMARK INTER + INTRA:         -16.160
REMARK INTER:                 -15.965
REMARK INTRA:                  -0.195
REMARK UNBOUND:                -1.241
REMARK SMILES COc1cc2c(cc1O)C(=O)[C@@H](Cc1cc[n+](Cc3cccc(Cl)c3)cc1C(C)=O)C2
REMARK SMILES IDX 14 1 15 2 16 3 17 4 26 5 27 6 13 7 12 8 3 9 4 10 8 11 5 12
REMARK SMILES IDX 7 13 6 14 31 15 10 16 11 17 2 18 1 19 9 20 28 22 29 23 30 24
REMARK SMILES IDX 18 25 19 26 20 27 25 28 21 29 23 30 22 31 24 32
REMARK H PARENT 9 21
ROOT
ATOM      1  C   UNL     1       9.134 -57.546 -23.148  1.00  0.00    -0.025 A 
ATOM      2  C   UNL     1       7.969 -57.862 -23.871  1.00  0.00     0.075 A 
ATOM      3  C   UNL     1       7.633 -59.182 -24.152  1.00  0.00     0.308 A 
ATOM      4  N   UNL     1       8.429 -60.187 -23.738  1.00  0.00    -0.200 N 
ATOM      5  C   UNL     1       9.588 -59.923 -23.093  1.00  0.00     0.320 A 
ATOM      6  C   UNL     1       9.985 -58.611 -22.786  1.00  0.00     0.084 A 
ENDROOT
BRANCH   1   7
ATOM      7  C   UNL     1       9.295 -56.095 -22.724  1.00  0.00     0.049 C 
BRANCH   7   8
ATOM      8  C   UNL     1      10.732 -55.642 -22.380  1.00  0.00     0.070 C 
ATOM      9  C   UNL     1      12.404 -51.666 -24.354  1.00  0.00     0.160 A 
ATOM     10  C   UNL     1      12.347 -53.045 -24.577  1.00  0.00     0.055 A 
ATOM     11  C   UNL     1      11.887 -51.130 -23.155  1.00  0.00     0.158 A 
ATOM     12  C   UNL     1      11.778 -53.848 -23.595  1.00  0.00    -0.032 A 
ATOM     13  C   UNL     1      11.343 -51.930 -22.159  1.00  0.00     0.062 A 
ATOM     14  C   UNL     1      11.314 -53.286 -22.409  1.00  0.00     0.025 A 
ATOM     15  C   UNL     1      11.613 -55.336 -23.618  1.00  0.00     0.048 C 
ATOM     16  C   UNL     1      10.740 -54.348 -21.592  1.00  0.00     0.167 C 
ATOM     17  O   UNL     1      10.243 -54.175 -20.495  1.00  0.00    -0.294 OA
BRANCH   9  18
ATOM     18  O   UNL     1      12.909 -50.735 -25.224  1.00  0.00    -0.493 OA
ATOM     19  C   UNL     1      13.852 -51.204 -26.184  1.00  0.00     0.278 C 
ENDBRANCH   9  18
BRANCH  11  20
ATOM     20  O   UNL     1      11.909 -49.777 -22.949  1.00  0.00    -0.504 OA
ATOM     21  H   UNL     1      11.045 -49.556 -22.548  1.00  0.00     0.293 HD
ENDBRANCH  11  20
ENDBRANCH   7   8
ENDBRANCH   1   7
BRANCH   6  22
ATOM     22  C   UNL     1      11.296 -58.569 -22.062  1.00  0.00     0.166 C 
ATOM     23  C   UNL     1      11.391 -58.282 -20.594  1.00  0.00     0.094 C 
ATOM     24  O   UNL     1      12.317 -58.702 -22.739  1.00  0.00    -0.294 OA
ENDBRANCH   6  22
BRANCH   4  25
ATOM     25  C   UNL     1       8.040 -61.600 -23.987  1.00  0.00     0.393 C 
BRANCH  25  26
ATOM     26  C   UNL     1       8.317 -62.005 -25.412  1.00  0.00     0.018 A 
ATOM     27  C   UNL     1       7.667 -63.104 -25.998  1.00  0.00     0.010 A 
ATOM     28  C   UNL     1       9.232 -61.271 -26.185  1.00  0.00     0.030 A 
ATOM     29  C   UNL     1       7.946 -63.472 -27.317  1.00  0.00     0.002 A 
ATOM     30  C   UNL     1       9.500 -61.643 -27.504  1.00  0.00     0.041 A 
ATOM     31  C   UNL     1       8.864 -62.743 -28.070  1.00  0.00     0.020 A 
ATOM     32  Cl  UNL     1      10.627 -60.733 -28.430  1.00  0.00    -0.084 Cl
ENDBRANCH  25  26
ENDBRANCH   4  25
TORSDOF 7
ENDMDL
MODEL 4
REMARK VINA RESULT:   -10.541      4.029      8.514
REMARK INTER + INTRA:         -15.787
REMARK INTER:                 -15.058
REMARK INTRA:                  -0.729
REMARK UNBOUND:                -1.241
REMARK SMILES COc1cc2c(cc1O)C(=O)[C@@H](Cc1cc[n+](Cc3cccc(Cl)c3)cc1C(C)=O)C2
REMARK SMILES IDX 14 1 15 2 16 3 17 4 26 5 27 6 13 7 12 8 3 9 4 10 8 11 5 12
REMARK SMILES IDX 7 13 6 14 31 15 10 16 11 17 2 18 1 19 9 20 28 22 29 23 30 24
REMARK SMILES IDX 18 25 19 26 20 27 25 28 21 29 23 30 22 31 24 32
REMARK H PARENT 9 21
ROOT
ATOM      1  C   UNL     1       9.836 -57.663 -22.892  1.00  0.00    -0.025 A 
ATOM      2  C   UNL     1      11.066 -58.277 -22.593  1.00  0.00     0.075 A 
ATOM      3  C   UNL     1      11.236 -59.651 -22.726  1.00  0.00     0.308 A 
ATOM      4  N   UNL     1      10.213 -60.423 -23.140  1.00  0.00    -0.200 N 
ATOM      5  C   UNL     1       8.997 -59.881 -23.379  1.00  0.00     0.320 A 
ATOM      6  C   UNL     1       8.762 -58.502 -23.257  1.00  0.00     0.084 A 
ENDROOT
BRANCH   1   7
ATOM      7  C   UNL     1       9.824 -56.143 -22.908  1.00  0.00     0.049 C 
BRANCH   7   8
ATOM      8  C   UNL     1      11.093 -55.447 -22.368  1.00  0.00     0.070 C 
ATOM      9  C   UNL     1      11.976 -50.974 -23.678  1.00  0.00     0.160 A 
ATOM     10  C   UNL     1      12.245 -52.290 -24.065  1.00  0.00     0.055 A 
ATOM     11  C   UNL     1      11.264 -50.731 -22.484  1.00  0.00     0.158 A 
ATOM     12  C   UNL     1      11.799 -53.323 -23.249  1.00  0.00    -0.032 A 
ATOM     13  C   UNL     1      10.839 -51.756 -21.651  1.00  0.00     0.062 A 
ATOM     14  C   UNL     1      11.133 -53.040 -22.060  1.00  0.00     0.025 A 
ATOM     15  C   UNL     1      11.973 -54.794 -23.463  1.00  0.00     0.048 C 
ATOM     16  C   UNL     1      10.752 -54.302 -21.436  1.00  0.00     0.167 C 
ATOM     17  O   UNL     1      10.148 -54.390 -20.384  1.00  0.00    -0.294 OA
BRANCH   9  18
ATOM     18  O   UNL     1      12.323 -49.847 -24.376  1.00  0.00    -0.493 OA
ATOM     19  C   UNL     1      13.705 -49.499 -24.379  1.00  0.00     0.278 C 
ENDBRANCH   9  18
BRANCH  11  20
ATOM     20  O   UNL     1      10.967 -49.445 -22.119  1.00  0.00    -0.504 OA
ATOM     21  H   UNL     1      10.130 -49.499 -21.617  1.00  0.00     0.293 HD
ENDBRANCH  11  20
ENDBRANCH   7   8
ENDBRANCH   1   7
BRANCH   6  22
ATOM     22  C   UNL     1       7.346 -58.136 -23.582  1.00  0.00     0.166 C 
ATOM     23  C   UNL     1       6.192 -58.568 -22.729  1.00  0.00     0.094 C 
ATOM     24  O   UNL     1       7.150 -57.522 -24.633  1.00  0.00    -0.294 OA
ENDBRANCH   6  22
BRANCH   4  25
ATOM     25  C   UNL     1      10.411 -61.883 -23.339  1.00  0.00     0.393 C 
BRANCH  25  26
ATOM     26  C   UNL     1       9.374 -62.457 -24.270  1.00  0.00     0.018 A 
ATOM     27  C   UNL     1       8.340 -63.280 -23.794  1.00  0.00     0.010 A 
ATOM     28  C   UNL     1       9.422 -62.161 -25.643  1.00  0.00     0.030 A 
ATOM     29  C   UNL     1       7.395 -63.813 -24.674  1.00  0.00     0.002 A 
ATOM     30  C   UNL     1       8.470 -62.694 -26.514  1.00  0.00     0.041 A 
ATOM     31  C   UNL     1       7.460 -63.521 -26.035  1.00  0.00     0.020 A 
ATOM     32  Cl  UNL     1       8.552 -62.322 -28.191  1.00  0.00    -0.084 Cl
ENDBRANCH  25  26
ENDBRANCH   4  25
TORSDOF 7
ENDMDL
MODEL 5
REMARK VINA RESULT:   -10.512      4.752      9.549
REMARK INTER + INTRA:         -15.747
REMARK INTER:                 -14.826
REMARK INTRA:                  -0.921
REMARK UNBOUND:                -1.241
REMARK SMILES COc1cc2c(cc1O)C(=O)[C@@H](Cc1cc[n+](Cc3cccc(Cl)c3)cc1C(C)=O)C2
REMARK SMILES IDX 14 1 15 2 16 3 17 4 26 5 27 6 13 7 12 8 3 9 4 10 8 11 5 12
REMARK SMILES IDX 7 13 6 14 31 15 10 16 11 17 2 18 1 19 9 20 28 22 29 23 30 24
REMARK SMILES IDX 18 25 19 26 20 27 25 28 21 29 23 30 22 31 24 32
REMARK H PARENT 9 21
ROOT
ATOM      1  C   UNL     1      10.969 -55.287 -23.770  1.00  0.00    -0.025 A 
ATOM      2  C   UNL     1      10.378 -56.072 -22.763  1.00  0.00     0.075 A 
ATOM      3  C   UNL     1      10.761 -57.395 -22.564  1.00  0.00     0.308 A 
ATOM      4  N   UNL     1      11.707 -57.950 -23.345  1.00  0.00    -0.200 N 
ATOM      5  C   UNL     1      12.256 -57.248 -24.363  1.00  0.00     0.320 A 
ATOM      6  C   UNL     1      11.906 -55.912 -24.618  1.00  0.00     0.084 A 
ENDROOT
BRANCH   1   7
ATOM      7  C   UNL     1      10.623 -53.806 -23.764  1.00  0.00     0.049 C 
BRANCH   7   8
ATOM      8  C   UNL     1      10.968 -53.032 -22.472  1.00  0.00     0.070 C 
ATOM      9  C   UNL     1      12.035 -48.421 -22.790  1.00  0.00     0.160 A 
ATOM     10  C   UNL     1      12.646 -49.678 -22.807  1.00  0.00     0.055 A 
ATOM     11  C   UNL     1      10.648 -48.323 -22.546  1.00  0.00     0.158 A 
ATOM     12  C   UNL     1      11.856 -50.798 -22.577  1.00  0.00    -0.032 A 
ATOM     13  C   UNL     1       9.859 -49.436 -22.289  1.00  0.00     0.062 A 
ATOM     14  C   UNL     1      10.499 -50.657 -22.303  1.00  0.00     0.025 A 
ATOM     15  C   UNL     1      12.292 -52.230 -22.548  1.00  0.00     0.048 C 
ATOM     16  C   UNL     1       9.921 -51.987 -22.146  1.00  0.00     0.167 C 
ATOM     17  O   UNL     1       8.748 -52.200 -21.905  1.00  0.00    -0.294 OA
BRANCH   9  18
ATOM     18  O   UNL     1      12.660 -47.223 -23.018  1.00  0.00    -0.493 OA
ATOM     19  C   UNL     1      13.026 -46.942 -24.366  1.00  0.00     0.278 C 
ENDBRANCH   9  18
BRANCH  11  20
ATOM     20  O   UNL     1      10.039 -47.096 -22.564  1.00  0.00    -0.504 OA
ATOM     21  H   UNL     1       9.297 -47.160 -21.930  1.00  0.00     0.293 HD
ENDBRANCH  11  20
ENDBRANCH   7   8
ENDBRANCH   1   7
BRANCH   6  22
ATOM     22  C   UNL     1      12.650 -55.342 -25.787  1.00  0.00     0.166 C 
ATOM     23  C   UNL     1      13.309 -53.997 -25.738  1.00  0.00     0.094 C 
ATOM     24  O   UNL     1      12.636 -55.993 -26.833  1.00  0.00    -0.294 OA
ENDBRANCH   6  22
BRANCH   4  25
ATOM     25  C   UNL     1      12.160 -59.344 -23.096  1.00  0.00     0.393 C 
BRANCH  25  26
ATOM     26  C   UNL     1      11.224 -60.346 -23.720  1.00  0.00     0.018 A 
ATOM     27  C   UNL     1      10.848 -60.253 -25.070  1.00  0.00     0.010 A 
ATOM     28  C   UNL     1      10.719 -61.409 -22.952  1.00  0.00     0.030 A 
ATOM     29  C   UNL     1       9.970 -61.185 -25.628  1.00  0.00     0.002 A 
ATOM     30  C   UNL     1       9.845 -62.339 -23.520  1.00  0.00     0.041 A 
ATOM     31  C   UNL     1       9.466 -62.228 -24.853  1.00  0.00     0.020 A 
ATOM     32  Cl  UNL     1       9.236 -63.628 -22.558  1.00  0.00    -0.084 Cl
ENDBRANCH  25  26
ENDBRANCH   4  25
TORSDOF 7
ENDMDL
MODEL 6
REMARK VINA RESULT:   -10.504      2.951      4.982
REMARK INTER + INTRA:         -15.736
REMARK INTER:                 -15.174
REMARK INTRA:                  -0.562
REMARK UNBOUND:                -1.241
REMARK SMILES COc1cc2c(cc1O)C(=O)[C@@H](Cc1cc[n+](Cc3cccc(Cl)c3)cc1C(C)=O)C2
REMARK SMILES IDX 14 1 15 2 16 3 17 4 26 5 27 6 13 7 12 8 3 9 4 10 8 11 5 12
REMARK SMILES IDX 7 13 6 14 31 15 10 16 11 17 2 18 1 19 9 20 28 22 29 23 30 24
REMARK SMILES IDX 18 25 19 26 20 27 25 28 21 29 23 30 22 31 24 32
REMARK H PARENT 9 21
ROOT
ATOM      1  C   UNL     1      11.109 -54.653 -23.626  1.00  0.00    -0.025 A 
ATOM      2  C   UNL     1      11.821 -54.659 -24.839  1.00  0.00     0.075 A 
ATOM      3  C   UNL     1      12.538 -53.542 -25.259  1.00  0.00     0.308 A 
ATOM      4  N   UNL     1      12.554 -52.427 -24.505  1.00  0.00    -0.200 N 
ATOM      5  C   UNL     1      11.833 -52.359 -23.362  1.00  0.00     0.320 A 
ATOM      6  C   UNL     1      11.086 -53.450 -22.890  1.00  0.00     0.084 A 
ENDROOT
BRANCH   1   7
ATOM      7  C   UNL     1      10.535 -55.986 -23.172  1.00  0.00     0.049 C 
BRANCH   7   8
ATOM      8  C   UNL     1      11.563 -57.062 -22.755  1.00  0.00     0.070 C 
ATOM      9  C   UNL     1      10.092 -61.542 -22.235  1.00  0.00     0.160 A 
ATOM     10  C   UNL     1      10.264 -60.365 -21.500  1.00  0.00     0.055 A 
ATOM     11  C   UNL     1      10.504 -61.588 -23.584  1.00  0.00     0.158 A 
ATOM     12  C   UNL     1      10.844 -59.272 -22.131  1.00  0.00    -0.032 A 
ATOM     13  C   UNL     1      11.109 -60.508 -24.212  1.00  0.00     0.062 A 
ATOM     14  C   UNL     1      11.272 -59.368 -23.452  1.00  0.00     0.025 A 
ATOM     15  C   UNL     1      11.124 -57.923 -21.544  1.00  0.00     0.048 C 
ATOM     16  C   UNL     1      11.799 -58.072 -23.860  1.00  0.00     0.167 C 
ATOM     17  O   UNL     1      12.246 -57.832 -24.966  1.00  0.00    -0.294 OA
BRANCH   9  18
ATOM     18  O   UNL     1       9.519 -62.698 -21.773  1.00  0.00    -0.493 OA
ATOM     19  C   UNL     1       8.222 -63.011 -22.273  1.00  0.00     0.278 C 
ENDBRANCH   9  18
BRANCH  11  20
ATOM     20  O   UNL     1      10.305 -62.726 -24.318  1.00  0.00    -0.504 OA
ATOM     21  H   UNL     1       9.433 -63.072 -24.039  1.00  0.00     0.293 HD
ENDBRANCH  11  20
ENDBRANCH   7   8
ENDBRANCH   1   7
BRANCH   6  22
ATOM     22  C   UNL     1      10.381 -53.143 -21.604  1.00  0.00     0.166 C 
ATOM     23  C   UNL     1      10.676 -53.882 -20.334  1.00  0.00     0.094 C 
ATOM     24  O   UNL     1       9.481 -52.303 -21.643  1.00  0.00    -0.294 OA
ENDBRANCH   6  22
BRANCH   4  25
ATOM     25  C   UNL     1      13.367 -51.254 -24.922  1.00  0.00     0.393 C 
BRANCH  25  26
ATOM     26  C   UNL     1      14.797 -51.385 -24.467  1.00  0.00     0.018 A 
ATOM     27  C   UNL     1      15.173 -51.088 -23.146  1.00  0.00     0.010 A 
ATOM     28  C   UNL     1      15.784 -51.824 -25.366  1.00  0.00     0.030 A 
ATOM     29  C   UNL     1      16.506 -51.204 -22.745  1.00  0.00     0.002 A 
ATOM     30  C   UNL     1      17.113 -51.941 -24.954  1.00  0.00     0.041 A 
ATOM     31  C   UNL     1      17.477 -51.629 -23.649  1.00  0.00     0.020 A 
ATOM     32  Cl  UNL     1      18.304 -52.475 -26.074  1.00  0.00    -0.084 Cl
ENDBRANCH  25  26
ENDBRANCH   4  25
TORSDOF 7
ENDMDL
MODEL 7
REMARK VINA RESULT:   -10.336      3.886      8.628
REMARK INTER + INTRA:         -15.505
REMARK INTER:                 -14.754
REMARK INTRA:                  -0.750
REMARK UNBOUND:                -1.241
REMARK SMILES COc1cc2c(cc1O)C(=O)[C@@H](Cc1cc[n+](Cc3cccc(Cl)c3)cc1C(C)=O)C2
REMARK SMILES IDX 14 1 15 2 16 3 17 4 26 5 27 6 13 7 12 8 3 9 4 10 8 11 5 12
REMARK SMILES IDX 7 13 6 14 31 15 10 16 11 17 2 18 1 19 9 20 28 22 29 23 30 24
REMARK SMILES IDX 18 25 19 26 20 27 25 28 21 29 23 30 22 31 24 32
REMARK H PARENT 9 21
ROOT
ATOM      1  C   UNL     1       9.802 -57.155 -22.815  1.00  0.00    -0.025 A 
ATOM      2  C   UNL     1       8.506 -57.014 -23.345  1.00  0.00     0.075 A 
ATOM      3  C   UNL     1       7.650 -58.105 -23.456  1.00  0.00     0.308 A 
ATOM      4  N   UNL     1       8.057 -59.326 -23.060  1.00  0.00    -0.200 N 
ATOM      5  C   UNL     1       9.315 -59.517 -22.602  1.00  0.00     0.320 A 
ATOM      6  C   UNL     1      10.226 -58.456 -22.473  1.00  0.00     0.084 A 
ENDROOT
BRANCH   1   7
ATOM      7  C   UNL     1      10.570 -55.870 -22.552  1.00  0.00     0.049 C 
BRANCH   7   8
ATOM      8  C   UNL     1      10.176 -54.653 -23.420  1.00  0.00     0.070 C 
ATOM      9  C   UNL     1      12.355 -50.508 -22.659  1.00  0.00     0.160 A 
ATOM     10  C   UNL     1      11.228 -51.230 -22.256  1.00  0.00     0.055 A 
ATOM     11  C   UNL     1      13.193 -51.030 -23.669  1.00  0.00     0.158 A 
ATOM     12  C   UNL     1      10.968 -52.448 -22.874  1.00  0.00    -0.032 A 
ATOM     13  C   UNL     1      12.924 -52.232 -24.308  1.00  0.00     0.062 A 
ATOM     14  C   UNL     1      11.797 -52.910 -23.892  1.00  0.00     0.025 A 
ATOM     15  C   UNL     1       9.828 -53.381 -22.607  1.00  0.00     0.048 C 
ATOM     16  C   UNL     1      11.312 -54.216 -24.322  1.00  0.00     0.167 C 
ATOM     17  O   UNL     1      11.830 -54.884 -25.197  1.00  0.00    -0.294 OA
BRANCH   9  18
ATOM     18  O   UNL     1      12.766 -49.309 -22.140  1.00  0.00    -0.493 OA
ATOM     19  C   UNL     1      12.037 -48.154 -22.548  1.00  0.00     0.278 C 
ENDBRANCH   9  18
BRANCH  11  20
ATOM     20  O   UNL     1      14.318 -50.344 -24.041  1.00  0.00    -0.504 OA
ATOM     21  H   UNL     1      14.296 -49.507 -23.535  1.00  0.00     0.293 HD
ENDBRANCH  11  20
ENDBRANCH   7   8
ENDBRANCH   1   7
BRANCH   6  22
ATOM     22  C   UNL     1      11.551 -58.906 -21.938  1.00  0.00     0.166 C 
ATOM     23  C   UNL     1      12.509 -59.721 -22.753  1.00  0.00     0.094 C 
ATOM     24  O   UNL     1      11.799 -58.647 -20.759  1.00  0.00    -0.294 OA
ENDBRANCH   6  22
BRANCH   4  25
ATOM     25  C   UNL     1       7.123 -60.482 -23.123  1.00  0.00     0.393 C 
BRANCH  25  26
ATOM     26  C   UNL     1       7.482 -61.419 -24.247  1.00  0.00     0.018 A 
ATOM     27  C   UNL     1       6.906 -62.697 -24.345  1.00  0.00     0.010 A 
ATOM     28  C   UNL     1       8.400 -61.017 -25.232  1.00  0.00     0.030 A 
ATOM     29  C   UNL     1       7.260 -63.557 -25.387  1.00  0.00     0.002 A 
ATOM     30  C   UNL     1       8.744 -61.881 -26.273  1.00  0.00     0.041 A 
ATOM     31  C   UNL     1       8.181 -63.150 -26.351  1.00  0.00     0.020 A 
ATOM     32  Cl  UNL     1       9.874 -61.368 -27.463  1.00  0.00    -0.084 Cl
ENDBRANCH  25  26
ENDBRANCH   4  25
TORSDOF 7
ENDMDL
