MODEL 1
REMARK VINA RESULT:   -10.686      0.000      0.000
REMARK INTER + INTRA:         -17.350
REMARK INTER:                 -16.309
REMARK INTRA:                  -1.041
REMARK UNBOUND:                -1.041
REMARK SMILES CC[N@@H+](CCC(=O)N1CC[NH+](CCNc2c3c(nc4ccccc24)CCCC3)CC1)C1CCCCC1
REMARK SMILES IDX 10 1 11 2 29 3 9 4 8 5 6 6 30 7 7 8 12 10 13 11 14 12 15 14
REMARK SMILES IDX 16 15 24 16 17 17 28 18 23 19 19 20 18 21 25 22 27 23 22 24
REMARK SMILES IDX 20 25 26 26 21 27 5 28 4 29 3 30 2 32 1 33 31 34 32 35 36 36
REMARK SMILES IDX 33 37 35 38 34 39
REMARK H PARENT 11 9 14 13 3 31
ROOT
ATOM      1  C   UNL     1      10.616 -54.075 -23.950  1.00  0.00     0.284 C 
ATOM      2  N   UNL     1      10.574 -53.451 -22.562  1.00  0.00    -0.331 N 
ATOM      3  C   UNL     1      10.167 -54.476 -21.517  1.00  0.00     0.284 C 
ATOM      4  C   UNL     1      11.560 -55.293 -23.956  1.00  0.00     0.181 C 
ATOM      5  N   UNL     1      11.238 -56.262 -22.894  1.00  0.00    -0.331 N 
ATOM      6  C   UNL     1      11.320 -57.616 -23.191  1.00  0.00     0.228 C 
ATOM      7  C   UNL     1      11.115 -55.690 -21.542  1.00  0.00     0.181 C 
ATOM      8  O   UNL     1      11.650 -58.010 -24.309  1.00  0.00    -0.275 OA
ATOM      9  H   UNL     1      11.537 -53.175 -22.337  1.00  0.00     0.348 HD
ENDROOT
BRANCH   2  10
ATOM     10  C   UNL     1       9.774 -52.146 -22.496  1.00  0.00     0.283 C 
BRANCH  10  11
ATOM     11  C   UNL     1      10.447 -50.998 -21.702  1.00  0.00     0.174 C 
BRANCH  11  12
ATOM     12  N   UNL     1      11.880 -50.891 -22.031  1.00  0.00    -0.379 N 
ATOM     13  H   UNL     1      12.263 -51.812 -22.287  1.00  0.00     0.160 HD
BRANCH  12  14
ATOM     14  C   UNL     1      12.272 -50.001 -23.066  1.00  0.00     0.049 A 
ATOM     15  C   UNL     1      12.005 -48.626 -23.055  1.00  0.00    -0.003 A 
ATOM     16  C   UNL     1      12.876 -50.564 -24.229  1.00  0.00     0.024 A 
ATOM     17  C   UNL     1      12.561 -47.849 -24.076  1.00  0.00     0.046 A 
ATOM     18  C   UNL     1      11.149 -47.900 -22.047  1.00  0.00     0.039 C 
ATOM     19  C   UNL     1      13.001 -51.959 -24.449  1.00  0.00     0.012 A 
ATOM     20  C   UNL     1      13.386 -49.684 -25.205  1.00  0.00     0.073 A 
ATOM     21  N   UNL     1      13.289 -48.355 -25.093  1.00  0.00    -0.252 NA
ATOM     22  C   UNL     1      12.363 -46.354 -24.039  1.00  0.00     0.056 C 
ATOM     23  C   UNL     1      10.226 -46.877 -22.720  1.00  0.00     0.005 C 
ATOM     24  C   UNL     1      13.638 -52.465 -25.582  1.00  0.00     0.001 A 
ATOM     25  C   UNL     1      14.026 -50.208 -26.320  1.00  0.00     0.029 A 
ATOM     26  C   UNL     1      10.897 -46.011 -23.795  1.00  0.00     0.007 C 
ATOM     27  C   UNL     1      14.162 -51.584 -26.517  1.00  0.00     0.002 A 
ENDBRANCH  12  14
ENDBRANCH  11  12
ENDBRANCH  10  11
ENDBRANCH   2  10
BRANCH   6  28
ATOM     28  C   UNL     1      11.002 -58.617 -22.093  1.00  0.00     0.161 C 
BRANCH  28  29
ATOM     29  C   UNL     1       9.631 -59.280 -22.294  1.00  0.00     0.272 C 
BRANCH  29  30
ATOM     30  N   UNL     1       9.404 -59.769 -23.731  1.00  0.00    -0.332 N 
ATOM     31  H   UNL     1      10.243 -59.526 -24.276  1.00  0.00     0.348 HD
BRANCH  30  32
ATOM     32  C   UNL     1       8.247 -59.021 -24.395  1.00  0.00     0.258 C 
ATOM     33  C   UNL     1       7.345 -58.363 -23.365  1.00  0.00     0.071 C 
ENDBRANCH  30  32
BRANCH  30  34
ATOM     34  C   UNL     1       9.282 -61.302 -23.855  1.00  0.00     0.184 C 
ATOM     35  C   UNL     1       7.980 -61.735 -24.541  1.00  0.00     0.065 C 
ATOM     36  C   UNL     1       9.459 -61.951 -22.473  1.00  0.00     0.065 C 
ATOM     37  C   UNL     1       7.878 -63.259 -24.609  1.00  0.00     0.006 C 
ATOM     38  C   UNL     1       9.346 -63.471 -22.564  1.00  0.00     0.006 C 
ATOM     39  C   UNL     1       8.041 -63.899 -23.231  1.00  0.00     0.000 C 
ENDBRANCH  30  34
ENDBRANCH  29  30
ENDBRANCH  28  29
ENDBRANCH   6  28
TORSDOF 9
ENDMDL
MODEL 2
REMARK VINA RESULT:   -10.474      2.258     11.295
REMARK INTER + INTRA:         -17.026
REMARK INTER:                 -15.920
REMARK INTRA:                  -1.106
REMARK UNBOUND:                -1.041
REMARK SMILES CC[N@@H+](CCC(=O)N1CC[NH+](CCNc2c3c(nc4ccccc24)CCCC3)CC1)C1CCCCC1
REMARK SMILES IDX 10 1 11 2 29 3 9 4 8 5 6 6 30 7 7 8 12 10 13 11 14 12 15 14
REMARK SMILES IDX 16 15 24 16 17 17 28 18 23 19 19 20 18 21 25 22 27 23 22 24
REMARK SMILES IDX 20 25 26 26 21 27 5 28 4 29 3 30 2 32 1 33 31 34 32 35 36 36
REMARK SMILES IDX 33 37 35 38 34 39
REMARK H PARENT 11 9 14 13 3 31
ROOT
ATOM      1  C   UNL     1      11.877 -56.807 -24.172  1.00  0.00     0.284 C 
ATOM      2  N   UNL     1      10.549 -57.079 -23.481  1.00  0.00    -0.331 N 
ATOM      3  C   UNL     1      10.210 -55.970 -22.499  1.00  0.00     0.284 C 
ATOM      4  C   UNL     1      11.843 -55.431 -24.865  1.00  0.00     0.181 C 
ATOM      5  N   UNL     1      11.432 -54.349 -23.953  1.00  0.00    -0.331 N 
ATOM      6  C   UNL     1      12.082 -53.125 -24.048  1.00  0.00     0.228 C 
ATOM      7  C   UNL     1      10.188 -54.601 -23.205  1.00  0.00     0.181 C 
ATOM      8  O   UNL     1      12.979 -52.936 -24.867  1.00  0.00    -0.275 OA
ATOM      9  H   UNL     1       9.828 -57.050 -24.211  1.00  0.00     0.348 HD
ENDROOT
BRANCH   2  10
ATOM     10  C   UNL     1      10.438 -58.487 -22.888  1.00  0.00     0.283 C 
BRANCH  10  11
ATOM     11  C   UNL     1      11.783 -59.139 -22.478  1.00  0.00     0.174 C 
BRANCH  11  12
ATOM     12  N   UNL     1      12.022 -60.385 -23.229  1.00  0.00    -0.379 N 
ATOM     13  H   UNL     1      12.202 -61.168 -22.585  1.00  0.00     0.160 HD
BRANCH  12  14
ATOM     14  C   UNL     1      11.018 -60.837 -24.126  1.00  0.00     0.049 A 
ATOM     15  C   UNL     1       9.915 -61.610 -23.738  1.00  0.00    -0.003 A 
ATOM     16  C   UNL     1      11.208 -60.579 -25.516  1.00  0.00     0.024 A 
ATOM     17  C   UNL     1       8.938 -61.875 -24.702  1.00  0.00     0.046 A 
ATOM     18  C   UNL     1       9.690 -62.203 -22.370  1.00  0.00     0.039 C 
ATOM     19  C   UNL     1      12.386 -59.999 -26.051  1.00  0.00     0.012 A 
ATOM     20  C   UNL     1      10.161 -60.906 -26.402  1.00  0.00     0.073 A 
ATOM     21  N   UNL     1       9.025 -61.480 -25.990  1.00  0.00    -0.252 NA
ATOM     22  C   UNL     1       7.698 -62.628 -24.289  1.00  0.00     0.056 C 
ATOM     23  C   UNL     1       9.177 -63.646 -22.457  1.00  0.00     0.005 C 
ATOM     24  C   UNL     1      12.511 -59.724 -27.413  1.00  0.00     0.001 A 
ATOM     25  C   UNL     1      10.301 -60.615 -27.752  1.00  0.00     0.029 A 
ATOM     26  C   UNL     1       8.066 -63.875 -23.491  1.00  0.00     0.007 C 
ATOM     27  C   UNL     1      11.459 -60.024 -28.266  1.00  0.00     0.002 A 
ENDBRANCH  12  14
ENDBRANCH  11  12
ENDBRANCH  10  11
ENDBRANCH   2  10
BRANCH   6  28
ATOM     28  C   UNL     1      11.650 -52.005 -23.117  1.00  0.00     0.161 C 
BRANCH  28  29
ATOM     29  C   UNL     1      12.823 -51.094 -22.725  1.00  0.00     0.272 C 
BRANCH  29  30
ATOM     30  N   UNL     1      13.206 -50.099 -23.830  1.00  0.00    -0.332 N 
ATOM     31  H   UNL     1      12.730 -50.397 -24.693  1.00  0.00     0.348 HD
BRANCH  30  32
ATOM     32  C   UNL     1      14.702 -50.161 -24.139  1.00  0.00     0.258 C 
ATOM     33  C   UNL     1      15.433 -51.075 -23.169  1.00  0.00     0.071 C 
ENDBRANCH  30  32
BRANCH  30  34
ATOM     34  C   UNL     1      12.701 -48.662 -23.576  1.00  0.00     0.184 C 
ATOM     35  C   UNL     1      11.269 -48.630 -23.029  1.00  0.00     0.065 C 
ATOM     36  C   UNL     1      12.859 -47.822 -24.853  1.00  0.00     0.065 C 
ATOM     37  C   UNL     1      10.793 -47.191 -22.827  1.00  0.00     0.006 C 
ATOM     38  C   UNL     1      12.370 -46.393 -24.631  1.00  0.00     0.006 C 
ATOM     39  C   UNL     1      10.938 -46.364 -24.103  1.00  0.00     0.000 C 
ENDBRANCH  30  34
ENDBRANCH  29  30
ENDBRANCH  28  29
ENDBRANCH   6  28
TORSDOF 9
ENDMDL
MODEL 3
REMARK VINA RESULT:   -10.087      1.387      3.486
REMARK INTER + INTRA:         -16.435
REMARK INTER:                 -15.354
REMARK INTRA:                  -1.081
REMARK UNBOUND:                -1.041
REMARK SMILES CC[N@@H+](CCC(=O)N1CC[NH+](CCNc2c3c(nc4ccccc24)CCCC3)CC1)C1CCCCC1
REMARK SMILES IDX 10 1 11 2 29 3 9 4 8 5 6 6 30 7 7 8 12 10 13 11 14 12 15 14
REMARK SMILES IDX 16 15 24 16 17 17 28 18 23 19 19 20 18 21 25 22 27 23 22 24
REMARK SMILES IDX 20 25 26 26 21 27 5 28 4 29 3 30 2 32 1 33 31 34 32 35 36 36
REMARK SMILES IDX 33 37 35 38 34 39
REMARK H PARENT 11 9 14 13 3 31
ROOT
ATOM      1  C   UNL     1       9.552 -54.017 -22.851  1.00  0.00     0.284 C 
ATOM      2  N   UNL     1      10.729 -53.693 -21.943  1.00  0.00    -0.331 N 
ATOM      3  C   UNL     1      11.037 -54.855 -21.014  1.00  0.00     0.284 C 
ATOM      4  C   UNL     1       9.832 -55.312 -23.640  1.00  0.00     0.181 C 
ATOM      5  N   UNL     1      10.217 -56.434 -22.766  1.00  0.00    -0.331 N 
ATOM      6  C   UNL     1       9.722 -57.697 -23.060  1.00  0.00     0.228 C 
ATOM      7  C   UNL     1      11.305 -56.142 -21.817  1.00  0.00     0.181 C 
ATOM      8  O   UNL     1       8.978 -57.889 -24.020  1.00  0.00    -0.275 OA
ATOM      9  H   UNL     1      11.548 -53.585 -22.553  1.00  0.00     0.348 HD
ENDROOT
BRANCH   2  10
ATOM     10  C   UNL     1      10.603 -52.344 -21.228  1.00  0.00     0.283 C 
BRANCH  10  11
ATOM     11  C   UNL     1      10.318 -51.131 -22.150  1.00  0.00     0.174 C 
BRANCH  11  12
ATOM     12  N   UNL     1      11.260 -50.028 -21.886  1.00  0.00    -0.379 N 
ATOM     13  H   UNL     1      12.021 -50.342 -21.267  1.00  0.00     0.160 HD
BRANCH  12  14
ATOM     14  C   UNL     1      11.888 -49.395 -22.991  1.00  0.00     0.049 A 
ATOM     15  C   UNL     1      12.833 -50.021 -23.815  1.00  0.00    -0.003 A 
ATOM     16  C   UNL     1      11.617 -48.011 -23.201  1.00  0.00     0.024 A 
ATOM     17  C   UNL     1      13.273 -49.323 -24.943  1.00  0.00     0.046 A 
ATOM     18  C   UNL     1      13.440 -51.383 -23.587  1.00  0.00     0.039 C 
ATOM     19  C   UNL     1      10.851 -47.218 -22.310  1.00  0.00     0.012 A 
ATOM     20  C   UNL     1      12.130 -47.404 -24.366  1.00  0.00     0.073 A 
ATOM     21  N   UNL     1      12.884 -48.067 -25.249  1.00  0.00    -0.252 NA
ATOM     22  C   UNL     1      14.222 -50.007 -25.895  1.00  0.00     0.056 C 
ATOM     23  C   UNL     1      14.950 -51.381 -23.855  1.00  0.00     0.005 C 
ATOM     24  C   UNL     1      10.576 -45.877 -22.579  1.00  0.00     0.001 A 
ATOM     25  C   UNL     1      11.835 -46.071 -24.620  1.00  0.00     0.029 A 
ATOM     26  C   UNL     1      15.378 -50.650 -25.134  1.00  0.00     0.007 C 
ATOM     27  C   UNL     1      11.061 -45.304 -23.745  1.00  0.00     0.002 A 
ENDBRANCH  12  14
ENDBRANCH  11  12
ENDBRANCH  10  11
ENDBRANCH   2  10
BRANCH   6  28
ATOM     28  C   UNL     1      10.129 -58.858 -22.168  1.00  0.00     0.161 C 
BRANCH  28  29
ATOM     29  C   UNL     1      11.452 -59.496 -22.616  1.00  0.00     0.272 C 
BRANCH  29  30
ATOM     30  N   UNL     1      11.259 -60.623 -23.640  1.00  0.00    -0.332 N 
ATOM     31  H   UNL     1      11.993 -61.325 -23.470  1.00  0.00     0.348 HD
BRANCH  30  32
ATOM     32  C   UNL     1      11.488 -60.121 -25.067  1.00  0.00     0.258 C 
ATOM     33  C   UNL     1      12.867 -60.505 -25.577  1.00  0.00     0.071 C 
ENDBRANCH  30  32
BRANCH  30  34
ATOM     34  C   UNL     1       9.931 -61.391 -23.477  1.00  0.00     0.184 C 
ATOM     35  C   UNL     1      10.134 -62.805 -22.917  1.00  0.00     0.065 C 
ATOM     36  C   UNL     1       9.164 -61.394 -24.809  1.00  0.00     0.065 C 
ATOM     37  C   UNL     1       8.801 -63.546 -22.807  1.00  0.00     0.006 C 
ATOM     38  C   UNL     1       7.842 -62.146 -24.677  1.00  0.00     0.006 C 
ATOM     39  C   UNL     1       8.049 -63.558 -24.136  1.00  0.00     0.000 C 
ENDBRANCH  30  34
ENDBRANCH  29  30
ENDBRANCH  28  29
ENDBRANCH   6  28
TORSDOF 9
ENDMDL
MODEL 4
REMARK VINA RESULT:    -9.953      2.396     11.006
REMARK INTER + INTRA:         -16.231
REMARK INTER:                 -15.151
REMARK INTRA:                  -1.080
REMARK UNBOUND:                -1.041
REMARK SMILES CC[N@@H+](CCC(=O)N1CC[NH+](CCNc2c3c(nc4ccccc24)CCCC3)CC1)C1CCCCC1
REMARK SMILES IDX 10 1 11 2 29 3 9 4 8 5 6 6 30 7 7 8 12 10 13 11 14 12 15 14
REMARK SMILES IDX 16 15 24 16 17 17 28 18 23 19 19 20 18 21 25 22 27 23 22 24
REMARK SMILES IDX 20 25 26 26 21 27 5 28 4 29 3 30 2 32 1 33 31 34 32 35 36 36
REMARK SMILES IDX 33 37 35 38 34 39
REMARK H PARENT 11 9 14 13 3 31
ROOT
ATOM      1  C   UNL     1      11.958 -56.763 -24.087  1.00  0.00     0.284 C 
ATOM      2  N   UNL     1      10.806 -57.078 -23.143  1.00  0.00    -0.331 N 
ATOM      3  C   UNL     1      10.643 -55.985 -22.101  1.00  0.00     0.284 C 
ATOM      4  C   UNL     1      11.744 -55.384 -24.743  1.00  0.00     0.181 C 
ATOM      5  N   UNL     1      11.498 -54.320 -23.754  1.00  0.00    -0.331 N 
ATOM      6  C   UNL     1      12.079 -53.077 -23.965  1.00  0.00     0.228 C 
ATOM      7  C   UNL     1      10.439 -54.613 -22.772  1.00  0.00     0.181 C 
ATOM      8  O   UNL     1      12.785 -52.856 -24.947  1.00  0.00    -0.275 OA
ATOM      9  H   UNL     1       9.952 -57.066 -23.711  1.00  0.00     0.348 HD
ENDROOT
BRANCH   2  10
ATOM     10  C   UNL     1      10.859 -58.492 -22.557  1.00  0.00     0.283 C 
BRANCH  10  11
ATOM     11  C   UNL     1      12.143 -59.296 -22.884  1.00  0.00     0.174 C 
BRANCH  11  12
ATOM     12  N   UNL     1      11.833 -60.717 -23.127  1.00  0.00    -0.379 N 
ATOM     13  H   UNL     1      11.533 -61.177 -22.255  1.00  0.00     0.160 HD
BRANCH  12  14
ATOM     14  C   UNL     1      10.851 -61.039 -24.100  1.00  0.00     0.049 A 
ATOM     15  C   UNL     1       9.686 -61.767 -23.821  1.00  0.00    -0.003 A 
ATOM     16  C   UNL     1      11.126 -60.694 -25.456  1.00  0.00     0.024 A 
ATOM     17  C   UNL     1       8.744 -61.900 -24.847  1.00  0.00     0.046 A 
ATOM     18  C   UNL     1       9.358 -62.442 -22.514  1.00  0.00     0.039 C 
ATOM     19  C   UNL     1      12.362 -60.153 -25.892  1.00  0.00     0.012 A 
ATOM     20  C   UNL     1      10.107 -60.890 -26.411  1.00  0.00     0.073 A 
ATOM     21  N   UNL     1       8.920 -61.419 -26.095  1.00  0.00    -0.252 NA
ATOM     22  C   UNL     1       7.443 -62.601 -24.548  1.00  0.00     0.056 C 
ATOM     23  C   UNL     1       8.764 -63.839 -22.732  1.00  0.00     0.005 C 
ATOM     24  C   UNL     1      12.571 -59.789 -27.222  1.00  0.00     0.001 A 
ATOM     25  C   UNL     1      10.332 -60.512 -27.728  1.00  0.00     0.029 A 
ATOM     26  C   UNL     1       7.695 -63.922 -23.830  1.00  0.00     0.007 C 
ATOM     27  C   UNL     1      11.547 -59.960 -28.142  1.00  0.00     0.002 A 
ENDBRANCH  12  14
ENDBRANCH  11  12
ENDBRANCH  10  11
ENDBRANCH   2  10
BRANCH   6  28
ATOM     28  C   UNL     1      11.814 -51.975 -22.953  1.00  0.00     0.161 C 
BRANCH  28  29
ATOM     29  C   UNL     1      12.237 -50.594 -23.478  1.00  0.00     0.272 C 
BRANCH  29  30
ATOM     30  N   UNL     1      13.427 -49.999 -22.712  1.00  0.00    -0.332 N 
ATOM     31  H   UNL     1      13.548 -50.552 -21.852  1.00  0.00     0.348 HD
BRANCH  30  32
ATOM     32  C   UNL     1      13.132 -48.572 -22.250  1.00  0.00     0.258 C 
ATOM     33  C   UNL     1      11.834 -48.052 -22.845  1.00  0.00     0.071 C 
ENDBRANCH  30  32
BRANCH  30  34
ATOM     34  C   UNL     1      14.773 -50.127 -23.457  1.00  0.00     0.184 C 
ATOM     35  C   UNL     1      14.620 -49.981 -24.976  1.00  0.00     0.065 C 
ATOM     36  C   UNL     1      15.463 -51.442 -23.062  1.00  0.00     0.065 C 
ATOM     37  C   UNL     1      15.967 -50.152 -25.680  1.00  0.00     0.006 C 
ATOM     38  C   UNL     1      16.801 -51.596 -23.782  1.00  0.00     0.006 C 
ATOM     39  C   UNL     1      16.642 -51.467 -25.295  1.00  0.00     0.000 C 
ENDBRANCH  30  34
ENDBRANCH  29  30
ENDBRANCH  28  29
ENDBRANCH   6  28
TORSDOF 9
ENDMDL
MODEL 5
REMARK VINA RESULT:    -9.864      2.080     11.130
REMARK INTER + INTRA:         -16.095
REMARK INTER:                 -15.702
REMARK INTRA:                  -0.393
REMARK UNBOUND:                -1.041
REMARK SMILES CC[N@@H+](CCC(=O)N1CC[NH+](CCNc2c3c(nc4ccccc24)CCCC3)CC1)C1CCCCC1
REMARK SMILES IDX 10 1 11 2 29 3 9 4 8 5 6 6 30 7 7 8 12 10 13 11 14 12 15 14
REMARK SMILES IDX 16 15 24 16 17 17 28 18 23 19 19 20 18 21 25 22 27 23 22 24
REMARK SMILES IDX 20 25 26 26 21 27 5 28 4 29 3 30 2 32 1 33 31 34 32 35 36 36
REMARK SMILES IDX 33 37 35 38 34 39
REMARK H PARENT 11 9 14 13 3 31
ROOT
ATOM      1  C   UNL     1      11.028 -58.860 -22.320  1.00  0.00     0.284 C 
ATOM      2  N   UNL     1      11.915 -59.157 -23.521  1.00  0.00    -0.331 N 
ATOM      3  C   UNL     1      11.822 -58.046 -24.553  1.00  0.00     0.284 C 
ATOM      4  C   UNL     1      11.397 -57.492 -21.712  1.00  0.00     0.181 C 
ATOM      5  N   UNL     1      11.397 -56.411 -22.714  1.00  0.00    -0.331 N 
ATOM      6  C   UNL     1      10.887 -55.173 -22.348  1.00  0.00     0.228 C 
ATOM      7  C   UNL     1      12.185 -56.686 -23.929  1.00  0.00     0.181 C 
ATOM      8  O   UNL     1      10.441 -54.971 -21.220  1.00  0.00    -0.275 OA
ATOM      9  H   UNL     1      12.882 -59.153 -23.177  1.00  0.00     0.348 HD
ENDROOT
BRANCH   2  10
ATOM     10  C   UNL     1      11.719 -60.561 -24.100  1.00  0.00     0.283 C 
BRANCH  10  11
ATOM     11  C   UNL     1      11.381 -60.612 -25.612  1.00  0.00     0.174 C 
BRANCH  11  12
ATOM     12  N   UNL     1      10.058 -60.019 -25.882  1.00  0.00    -0.379 N 
ATOM     13  H   UNL     1       9.904 -59.923 -26.896  1.00  0.00     0.160 HD
BRANCH  12  14
ATOM     14  C   UNL     1       8.907 -60.672 -25.368  1.00  0.00     0.049 A 
ATOM     15  C   UNL     1       8.510 -61.963 -25.743  1.00  0.00    -0.003 A 
ATOM     16  C   UNL     1       8.052 -59.924 -24.506  1.00  0.00     0.024 A 
ATOM     17  C   UNL     1       7.429 -62.532 -25.063  1.00  0.00     0.046 A 
ATOM     18  C   UNL     1       9.133 -62.796 -26.835  1.00  0.00     0.039 C 
ATOM     19  C   UNL     1       8.231 -58.546 -24.228  1.00  0.00     0.012 A 
ATOM     20  C   UNL     1       6.979 -60.598 -23.887  1.00  0.00     0.073 A 
ATOM     21  N   UNL     1       6.718 -61.890 -24.112  1.00  0.00    -0.252 NA
ATOM     22  C   UNL     1       7.037 -63.952 -25.384  1.00  0.00     0.056 C 
ATOM     23  C   UNL     1       8.068 -63.497 -27.688  1.00  0.00     0.005 C 
ATOM     24  C   UNL     1       7.395 -57.865 -23.343  1.00  0.00     0.001 A 
ATOM     25  C   UNL     1       6.165 -59.904 -23.002  1.00  0.00     0.029 A 
ATOM     26  C   UNL     1       6.932 -64.154 -26.892  1.00  0.00     0.007 C 
ATOM     27  C   UNL     1       6.363 -58.550 -22.719  1.00  0.00     0.002 A 
ENDBRANCH  12  14
ENDBRANCH  11  12
ENDBRANCH  10  11
ENDBRANCH   2  10
BRANCH   6  28
ATOM     28  C   UNL     1      10.900 -54.054 -23.375  1.00  0.00     0.161 C 
BRANCH  28  29
ATOM     29  C   UNL     1      10.539 -52.695 -22.755  1.00  0.00     0.272 C 
BRANCH  29  30
ATOM     30  N   UNL     1      11.724 -51.720 -22.714  1.00  0.00    -0.332 N 
ATOM     31  H   UNL     1      12.510 -52.208 -22.261  1.00  0.00     0.348 HD
BRANCH  30  32
ATOM     32  C   UNL     1      11.419 -50.513 -21.827  1.00  0.00     0.258 C 
ATOM     33  C   UNL     1       9.991 -50.029 -22.018  1.00  0.00     0.071 C 
ENDBRANCH  30  32
BRANCH  30  34
ATOM     34  C   UNL     1      12.254 -51.326 -24.109  1.00  0.00     0.184 C 
ATOM     35  C   UNL     1      13.132 -52.417 -24.734  1.00  0.00     0.065 C 
ATOM     36  C   UNL     1      12.973 -49.971 -24.028  1.00  0.00     0.065 C 
ATOM     37  C   UNL     1      13.668 -51.974 -26.096  1.00  0.00     0.006 C 
ATOM     38  C   UNL     1      13.507 -49.552 -25.396  1.00  0.00     0.006 C 
ATOM     39  C   UNL     1      14.395 -50.633 -26.008  1.00  0.00     0.000 C 
ENDBRANCH  30  34
ENDBRANCH  29  30
ENDBRANCH  28  29
ENDBRANCH   6  28
TORSDOF 9
ENDMDL
MODEL 6
REMARK VINA RESULT:    -9.857      1.865     11.392
REMARK INTER + INTRA:         -16.084
REMARK INTER:                 -15.077
REMARK INTRA:                  -1.007
REMARK UNBOUND:                -1.041
REMARK SMILES CC[N@@H+](CCC(=O)N1CC[NH+](CCNc2c3c(nc4ccccc24)CCCC3)CC1)C1CCCCC1
REMARK SMILES IDX 10 1 11 2 29 3 9 4 8 5 6 6 30 7 7 8 12 10 13 11 14 12 15 14
REMARK SMILES IDX 16 15 24 16 17 17 28 18 23 19 19 20 18 21 25 22 27 23 22 24
REMARK SMILES IDX 20 25 26 26 21 27 5 28 4 29 3 30 2 32 1 33 31 34 32 35 36 36
REMARK SMILES IDX 33 37 35 38 34 39
REMARK H PARENT 11 9 14 13 3 31
ROOT
ATOM      1  C   UNL     1      10.831 -58.283 -22.282  1.00  0.00     0.284 C 
ATOM      2  N   UNL     1      11.758 -58.523 -23.465  1.00  0.00    -0.331 N 
ATOM      3  C   UNL     1      11.710 -57.359 -24.439  1.00  0.00     0.284 C 
ATOM      4  C   UNL     1      11.187 -56.953 -21.590  1.00  0.00     0.181 C 
ATOM      5  N   UNL     1      11.232 -55.820 -22.532  1.00  0.00    -0.331 N 
ATOM      6  C   UNL     1      10.717 -54.599 -22.118  1.00  0.00     0.228 C 
ATOM      7  C   UNL     1      12.060 -56.037 -23.731  1.00  0.00     0.181 C 
ATOM      8  O   UNL     1      10.233 -54.452 -20.997  1.00  0.00    -0.275 OA
ATOM      9  H   UNL     1      12.713 -58.546 -23.088  1.00  0.00     0.348 HD
ENDROOT
BRANCH   2  10
ATOM     10  C   UNL     1      11.574 -59.893 -24.125  1.00  0.00     0.283 C 
BRANCH  10  11
ATOM     11  C   UNL     1      11.289 -59.860 -25.648  1.00  0.00     0.174 C 
BRANCH  11  12
ATOM     12  N   UNL     1       9.889 -59.489 -25.921  1.00  0.00    -0.379 N 
ATOM     13  H   UNL     1       9.721 -59.425 -26.935  1.00  0.00     0.160 HD
BRANCH  12  14
ATOM     14  C   UNL     1       8.857 -60.315 -25.403  1.00  0.00     0.049 A 
ATOM     15  C   UNL     1       8.631 -61.634 -25.817  1.00  0.00    -0.003 A 
ATOM     16  C   UNL     1       7.934 -59.725 -24.488  1.00  0.00     0.024 A 
ATOM     17  C   UNL     1       7.662 -62.373 -25.130  1.00  0.00     0.046 A 
ATOM     18  C   UNL     1       9.328 -62.333 -26.957  1.00  0.00     0.039 C 
ATOM     19  C   UNL     1       7.929 -58.345 -24.161  1.00  0.00     0.012 A 
ATOM     20  C   UNL     1       6.986 -60.564 -23.868  1.00  0.00     0.073 A 
ATOM     21  N   UNL     1       6.900 -61.871 -24.136  1.00  0.00    -0.252 NA
ATOM     22  C   UNL     1       7.462 -63.822 -25.496  1.00  0.00     0.056 C 
ATOM     23  C   UNL     1       8.344 -63.146 -27.808  1.00  0.00     0.005 C 
ATOM     24  C   UNL     1       7.035 -57.820 -23.228  1.00  0.00     0.001 A 
ATOM     25  C   UNL     1       6.112 -60.023 -22.934  1.00  0.00     0.029 A 
ATOM     26  C   UNL     1       7.337 -63.983 -27.008  1.00  0.00     0.007 C 
ATOM     27  C   UNL     1       6.129 -58.665 -22.604  1.00  0.00     0.002 A 
ENDBRANCH  12  14
ENDBRANCH  11  12
ENDBRANCH  10  11
ENDBRANCH   2  10
BRANCH   6  28
ATOM     28  C   UNL     1      10.775 -53.426 -23.083  1.00  0.00     0.161 C 
BRANCH  28  29
ATOM     29  C   UNL     1      11.688 -52.301 -22.573  1.00  0.00     0.272 C 
BRANCH  29  30
ATOM     30  N   UNL     1      12.204 -51.391 -23.697  1.00  0.00    -0.332 N 
ATOM     31  H   UNL     1      11.551 -51.476 -24.488  1.00  0.00     0.348 HD
BRANCH  30  32
ATOM     32  C   UNL     1      13.557 -51.873 -24.223  1.00  0.00     0.258 C 
ATOM     33  C   UNL     1      13.423 -52.523 -25.590  1.00  0.00     0.071 C 
ENDBRANCH  30  32
BRANCH  30  34
ATOM     34  C   UNL     1      12.196 -49.891 -23.336  1.00  0.00     0.184 C 
ATOM     35  C   UNL     1      10.820 -49.407 -22.864  1.00  0.00     0.065 C 
ATOM     36  C   UNL     1      12.732 -49.069 -24.518  1.00  0.00     0.065 C 
ATOM     37  C   UNL     1      10.843 -47.910 -22.553  1.00  0.00     0.006 C 
ATOM     38  C   UNL     1      12.739 -47.577 -24.189  1.00  0.00     0.006 C 
ATOM     39  C   UNL     1      11.363 -47.095 -23.736  1.00  0.00     0.000 C 
ENDBRANCH  30  34
ENDBRANCH  29  30
ENDBRANCH  28  29
ENDBRANCH   6  28
TORSDOF 9
ENDMDL
MODEL 7
REMARK VINA RESULT:    -9.782      2.580      4.445
REMARK INTER + INTRA:         -15.970
REMARK INTER:                 -16.092
REMARK INTRA:                   0.122
REMARK UNBOUND:                -1.041
REMARK SMILES CC[N@@H+](CCC(=O)N1CC[NH+](CCNc2c3c(nc4ccccc24)CCCC3)CC1)C1CCCCC1
REMARK SMILES IDX 10 1 11 2 29 3 9 4 8 5 6 6 30 7 7 8 12 10 13 11 14 12 15 14
REMARK SMILES IDX 16 15 24 16 17 17 28 18 23 19 19 20 18 21 25 22 27 23 22 24
REMARK SMILES IDX 20 25 26 26 21 27 5 28 4 29 3 30 2 32 1 33 31 34 32 35 36 36
REMARK SMILES IDX 33 37 35 38 34 39
REMARK H PARENT 11 9 14 13 3 31
ROOT
ATOM      1  C   UNL     1      11.461 -58.670 -22.098  1.00  0.00     0.284 C 
ATOM      2  N   UNL     1      10.369 -57.611 -22.054  1.00  0.00    -0.331 N 
ATOM      3  C   UNL     1       9.335 -57.851 -23.140  1.00  0.00     0.284 C 
ATOM      4  C   UNL     1      10.841 -60.077 -21.987  1.00  0.00     0.181 C 
ATOM      5  N   UNL     1       9.773 -60.303 -22.977  1.00  0.00    -0.331 N 
ATOM      6  C   UNL     1       9.697 -61.547 -23.590  1.00  0.00     0.228 C 
ATOM      7  C   UNL     1       8.731 -59.263 -23.020  1.00  0.00     0.181 C 
ATOM      8  O   UNL     1      10.494 -62.444 -23.324  1.00  0.00    -0.275 OA
ATOM      9  H   UNL     1       9.882 -57.731 -21.159  1.00  0.00     0.348 HD
ENDROOT
BRANCH   2  10
ATOM     10  C   UNL     1      10.903 -56.176 -22.011  1.00  0.00     0.283 C 
BRANCH  10  11
ATOM     11  C   UNL     1      10.412 -55.253 -23.156  1.00  0.00     0.174 C 
BRANCH  11  12
ATOM     12  N   UNL     1      10.249 -53.865 -22.688  1.00  0.00    -0.379 N 
ATOM     13  H   UNL     1      10.291 -53.821 -21.660  1.00  0.00     0.160 HD
BRANCH  12  14
ATOM     14  C   UNL     1      11.157 -52.880 -23.160  1.00  0.00     0.049 A 
ATOM     15  C   UNL     1      11.152 -51.546 -22.733  1.00  0.00    -0.003 A 
ATOM     16  C   UNL     1      12.050 -53.253 -24.208  1.00  0.00     0.024 A 
ATOM     17  C   UNL     1      12.184 -50.717 -23.185  1.00  0.00     0.046 A 
ATOM     18  C   UNL     1      10.118 -50.908 -21.840  1.00  0.00     0.039 C 
ATOM     19  C   UNL     1      12.002 -54.506 -24.870  1.00  0.00     0.012 A 
ATOM     20  C   UNL     1      13.041 -52.328 -24.596  1.00  0.00     0.073 A 
ATOM     21  N   UNL     1      13.144 -51.114 -24.046  1.00  0.00    -0.252 NA
ATOM     22  C   UNL     1      12.254 -49.301 -22.671  1.00  0.00     0.056 C 
ATOM     23  C   UNL     1       9.719 -49.515 -22.342  1.00  0.00     0.005 C 
ATOM     24  C   UNL     1      12.924 -54.844 -25.860  1.00  0.00     0.001 A 
ATOM     25  C   UNL     1      13.956 -52.689 -25.577  1.00  0.00     0.029 A 
ATOM     26  C   UNL     1      10.891 -48.623 -22.773  1.00  0.00     0.007 C 
ATOM     27  C   UNL     1      13.912 -53.935 -26.208  1.00  0.00     0.002 A 
ENDBRANCH  12  14
ENDBRANCH  11  12
ENDBRANCH  10  11
ENDBRANCH   2  10
BRANCH   6  28
ATOM     28  C   UNL     1       8.588 -61.787 -24.600  1.00  0.00     0.161 C 
BRANCH  28  29
ATOM     29  C   UNL     1       9.112 -62.432 -25.892  1.00  0.00     0.272 C 
BRANCH  29  30
ATOM     30  N   UNL     1       9.165 -61.453 -27.074  1.00  0.00    -0.332 N 
ATOM     31  H   UNL     1       8.538 -60.667 -26.853  1.00  0.00     0.348 HD
BRANCH  30  32
ATOM     32  C   UNL     1       8.603 -62.088 -28.346  1.00  0.00     0.258 C 
ATOM     33  C   UNL     1       8.390 -63.583 -28.174  1.00  0.00     0.071 C 
ENDBRANCH  30  32
BRANCH  30  34
ATOM     34  C   UNL     1      10.551 -60.806 -27.284  1.00  0.00     0.184 C 
ATOM     35  C   UNL     1      10.761 -59.569 -26.402  1.00  0.00     0.065 C 
ATOM     36  C   UNL     1      10.763 -60.505 -28.776  1.00  0.00     0.065 C 
ATOM     37  C   UNL     1      12.128 -58.935 -26.667  1.00  0.00     0.006 C 
ATOM     38  C   UNL     1      12.129 -59.865 -29.015  1.00  0.00     0.006 C 
ATOM     39  C   UNL     1      12.329 -58.624 -28.149  1.00  0.00     0.000 C 
ENDBRANCH  30  34
ENDBRANCH  29  30
ENDBRANCH  28  29
ENDBRANCH   6  28
TORSDOF 9
ENDMDL
MODEL 8
REMARK VINA RESULT:    -9.711      2.070     11.453
REMARK INTER + INTRA:         -15.861
REMARK INTER:                 -14.883
REMARK INTRA:                  -0.978
REMARK UNBOUND:                -1.041
REMARK SMILES CC[N@@H+](CCC(=O)N1CC[NH+](CCNc2c3c(nc4ccccc24)CCCC3)CC1)C1CCCCC1
REMARK SMILES IDX 10 1 11 2 29 3 9 4 8 5 6 6 30 7 7 8 12 10 13 11 14 12 15 14
REMARK SMILES IDX 16 15 24 16 17 17 28 18 23 19 19 20 18 21 25 22 27 23 22 24
REMARK SMILES IDX 20 25 26 26 21 27 5 28 4 29 3 30 2 32 1 33 31 34 32 35 36 36
REMARK SMILES IDX 33 37 35 38 34 39
REMARK H PARENT 11 9 14 13 3 31
ROOT
ATOM      1  C   UNL     1      11.408 -55.915 -23.709  1.00  0.00     0.284 C 
ATOM      2  N   UNL     1       9.949 -55.996 -23.284  1.00  0.00    -0.331 N 
ATOM      3  C   UNL     1       9.590 -54.852 -22.352  1.00  0.00     0.284 C 
ATOM      4  C   UNL     1      11.698 -54.546 -24.357  1.00  0.00     0.181 C 
ATOM      5  N   UNL     1      11.278 -53.419 -23.506  1.00  0.00    -0.331 N 
ATOM      6  C   UNL     1      12.098 -52.300 -23.444  1.00  0.00     0.228 C 
ATOM      7  C   UNL     1       9.893 -53.493 -23.010  1.00  0.00     0.181 C 
ATOM      8  O   UNL     1      13.151 -52.239 -24.076  1.00  0.00    -0.275 OA
ATOM      9  H   UNL     1       9.390 -55.863 -24.135  1.00  0.00     0.348 HD
ENDROOT
BRANCH   2  10
ATOM     10  C   UNL     1       9.534 -57.375 -22.764  1.00  0.00     0.283 C 
BRANCH  10  11
ATOM     11  C   UNL     1       8.314 -58.012 -23.477  1.00  0.00     0.174 C 
BRANCH  11  12
ATOM     12  N   UNL     1       8.738 -58.840 -24.620  1.00  0.00    -0.379 N 
ATOM     13  H   UNL     1       9.167 -58.256 -25.352  1.00  0.00     0.160 HD
BRANCH  12  14
ATOM     14  C   UNL     1       9.647 -59.905 -24.384  1.00  0.00     0.049 A 
ATOM     15  C   UNL     1      11.000 -59.870 -24.744  1.00  0.00    -0.003 A 
ATOM     16  C   UNL     1       9.120 -61.117 -23.848  1.00  0.00     0.024 A 
ATOM     17  C   UNL     1      11.808 -60.936 -24.336  1.00  0.00     0.046 A 
ATOM     18  C   UNL     1      11.671 -58.790 -25.556  1.00  0.00     0.039 C 
ATOM     19  C   UNL     1       7.735 -61.348 -23.646  1.00  0.00     0.012 A 
ATOM     20  C   UNL     1      10.028 -62.134 -23.488  1.00  0.00     0.073 A 
ATOM     21  N   UNL     1      11.348 -62.014 -23.667  1.00  0.00    -0.252 NA
ATOM     22  C   UNL     1      13.285 -60.881 -24.633  1.00  0.00     0.056 C 
ATOM     23  C   UNL     1      12.624 -59.379 -26.604  1.00  0.00     0.005 C 
ATOM     24  C   UNL     1       7.268 -62.533 -23.079  1.00  0.00     0.001 A 
ATOM     25  C   UNL     1       9.543 -63.302 -22.915  1.00  0.00     0.029 A 
ATOM     26  C   UNL     1      13.528 -60.508 -26.092  1.00  0.00     0.007 C 
ATOM     27  C   UNL     1       8.178 -63.511 -22.702  1.00  0.00     0.002 A 
ENDBRANCH  12  14
ENDBRANCH  11  12
ENDBRANCH  10  11
ENDBRANCH   2  10
BRANCH   6  28
ATOM     28  C   UNL     1      11.660 -51.131 -22.578  1.00  0.00     0.161 C 
BRANCH  28  29
ATOM     29  C   UNL     1      12.612 -49.931 -22.700  1.00  0.00     0.272 C 
BRANCH  29  30
ATOM     30  N   UNL     1      12.390 -49.118 -23.983  1.00  0.00    -0.332 N 
ATOM     31  H   UNL     1      11.846 -49.704 -24.631  1.00  0.00     0.348 HD
BRANCH  30  32
ATOM     32  C   UNL     1      13.714 -48.832 -24.694  1.00  0.00     0.258 C 
ATOM     33  C   UNL     1      13.901 -49.732 -25.904  1.00  0.00     0.071 C 
ENDBRANCH  30  32
BRANCH  30  34
ATOM     34  C   UNL     1      11.530 -47.853 -23.777  1.00  0.00     0.184 C 
ATOM     35  C   UNL     1      12.055 -46.650 -24.570  1.00  0.00     0.065 C 
ATOM     36  C   UNL     1      11.400 -47.552 -22.276  1.00  0.00     0.065 C 
ATOM     37  C   UNL     1      11.200 -45.408 -24.309  1.00  0.00     0.006 C 
ATOM     38  C   UNL     1      10.551 -46.305 -22.039  1.00  0.00     0.006 C 
ATOM     39  C   UNL     1      11.085 -45.105 -22.817  1.00  0.00     0.000 C 
ENDBRANCH  30  34
ENDBRANCH  29  30
ENDBRANCH  28  29
ENDBRANCH   6  28
TORSDOF 9
ENDMDL
MODEL 9
REMARK VINA RESULT:    -9.652      1.940      3.997
REMARK INTER + INTRA:         -15.772
REMARK INTER:                 -14.538
REMARK INTRA:                  -1.233
REMARK UNBOUND:                -1.041
REMARK SMILES CC[N@@H+](CCC(=O)N1CC[NH+](CCNc2c3c(nc4ccccc24)CCCC3)CC1)C1CCCCC1
REMARK SMILES IDX 10 1 11 2 29 3 9 4 8 5 6 6 30 7 7 8 12 10 13 11 14 12 15 14
REMARK SMILES IDX 16 15 24 16 17 17 28 18 23 19 19 20 18 21 25 22 27 23 22 24
REMARK SMILES IDX 20 25 26 26 21 27 5 28 4 29 3 30 2 32 1 33 31 34 32 35 36 36
REMARK SMILES IDX 33 37 35 38 34 39
REMARK H PARENT 11 9 14 13 3 31
ROOT
ATOM      1  C   UNL     1      10.720 -53.795 -23.449  1.00  0.00     0.284 C 
ATOM      2  N   UNL     1      10.708 -53.464 -21.963  1.00  0.00    -0.331 N 
ATOM      3  C   UNL     1      10.337 -54.684 -21.138  1.00  0.00     0.284 C 
ATOM      4  C   UNL     1      11.674 -54.974 -23.723  1.00  0.00     0.181 C 
ATOM      5  N   UNL     1      11.388 -56.142 -22.871  1.00  0.00    -0.331 N 
ATOM      6  C   UNL     1      11.473 -57.407 -23.437  1.00  0.00     0.228 C 
ATOM      7  C   UNL     1      11.294 -55.855 -21.429  1.00  0.00     0.181 C 
ATOM      8  O   UNL     1      11.777 -57.563 -24.618  1.00  0.00    -0.275 OA
ATOM      9  H   UNL     1      11.674 -53.226 -21.710  1.00  0.00     0.348 HD
ENDROOT
BRANCH   2  10
ATOM     10  C   UNL     1       9.900 -52.210 -21.617  1.00  0.00     0.283 C 
BRANCH  10  11
ATOM     11  C   UNL     1      10.074 -51.020 -22.594  1.00  0.00     0.174 C 
BRANCH  11  12
ATOM     12  N   UNL     1      11.193 -50.152 -22.183  1.00  0.00    -0.379 N 
ATOM     13  H   UNL     1      11.900 -50.694 -21.667  1.00  0.00     0.160 HD
BRANCH  12  14
ATOM     14  C   UNL     1      11.899 -49.439 -23.187  1.00  0.00     0.049 A 
ATOM     15  C   UNL     1      12.913 -49.999 -23.975  1.00  0.00    -0.003 A 
ATOM     16  C   UNL     1      11.630 -48.044 -23.320  1.00  0.00     0.024 A 
ATOM     17  C   UNL     1      13.434 -49.218 -25.012  1.00  0.00     0.046 A 
ATOM     18  C   UNL     1      13.515 -51.370 -23.796  1.00  0.00     0.039 C 
ATOM     19  C   UNL     1      10.787 -47.321 -22.438  1.00  0.00     0.012 A 
ATOM     20  C   UNL     1      12.227 -47.352 -24.394  1.00  0.00     0.073 A 
ATOM     21  N   UNL     1      13.056 -47.946 -25.258  1.00  0.00    -0.252 NA
ATOM     22  C   UNL     1      14.463 -49.828 -25.931  1.00  0.00     0.056 C 
ATOM     23  C   UNL     1      15.042 -51.341 -23.942  1.00  0.00     0.005 C 
ATOM     24  C   UNL     1      10.519 -45.966 -22.632  1.00  0.00     0.001 A 
ATOM     25  C   UNL     1      11.938 -46.006 -24.575  1.00  0.00     0.029 A 
ATOM     26  C   UNL     1      15.562 -50.517 -25.128  1.00  0.00     0.007 C 
ATOM     27  C   UNL     1      11.089 -45.308 -23.712  1.00  0.00     0.002 A 
ENDBRANCH  12  14
ENDBRANCH  11  12
ENDBRANCH  10  11
ENDBRANCH   2  10
BRANCH   6  28
ATOM     28  C   UNL     1      11.192 -58.613 -22.557  1.00  0.00     0.161 C 
BRANCH  28  29
ATOM     29  C   UNL     1      11.902 -59.877 -23.063  1.00  0.00     0.272 C 
BRANCH  29  30
ATOM     30  N   UNL     1      10.994 -60.774 -23.917  1.00  0.00    -0.332 N 
ATOM     31  H   UNL     1      10.059 -60.343 -23.933  1.00  0.00     0.348 HD
BRANCH  30  32
ATOM     32  C   UNL     1      10.806 -62.148 -23.272  1.00  0.00     0.258 C 
ATOM     33  C   UNL     1       9.520 -62.810 -23.738  1.00  0.00     0.071 C 
ENDBRANCH  30  32
BRANCH  30  34
ATOM     34  C   UNL     1      11.417 -60.856 -25.399  1.00  0.00     0.184 C 
ATOM     35  C   UNL     1      12.838 -60.330 -25.635  1.00  0.00     0.065 C 
ATOM     36  C   UNL     1      10.376 -60.143 -26.277  1.00  0.00     0.065 C 
ATOM     37  C   UNL     1      13.205 -60.392 -27.118  1.00  0.00     0.006 C 
ATOM     38  C   UNL     1      10.767 -60.210 -27.752  1.00  0.00     0.006 C 
ATOM     39  C   UNL     1      12.176 -59.670 -27.985  1.00  0.00     0.000 C 
ENDBRANCH  30  34
ENDBRANCH  29  30
ENDBRANCH  28  29
ENDBRANCH   6  28
TORSDOF 9
ENDMDL
