MODEL 1
REMARK VINA RESULT:   -13.027      0.000      0.000
REMARK INTER + INTRA:         -17.404
REMARK INTER:                 -16.835
REMARK INTRA:                  -0.569
REMARK UNBOUND:                -0.569
REMARK SMILES O=C1CNc2cc3onc(CC[C@H]4CC[N@H+](Cc5ccccc5)CC4)c3cc2C1
REMARK SMILES IDX 12 1 13 2 15 3 16 4 14 5 24 6 25 7 17 9 18 10 19 11 23 12
REMARK SMILES IDX 20 13 22 14 21 15 11 16 10 17 9 18 26 19 8 20 27 21 7 22
REMARK SMILES IDX 28 23 6 24 29 25 5 26 2 27 4 28 3 29 1 30
REMARK H PARENT 16 8 4 31
ROOT
ATOM      1  C   UNL     1      11.370 -56.618 -21.559  1.00  0.00     0.010 C 
ENDROOT
BRANCH   1   2
ATOM      2  C   UNL     1      11.574 -58.095 -21.959  1.00  0.00     0.000 C 
ATOM      3  C   UNL     1      11.917 -59.671 -23.912  1.00  0.00     0.262 C 
ATOM      4  N   UNL     1      10.796 -60.534 -23.383  1.00  0.00    -0.331 N 
ATOM      5  C   UNL     1      11.698 -58.224 -23.484  1.00  0.00     0.065 C 
ATOM      6  C   UNL     1      10.679 -60.455 -21.881  1.00  0.00     0.262 C 
ATOM      7  C   UNL     1      10.447 -59.011 -21.460  1.00  0.00     0.065 C 
ATOM      8  H   UNL     1       9.922 -60.175 -23.785  1.00  0.00     0.348 HD
BRANCH   4   9
ATOM      9  C   UNL     1      10.904 -61.974 -23.845  1.00  0.00     0.299 C 
BRANCH   9  10
ATOM     10  C   UNL     1       9.567 -62.600 -24.138  1.00  0.00     0.006 A 
ATOM     11  C   UNL     1       8.932 -62.376 -25.371  1.00  0.00     0.009 A 
ATOM     12  C   UNL     1       8.945 -63.429 -23.193  1.00  0.00     0.009 A 
ATOM     13  C   UNL     1       7.705 -62.978 -25.652  1.00  0.00     0.001 A 
ATOM     14  C   UNL     1       7.718 -64.028 -23.479  1.00  0.00     0.001 A 
ATOM     15  C   UNL     1       7.101 -63.805 -24.707  1.00  0.00     0.000 A 
ENDBRANCH   9  10
ENDBRANCH   4   9
ENDBRANCH   1   2
BRANCH   1  16
ATOM     16  C   UNL     1      10.555 -55.765 -22.544  1.00  0.00     0.061 C 
BRANCH  16  17
ATOM     17  C   UNL     1      10.649 -54.300 -22.291  1.00  0.00     0.091 A 
ATOM     18  N   UNL     1       9.988 -53.756 -21.255  1.00  0.00    -0.084 NA
ATOM     19  C   UNL     1      11.367 -53.319 -23.022  1.00  0.00     0.045 A 
ATOM     20  O   UNL     1      10.265 -52.399 -21.306  1.00  0.00    -0.356 OA
ATOM     21  C   UNL     1      12.191 -53.270 -24.156  1.00  0.00     0.020 A 
ATOM     22  C   UNL     1      11.086 -52.140 -22.359  1.00  0.00     0.169 A 
ATOM     23  C   UNL     1      12.707 -52.020 -24.572  1.00  0.00    -0.016 A 
ATOM     24  C   UNL     1      11.575 -50.892 -22.733  1.00  0.00     0.076 A 
ATOM     25  C   UNL     1      13.541 -51.982 -25.831  1.00  0.00     0.115 C 
ATOM     26  C   UNL     1      12.433 -50.846 -23.844  1.00  0.00     0.042 A 
ATOM     27  C   UNL     1      14.031 -50.611 -26.212  1.00  0.00     0.156 C 
ATOM     28  N   UNL     1      12.877 -49.595 -24.294  1.00  0.00    -0.378 N 
ATOM     29  C   UNL     1      14.091 -49.582 -25.108  1.00  0.00     0.189 C 
ATOM     30  O   UNL     1      14.485 -50.387 -27.337  1.00  0.00    -0.297 OA
ATOM     31  H   UNL     1      12.882 -48.883 -23.567  1.00  0.00     0.161 HD
ENDBRANCH  16  17
ENDBRANCH   1  16
TORSDOF 5
ENDMDL
MODEL 2
REMARK VINA RESULT:   -12.392      1.722      2.476
REMARK INTER + INTRA:         -16.583
REMARK INTER:                 -16.370
REMARK INTRA:                  -0.213
REMARK UNBOUND:                -0.569
REMARK SMILES O=C1CNc2cc3onc(CC[C@H]4CC[N@H+](Cc5ccccc5)CC4)c3cc2C1
REMARK SMILES IDX 12 1 13 2 15 3 16 4 14 5 24 6 25 7 17 9 18 10 19 11 23 12
REMARK SMILES IDX 20 13 22 14 21 15 11 16 10 17 9 18 26 19 8 20 27 21 7 22
REMARK SMILES IDX 28 23 6 24 29 25 5 26 2 27 4 28 3 29 1 30
REMARK H PARENT 16 8 4 31
ROOT
ATOM      1  C   UNL     1      10.982 -55.915 -21.984  1.00  0.00     0.010 C 
ENDROOT
BRANCH   1   2
ATOM      2  C   UNL     1      10.888 -57.322 -22.612  1.00  0.00     0.000 C 
ATOM      3  C   UNL     1      11.122 -59.802 -22.152  1.00  0.00     0.262 C 
ATOM      4  N   UNL     1      12.023 -59.918 -23.359  1.00  0.00    -0.331 N 
ATOM      5  C   UNL     1      11.222 -58.397 -21.567  1.00  0.00     0.065 C 
ATOM      6  C   UNL     1      11.689 -58.896 -24.417  1.00  0.00     0.262 C 
ATOM      7  C   UNL     1      11.803 -57.495 -23.832  1.00  0.00     0.065 C 
ATOM      8  H   UNL     1      12.982 -59.735 -23.039  1.00  0.00     0.348 HD
BRANCH   4   9
ATOM      9  C   UNL     1      12.039 -61.318 -23.940  1.00  0.00     0.299 C 
BRANCH   9  10
ATOM     10  C   UNL     1      10.690 -61.983 -23.911  1.00  0.00     0.006 A 
ATOM     11  C   UNL     1      10.332 -62.818 -22.839  1.00  0.00     0.009 A 
ATOM     12  C   UNL     1       9.765 -61.766 -24.942  1.00  0.00     0.009 A 
ATOM     13  C   UNL     1       9.071 -63.414 -22.800  1.00  0.00     0.001 A 
ATOM     14  C   UNL     1       8.505 -62.364 -24.898  1.00  0.00     0.001 A 
ATOM     15  C   UNL     1       8.158 -63.184 -23.827  1.00  0.00     0.000 A 
ENDBRANCH   9  10
ENDBRANCH   4   9
ENDBRANCH   1   2
BRANCH   1  16
ATOM     16  C   UNL     1      11.202 -54.757 -22.969  1.00  0.00     0.061 C 
BRANCH  16  17
ATOM     17  C   UNL     1      10.473 -53.509 -22.603  1.00  0.00     0.091 A 
ATOM     18  N   UNL     1       9.205 -53.579 -22.167  1.00  0.00    -0.084 NA
ATOM     19  C   UNL     1      10.933 -52.168 -22.652  1.00  0.00     0.045 A 
ATOM     20  O   UNL     1       8.818 -52.269 -21.932  1.00  0.00    -0.356 OA
ATOM     21  C   UNL     1      12.104 -51.487 -23.018  1.00  0.00     0.020 A 
ATOM     22  C   UNL     1       9.848 -51.430 -22.221  1.00  0.00     0.169 A 
ATOM     23  C   UNL     1      12.130 -50.076 -22.927  1.00  0.00    -0.016 A 
ATOM     24  C   UNL     1       9.834 -50.043 -22.115  1.00  0.00     0.076 A 
ATOM     25  C   UNL     1      13.379 -49.360 -23.386  1.00  0.00     0.115 C 
ATOM     26  C   UNL     1      11.017 -49.361 -22.443  1.00  0.00     0.042 A 
ATOM     27  C   UNL     1      13.313 -47.860 -23.274  1.00  0.00     0.156 C 
ATOM     28  N   UNL     1      11.010 -47.960 -22.422  1.00  0.00    -0.378 N 
ATOM     29  C   UNL     1      12.306 -47.297 -22.299  1.00  0.00     0.189 C 
ATOM     30  O   UNL     1      14.134 -47.143 -23.852  1.00  0.00    -0.297 OA
ATOM     31  H   UNL     1      10.306 -47.569 -21.799  1.00  0.00     0.161 HD
ENDBRANCH  16  17
ENDBRANCH   1  16
TORSDOF 5
ENDMDL
MODEL 3
REMARK VINA RESULT:   -12.260      1.079      1.628
REMARK INTER + INTRA:         -16.412
REMARK INTER:                 -15.834
REMARK INTRA:                  -0.579
REMARK UNBOUND:                -0.569
REMARK SMILES O=C1CNc2cc3onc(CC[C@H]4CC[N@H+](Cc5ccccc5)CC4)c3cc2C1
REMARK SMILES IDX 12 1 13 2 15 3 16 4 14 5 24 6 25 7 17 9 18 10 19 11 23 12
REMARK SMILES IDX 20 13 22 14 21 15 11 16 10 17 9 18 26 19 8 20 27 21 7 22
REMARK SMILES IDX 28 23 6 24 29 25 5 26 2 27 4 28 3 29 1 30
REMARK H PARENT 16 8 4 31
ROOT
ATOM      1  C   UNL     1      11.296 -56.524 -22.250  1.00  0.00     0.010 C 
ENDROOT
BRANCH   1   2
ATOM      2  C   UNL     1      10.649 -57.926 -22.251  1.00  0.00     0.000 C 
ATOM      3  C   UNL     1      11.049 -60.378 -22.746  1.00  0.00     0.262 C 
ATOM      4  N   UNL     1       9.789 -60.392 -23.578  1.00  0.00    -0.331 N 
ATOM      5  C   UNL     1      11.652 -58.977 -22.749  1.00  0.00     0.065 C 
ATOM      6  C   UNL     1       8.771 -59.394 -23.085  1.00  0.00     0.262 C 
ATOM      7  C   UNL     1       9.373 -57.995 -23.102  1.00  0.00     0.065 C 
ATOM      8  H   UNL     1      10.054 -60.122 -24.533  1.00  0.00     0.348 HD
BRANCH   4   9
ATOM      9  C   UNL     1       9.182 -61.776 -23.691  1.00  0.00     0.299 C 
BRANCH   9  10
ATOM     10  C   UNL     1       8.911 -62.186 -25.113  1.00  0.00     0.006 A 
ATOM     11  C   UNL     1       7.891 -63.106 -25.407  1.00  0.00     0.009 A 
ATOM     12  C   UNL     1       9.660 -61.642 -26.168  1.00  0.00     0.009 A 
ATOM     13  C   UNL     1       7.623 -63.465 -26.728  1.00  0.00     0.001 A 
ATOM     14  C   UNL     1       9.388 -62.005 -27.487  1.00  0.00     0.001 A 
ATOM     15  C   UNL     1       8.369 -62.913 -27.767  1.00  0.00     0.000 A 
ENDBRANCH   9  10
ENDBRANCH   4   9
ENDBRANCH   1   2
BRANCH   1  16
ATOM     16  C   UNL     1      10.555 -55.445 -23.055  1.00  0.00     0.061 C 
BRANCH  16  17
ATOM     17  C   UNL     1      10.882 -54.053 -22.638  1.00  0.00     0.091 A 
ATOM     18  N   UNL     1      10.409 -53.574 -21.476  1.00  0.00    -0.084 NA
ATOM     19  C   UNL     1      11.659 -53.083 -23.322  1.00  0.00     0.045 A 
ATOM     20  O   UNL     1      10.872 -52.270 -21.393  1.00  0.00    -0.356 OA
ATOM     21  C   UNL     1      12.369 -52.987 -24.529  1.00  0.00     0.020 A 
ATOM     22  C   UNL     1      11.616 -51.979 -22.493  1.00  0.00     0.169 A 
ATOM     23  C   UNL     1      13.016 -51.770 -24.846  1.00  0.00    -0.016 A 
ATOM     24  C   UNL     1      12.240 -50.766 -22.767  1.00  0.00     0.076 A 
ATOM     25  C   UNL     1      13.721 -51.670 -26.178  1.00  0.00     0.115 C 
ATOM     26  C   UNL     1      12.985 -50.680 -23.955  1.00  0.00     0.042 A 
ATOM     27  C   UNL     1      14.364 -50.335 -26.443  1.00  0.00     0.156 C 
ATOM     28  N   UNL     1      13.559 -49.449 -24.297  1.00  0.00    -0.378 N 
ATOM     29  C   UNL     1      14.677 -49.482 -25.236  1.00  0.00     0.189 C 
ATOM     30  O   UNL     1      14.734 -50.021 -27.578  1.00  0.00    -0.297 OA
ATOM     31  H   UNL     1      13.736 -48.849 -23.494  1.00  0.00     0.161 HD
ENDBRANCH  16  17
ENDBRANCH   1  16
TORSDOF 5
ENDMDL
MODEL 4
REMARK VINA RESULT:   -11.880      1.977      2.564
REMARK INTER + INTRA:         -15.922
REMARK INTER:                 -15.618
REMARK INTRA:                  -0.303
REMARK UNBOUND:                -0.569
REMARK SMILES O=C1CNc2cc3onc(CC[C@H]4CC[N@H+](Cc5ccccc5)CC4)c3cc2C1
REMARK SMILES IDX 12 1 13 2 15 3 16 4 14 5 24 6 25 7 17 9 18 10 19 11 23 12
REMARK SMILES IDX 20 13 22 14 21 15 11 16 10 17 9 18 26 19 8 20 27 21 7 22
REMARK SMILES IDX 28 23 6 24 29 25 5 26 2 27 4 28 3 29 1 30
REMARK H PARENT 16 8 4 31
ROOT
ATOM      1  C   UNL     1      11.014 -56.386 -22.000  1.00  0.00     0.010 C 
ENDROOT
BRANCH   1   2
ATOM      2  C   UNL     1      10.789 -57.815 -22.540  1.00  0.00     0.000 C 
ATOM      3  C   UNL     1      11.800 -59.672 -23.935  1.00  0.00     0.262 C 
ATOM      4  N   UNL     1      10.509 -59.759 -24.714  1.00  0.00    -0.331 N 
ATOM      5  C   UNL     1      11.983 -58.256 -23.399  1.00  0.00     0.065 C 
ATOM      6  C   UNL     1       9.315 -59.368 -23.879  1.00  0.00     0.262 C 
ATOM      7  C   UNL     1       9.496 -57.949 -23.357  1.00  0.00     0.065 C 
ATOM      8  H   UNL     1      10.578 -59.092 -25.492  1.00  0.00     0.348 HD
BRANCH   4   9
ATOM      9  C   UNL     1      10.305 -61.119 -25.350  1.00  0.00     0.299 C 
BRANCH   9  10
ATOM     10  C   UNL     1       9.571 -62.083 -24.458  1.00  0.00     0.006 A 
ATOM     11  C   UNL     1       8.286 -62.534 -24.803  1.00  0.00     0.009 A 
ATOM     12  C   UNL     1      10.165 -62.560 -23.280  1.00  0.00     0.009 A 
ATOM     13  C   UNL     1       7.616 -63.448 -23.989  1.00  0.00     0.001 A 
ATOM     14  C   UNL     1       9.491 -63.473 -22.469  1.00  0.00     0.001 A 
ATOM     15  C   UNL     1       8.220 -63.918 -22.824  1.00  0.00     0.000 A 
ENDBRANCH   9  10
ENDBRANCH   4   9
ENDBRANCH   1   2
BRANCH   1  16
ATOM     16  C   UNL     1      10.324 -55.259 -22.784  1.00  0.00     0.061 C 
BRANCH  16  17
ATOM     17  C   UNL     1      11.225 -54.551 -23.736  1.00  0.00     0.091 A 
ATOM     18  N   UNL     1      11.747 -55.213 -24.782  1.00  0.00    -0.084 NA
ATOM     19  C   UNL     1      11.654 -53.199 -23.710  1.00  0.00     0.045 A 
ATOM     20  O   UNL     1      12.538 -54.292 -25.451  1.00  0.00    -0.356 OA
ATOM     21  C   UNL     1      11.472 -52.070 -22.898  1.00  0.00     0.020 A 
ATOM     22  C   UNL     1      12.481 -53.093 -24.811  1.00  0.00     0.169 A 
ATOM     23  C   UNL     1      12.134 -50.868 -23.241  1.00  0.00    -0.016 A 
ATOM     24  C   UNL     1      13.149 -51.930 -25.183  1.00  0.00     0.076 A 
ATOM     25  C   UNL     1      11.972 -49.683 -22.317  1.00  0.00     0.115 C 
ATOM     26  C   UNL     1      12.936 -50.787 -24.395  1.00  0.00     0.042 A 
ATOM     27  C   UNL     1      12.727 -48.453 -22.746  1.00  0.00     0.156 C 
ATOM     28  N   UNL     1      13.654 -49.623 -24.698  1.00  0.00    -0.378 N 
ATOM     29  C   UNL     1      13.103 -48.363 -24.206  1.00  0.00     0.189 C 
ATOM     30  O   UNL     1      12.906 -47.513 -21.966  1.00  0.00    -0.297 OA
ATOM     31  H   UNL     1      13.949 -49.572 -25.671  1.00  0.00     0.161 HD
ENDBRANCH  16  17
ENDBRANCH   1  16
TORSDOF 5
ENDMDL
MODEL 5
REMARK VINA RESULT:   -11.261      3.349      9.980
REMARK INTER + INTRA:         -15.122
REMARK INTER:                 -14.855
REMARK INTRA:                  -0.267
REMARK UNBOUND:                -0.569
REMARK SMILES O=C1CNc2cc3onc(CC[C@H]4CC[N@H+](Cc5ccccc5)CC4)c3cc2C1
REMARK SMILES IDX 12 1 13 2 15 3 16 4 14 5 24 6 25 7 17 9 18 10 19 11 23 12
REMARK SMILES IDX 20 13 22 14 21 15 11 16 10 17 9 18 26 19 8 20 27 21 7 22
REMARK SMILES IDX 28 23 6 24 29 25 5 26 2 27 4 28 3 29 1 30
REMARK H PARENT 16 8 4 31
ROOT
ATOM      1  C   UNL     1      11.099 -58.290 -21.935  1.00  0.00     0.010 C 
ENDROOT
BRANCH   1   2
ATOM      2  C   UNL     1      11.027 -56.785 -22.270  1.00  0.00     0.000 C 
ATOM      3  C   UNL     1      10.987 -54.454 -21.279  1.00  0.00     0.262 C 
ATOM      4  N   UNL     1       9.770 -54.144 -22.117  1.00  0.00    -0.331 N 
ATOM      5  C   UNL     1      11.040 -55.949 -20.981  1.00  0.00     0.065 C 
ATOM      6  C   UNL     1       9.754 -54.924 -23.408  1.00  0.00     0.262 C 
ATOM      7  C   UNL     1       9.794 -56.416 -23.106  1.00  0.00     0.065 C 
ATOM      8  H   UNL     1       8.946 -54.425 -21.571  1.00  0.00     0.348 HD
BRANCH   4   9
ATOM      9  C   UNL     1       9.606 -52.659 -22.377  1.00  0.00     0.299 C 
BRANCH   9  10
ATOM     10  C   UNL     1      10.908 -51.968 -22.681  1.00  0.00     0.006 A 
ATOM     11  C   UNL     1      11.787 -52.497 -23.640  1.00  0.00     0.009 A 
ATOM     12  C   UNL     1      11.254 -50.778 -22.025  1.00  0.00     0.009 A 
ATOM     13  C   UNL     1      12.981 -51.841 -23.941  1.00  0.00     0.001 A 
ATOM     14  C   UNL     1      12.450 -50.126 -22.328  1.00  0.00     0.001 A 
ATOM     15  C   UNL     1      13.311 -50.656 -23.287  1.00  0.00     0.000 A 
ENDBRANCH   9  10
ENDBRANCH   4   9
ENDBRANCH   1   2
BRANCH   1  16
ATOM     16  C   UNL     1      12.134 -59.103 -22.728  1.00  0.00     0.061 C 
BRANCH  16  17
ATOM     17  C   UNL     1      11.855 -59.167 -24.190  1.00  0.00     0.091 A 
ATOM     18  N   UNL     1      12.471 -58.315 -25.026  1.00  0.00    -0.084 NA
ATOM     19  C   UNL     1      10.980 -60.038 -24.888  1.00  0.00     0.045 A 
ATOM     20  O   UNL     1      11.991 -58.619 -26.290  1.00  0.00    -0.356 OA
ATOM     21  C   UNL     1      10.094 -61.082 -24.579  1.00  0.00     0.020 A 
ATOM     22  C   UNL     1      11.104 -59.646 -26.206  1.00  0.00     0.169 A 
ATOM     23  C   UNL     1       9.368 -61.694 -25.628  1.00  0.00    -0.016 A 
ATOM     24  C   UNL     1      10.411 -60.223 -27.266  1.00  0.00     0.076 A 
ATOM     25  C   UNL     1       8.374 -62.772 -25.265  1.00  0.00     0.115 C 
ATOM     26  C   UNL     1       9.553 -61.294 -26.966  1.00  0.00     0.042 A 
ATOM     27  C   UNL     1       7.632 -63.354 -26.438  1.00  0.00     0.156 C 
ATOM     28  N   UNL     1       8.783 -61.844 -27.999  1.00  0.00    -0.378 N 
ATOM     29  C   UNL     1       8.279 -63.200 -27.794  1.00  0.00     0.189 C 
ATOM     30  O   UNL     1       6.617 -64.036 -26.273  1.00  0.00    -0.297 OA
ATOM     31  H   UNL     1       9.189 -61.709 -28.922  1.00  0.00     0.161 HD
ENDBRANCH  16  17
ENDBRANCH   1  16
TORSDOF 5
ENDMDL
MODEL 6
REMARK VINA RESULT:   -11.055      3.261     11.068
REMARK INTER + INTRA:         -14.855
REMARK INTER:                 -14.509
REMARK INTRA:                  -0.347
REMARK UNBOUND:                -0.569
REMARK SMILES O=C1CNc2cc3onc(CC[C@H]4CC[N@H+](Cc5ccccc5)CC4)c3cc2C1
REMARK SMILES IDX 12 1 13 2 15 3 16 4 14 5 24 6 25 7 17 9 18 10 19 11 23 12
REMARK SMILES IDX 20 13 22 14 21 15 11 16 10 17 9 18 26 19 8 20 27 21 7 22
REMARK SMILES IDX 28 23 6 24 29 25 5 26 2 27 4 28 3 29 1 30
REMARK H PARENT 16 8 4 31
ROOT
ATOM      1  C   UNL     1       9.906 -54.610 -22.042  1.00  0.00     0.010 C 
ENDROOT
BRANCH   1   2
ATOM      2  C   UNL     1      11.033 -53.574 -22.241  1.00  0.00     0.000 C 
ATOM      3  C   UNL     1      11.740 -51.186 -21.778  1.00  0.00     0.262 C 
ATOM      4  N   UNL     1      12.075 -51.025 -23.242  1.00  0.00    -0.331 N 
ATOM      5  C   UNL     1      10.639 -52.228 -21.613  1.00  0.00     0.065 C 
ATOM      6  C   UNL     1      12.503 -52.327 -23.873  1.00  0.00     0.262 C 
ATOM      7  C   UNL     1      11.396 -53.361 -23.717  1.00  0.00     0.065 C 
ATOM      8  H   UNL     1      11.219 -50.714 -23.716  1.00  0.00     0.348 HD
BRANCH   4   9
ATOM      9  C   UNL     1      13.103 -49.938 -23.487  1.00  0.00     0.299 C 
BRANCH   9  10
ATOM     10  C   UNL     1      12.485 -48.596 -23.769  1.00  0.00     0.006 A 
ATOM     11  C   UNL     1      11.305 -48.204 -23.114  1.00  0.00     0.009 A 
ATOM     12  C   UNL     1      13.086 -47.709 -24.674  1.00  0.00     0.009 A 
ATOM     13  C   UNL     1      10.747 -46.949 -23.356  1.00  0.00     0.001 A 
ATOM     14  C   UNL     1      12.523 -46.455 -24.913  1.00  0.00     0.001 A 
ATOM     15  C   UNL     1      11.357 -46.075 -24.253  1.00  0.00     0.000 A 
ENDBRANCH   9  10
ENDBRANCH   4   9
ENDBRANCH   1   2
BRANCH   1  16
ATOM     16  C   UNL     1       9.849 -55.743 -23.078  1.00  0.00     0.061 C 
BRANCH  16  17
ATOM     17  C   UNL     1      10.310 -57.060 -22.555  1.00  0.00     0.091 A 
ATOM     18  N   UNL     1      11.415 -57.128 -21.794  1.00  0.00    -0.084 NA
ATOM     19  C   UNL     1       9.734 -58.342 -22.751  1.00  0.00     0.045 A 
ATOM     20  O   UNL     1      11.577 -58.471 -21.489  1.00  0.00    -0.356 OA
ATOM     21  C   UNL     1       8.636 -58.891 -23.430  1.00  0.00     0.020 A 
ATOM     22  C   UNL     1      10.575 -59.191 -22.060  1.00  0.00     0.169 A 
ATOM     23  C   UNL     1       8.430 -60.289 -23.376  1.00  0.00    -0.016 A 
ATOM     24  C   UNL     1      10.406 -60.571 -21.980  1.00  0.00     0.076 A 
ATOM     25  C   UNL     1       7.278 -60.865 -24.166  1.00  0.00     0.115 C 
ATOM     26  C   UNL     1       9.286 -61.119 -22.626  1.00  0.00     0.042 A 
ATOM     27  C   UNL     1       7.144 -62.362 -24.069  1.00  0.00     0.156 C 
ATOM     28  N   UNL     1       9.131 -62.511 -22.630  1.00  0.00    -0.378 N 
ATOM     29  C   UNL     1       7.784 -63.023 -22.872  1.00  0.00     0.189 C 
ATOM     30  O   UNL     1       6.433 -62.989 -24.859  1.00  0.00    -0.297 OA
ATOM     31  H   UNL     1       9.594 -62.972 -21.849  1.00  0.00     0.161 HD
ENDBRANCH  16  17
ENDBRANCH   1  16
TORSDOF 5
ENDMDL
MODEL 7
REMARK VINA RESULT:   -10.403      2.562      4.415
REMARK INTER + INTRA:         -14.013
REMARK INTER:                 -13.025
REMARK INTRA:                  -0.988
REMARK UNBOUND:                -0.569
REMARK SMILES O=C1CNc2cc3onc(CC[C@H]4CC[N@H+](Cc5ccccc5)CC4)c3cc2C1
REMARK SMILES IDX 12 1 13 2 15 3 16 4 14 5 24 6 25 7 17 9 18 10 19 11 23 12
REMARK SMILES IDX 20 13 22 14 21 15 11 16 10 17 9 18 26 19 8 20 27 21 7 22
REMARK SMILES IDX 28 23 6 24 29 25 5 26 2 27 4 28 3 29 1 30
REMARK H PARENT 16 8 4 31
ROOT
ATOM      1  C   UNL     1      10.460 -51.834 -22.514  1.00  0.00     0.010 C 
ENDROOT
BRANCH   1   2
ATOM      2  C   UNL     1      11.080 -53.247 -22.466  1.00  0.00     0.000 C 
ATOM      3  C   UNL     1      11.609 -55.311 -23.836  1.00  0.00     0.262 C 
ATOM      4  N   UNL     1      10.945 -56.157 -22.775  1.00  0.00    -0.331 N 
ATOM      5  C   UNL     1      10.990 -53.917 -23.845  1.00  0.00     0.065 C 
ATOM      6  C   UNL     1      11.055 -55.538 -21.404  1.00  0.00     0.262 C 
ATOM      7  C   UNL     1      10.424 -54.153 -21.414  1.00  0.00     0.065 C 
ATOM      8  H   UNL     1       9.948 -56.214 -23.014  1.00  0.00     0.348 HD
BRANCH   4   9
ATOM      9  C   UNL     1      11.453 -57.585 -22.769  1.00  0.00     0.299 C 
BRANCH   9  10
ATOM     10  C   UNL     1      10.347 -58.603 -22.697  1.00  0.00     0.006 A 
ATOM     11  C   UNL     1      10.558 -59.839 -22.065  1.00  0.00     0.009 A 
ATOM     12  C   UNL     1       9.085 -58.325 -23.243  1.00  0.00     0.009 A 
ATOM     13  C   UNL     1       9.525 -60.772 -21.975  1.00  0.00     0.001 A 
ATOM     14  C   UNL     1       8.055 -59.261 -23.151  1.00  0.00     0.001 A 
ATOM     15  C   UNL     1       8.274 -60.481 -22.515  1.00  0.00     0.000 A 
ENDBRANCH   9  10
ENDBRANCH   4   9
ENDBRANCH   1   2
BRANCH   1  16
ATOM     16  C   UNL     1      11.342 -50.699 -21.970  1.00  0.00     0.061 C 
BRANCH  16  17
ATOM     17  C   UNL     1      12.040 -49.919 -23.031  1.00  0.00     0.091 A 
ATOM     18  N   UNL     1      11.566 -48.717 -23.400  1.00  0.00    -0.084 NA
ATOM     19  C   UNL     1      13.200 -50.268 -23.769  1.00  0.00     0.045 A 
ATOM     20  O   UNL     1      12.416 -48.270 -24.399  1.00  0.00    -0.356 OA
ATOM     21  C   UNL     1      14.093 -51.348 -23.845  1.00  0.00     0.020 A 
ATOM     22  C   UNL     1      13.388 -49.195 -24.617  1.00  0.00     0.169 A 
ATOM     23  C   UNL     1      15.153 -51.292 -24.780  1.00  0.00    -0.016 A 
ATOM     24  C   UNL     1      14.418 -49.101 -25.548  1.00  0.00     0.076 A 
ATOM     25  C   UNL     1      16.065 -52.492 -24.887  1.00  0.00     0.115 C 
ATOM     26  C   UNL     1      15.337 -50.162 -25.599  1.00  0.00     0.042 A 
ATOM     27  C   UNL     1      17.152 -52.357 -25.920  1.00  0.00     0.156 C 
ATOM     28  N   UNL     1      16.338 -50.133 -26.579  1.00  0.00    -0.378 N 
ATOM     29  C   UNL     1      17.523 -50.953 -26.333  1.00  0.00     0.189 C 
ATOM     30  O   UNL     1      17.790 -53.341 -26.303  1.00  0.00    -0.297 OA
ATOM     31  H   UNL     1      16.568 -49.193 -26.895  1.00  0.00     0.161 HD
ENDBRANCH  16  17
ENDBRANCH   1  16
TORSDOF 5
ENDMDL
MODEL 8
REMARK VINA RESULT:   -10.292      3.307      6.628
REMARK INTER + INTRA:         -13.869
REMARK INTER:                 -13.086
REMARK INTRA:                  -0.784
REMARK UNBOUND:                -0.569
REMARK SMILES O=C1CNc2cc3onc(CC[C@H]4CC[N@H+](Cc5ccccc5)CC4)c3cc2C1
REMARK SMILES IDX 12 1 13 2 15 3 16 4 14 5 24 6 25 7 17 9 18 10 19 11 23 12
REMARK SMILES IDX 20 13 22 14 21 15 11 16 10 17 9 18 26 19 8 20 27 21 7 22
REMARK SMILES IDX 28 23 6 24 29 25 5 26 2 27 4 28 3 29 1 30
REMARK H PARENT 16 8 4 31
ROOT
ATOM      1  C   UNL     1      14.130 -51.976 -26.063  1.00  0.00     0.010 C 
ENDROOT
BRANCH   1   2
ATOM      2  C   UNL     1      12.866 -52.496 -25.347  1.00  0.00     0.000 C 
ATOM      3  C   UNL     1      11.606 -52.516 -23.149  1.00  0.00     0.262 C 
ATOM      4  N   UNL     1      11.510 -54.020 -23.244  1.00  0.00    -0.331 N 
ATOM      5  C   UNL     1      12.852 -52.032 -23.882  1.00  0.00     0.065 C 
ATOM      6  C   UNL     1      11.481 -54.499 -24.675  1.00  0.00     0.262 C 
ATOM      7  C   UNL     1      12.734 -54.024 -25.399  1.00  0.00     0.065 C 
ATOM      8  H   UNL     1      12.353 -54.406 -22.802  1.00  0.00     0.348 HD
BRANCH   4   9
ATOM      9  C   UNL     1      10.338 -54.579 -22.461  1.00  0.00     0.299 C 
BRANCH   9  10
ATOM     10  C   UNL     1      10.293 -56.082 -22.462  1.00  0.00     0.006 A 
ATOM     11  C   UNL     1       9.264 -56.763 -23.133  1.00  0.00     0.009 A 
ATOM     12  C   UNL     1      11.286 -56.826 -21.808  1.00  0.00     0.009 A 
ATOM     13  C   UNL     1       9.237 -58.158 -23.155  1.00  0.00     0.001 A 
ATOM     14  C   UNL     1      11.255 -58.221 -21.833  1.00  0.00     0.001 A 
ATOM     15  C   UNL     1      10.233 -58.885 -22.507  1.00  0.00     0.000 A 
ENDBRANCH   9  10
ENDBRANCH   4   9
ENDBRANCH   1   2
BRANCH   1  16
ATOM     16  C   UNL     1      15.025 -51.034 -25.242  1.00  0.00     0.061 C 
BRANCH  16  17
ATOM     17  C   UNL     1      14.871 -49.596 -25.599  1.00  0.00     0.091 A 
ATOM     18  N   UNL     1      15.692 -49.040 -26.505  1.00  0.00    -0.084 NA
ATOM     19  C   UNL     1      13.938 -48.653 -25.096  1.00  0.00     0.045 A 
ATOM     20  O   UNL     1      15.305 -47.713 -26.597  1.00  0.00    -0.356 OA
ATOM     21  C   UNL     1      12.890 -48.629 -24.164  1.00  0.00     0.020 A 
ATOM     22  C   UNL     1      14.260 -47.484 -25.757  1.00  0.00     0.169 A 
ATOM     23  C   UNL     1      12.200 -47.414 -23.943  1.00  0.00    -0.016 A 
ATOM     24  C   UNL     1      13.606 -46.270 -25.571  1.00  0.00     0.076 A 
ATOM     25  C   UNL     1      11.117 -47.397 -22.890  1.00  0.00     0.115 C 
ATOM     26  C   UNL     1      12.530 -46.253 -24.668  1.00  0.00     0.042 A 
ATOM     27  C   UNL     1      10.449 -46.060 -22.706  1.00  0.00     0.156 C 
ATOM     28  N   UNL     1      11.902 -45.029 -24.400  1.00  0.00    -0.378 N 
ATOM     29  C   UNL     1      10.545 -45.090 -23.859  1.00  0.00     0.189 C 
ATOM     30  O   UNL     1       9.750 -45.830 -21.716  1.00  0.00    -0.297 OA
ATOM     31  H   UNL     1      11.996 -44.352 -25.154  1.00  0.00     0.161 HD
ENDBRANCH  16  17
ENDBRANCH   1  16
TORSDOF 5
ENDMDL
MODEL 9
REMARK VINA RESULT:   -10.148      3.585      9.053
REMARK INTER + INTRA:         -13.684
REMARK INTER:                 -13.800
REMARK INTRA:                   0.116
REMARK UNBOUND:                -0.569
REMARK SMILES O=C1CNc2cc3onc(CC[C@H]4CC[N@H+](Cc5ccccc5)CC4)c3cc2C1
REMARK SMILES IDX 12 1 13 2 15 3 16 4 14 5 24 6 25 7 17 9 18 10 19 11 23 12
REMARK SMILES IDX 20 13 22 14 21 15 11 16 10 17 9 18 26 19 8 20 27 21 7 22
REMARK SMILES IDX 28 23 6 24 29 25 5 26 2 27 4 28 3 29 1 30
REMARK H PARENT 16 8 4 31
ROOT
ATOM      1  C   UNL     1      10.652 -60.019 -22.144  1.00  0.00     0.010 C 
ENDROOT
BRANCH   1   2
ATOM      2  C   UNL     1      10.616 -58.557 -22.639  1.00  0.00     0.000 C 
ATOM      3  C   UNL     1      11.362 -56.192 -22.126  1.00  0.00     0.262 C 
ATOM      4  N   UNL     1       9.941 -55.723 -22.328  1.00  0.00    -0.331 N 
ATOM      5  C   UNL     1      11.365 -57.643 -21.658  1.00  0.00     0.065 C 
ATOM      6  C   UNL     1       9.195 -56.583 -23.318  1.00  0.00     0.262 C 
ATOM      7  C   UNL     1       9.189 -58.029 -22.840  1.00  0.00     0.065 C 
ATOM      8  H   UNL     1       9.464 -55.804 -21.422  1.00  0.00     0.348 HD
BRANCH   4   9
ATOM      9  C   UNL     1       9.860 -54.259 -22.711  1.00  0.00     0.299 C 
BRANCH   9  10
ATOM     10  C   UNL     1      11.021 -53.806 -23.553  1.00  0.00     0.006 A 
ATOM     11  C   UNL     1      11.446 -54.571 -24.652  1.00  0.00     0.009 A 
ATOM     12  C   UNL     1      11.685 -52.604 -23.266  1.00  0.00     0.009 A 
ATOM     13  C   UNL     1      12.505 -54.137 -25.448  1.00  0.00     0.001 A 
ATOM     14  C   UNL     1      12.745 -52.174 -24.065  1.00  0.00     0.001 A 
ATOM     15  C   UNL     1      13.152 -52.938 -25.156  1.00  0.00     0.000 A 
ENDBRANCH   9  10
ENDBRANCH   4   9
ENDBRANCH   1   2
BRANCH   1  16
ATOM     16  C   UNL     1       9.286 -60.709 -21.997  1.00  0.00     0.061 C 
BRANCH  16  17
ATOM     17  C   UNL     1       8.876 -61.492 -23.197  1.00  0.00     0.091 A 
ATOM     18  N   UNL     1       8.003 -62.505 -23.068  1.00  0.00    -0.084 NA
ATOM     19  C   UNL     1       9.293 -61.333 -24.543  1.00  0.00     0.045 A 
ATOM     20  O   UNL     1       7.847 -63.029 -24.342  1.00  0.00    -0.356 OA
ATOM     21  C   UNL     1      10.159 -60.501 -25.268  1.00  0.00     0.020 A 
ATOM     22  C   UNL     1       8.615 -62.329 -25.219  1.00  0.00     0.169 A 
ATOM     23  C   UNL     1      10.300 -60.710 -26.660  1.00  0.00    -0.016 A 
ATOM     24  C   UNL     1       8.724 -62.566 -26.586  1.00  0.00     0.076 A 
ATOM     25  C   UNL     1      11.285 -59.843 -27.409  1.00  0.00     0.115 C 
ATOM     26  C   UNL     1       9.560 -61.709 -27.321  1.00  0.00     0.042 A 
ATOM     27  C   UNL     1      11.387 -60.145 -28.880  1.00  0.00     0.156 C 
ATOM     28  N   UNL     1       9.752 -61.970 -28.684  1.00  0.00    -0.378 N 
ATOM     29  C   UNL     1      10.212 -60.855 -29.509  1.00  0.00     0.189 C 
ATOM     30  O   UNL     1      12.326 -59.713 -29.554  1.00  0.00    -0.297 OA
ATOM     31  H   UNL     1       8.984 -62.485 -29.109  1.00  0.00     0.161 HD
ENDBRANCH  16  17
ENDBRANCH   1  16
TORSDOF 5
ENDMDL
