MODEL 1
REMARK VINA RESULT:   -10.913      0.000      0.000
REMARK INTER + INTRA:         -16.672
REMARK INTER:                 -15.697
REMARK INTRA:                  -0.974
REMARK UNBOUND:                -0.974
REMARK SMILES COc1cc(/C=C/c2nnc(-c3ccc(OC(F)(F)F)cc3)o2)ccc1O
REMARK SMILES IDX 8 1 9 2 10 3 11 4 23 5 7 6 6 7 5 8 3 9 4 10 26 11 25 12
REMARK SMILES IDX 24 13 2 14 1 15 27 16 12 18 13 19 22 20 14 21 21 22 15 23
REMARK SMILES IDX 16 24 17 25 18 26 19 27 20 28
REMARK H PARENT 27 17
ROOT
ATOM      1  C   UNL     1      11.715 -59.147 -23.717  1.00  0.00     0.241 A 
ATOM      2  N   UNL     1      11.953 -59.372 -22.434  1.00  0.00    -0.108 NA
ATOM      3  N   UNL     1      11.681 -58.212 -21.742  1.00  0.00    -0.107 NA
ATOM      4  C   UNL     1      11.291 -57.331 -22.636  1.00  0.00     0.248 A 
ATOM      5  O   UNL     1      11.284 -57.844 -23.904  1.00  0.00    -0.417 OA
ENDROOT
BRANCH   1   6
ATOM      6  C   UNL     1      11.874 -60.092 -24.767  1.00  0.00     0.071 C 
BRANCH   6   7
ATOM      7  C   UNL     1      10.818 -60.642 -25.388  1.00  0.00     0.014 C 
BRANCH   7   8
ATOM      8  C   UNL     1       9.712 -61.300 -24.675  1.00  0.00    -0.022 A 
ATOM      9  C   UNL     1       7.372 -61.266 -23.991  1.00  0.00     0.161 A 
ATOM     10  C   UNL     1       8.460 -60.665 -24.634  1.00  0.00     0.058 A 
ATOM     11  C   UNL     1       7.548 -62.523 -23.398  1.00  0.00     0.157 A 
ATOM     12  C   UNL     1       8.781 -63.173 -23.444  1.00  0.00     0.051 A 
ATOM     13  C   UNL     1       9.859 -62.562 -24.086  1.00  0.00     0.012 A 
BRANCH   9  14
ATOM     14  O   UNL     1       6.119 -60.722 -23.892  1.00  0.00    -0.493 OA
ATOM     15  C   UNL     1       5.969 -59.553 -23.099  1.00  0.00     0.278 C 
ENDBRANCH   9  14
BRANCH  11  16
ATOM     16  O   UNL     1       6.490 -63.120 -22.768  1.00  0.00    -0.504 OA
ATOM     17  H   UNL     1       6.809 -63.878 -22.254  1.00  0.00     0.293 HD
ENDBRANCH  11  16
ENDBRANCH   7   8
ENDBRANCH   6   7
ENDBRANCH   1   6
BRANCH   4  18
ATOM     18  C   UNL     1      10.880 -55.944 -22.469  1.00  0.00     0.039 A 
ATOM     19  C   UNL     1      10.356 -55.190 -23.526  1.00  0.00     0.017 A 
ATOM     20  C   UNL     1      11.008 -55.327 -21.216  1.00  0.00     0.017 A 
ATOM     21  C   UNL     1       9.973 -53.859 -23.330  1.00  0.00     0.047 A 
ATOM     22  C   UNL     1      10.623 -53.993 -21.020  1.00  0.00     0.047 A 
ATOM     23  C   UNL     1      10.102 -53.252 -22.078  1.00  0.00     0.129 A 
BRANCH  23  24
ATOM     24  O   UNL     1       9.688 -51.951 -22.036  1.00  0.00    -0.406 OA
BRANCH  24  25
ATOM     25  C   UNL     1      10.681 -50.940 -22.057  1.00  0.00     0.573 C 
ATOM     26  F   UNL     1      11.516 -51.054 -21.003  1.00  0.00    -0.132 F 
ATOM     27  F   UNL     1      11.410 -51.074 -23.187  1.00  0.00    -0.132 F 
ATOM     28  F   UNL     1      10.123 -49.711 -22.061  1.00  0.00    -0.132 F 
ENDBRANCH  24  25
ENDBRANCH  23  24
ENDBRANCH   4  18
TORSDOF 8
ENDMDL
MODEL 2
REMARK VINA RESULT:   -10.820      1.752      2.051
REMARK INTER + INTRA:         -16.538
REMARK INTER:                 -15.768
REMARK INTRA:                  -0.770
REMARK UNBOUND:                -0.974
REMARK SMILES COc1cc(/C=C/c2nnc(-c3ccc(OC(F)(F)F)cc3)o2)ccc1O
REMARK SMILES IDX 8 1 9 2 10 3 11 4 23 5 7 6 6 7 5 8 3 9 4 10 26 11 25 12
REMARK SMILES IDX 24 13 2 14 1 15 27 16 12 18 13 19 22 20 14 21 21 22 15 23
REMARK SMILES IDX 16 24 17 25 18 26 19 27 20 28
REMARK H PARENT 27 17
ROOT
ATOM      1  C   UNL     1      11.001 -59.486 -22.825  1.00  0.00     0.241 A 
ATOM      2  N   UNL     1      11.901 -59.201 -23.755  1.00  0.00    -0.108 NA
ATOM      3  N   UNL     1      11.969 -57.830 -23.874  1.00  0.00    -0.107 NA
ATOM      4  C   UNL     1      11.106 -57.341 -23.011  1.00  0.00     0.248 A 
ATOM      5  O   UNL     1      10.456 -58.320 -22.312  1.00  0.00    -0.417 OA
ENDROOT
BRANCH   1   6
ATOM      6  C   UNL     1      10.631 -60.792 -22.402  1.00  0.00     0.071 C 
BRANCH   6   7
ATOM      7  C   UNL     1      10.693 -61.846 -23.232  1.00  0.00     0.014 C 
BRANCH   7   8
ATOM      8  C   UNL     1       9.504 -62.500 -23.799  1.00  0.00    -0.022 A 
ATOM      9  C   UNL     1       8.116 -62.950 -25.753  1.00  0.00     0.161 A 
ATOM     10  C   UNL     1       9.220 -62.325 -25.163  1.00  0.00     0.058 A 
ATOM     11  C   UNL     1       7.300 -63.768 -24.960  1.00  0.00     0.157 A 
ATOM     12  C   UNL     1       7.577 -63.965 -23.608  1.00  0.00     0.051 A 
ATOM     13  C   UNL     1       8.681 -63.334 -23.030  1.00  0.00     0.012 A 
BRANCH   9  14
ATOM     14  O   UNL     1       7.755 -62.833 -27.069  1.00  0.00    -0.493 OA
ATOM     15  C   UNL     1       8.750 -62.405 -27.989  1.00  0.00     0.278 C 
ENDBRANCH   9  14
BRANCH  11  16
ATOM     16  O   UNL     1       6.218 -64.386 -25.527  1.00  0.00    -0.504 OA
ATOM     17  H   UNL     1       5.506 -63.739 -25.645  1.00  0.00     0.293 HD
ENDBRANCH  11  16
ENDBRANCH   7   8
ENDBRANCH   6   7
ENDBRANCH   1   6
BRANCH   4  18
ATOM     18  C   UNL     1      10.762 -55.958 -22.711  1.00  0.00     0.039 A 
ATOM     19  C   UNL     1      10.182 -55.112 -23.663  1.00  0.00     0.017 A 
ATOM     20  C   UNL     1      11.013 -55.441 -21.432  1.00  0.00     0.017 A 
ATOM     21  C   UNL     1       9.865 -53.787 -23.341  1.00  0.00     0.047 A 
ATOM     22  C   UNL     1      10.696 -54.115 -21.109  1.00  0.00     0.047 A 
ATOM     23  C   UNL     1      10.119 -53.280 -22.063  1.00  0.00     0.129 A 
BRANCH  23  24
ATOM     24  O   UNL     1       9.758 -51.974 -21.893  1.00  0.00    -0.406 OA
BRANCH  24  25
ATOM     25  C   UNL     1      10.779 -50.993 -21.953  1.00  0.00     0.573 C 
ATOM     26  F   UNL     1      11.626 -51.106 -20.909  1.00  0.00    -0.132 F 
ATOM     27  F   UNL     1      11.487 -51.175 -23.089  1.00  0.00    -0.132 F 
ATOM     28  F   UNL     1      10.256 -49.749 -21.979  1.00  0.00    -0.132 F 
ENDBRANCH  24  25
ENDBRANCH  23  24
ENDBRANCH   4  18
TORSDOF 8
ENDMDL
MODEL 3
REMARK VINA RESULT:   -10.697      1.881      2.502
REMARK INTER + INTRA:         -16.362
REMARK INTER:                 -15.813
REMARK INTRA:                  -0.549
REMARK UNBOUND:                -0.974
REMARK SMILES COc1cc(/C=C/c2nnc(-c3ccc(OC(F)(F)F)cc3)o2)ccc1O
REMARK SMILES IDX 8 1 9 2 10 3 11 4 23 5 7 6 6 7 5 8 3 9 4 10 26 11 25 12
REMARK SMILES IDX 24 13 2 14 1 15 27 16 12 18 13 19 22 20 14 21 21 22 15 23
REMARK SMILES IDX 16 24 17 25 18 26 19 27 20 28
REMARK H PARENT 27 17
ROOT
ATOM      1  C   UNL     1      10.686 -57.556 -22.638  1.00  0.00     0.241 A 
ATOM      2  N   UNL     1       9.627 -57.279 -23.385  1.00  0.00    -0.108 NA
ATOM      3  N   UNL     1       9.562 -55.911 -23.537  1.00  0.00    -0.107 NA
ATOM      4  C   UNL     1      10.583 -55.416 -22.874  1.00  0.00     0.248 A 
ATOM      5  O   UNL     1      11.340 -56.388 -22.281  1.00  0.00    -0.417 OA
ENDROOT
BRANCH   1   6
ATOM      6  C   UNL     1      11.106 -58.857 -22.247  1.00  0.00     0.071 C 
BRANCH   6   7
ATOM      7  C   UNL     1      10.280 -59.705 -21.613  1.00  0.00     0.014 C 
BRANCH   7   8
ATOM      8  C   UNL     1       9.287 -60.538 -22.308  1.00  0.00    -0.022 A 
ATOM      9  C   UNL     1       7.092 -60.712 -23.356  1.00  0.00     0.161 A 
ATOM     10  C   UNL     1       8.057 -59.966 -22.670  1.00  0.00     0.058 A 
ATOM     11  C   UNL     1       7.380 -62.042 -23.690  1.00  0.00     0.157 A 
ATOM     12  C   UNL     1       8.603 -62.619 -23.352  1.00  0.00     0.051 A 
ATOM     13  C   UNL     1       9.556 -61.865 -22.665  1.00  0.00     0.012 A 
BRANCH   9  14
ATOM     14  O   UNL     1       5.864 -60.244 -23.743  1.00  0.00    -0.493 OA
ATOM     15  C   UNL     1       5.283 -59.203 -22.970  1.00  0.00     0.278 C 
ENDBRANCH   9  14
BRANCH  11  16
ATOM     16  O   UNL     1       6.444 -62.780 -24.363  1.00  0.00    -0.504 OA
ATOM     17  H   UNL     1       6.893 -63.426 -24.930  1.00  0.00     0.293 HD
ENDBRANCH  11  16
ENDBRANCH   7   8
ENDBRANCH   6   7
ENDBRANCH   1   6
BRANCH   4  18
ATOM     18  C   UNL     1      11.003 -54.033 -22.695  1.00  0.00     0.039 A 
ATOM     19  C   UNL     1      10.682 -53.301 -21.545  1.00  0.00     0.017 A 
ATOM     20  C   UNL     1      11.752 -53.398 -23.696  1.00  0.00     0.017 A 
ATOM     21  C   UNL     1      11.100 -51.973 -21.406  1.00  0.00     0.047 A 
ATOM     22  C   UNL     1      12.172 -52.067 -23.556  1.00  0.00     0.047 A 
ATOM     23  C   UNL     1      11.847 -51.348 -22.408  1.00  0.00     0.129 A 
BRANCH  23  24
ATOM     24  O   UNL     1      12.185 -50.053 -22.135  1.00  0.00    -0.406 OA
BRANCH  24  25
ATOM     25  C   UNL     1      11.523 -49.030 -22.859  1.00  0.00     0.573 C 
ATOM     26  F   UNL     1      12.004 -48.932 -24.115  1.00  0.00    -0.132 F 
ATOM     27  F   UNL     1      10.209 -49.337 -22.935  1.00  0.00    -0.132 F 
ATOM     28  F   UNL     1      11.640 -47.839 -22.234  1.00  0.00    -0.132 F 
ENDBRANCH  24  25
ENDBRANCH  23  24
ENDBRANCH   4  18
TORSDOF 8
ENDMDL
MODEL 4
REMARK VINA RESULT:   -10.133      2.302      3.373
REMARK INTER + INTRA:         -15.551
REMARK INTER:                 -14.710
REMARK INTRA:                  -0.841
REMARK UNBOUND:                -0.974
REMARK SMILES COc1cc(/C=C/c2nnc(-c3ccc(OC(F)(F)F)cc3)o2)ccc1O
REMARK SMILES IDX 8 1 9 2 10 3 11 4 23 5 7 6 6 7 5 8 3 9 4 10 26 11 25 12
REMARK SMILES IDX 24 13 2 14 1 15 27 16 12 18 13 19 22 20 14 21 21 22 15 23
REMARK SMILES IDX 16 24 17 25 18 26 19 27 20 28
REMARK H PARENT 27 17
ROOT
ATOM      1  C   UNL     1      10.919 -56.703 -22.361  1.00  0.00     0.241 A 
ATOM      2  N   UNL     1      10.217 -56.572 -23.476  1.00  0.00    -0.108 NA
ATOM      3  N   UNL     1      10.217 -55.239 -23.824  1.00  0.00    -0.107 NA
ATOM      4  C   UNL     1      10.918 -54.617 -22.902  1.00  0.00     0.248 A 
ATOM      5  O   UNL     1      11.395 -55.470 -21.947  1.00  0.00    -0.417 OA
ENDROOT
BRANCH   1   6
ATOM      6  C   UNL     1      11.160 -57.923 -21.672  1.00  0.00     0.071 C 
BRANCH   6   7
ATOM      7  C   UNL     1      11.661 -59.000 -22.297  1.00  0.00     0.014 C 
BRANCH   7   8
ATOM      8  C   UNL     1      10.850 -60.167 -22.675  1.00  0.00    -0.022 A 
ATOM      9  C   UNL     1       9.966 -61.596 -24.443  1.00  0.00     0.161 A 
ATOM     10  C   UNL     1      10.705 -60.479 -24.037  1.00  0.00     0.058 A 
ATOM     11  C   UNL     1       9.380 -62.409 -23.464  1.00  0.00     0.157 A 
ATOM     12  C   UNL     1       9.528 -62.122 -22.108  1.00  0.00     0.051 A 
ATOM     13  C   UNL     1      10.266 -61.004 -21.716  1.00  0.00     0.012 A 
BRANCH   9  14
ATOM     14  O   UNL     1       9.762 -61.974 -25.743  1.00  0.00    -0.493 OA
ATOM     15  C   UNL     1       9.880 -60.975 -26.746  1.00  0.00     0.278 C 
ENDBRANCH   9  14
BRANCH  11  16
ATOM     16  O   UNL     1       8.656 -63.505 -23.850  1.00  0.00    -0.504 OA
ATOM     17  H   UNL     1       8.943 -64.276 -23.336  1.00  0.00     0.293 HD
ENDBRANCH  11  16
ENDBRANCH   7   8
ENDBRANCH   6   7
ENDBRANCH   1   6
BRANCH   4  18
ATOM     18  C   UNL     1      11.244 -53.203 -22.767  1.00  0.00     0.039 A 
ATOM     19  C   UNL     1      10.783 -52.434 -21.692  1.00  0.00     0.017 A 
ATOM     20  C   UNL     1      12.042 -52.578 -23.735  1.00  0.00     0.017 A 
ATOM     21  C   UNL     1      11.114 -51.078 -21.593  1.00  0.00     0.047 A 
ATOM     22  C   UNL     1      12.373 -51.219 -23.636  1.00  0.00     0.047 A 
ATOM     23  C   UNL     1      11.911 -50.462 -22.562  1.00  0.00     0.129 A 
BRANCH  23  24
ATOM     24  O   UNL     1      12.152 -49.137 -22.336  1.00  0.00    -0.406 OA
BRANCH  24  25
ATOM     25  C   UNL     1      11.314 -48.192 -22.980  1.00  0.00     0.573 C 
ATOM     26  F   UNL     1      10.052 -48.656 -23.089  1.00  0.00    -0.132 F 
ATOM     27  F   UNL     1      11.284 -47.064 -22.236  1.00  0.00    -0.132 F 
ATOM     28  F   UNL     1      11.788 -47.876 -24.203  1.00  0.00    -0.132 F 
ENDBRANCH  24  25
ENDBRANCH  23  24
ENDBRANCH   4  18
TORSDOF 8
ENDMDL
MODEL 5
REMARK VINA RESULT:   -10.097      5.256      9.737
REMARK INTER + INTRA:         -15.499
REMARK INTER:                 -14.671
REMARK INTRA:                  -0.828
REMARK UNBOUND:                -0.974
REMARK SMILES COc1cc(/C=C/c2nnc(-c3ccc(OC(F)(F)F)cc3)o2)ccc1O
REMARK SMILES IDX 8 1 9 2 10 3 11 4 23 5 7 6 6 7 5 8 3 9 4 10 26 11 25 12
REMARK SMILES IDX 24 13 2 14 1 15 27 16 12 18 13 19 22 20 14 21 21 22 15 23
REMARK SMILES IDX 16 24 17 25 18 26 19 27 20 28
REMARK H PARENT 27 17
ROOT
ATOM      1  C   UNL     1      10.350 -55.568 -22.852  1.00  0.00     0.241 A 
ATOM      2  N   UNL     1      11.357 -56.208 -22.276  1.00  0.00    -0.108 NA
ATOM      3  N   UNL     1      11.054 -57.552 -22.262  1.00  0.00    -0.107 NA
ATOM      4  C   UNL     1       9.874 -57.670 -22.829  1.00  0.00     0.248 A 
ATOM      5  O   UNL     1       9.365 -56.466 -23.229  1.00  0.00    -0.417 OA
ENDROOT
BRANCH   1   6
ATOM      6  C   UNL     1      10.271 -54.164 -23.061  1.00  0.00     0.071 C 
BRANCH   6   7
ATOM      7  C   UNL     1      11.316 -53.355 -22.822  1.00  0.00     0.014 C 
BRANCH   7   8
ATOM      8  C   UNL     1      12.097 -52.707 -23.887  1.00  0.00    -0.022 A 
ATOM      9  C   UNL     1      13.166 -50.689 -24.741  1.00  0.00     0.161 A 
ATOM     10  C   UNL     1      12.402 -51.342 -23.767  1.00  0.00     0.058 A 
ATOM     11  C   UNL     1      13.636 -51.426 -25.836  1.00  0.00     0.157 A 
ATOM     12  C   UNL     1      13.354 -52.785 -25.961  1.00  0.00     0.051 A 
ATOM     13  C   UNL     1      12.589 -53.425 -24.984  1.00  0.00     0.012 A 
BRANCH   9  14
ATOM     14  O   UNL     1      13.507 -49.362 -24.715  1.00  0.00    -0.493 OA
ATOM     15  C   UNL     1      13.889 -48.805 -23.466  1.00  0.00     0.278 C 
ENDBRANCH   9  14
BRANCH  11  16
ATOM     16  O   UNL     1      14.385 -50.797 -26.794  1.00  0.00    -0.504 OA
ATOM     17  H   UNL     1      15.049 -50.236 -26.364  1.00  0.00     0.293 HD
ENDBRANCH  11  16
ENDBRANCH   7   8
ENDBRANCH   6   7
ENDBRANCH   1   6
BRANCH   4  18
ATOM     18  C   UNL     1       9.070 -58.859 -23.081  1.00  0.00     0.039 A 
ATOM     19  C   UNL     1       7.793 -58.786 -23.650  1.00  0.00     0.017 A 
ATOM     20  C   UNL     1       9.575 -60.124 -22.748  1.00  0.00     0.017 A 
ATOM     21  C   UNL     1       7.047 -59.948 -23.877  1.00  0.00     0.047 A 
ATOM     22  C   UNL     1       8.828 -61.288 -22.976  1.00  0.00     0.047 A 
ATOM     23  C   UNL     1       7.558 -61.205 -23.544  1.00  0.00     0.129 A 
BRANCH  23  24
ATOM     24  O   UNL     1       6.721 -62.247 -23.822  1.00  0.00    -0.406 OA
BRANCH  24  25
ATOM     25  C   UNL     1       7.197 -63.265 -24.687  1.00  0.00     0.573 C 
ATOM     26  F   UNL     1       8.075 -62.771 -25.584  1.00  0.00    -0.132 F 
ATOM     27  F   UNL     1       7.834 -64.198 -23.945  1.00  0.00    -0.132 F 
ATOM     28  F   UNL     1       6.178 -63.868 -25.335  1.00  0.00    -0.132 F 
ENDBRANCH  24  25
ENDBRANCH  23  24
ENDBRANCH   4  18
TORSDOF 8
ENDMDL
MODEL 6
REMARK VINA RESULT:   -10.016      2.479      3.514
REMARK INTER + INTRA:         -15.382
REMARK INTER:                 -14.527
REMARK INTRA:                  -0.855
REMARK UNBOUND:                -0.974
REMARK SMILES COc1cc(/C=C/c2nnc(-c3ccc(OC(F)(F)F)cc3)o2)ccc1O
REMARK SMILES IDX 8 1 9 2 10 3 11 4 23 5 7 6 6 7 5 8 3 9 4 10 26 11 25 12
REMARK SMILES IDX 24 13 2 14 1 15 27 16 12 18 13 19 22 20 14 21 21 22 15 23
REMARK SMILES IDX 16 24 17 25 18 26 19 27 20 28
REMARK H PARENT 27 17
ROOT
ATOM      1  C   UNL     1      10.745 -57.666 -22.710  1.00  0.00     0.241 A 
ATOM      2  N   UNL     1       9.625 -57.395 -23.365  1.00  0.00    -0.108 NA
ATOM      3  N   UNL     1       9.518 -56.026 -23.474  1.00  0.00    -0.107 NA
ATOM      4  C   UNL     1      10.577 -55.524 -22.879  1.00  0.00     0.248 A 
ATOM      5  O   UNL     1      11.399 -56.492 -22.373  1.00  0.00    -0.417 OA
ENDROOT
BRANCH   1   6
ATOM      6  C   UNL     1      11.223 -58.966 -22.388  1.00  0.00     0.071 C 
BRANCH   6   7
ATOM      7  C   UNL     1      11.773 -59.765 -23.316  1.00  0.00     0.014 C 
BRANCH   7   8
ATOM      8  C   UNL     1      11.042 -60.267 -24.489  1.00  0.00    -0.022 A 
ATOM      9  C   UNL     1      10.642 -60.149 -26.892  1.00  0.00     0.161 A 
ATOM     10  C   UNL     1      11.293 -59.686 -25.743  1.00  0.00     0.058 A 
ATOM     11  C   UNL     1       9.741 -61.215 -26.774  1.00  0.00     0.157 A 
ATOM     12  C   UNL     1       9.493 -61.813 -25.539  1.00  0.00     0.051 A 
ATOM     13  C   UNL     1      10.147 -61.340 -24.399  1.00  0.00     0.012 A 
BRANCH   9  14
ATOM     14  O   UNL     1      10.815 -59.641 -28.152  1.00  0.00    -0.493 OA
ATOM     15  C   UNL     1      12.020 -58.940 -28.421  1.00  0.00     0.278 C 
ENDBRANCH   9  14
BRANCH  11  16
ATOM     16  O   UNL     1       9.100 -61.677 -27.891  1.00  0.00    -0.504 OA
ATOM     17  H   UNL     1       8.238 -61.239 -27.970  1.00  0.00     0.293 HD
ENDBRANCH  11  16
ENDBRANCH   7   8
ENDBRANCH   6   7
ENDBRANCH   1   6
BRANCH   4  18
ATOM     18  C   UNL     1      10.979 -54.136 -22.694  1.00  0.00     0.039 A 
ATOM     19  C   UNL     1      10.648 -53.413 -21.542  1.00  0.00     0.017 A 
ATOM     20  C   UNL     1      11.720 -53.488 -23.693  1.00  0.00     0.017 A 
ATOM     21  C   UNL     1      11.050 -52.080 -21.398  1.00  0.00     0.047 A 
ATOM     22  C   UNL     1      12.123 -52.153 -23.548  1.00  0.00     0.047 A 
ATOM     23  C   UNL     1      11.789 -51.442 -22.397  1.00  0.00     0.129 A 
BRANCH  23  24
ATOM     24  O   UNL     1      12.111 -50.144 -22.120  1.00  0.00    -0.406 OA
BRANCH  24  25
ATOM     25  C   UNL     1      11.416 -49.126 -22.821  1.00  0.00     0.573 C 
ATOM     26  F   UNL     1      11.872 -49.007 -24.085  1.00  0.00    -0.132 F 
ATOM     27  F   UNL     1      10.107 -49.456 -22.875  1.00  0.00    -0.132 F 
ATOM     28  F   UNL     1      11.524 -47.939 -22.187  1.00  0.00    -0.132 F 
ENDBRANCH  24  25
ENDBRANCH  23  24
ENDBRANCH   4  18
TORSDOF 8
ENDMDL
MODEL 7
REMARK VINA RESULT:    -9.990      2.856      4.197
REMARK INTER + INTRA:         -15.344
REMARK INTER:                 -14.886
REMARK INTRA:                  -0.458
REMARK UNBOUND:                -0.974
REMARK SMILES COc1cc(/C=C/c2nnc(-c3ccc(OC(F)(F)F)cc3)o2)ccc1O
REMARK SMILES IDX 8 1 9 2 10 3 11 4 23 5 7 6 6 7 5 8 3 9 4 10 26 11 25 12
REMARK SMILES IDX 24 13 2 14 1 15 27 16 12 18 13 19 22 20 14 21 21 22 15 23
REMARK SMILES IDX 16 24 17 25 18 26 19 27 20 28
REMARK H PARENT 27 17
ROOT
ATOM      1  C   UNL     1       8.412 -61.928 -22.988  1.00  0.00     0.241 A 
ATOM      2  N   UNL     1       9.398 -62.365 -22.220  1.00  0.00    -0.108 NA
ATOM      3  N   UNL     1      10.172 -61.282 -21.864  1.00  0.00    -0.107 NA
ATOM      4  C   UNL     1       9.622 -60.233 -22.434  1.00  0.00     0.248 A 
ATOM      5  O   UNL     1       8.509 -60.556 -23.158  1.00  0.00    -0.417 OA
ENDROOT
BRANCH   1   6
ATOM      6  C   UNL     1       7.392 -62.732 -23.567  1.00  0.00     0.071 C 
BRANCH   6   7
ATOM      7  C   UNL     1       7.632 -63.522 -24.626  1.00  0.00     0.014 C 
BRANCH   7   8
ATOM      8  C   UNL     1       8.106 -63.015 -25.922  1.00  0.00    -0.022 A 
ATOM      9  C   UNL     1       9.554 -61.483 -27.148  1.00  0.00     0.161 A 
ATOM     10  C   UNL     1       9.053 -61.978 -25.939  1.00  0.00     0.058 A 
ATOM     11  C   UNL     1       9.104 -62.049 -28.348  1.00  0.00     0.157 A 
ATOM     12  C   UNL     1       8.176 -63.090 -28.347  1.00  0.00     0.051 A 
ATOM     13  C   UNL     1       7.682 -63.574 -27.134  1.00  0.00     0.012 A 
BRANCH   9  14
ATOM     14  O   UNL     1      10.471 -60.472 -27.265  1.00  0.00    -0.493 OA
ATOM     15  C   UNL     1      11.037 -59.955 -26.069  1.00  0.00     0.278 C 
ENDBRANCH   9  14
BRANCH  11  16
ATOM     16  O   UNL     1       9.588 -61.574 -29.536  1.00  0.00    -0.504 OA
ATOM     17  H   UNL     1       8.849 -61.263 -30.082  1.00  0.00     0.293 HD
ENDBRANCH  11  16
ENDBRANCH   7   8
ENDBRANCH   6   7
ENDBRANCH   1   6
BRANCH   4  18
ATOM     18  C   UNL     1      10.019 -58.831 -22.398  1.00  0.00     0.039 A 
ATOM     19  C   UNL     1      11.090 -58.381 -21.617  1.00  0.00     0.017 A 
ATOM     20  C   UNL     1       9.317 -57.890 -23.164  1.00  0.00     0.017 A 
ATOM     21  C   UNL     1      11.443 -57.027 -21.605  1.00  0.00     0.047 A 
ATOM     22  C   UNL     1       9.671 -56.534 -23.153  1.00  0.00     0.047 A 
ATOM     23  C   UNL     1      10.738 -56.095 -22.373  1.00  0.00     0.129 A 
BRANCH  23  24
ATOM     24  O   UNL     1      11.195 -54.813 -22.263  1.00  0.00    -0.406 OA
BRANCH  24  25
ATOM     25  C   UNL     1      10.631 -53.994 -21.252  1.00  0.00     0.573 C 
ATOM     26  F   UNL     1      11.013 -52.708 -21.398  1.00  0.00    -0.132 F 
ATOM     27  F   UNL     1       9.285 -54.046 -21.355  1.00  0.00    -0.132 F 
ATOM     28  F   UNL     1      10.976 -54.432 -20.023  1.00  0.00    -0.132 F 
ENDBRANCH  24  25
ENDBRANCH  23  24
ENDBRANCH   4  18
TORSDOF 8
ENDMDL
MODEL 8
REMARK VINA RESULT:    -9.972      3.292      5.168
REMARK INTER + INTRA:         -15.318
REMARK INTER:                 -14.556
REMARK INTRA:                  -0.762
REMARK UNBOUND:                -0.974
REMARK SMILES COc1cc(/C=C/c2nnc(-c3ccc(OC(F)(F)F)cc3)o2)ccc1O
REMARK SMILES IDX 8 1 9 2 10 3 11 4 23 5 7 6 6 7 5 8 3 9 4 10 26 11 25 12
REMARK SMILES IDX 24 13 2 14 1 15 27 16 12 18 13 19 22 20 14 21 21 22 15 23
REMARK SMILES IDX 16 24 17 25 18 26 19 27 20 28
REMARK H PARENT 27 17
ROOT
ATOM      1  C   UNL     1      10.779 -54.548 -22.528  1.00  0.00     0.241 A 
ATOM      2  N   UNL     1       9.697 -54.293 -21.808  1.00  0.00    -0.108 NA
ATOM      3  N   UNL     1       9.568 -52.925 -21.705  1.00  0.00    -0.107 NA
ATOM      4  C   UNL     1      10.580 -52.408 -22.367  1.00  0.00     0.248 A 
ATOM      5  O   UNL     1      11.388 -53.365 -22.915  1.00  0.00    -0.417 OA
ENDROOT
BRANCH   1   6
ATOM      6  C   UNL     1      11.264 -55.841 -22.865  1.00  0.00     0.071 C 
BRANCH   6   7
ATOM      7  C   UNL     1      11.283 -56.843 -21.972  1.00  0.00     0.014 C 
BRANCH   7   8
ATOM      8  C   UNL     1      11.248 -58.264 -22.348  1.00  0.00    -0.022 A 
ATOM      9  C   UNL     1      11.971 -60.027 -23.871  1.00  0.00     0.161 A 
ATOM     10  C   UNL     1      11.953 -58.681 -23.490  1.00  0.00     0.058 A 
ATOM     11  C   UNL     1      11.283 -60.960 -23.085  1.00  0.00     0.157 A 
ATOM     12  C   UNL     1      10.592 -60.565 -21.941  1.00  0.00     0.051 A 
ATOM     13  C   UNL     1      10.579 -59.219 -21.572  1.00  0.00     0.012 A 
BRANCH   9  14
ATOM     14  O   UNL     1      12.622 -60.524 -24.969  1.00  0.00    -0.493 OA
ATOM     15  C   UNL     1      12.234 -60.032 -26.244  1.00  0.00     0.278 C 
ENDBRANCH   9  14
BRANCH  11  16
ATOM     16  O   UNL     1      11.296 -62.280 -23.448  1.00  0.00    -0.504 OA
ATOM     17  H   UNL     1      11.515 -62.351 -24.390  1.00  0.00     0.293 HD
ENDBRANCH  11  16
ENDBRANCH   7   8
ENDBRANCH   6   7
ENDBRANCH   1   6
BRANCH   4  18
ATOM     18  C   UNL     1      10.942 -51.014 -22.587  1.00  0.00     0.039 A 
ATOM     19  C   UNL     1      12.187 -50.642 -23.108  1.00  0.00     0.017 A 
ATOM     20  C   UNL     1      10.026 -50.000 -22.273  1.00  0.00     0.017 A 
ATOM     21  C   UNL     1      12.502 -49.293 -23.306  1.00  0.00     0.047 A 
ATOM     22  C   UNL     1      10.342 -48.649 -22.471  1.00  0.00     0.047 A 
ATOM     23  C   UNL     1      11.584 -48.289 -22.991  1.00  0.00     0.129 A 
BRANCH  23  24
ATOM     24  O   UNL     1      12.027 -47.021 -23.237  1.00  0.00    -0.406 OA
BRANCH  24  25
ATOM     25  C   UNL     1      11.302 -46.236 -24.168  1.00  0.00     0.573 C 
ATOM     26  F   UNL     1      10.690 -47.011 -25.087  1.00  0.00    -0.132 F 
ATOM     27  F   UNL     1      10.352 -45.544 -23.502  1.00  0.00    -0.132 F 
ATOM     28  F   UNL     1      12.109 -45.349 -24.789  1.00  0.00    -0.132 F 
ENDBRANCH  24  25
ENDBRANCH  23  24
ENDBRANCH   4  18
TORSDOF 8
ENDMDL
MODEL 9
REMARK VINA RESULT:    -9.954      4.881     10.082
REMARK INTER + INTRA:         -15.293
REMARK INTER:                 -14.487
REMARK INTRA:                  -0.805
REMARK UNBOUND:                -0.974
REMARK SMILES COc1cc(/C=C/c2nnc(-c3ccc(OC(F)(F)F)cc3)o2)ccc1O
REMARK SMILES IDX 8 1 9 2 10 3 11 4 23 5 7 6 6 7 5 8 3 9 4 10 26 11 25 12
REMARK SMILES IDX 24 13 2 14 1 15 27 16 12 18 13 19 22 20 14 21 21 22 15 23
REMARK SMILES IDX 16 24 17 25 18 26 19 27 20 28
REMARK H PARENT 27 17
ROOT
ATOM      1  C   UNL     1      10.551 -54.071 -22.652  1.00  0.00     0.241 A 
ATOM      2  N   UNL     1      11.285 -54.279 -23.734  1.00  0.00    -0.108 NA
ATOM      3  N   UNL     1      11.362 -55.640 -23.940  1.00  0.00    -0.107 NA
ATOM      4  C   UNL     1      10.671 -56.199 -22.971  1.00  0.00     0.248 A 
ATOM      5  O   UNL     1      10.129 -55.278 -22.119  1.00  0.00    -0.417 OA
ENDROOT
BRANCH   1   6
ATOM      6  C   UNL     1      10.232 -52.801 -22.098  1.00  0.00     0.071 C 
BRANCH   6   7
ATOM      7  C   UNL     1      11.186 -51.925 -21.745  1.00  0.00     0.014 C 
BRANCH   7   8
ATOM      8  C   UNL     1      11.707 -50.888 -22.648  1.00  0.00    -0.022 A 
ATOM      9  C   UNL     1      11.603 -48.584 -23.442  1.00  0.00     0.161 A 
ATOM     10  C   UNL     1      11.123 -49.611 -22.622  1.00  0.00     0.058 A 
ATOM     11  C   UNL     1      12.690 -48.847 -24.286  1.00  0.00     0.157 A 
ATOM     12  C   UNL     1      13.291 -50.105 -24.312  1.00  0.00     0.051 A 
ATOM     13  C   UNL     1      12.802 -51.122 -23.490  1.00  0.00     0.012 A 
BRANCH   9  14
ATOM     14  O   UNL     1      11.094 -47.314 -23.492  1.00  0.00    -0.493 OA
ATOM     15  C   UNL     1      10.658 -46.730 -22.273  1.00  0.00     0.278 C 
ENDBRANCH   9  14
BRANCH  11  16
ATOM     16  O   UNL     1      13.169 -47.850 -25.092  1.00  0.00    -0.504 OA
ATOM     17  H   UNL     1      14.118 -47.984 -25.238  1.00  0.00     0.293 HD
ENDBRANCH  11  16
ENDBRANCH   7   8
ENDBRANCH   6   7
ENDBRANCH   1   6
BRANCH   4  18
ATOM     18  C   UNL     1      10.415 -57.606 -22.694  1.00  0.00     0.039 A 
ATOM     19  C   UNL     1      11.229 -58.356 -21.836  1.00  0.00     0.017 A 
ATOM     20  C   UNL     1       9.324 -58.246 -23.299  1.00  0.00     0.017 A 
ATOM     21  C   UNL     1      10.954 -59.706 -21.594  1.00  0.00     0.047 A 
ATOM     22  C   UNL     1       9.049 -59.599 -23.055  1.00  0.00     0.047 A 
ATOM     23  C   UNL     1       9.864 -60.337 -22.199  1.00  0.00     0.129 A 
BRANCH  23  24
ATOM     24  O   UNL     1       9.719 -61.654 -21.870  1.00  0.00    -0.406 OA
BRANCH  24  25
ATOM     25  C   UNL     1      10.077 -62.622 -22.841  1.00  0.00     0.573 C 
ATOM     26  F   UNL     1      11.286 -62.350 -23.377  1.00  0.00    -0.132 F 
ATOM     27  F   UNL     1      10.147 -63.831 -22.241  1.00  0.00    -0.132 F 
ATOM     28  F   UNL     1       9.153 -62.693 -23.822  1.00  0.00    -0.132 F 
ENDBRANCH  24  25
ENDBRANCH  23  24
ENDBRANCH   4  18
TORSDOF 8
ENDMDL
