MODEL 1
REMARK VINA RESULT:   -12.334      0.000      0.000
REMARK INTER + INTRA:         -16.777
REMARK INTER:                 -15.940
REMARK INTRA:                  -0.837
REMARK UNBOUND:                -0.837
REMARK SMILES COc1ccccc1C(=O)N1Cc2cc(NC(=O)c3ccccc3)ccc2CC1=O
REMARK SMILES IDX 9 1 10 2 8 3 3 4 4 5 5 6 7 7 6 8 2 9 1 10 11 11 12 12 29 13
REMARK SMILES IDX 13 14 28 15 14 16 27 17 15 18 26 19 25 20 30 21 16 22 17 23
REMARK SMILES IDX 18 25 19 26 20 27 24 28 21 29 23 30 22 31
REMARK H PARENT 16 24
ROOT
ATOM      1  C   UNL     1       7.520 -61.939 -24.591  1.00  0.00     0.264 C 
ATOM      2  O   UNL     1       6.360 -62.297 -24.390  1.00  0.00    -0.268 OA
ENDROOT
BRANCH   1   3
ATOM      3  C   UNL     1       8.094 -62.207 -25.930  1.00  0.00     0.082 A 
ATOM      4  C   UNL     1       8.981 -61.316 -26.547  1.00  0.00     0.131 A 
ATOM      5  C   UNL     1       9.527 -61.624 -27.795  1.00  0.00     0.047 A 
ATOM      6  C   UNL     1       9.148 -62.796 -28.451  1.00  0.00     0.004 A 
ATOM      7  C   UNL     1       7.696 -63.368 -26.604  1.00  0.00     0.018 A 
ATOM      8  C   UNL     1       8.227 -63.662 -27.862  1.00  0.00     0.001 A 
BRANCH   4   9
ATOM      9  O   UNL     1       9.385 -60.155 -25.943  1.00  0.00    -0.496 OA
ATOM     10  C   UNL     1      10.812 -60.042 -25.996  1.00  0.00     0.278 C 
ENDBRANCH   4   9
ENDBRANCH   1   3
BRANCH   1  11
ATOM     11  N   UNL     1       8.349 -61.421 -23.607  1.00  0.00    -0.274 N 
ATOM     12  C   UNL     1       8.058 -60.149 -22.958  1.00  0.00     0.164 C 
ATOM     13  C   UNL     1       9.334 -62.242 -23.079  1.00  0.00     0.234 C 
ATOM     14  C   UNL     1       9.318 -59.371 -22.693  1.00  0.00    -0.022 A 
ATOM     15  C   UNL     1      10.399 -61.576 -22.219  1.00  0.00     0.136 C 
ATOM     16  C   UNL     1       9.340 -57.969 -22.752  1.00  0.00     0.032 A 
ATOM     17  C   UNL     1      10.470 -60.077 -22.334  1.00  0.00    -0.033 A 
ATOM     18  C   UNL     1      10.510 -57.266 -22.465  1.00  0.00     0.041 A 
ATOM     19  C   UNL     1      11.641 -59.377 -22.038  1.00  0.00     0.007 A 
ATOM     20  C   UNL     1      11.662 -57.981 -22.113  1.00  0.00     0.026 A 
ATOM     21  O   UNL     1       9.349 -63.469 -23.208  1.00  0.00    -0.274 OA
BRANCH  18  22
ATOM     22  N   UNL     1      10.617 -55.860 -22.516  1.00  0.00    -0.322 N 
ATOM     23  C   UNL     1      11.236 -55.100 -23.494  1.00  0.00     0.255 C 
ATOM     24  H   UNL     1      10.125 -55.356 -21.790  1.00  0.00     0.170 HD
ATOM     25  O   UNL     1      11.738 -55.510 -24.534  1.00  0.00    -0.269 OA
BRANCH  23  26
ATOM     26  C   UNL     1      11.231 -53.632 -23.239  1.00  0.00     0.040 A 
ATOM     27  C   UNL     1      10.259 -53.107 -22.379  1.00  0.00     0.014 A 
ATOM     28  C   UNL     1      12.150 -52.774 -23.856  1.00  0.00     0.014 A 
ATOM     29  C   UNL     1      10.225 -51.736 -22.115  1.00  0.00     0.001 A 
ATOM     30  C   UNL     1      12.111 -51.403 -23.590  1.00  0.00     0.001 A 
ATOM     31  C   UNL     1      11.153 -50.888 -22.717  1.00  0.00     0.000 A 
ENDBRANCH  23  26
ENDBRANCH  18  22
ENDBRANCH   1  11
TORSDOF 5
ENDMDL
MODEL 2
REMARK VINA RESULT:   -12.290      1.323      2.230
REMARK INTER + INTRA:         -16.720
REMARK INTER:                 -16.410
REMARK INTRA:                  -0.310
REMARK UNBOUND:                -0.837
REMARK SMILES COc1ccccc1C(=O)N1Cc2cc(NC(=O)c3ccccc3)ccc2CC1=O
REMARK SMILES IDX 9 1 10 2 8 3 3 4 4 5 5 6 7 7 6 8 2 9 1 10 11 11 12 12 29 13
REMARK SMILES IDX 13 14 28 15 14 16 27 17 15 18 26 19 25 20 30 21 16 22 17 23
REMARK SMILES IDX 18 25 19 26 20 27 24 28 21 29 23 30 22 31
REMARK H PARENT 16 24
ROOT
ATOM      1  C   UNL     1       9.514 -61.348 -25.305  1.00  0.00     0.264 C 
ATOM      2  O   UNL     1       8.838 -62.352 -25.527  1.00  0.00    -0.268 OA
ENDROOT
BRANCH   1   3
ATOM      3  C   UNL     1      10.396 -60.865 -26.393  1.00  0.00     0.082 A 
ATOM      4  C   UNL     1      10.039 -60.982 -27.742  1.00  0.00     0.131 A 
ATOM      5  C   UNL     1      10.884 -60.482 -28.735  1.00  0.00     0.047 A 
ATOM      6  C   UNL     1      12.108 -59.912 -28.385  1.00  0.00     0.004 A 
ATOM      7  C   UNL     1      11.638 -60.317 -26.048  1.00  0.00     0.018 A 
ATOM      8  C   UNL     1      12.490 -59.837 -27.045  1.00  0.00     0.001 A 
BRANCH   4   9
ATOM      9  O   UNL     1       8.848 -61.531 -28.136  1.00  0.00    -0.496 OA
ATOM     10  C   UNL     1       9.073 -62.792 -28.777  1.00  0.00     0.278 C 
ENDBRANCH   4   9
ENDBRANCH   1   3
BRANCH   1  11
ATOM     11  N   UNL     1       9.590 -60.727 -24.067  1.00  0.00    -0.274 N 
ATOM     12  C   UNL     1       9.002 -59.413 -23.837  1.00  0.00     0.164 C 
ATOM     13  C   UNL     1      10.028 -61.472 -22.984  1.00  0.00     0.234 C 
ATOM     14  C   UNL     1       9.864 -58.580 -22.928  1.00  0.00    -0.022 A 
ATOM     15  C   UNL     1      10.371 -60.707 -21.713  1.00  0.00     0.136 C 
ATOM     16  C   UNL     1       9.957 -57.189 -23.078  1.00  0.00     0.032 A 
ATOM     17  C   UNL     1      10.540 -59.222 -21.886  1.00  0.00    -0.033 A 
ATOM     18  C   UNL     1      10.732 -56.432 -22.199  1.00  0.00     0.041 A 
ATOM     19  C   UNL     1      11.311 -58.467 -20.999  1.00  0.00     0.007 A 
ATOM     20  C   UNL     1      11.412 -57.083 -21.162  1.00  0.00     0.026 A 
ATOM     21  O   UNL     1      10.083 -62.705 -22.974  1.00  0.00    -0.274 OA
BRANCH  18  22
ATOM     22  N   UNL     1      10.888 -55.033 -22.293  1.00  0.00    -0.322 N 
ATOM     23  C   UNL     1      11.208 -54.297 -23.421  1.00  0.00     0.255 C 
ATOM     24  H   UNL     1      10.674 -54.510 -21.453  1.00  0.00     0.170 HD
ATOM     25  O   UNL     1      11.339 -54.723 -24.563  1.00  0.00    -0.269 OA
BRANCH  23  26
ATOM     26  C   UNL     1      11.358 -52.832 -23.189  1.00  0.00     0.040 A 
ATOM     27  C   UNL     1      10.463 -52.200 -22.317  1.00  0.00     0.014 A 
ATOM     28  C   UNL     1      12.345 -52.081 -23.839  1.00  0.00     0.014 A 
ATOM     29  C   UNL     1      10.574 -50.829 -22.075  1.00  0.00     0.001 A 
ATOM     30  C   UNL     1      12.450 -50.710 -23.594  1.00  0.00     0.001 A 
ATOM     31  C   UNL     1      11.569 -50.088 -22.710  1.00  0.00     0.000 A 
ENDBRANCH  23  26
ENDBRANCH  18  22
ENDBRANCH   1  11
TORSDOF 5
ENDMDL
MODEL 3
REMARK VINA RESULT:   -11.778      1.561      2.118
REMARK INTER + INTRA:         -16.057
REMARK INTER:                 -16.117
REMARK INTRA:                   0.059
REMARK UNBOUND:                -0.837
REMARK SMILES COc1ccccc1C(=O)N1Cc2cc(NC(=O)c3ccccc3)ccc2CC1=O
REMARK SMILES IDX 9 1 10 2 8 3 3 4 4 5 5 6 7 7 6 8 2 9 1 10 11 11 12 12 29 13
REMARK SMILES IDX 13 14 28 15 14 16 27 17 15 18 26 19 25 20 30 21 16 22 17 23
REMARK SMILES IDX 18 25 19 26 20 27 24 28 21 29 23 30 22 31
REMARK H PARENT 16 24
ROOT
ATOM      1  C   UNL     1       9.698 -61.400 -25.273  1.00  0.00     0.264 C 
ATOM      2  O   UNL     1       9.115 -62.459 -25.500  1.00  0.00    -0.268 OA
ENDROOT
BRANCH   1   3
ATOM      3  C   UNL     1      10.541 -60.839 -26.355  1.00  0.00     0.082 A 
ATOM      4  C   UNL     1      11.741 -60.168 -26.086  1.00  0.00     0.131 A 
ATOM      5  C   UNL     1      12.523 -59.686 -27.138  1.00  0.00     0.047 A 
ATOM      6  C   UNL     1      12.083 -59.827 -28.454  1.00  0.00     0.004 A 
ATOM      7  C   UNL     1      10.090 -60.954 -27.676  1.00  0.00     0.018 A 
ATOM      8  C   UNL     1      10.864 -60.450 -28.723  1.00  0.00     0.001 A 
BRANCH   4   9
ATOM      9  O   UNL     1      12.216 -60.008 -24.812  1.00  0.00    -0.496 OA
ATOM     10  C   UNL     1      13.436 -60.739 -24.645  1.00  0.00     0.278 C 
ENDBRANCH   4   9
ENDBRANCH   1   3
BRANCH   1  11
ATOM     11  N   UNL     1       9.712 -60.777 -24.033  1.00  0.00    -0.274 N 
ATOM     12  C   UNL     1       9.139 -59.450 -23.841  1.00  0.00     0.164 C 
ATOM     13  C   UNL     1      10.066 -61.528 -22.924  1.00  0.00     0.234 C 
ATOM     14  C   UNL     1       9.962 -58.634 -22.883  1.00  0.00    -0.022 A 
ATOM     15  C   UNL     1      10.347 -60.767 -21.636  1.00  0.00     0.136 C 
ATOM     16  C   UNL     1      10.094 -57.245 -23.029  1.00  0.00     0.032 A 
ATOM     17  C   UNL     1      10.559 -59.287 -21.800  1.00  0.00    -0.033 A 
ATOM     18  C   UNL     1      10.830 -56.502 -22.106  1.00  0.00     0.041 A 
ATOM     19  C   UNL     1      11.290 -58.546 -20.869  1.00  0.00     0.007 A 
ATOM     20  C   UNL     1      11.431 -57.164 -21.028  1.00  0.00     0.026 A 
ATOM     21  O   UNL     1      10.094 -62.762 -22.909  1.00  0.00    -0.274 OA
BRANCH  18  22
ATOM     22  N   UNL     1      11.022 -55.107 -22.191  1.00  0.00    -0.322 N 
ATOM     23  C   UNL     1      11.162 -54.348 -23.341  1.00  0.00     0.255 C 
ATOM     24  H   UNL     1      10.983 -54.604 -21.315  1.00  0.00     0.170 HD
ATOM     25  O   UNL     1      11.068 -54.742 -24.497  1.00  0.00    -0.269 OA
BRANCH  23  26
ATOM     26  C   UNL     1      11.409 -52.897 -23.104  1.00  0.00     0.040 A 
ATOM     27  C   UNL     1      10.702 -52.259 -22.078  1.00  0.00     0.014 A 
ATOM     28  C   UNL     1      12.301 -52.163 -23.896  1.00  0.00     0.014 A 
ATOM     29  C   UNL     1      10.908 -50.901 -21.826  1.00  0.00     0.001 A 
ATOM     30  C   UNL     1      12.502 -50.804 -23.641  1.00  0.00     0.001 A 
ATOM     31  C   UNL     1      11.810 -50.178 -22.605  1.00  0.00     0.000 A 
ENDBRANCH  23  26
ENDBRANCH  18  22
ENDBRANCH   1  11
TORSDOF 5
ENDMDL
MODEL 4
REMARK VINA RESULT:   -10.042      3.841     10.557
REMARK INTER + INTRA:         -13.814
REMARK INTER:                 -13.335
REMARK INTRA:                  -0.480
REMARK UNBOUND:                -0.837
REMARK SMILES COc1ccccc1C(=O)N1Cc2cc(NC(=O)c3ccccc3)ccc2CC1=O
REMARK SMILES IDX 9 1 10 2 8 3 3 4 4 5 5 6 7 7 6 8 2 9 1 10 11 11 12 12 29 13
REMARK SMILES IDX 13 14 28 15 14 16 27 17 15 18 26 19 25 20 30 21 16 22 17 23
REMARK SMILES IDX 18 25 19 26 20 27 24 28 21 29 23 30 22 31
REMARK H PARENT 16 24
ROOT
ATOM      1  C   UNL     1      13.725 -49.261 -24.598  1.00  0.00     0.264 C 
ATOM      2  O   UNL     1      13.489 -48.476 -25.515  1.00  0.00    -0.268 OA
ENDROOT
BRANCH   1   3
ATOM      3  C   UNL     1      15.046 -49.933 -24.598  1.00  0.00     0.082 A 
ATOM      4  C   UNL     1      15.300 -51.068 -25.378  1.00  0.00     0.131 A 
ATOM      5  C   UNL     1      16.569 -51.649 -25.376  1.00  0.00     0.047 A 
ATOM      6  C   UNL     1      17.571 -51.130 -24.555  1.00  0.00     0.004 A 
ATOM      7  C   UNL     1      16.046 -49.432 -23.754  1.00  0.00     0.018 A 
ATOM      8  C   UNL     1      17.308 -50.030 -23.738  1.00  0.00     0.001 A 
BRANCH   4   9
ATOM      9  O   UNL     1      14.351 -51.612 -26.202  1.00  0.00    -0.496 OA
ATOM     10  C   UNL     1      13.895 -52.862 -25.673  1.00  0.00     0.278 C 
ENDBRANCH   4   9
ENDBRANCH   1   3
BRANCH   1  11
ATOM     11  N   UNL     1      12.788 -49.644 -23.649  1.00  0.00    -0.274 N 
ATOM     12  C   UNL     1      12.994 -50.815 -22.806  1.00  0.00     0.164 C 
ATOM     13  C   UNL     1      11.761 -48.764 -23.347  1.00  0.00     0.234 C 
ATOM     14  C   UNL     1      11.705 -51.556 -22.577  1.00  0.00    -0.022 A 
ATOM     15  C   UNL     1      10.602 -49.311 -22.526  1.00  0.00     0.136 C 
ATOM     16  C   UNL     1      11.674 -52.952 -22.447  1.00  0.00     0.032 A 
ATOM     17  C   UNL     1      10.528 -50.811 -22.444  1.00  0.00    -0.033 A 
ATOM     18  C   UNL     1      10.472 -53.615 -22.196  1.00  0.00     0.041 A 
ATOM     19  C   UNL     1       9.324 -51.470 -22.185  1.00  0.00     0.007 A 
ATOM     20  C   UNL     1       9.297 -52.863 -22.071  1.00  0.00     0.026 A 
ATOM     21  O   UNL     1      11.773 -47.565 -23.642  1.00  0.00    -0.274 OA
BRANCH  18  22
ATOM     22  N   UNL     1      10.357 -55.015 -22.068  1.00  0.00    -0.322 N 
ATOM     23  C   UNL     1      10.775 -55.978 -22.971  1.00  0.00     0.255 C 
ATOM     24  H   UNL     1       9.990 -55.346 -21.186  1.00  0.00     0.170 HD
ATOM     25  O   UNL     1      11.391 -55.789 -24.013  1.00  0.00    -0.269 OA
BRANCH  23  26
ATOM     26  C   UNL     1      10.462 -57.380 -22.576  1.00  0.00     0.040 A 
ATOM     27  C   UNL     1      11.255 -57.991 -21.596  1.00  0.00     0.014 A 
ATOM     28  C   UNL     1       9.423 -58.100 -23.178  1.00  0.00     0.014 A 
ATOM     29  C   UNL     1      10.990 -59.303 -21.200  1.00  0.00     0.001 A 
ATOM     30  C   UNL     1       9.163 -59.414 -22.779  1.00  0.00     0.001 A 
ATOM     31  C   UNL     1       9.943 -60.011 -21.789  1.00  0.00     0.000 A 
ENDBRANCH  23  26
ENDBRANCH  18  22
ENDBRANCH   1  11
TORSDOF 5
ENDMDL
MODEL 5
REMARK VINA RESULT:    -9.985      4.176     11.034
REMARK INTER + INTRA:         -13.740
REMARK INTER:                 -13.405
REMARK INTRA:                  -0.335
REMARK UNBOUND:                -0.837
REMARK SMILES COc1ccccc1C(=O)N1Cc2cc(NC(=O)c3ccccc3)ccc2CC1=O
REMARK SMILES IDX 9 1 10 2 8 3 3 4 4 5 5 6 7 7 6 8 2 9 1 10 11 11 12 12 29 13
REMARK SMILES IDX 13 14 28 15 14 16 27 17 15 18 26 19 25 20 30 21 16 22 17 23
REMARK SMILES IDX 18 25 19 26 20 27 24 28 21 29 23 30 22 31
REMARK H PARENT 16 24
ROOT
ATOM      1  C   UNL     1      13.341 -48.321 -23.551  1.00  0.00     0.264 C 
ATOM      2  O   UNL     1      13.832 -47.263 -23.159  1.00  0.00    -0.268 OA
ENDROOT
BRANCH   1   3
ATOM      3  C   UNL     1      13.772 -48.822 -24.878  1.00  0.00     0.082 A 
ATOM      4  C   UNL     1      14.297 -47.969 -25.856  1.00  0.00     0.131 A 
ATOM      5  C   UNL     1      14.724 -48.488 -27.080  1.00  0.00     0.047 A 
ATOM      6  C   UNL     1      14.579 -49.849 -27.348  1.00  0.00     0.004 A 
ATOM      7  C   UNL     1      13.603 -50.183 -25.161  1.00  0.00     0.018 A 
ATOM      8  C   UNL     1      14.010 -50.695 -26.394  1.00  0.00     0.001 A 
BRANCH   4   9
ATOM      9  O   UNL     1      14.463 -46.627 -25.640  1.00  0.00    -0.496 OA
ATOM     10  C   UNL     1      15.120 -46.024 -26.760  1.00  0.00     0.278 C 
ENDBRANCH   4   9
ENDBRANCH   1   3
BRANCH   1  11
ATOM     11  N   UNL     1      12.326 -48.994 -22.888  1.00  0.00    -0.274 N 
ATOM     12  C   UNL     1      12.601 -50.167 -22.066  1.00  0.00     0.164 C 
ATOM     13  C   UNL     1      11.076 -48.400 -22.823  1.00  0.00     0.234 C 
ATOM     14  C   UNL     1      11.512 -51.196 -22.201  1.00  0.00    -0.022 A 
ATOM     15  C   UNL     1       9.921 -49.271 -22.346  1.00  0.00     0.136 C 
ATOM     16  C   UNL     1      11.789 -52.569 -22.137  1.00  0.00     0.032 A 
ATOM     17  C   UNL     1      10.194 -50.750 -22.344  1.00  0.00    -0.033 A 
ATOM     18  C   UNL     1      10.759 -53.505 -22.227  1.00  0.00     0.041 A 
ATOM     19  C   UNL     1       9.159 -51.684 -22.425  1.00  0.00     0.007 A 
ATOM     20  C   UNL     1       9.442 -53.052 -22.376  1.00  0.00     0.026 A 
ATOM     21  O   UNL     1      10.868 -47.207 -23.059  1.00  0.00    -0.274 OA
BRANCH  18  22
ATOM     22  N   UNL     1      10.958 -54.901 -22.186  1.00  0.00    -0.322 N 
ATOM     23  C   UNL     1      11.338 -55.726 -23.231  1.00  0.00     0.255 C 
ATOM     24  H   UNL     1      10.878 -55.329 -21.273  1.00  0.00     0.170 HD
ATOM     25  O   UNL     1      11.646 -55.379 -24.365  1.00  0.00    -0.269 OA
BRANCH  23  26
ATOM     26  C   UNL     1      11.411 -57.175 -22.888  1.00  0.00     0.040 A 
ATOM     27  C   UNL     1      11.798 -58.079 -23.885  1.00  0.00     0.014 A 
ATOM     28  C   UNL     1      11.076 -57.647 -21.612  1.00  0.00     0.014 A 
ATOM     29  C   UNL     1      11.879 -59.443 -23.599  1.00  0.00     0.001 A 
ATOM     30  C   UNL     1      11.157 -59.013 -21.332  1.00  0.00     0.001 A 
ATOM     31  C   UNL     1      11.563 -59.907 -22.323  1.00  0.00     0.000 A 
ENDBRANCH  23  26
ENDBRANCH  18  22
ENDBRANCH   1  11
TORSDOF 5
ENDMDL
MODEL 6
REMARK VINA RESULT:    -9.946      4.345     12.049
REMARK INTER + INTRA:         -13.691
REMARK INTER:                 -13.308
REMARK INTRA:                  -0.382
REMARK UNBOUND:                -0.837
REMARK SMILES COc1ccccc1C(=O)N1Cc2cc(NC(=O)c3ccccc3)ccc2CC1=O
REMARK SMILES IDX 9 1 10 2 8 3 3 4 4 5 5 6 7 7 6 8 2 9 1 10 11 11 12 12 29 13
REMARK SMILES IDX 13 14 28 15 14 16 27 17 15 18 26 19 25 20 30 21 16 22 17 23
REMARK SMILES IDX 18 25 19 26 20 27 24 28 21 29 23 30 22 31
REMARK H PARENT 16 24
ROOT
ATOM      1  C   UNL     1      13.028 -48.308 -22.263  1.00  0.00     0.264 C 
ATOM      2  O   UNL     1      13.634 -48.620 -21.238  1.00  0.00    -0.268 OA
ENDROOT
BRANCH   1   3
ATOM      3  C   UNL     1      12.363 -46.984 -22.285  1.00  0.00     0.082 A 
ATOM      4  C   UNL     1      13.089 -45.790 -22.202  1.00  0.00     0.131 A 
ATOM      5  C   UNL     1      12.426 -44.562 -22.263  1.00  0.00     0.047 A 
ATOM      6  C   UNL     1      11.035 -44.527 -22.353  1.00  0.00     0.004 A 
ATOM      7  C   UNL     1      10.965 -46.944 -22.348  1.00  0.00     0.018 A 
ATOM      8  C   UNL     1      10.303 -45.715 -22.386  1.00  0.00     0.001 A 
BRANCH   4   9
ATOM      9  O   UNL     1      14.456 -45.772 -22.116  1.00  0.00    -0.496 OA
ATOM     10  C   UNL     1      15.000 -44.864 -23.080  1.00  0.00     0.278 C 
ENDBRANCH   4   9
ENDBRANCH   1   3
BRANCH   1  11
ATOM     11  N   UNL     1      12.828 -49.167 -23.334  1.00  0.00    -0.274 N 
ATOM     12  C   UNL     1      11.715 -50.108 -23.357  1.00  0.00     0.164 C 
ATOM     13  C   UNL     1      13.562 -48.957 -24.491  1.00  0.00     0.234 C 
ATOM     14  C   UNL     1      12.120 -51.417 -23.979  1.00  0.00    -0.022 A 
ATOM     15  C   UNL     1      13.536 -50.064 -25.535  1.00  0.00     0.136 C 
ATOM     16  C   UNL     1      11.579 -52.635 -23.542  1.00  0.00     0.032 A 
ATOM     17  C   UNL     1      13.020 -51.391 -25.048  1.00  0.00    -0.033 A 
ATOM     18  C   UNL     1      11.940 -53.833 -24.158  1.00  0.00     0.041 A 
ATOM     19  C   UNL     1      13.378 -52.587 -25.674  1.00  0.00     0.007 A 
ATOM     20  C   UNL     1      12.847 -53.800 -25.224  1.00  0.00     0.026 A 
ATOM     21  O   UNL     1      14.163 -47.909 -24.743  1.00  0.00    -0.274 OA
BRANCH  18  22
ATOM     22  N   UNL     1      11.451 -55.098 -23.768  1.00  0.00    -0.322 N 
ATOM     23  C   UNL     1      11.064 -55.492 -22.499  1.00  0.00     0.255 C 
ATOM     24  H   UNL     1      11.308 -55.763 -24.516  1.00  0.00     0.170 HD
ATOM     25  O   UNL     1      11.002 -54.788 -21.497  1.00  0.00    -0.269 OA
BRANCH  23  26
ATOM     26  C   UNL     1      10.643 -56.918 -22.390  1.00  0.00     0.040 A 
ATOM     27  C   UNL     1      11.374 -57.768 -21.550  1.00  0.00     0.014 A 
ATOM     28  C   UNL     1       9.563 -57.425 -23.124  1.00  0.00     0.014 A 
ATOM     29  C   UNL     1      11.008 -59.109 -21.423  1.00  0.00     0.001 A 
ATOM     30  C   UNL     1       9.202 -58.768 -22.994  1.00  0.00     0.001 A 
ATOM     31  C   UNL     1       9.921 -59.605 -22.141  1.00  0.00     0.000 A 
ENDBRANCH  23  26
ENDBRANCH  18  22
ENDBRANCH   1  11
TORSDOF 5
ENDMDL
MODEL 7
REMARK VINA RESULT:    -9.919      2.273      4.292
REMARK INTER + INTRA:         -13.656
REMARK INTER:                 -12.651
REMARK INTRA:                  -1.005
REMARK UNBOUND:                -0.837
REMARK SMILES COc1ccccc1C(=O)N1Cc2cc(NC(=O)c3ccccc3)ccc2CC1=O
REMARK SMILES IDX 9 1 10 2 8 3 3 4 4 5 5 6 7 7 6 8 2 9 1 10 11 11 12 12 29 13
REMARK SMILES IDX 13 14 28 15 14 16 27 17 15 18 26 19 25 20 30 21 16 22 17 23
REMARK SMILES IDX 18 25 19 26 20 27 24 28 21 29 23 30 22 31
REMARK H PARENT 16 24
ROOT
ATOM      1  C   UNL     1       9.988 -59.715 -22.051  1.00  0.00     0.264 C 
ATOM      2  O   UNL     1      10.261 -60.474 -21.123  1.00  0.00    -0.268 OA
ENDROOT
BRANCH   1   3
ATOM      3  C   UNL     1       8.616 -59.783 -22.608  1.00  0.00     0.082 A 
ATOM      4  C   UNL     1       8.056 -60.987 -23.050  1.00  0.00     0.131 A 
ATOM      5  C   UNL     1       6.746 -61.014 -23.534  1.00  0.00     0.047 A 
ATOM      6  C   UNL     1       6.014 -59.830 -23.627  1.00  0.00     0.004 A 
ATOM      7  C   UNL     1       7.887 -58.592 -22.728  1.00  0.00     0.018 A 
ATOM      8  C   UNL     1       6.586 -58.619 -23.233  1.00  0.00     0.001 A 
BRANCH   4   9
ATOM      9  O   UNL     1       8.732 -62.176 -22.977  1.00  0.00    -0.496 OA
ATOM     10  C   UNL     1       8.743 -62.818 -24.257  1.00  0.00     0.278 C 
ENDBRANCH   4   9
ENDBRANCH   1   3
BRANCH   1  11
ATOM     11  N   UNL     1      10.917 -58.900 -22.682  1.00  0.00    -0.274 N 
ATOM     12  C   UNL     1      11.376 -57.657 -22.075  1.00  0.00     0.164 C 
ATOM     13  C   UNL     1      11.585 -59.400 -23.789  1.00  0.00     0.234 C 
ATOM     14  C   UNL     1      11.571 -56.584 -23.110  1.00  0.00    -0.022 A 
ATOM     15  C   UNL     1      12.379 -58.404 -24.623  1.00  0.00     0.136 C 
ATOM     16  C   UNL     1      11.321 -55.234 -22.824  1.00  0.00     0.032 A 
ATOM     17  C   UNL     1      12.061 -56.957 -24.366  1.00  0.00    -0.033 A 
ATOM     18  C   UNL     1      11.546 -54.250 -23.788  1.00  0.00     0.041 A 
ATOM     19  C   UNL     1      12.296 -55.975 -25.331  1.00  0.00     0.007 A 
ATOM     20  C   UNL     1      12.030 -54.633 -25.045  1.00  0.00     0.026 A 
ATOM     21  O   UNL     1      11.626 -60.597 -24.085  1.00  0.00    -0.274 OA
BRANCH  18  22
ATOM     22  N   UNL     1      11.305 -52.876 -23.581  1.00  0.00    -0.322 N 
ATOM     23  C   UNL     1      12.246 -51.881 -23.373  1.00  0.00     0.255 C 
ATOM     24  H   UNL     1      10.341 -52.582 -23.663  1.00  0.00     0.170 HD
ATOM     25  O   UNL     1      13.465 -52.004 -23.407  1.00  0.00    -0.269 OA
BRANCH  23  26
ATOM     26  C   UNL     1      11.676 -50.526 -23.128  1.00  0.00     0.040 A 
ATOM     27  C   UNL     1      12.416 -49.408 -23.534  1.00  0.00     0.014 A 
ATOM     28  C   UNL     1      10.445 -50.350 -22.484  1.00  0.00     0.014 A 
ATOM     29  C   UNL     1      11.913 -48.122 -23.323  1.00  0.00     0.001 A 
ATOM     30  C   UNL     1       9.947 -49.061 -22.273  1.00  0.00     0.001 A 
ATOM     31  C   UNL     1      10.678 -47.952 -22.697  1.00  0.00     0.000 A 
ENDBRANCH  23  26
ENDBRANCH  18  22
ENDBRANCH   1  11
TORSDOF 5
ENDMDL
MODEL 8
REMARK VINA RESULT:    -9.477      4.375     11.854
REMARK INTER + INTRA:         -13.084
REMARK INTER:                 -12.024
REMARK INTRA:                  -1.060
REMARK UNBOUND:                -0.837
REMARK SMILES COc1ccccc1C(=O)N1Cc2cc(NC(=O)c3ccccc3)ccc2CC1=O
REMARK SMILES IDX 9 1 10 2 8 3 3 4 4 5 5 6 7 7 6 8 2 9 1 10 11 11 12 12 29 13
REMARK SMILES IDX 13 14 28 15 14 16 27 17 15 18 26 19 25 20 30 21 16 22 17 23
REMARK SMILES IDX 18 25 19 26 20 27 24 28 21 29 23 30 22 31
REMARK H PARENT 16 24
ROOT
ATOM      1  C   UNL     1      13.683 -48.241 -24.566  1.00  0.00     0.264 C 
ATOM      2  O   UNL     1      13.375 -47.996 -25.731  1.00  0.00    -0.268 OA
ENDROOT
BRANCH   1   3
ATOM      3  C   UNL     1      15.119 -48.162 -24.209  1.00  0.00     0.082 A 
ATOM      4  C   UNL     1      15.621 -47.156 -23.374  1.00  0.00     0.131 A 
ATOM      5  C   UNL     1      16.975 -47.139 -23.034  1.00  0.00     0.047 A 
ATOM      6  C   UNL     1      17.839 -48.095 -23.570  1.00  0.00     0.004 A 
ATOM      7  C   UNL     1      15.995 -49.103 -24.766  1.00  0.00     0.018 A 
ATOM      8  C   UNL     1      17.353 -49.070 -24.441  1.00  0.00     0.001 A 
BRANCH   4   9
ATOM      9  O   UNL     1      14.813 -46.198 -22.822  1.00  0.00    -0.496 OA
ATOM     10  C   UNL     1      14.841 -46.292 -21.393  1.00  0.00     0.278 C 
ENDBRANCH   4   9
ENDBRANCH   1   3
BRANCH   1  11
ATOM     11  N   UNL     1      12.789 -48.704 -23.611  1.00  0.00    -0.274 N 
ATOM     12  C   UNL     1      13.089 -49.872 -22.791  1.00  0.00     0.164 C 
ATOM     13  C   UNL     1      11.707 -47.904 -23.281  1.00  0.00     0.234 C 
ATOM     14  C   UNL     1      11.859 -50.705 -22.558  1.00  0.00    -0.022 A 
ATOM     15  C   UNL     1      10.601 -48.546 -22.454  1.00  0.00     0.136 C 
ATOM     16  C   UNL     1      11.930 -52.102 -22.452  1.00  0.00     0.032 A 
ATOM     17  C   UNL     1      10.635 -50.049 -22.397  1.00  0.00    -0.033 A 
ATOM     18  C   UNL     1      10.781 -52.853 -22.197  1.00  0.00     0.041 A 
ATOM     19  C   UNL     1       9.484 -50.795 -22.133  1.00  0.00     0.007 A 
ATOM     20  C   UNL     1       9.558 -52.189 -22.044  1.00  0.00     0.026 A 
ATOM     21  O   UNL     1      11.630 -46.704 -23.555  1.00  0.00    -0.274 OA
BRANCH  18  22
ATOM     22  N   UNL     1      10.768 -54.260 -22.091  1.00  0.00    -0.322 N 
ATOM     23  C   UNL     1      10.328 -55.168 -23.038  1.00  0.00     0.255 C 
ATOM     24  H   UNL     1      11.190 -54.641 -21.255  1.00  0.00     0.170 HD
ATOM     25  O   UNL     1       9.941 -54.917 -24.173  1.00  0.00    -0.269 OA
BRANCH  23  26
ATOM     26  C   UNL     1      10.388 -56.594 -22.609  1.00  0.00     0.040 A 
ATOM     27  C   UNL     1      11.330 -56.961 -21.639  1.00  0.00     0.014 A 
ATOM     28  C   UNL     1       9.552 -57.568 -23.170  1.00  0.00     0.014 A 
ATOM     29  C   UNL     1      11.414 -58.287 -21.212  1.00  0.00     0.001 A 
ATOM     30  C   UNL     1       9.641 -58.894 -22.740  1.00  0.00     0.001 A 
ATOM     31  C   UNL     1      10.567 -59.250 -21.760  1.00  0.00     0.000 A 
ENDBRANCH  23  26
ENDBRANCH  18  22
ENDBRANCH   1  11
TORSDOF 5
ENDMDL
