MODEL 1
REMARK VINA RESULT:   -10.778      0.000      0.000
REMARK INTER + INTRA:         -17.841
REMARK INTER:                 -16.448
REMARK INTRA:                  -1.393
REMARK UNBOUND:                -1.393
REMARK SMILES CC[N@@H+](CCC(=O)N1CC[NH+](CCNc2c3c(nc4ccccc24)CCCC3)CC1)C1CCCCC1
REMARK SMILES IDX 10 1 11 2 29 3 9 4 8 5 6 6 30 7 7 8 12 10 13 11 14 12 15 14
REMARK SMILES IDX 16 15 24 16 17 17 28 18 23 19 19 20 18 21 25 22 27 23 22 24
REMARK SMILES IDX 20 25 26 26 21 27 5 28 4 29 3 30 2 32 1 33 31 34 32 35 36 36
REMARK SMILES IDX 33 37 35 38 34 39
REMARK H PARENT 11 9 14 13 3 31
ROOT
ATOM      1  C   UNL     1       9.248 -56.924 -23.286  1.00  0.00     0.284 C 
ATOM      2  N   UNL     1      10.259 -57.024 -22.165  1.00  0.00    -0.331 N 
ATOM      3  C   UNL     1      10.961 -58.365 -22.209  1.00  0.00     0.284 C 
ATOM      4  C   UNL     1       8.211 -58.051 -23.155  1.00  0.00     0.181 C 
ATOM      5  N   UNL     1       8.788 -59.398 -22.987  1.00  0.00    -0.331 N 
ATOM      6  C   UNL     1       7.937 -60.469 -23.255  1.00  0.00     0.228 C 
ATOM      7  C   UNL     1       9.939 -59.509 -22.074  1.00  0.00     0.181 C 
ATOM      8  O   UNL     1       6.864 -60.316 -23.844  1.00  0.00    -0.275 OA
ATOM      9  H   UNL     1       9.736 -56.966 -21.282  1.00  0.00     0.348 HD
ENDROOT
BRANCH   2  10
ATOM     10  C   UNL     1      11.196 -55.831 -22.091  1.00  0.00     0.283 C 
BRANCH  10  11
ATOM     11  C   UNL     1      10.456 -54.553 -21.622  1.00  0.00     0.174 C 
BRANCH  11  12
ATOM     12  N   UNL     1      10.159 -53.638 -22.747  1.00  0.00    -0.379 N 
ATOM     13  H   UNL     1       9.783 -54.178 -23.539  1.00  0.00     0.160 HD
BRANCH  12  14
ATOM     14  C   UNL     1      11.182 -52.816 -23.275  1.00  0.00     0.049 A 
ATOM     15  C   UNL     1      11.223 -51.483 -22.832  1.00  0.00    -0.003 A 
ATOM     16  C   UNL     1      12.122 -53.235 -24.255  1.00  0.00     0.024 A 
ATOM     17  C   UNL     1      12.326 -50.709 -23.180  1.00  0.00     0.046 A 
ATOM     18  C   UNL     1      10.183 -50.848 -21.944  1.00  0.00     0.039 C 
ATOM     19  C   UNL     1      12.038 -54.444 -24.991  1.00  0.00     0.012 A 
ATOM     20  C   UNL     1      13.205 -52.368 -24.523  1.00  0.00     0.073 A 
ATOM     21  N   UNL     1      13.342 -51.173 -23.932  1.00  0.00    -0.252 NA
ATOM     22  C   UNL     1      12.423 -49.306 -22.642  1.00  0.00     0.056 C 
ATOM     23  C   UNL     1       9.866 -49.415 -22.384  1.00  0.00     0.005 C 
ATOM     24  C   UNL     1      13.024 -54.810 -25.907  1.00  0.00     0.001 A 
ATOM     25  C   UNL     1      14.181 -52.758 -25.429  1.00  0.00     0.029 A 
ATOM     26  C   UNL     1      11.089 -48.578 -22.787  1.00  0.00     0.007 C 
ATOM     27  C   UNL     1      14.106 -53.970 -26.117  1.00  0.00     0.002 A 
ENDBRANCH  12  14
ENDBRANCH  11  12
ENDBRANCH  10  11
ENDBRANCH   2  10
BRANCH   6  28
ATOM     28  C   UNL     1       8.387 -61.869 -22.880  1.00  0.00     0.161 C 
BRANCH  28  29
ATOM     29  C   UNL     1       8.919 -62.686 -24.070  1.00  0.00     0.272 C 
BRANCH  29  30
ATOM     30  N   UNL     1       8.872 -61.991 -25.428  1.00  0.00    -0.332 N 
ATOM     31  H   UNL     1       8.248 -61.169 -25.302  1.00  0.00     0.348 HD
BRANCH  30  32
ATOM     32  C   UNL     1       8.154 -62.898 -26.442  1.00  0.00     0.258 C 
ATOM     33  C   UNL     1       7.110 -63.747 -25.740  1.00  0.00     0.071 C 
ENDBRANCH  30  32
BRANCH  30  34
ATOM     34  C   UNL     1      10.195 -61.470 -26.015  1.00  0.00     0.184 C 
ATOM     35  C   UNL     1      11.195 -61.042 -24.935  1.00  0.00     0.065 C 
ATOM     36  C   UNL     1       9.888 -60.267 -26.931  1.00  0.00     0.065 C 
ATOM     37  C   UNL     1      12.475 -60.471 -25.549  1.00  0.00     0.006 C 
ATOM     38  C   UNL     1      11.160 -59.689 -27.547  1.00  0.00     0.006 C 
ATOM     39  C   UNL     1      12.178 -59.302 -26.481  1.00  0.00     0.000 C 
ENDBRANCH  30  34
ENDBRANCH  29  30
ENDBRANCH  28  29
ENDBRANCH   6  28
TORSDOF 9
ENDMDL
MODEL 2
REMARK VINA RESULT:   -10.517      2.291      4.419
REMARK INTER + INTRA:         -17.443
REMARK INTER:                 -17.093
REMARK INTRA:                  -0.350
REMARK UNBOUND:                -1.393
REMARK SMILES CC[N@@H+](CCC(=O)N1CC[NH+](CCNc2c3c(nc4ccccc24)CCCC3)CC1)C1CCCCC1
REMARK SMILES IDX 10 1 11 2 29 3 9 4 8 5 6 6 30 7 7 8 12 10 13 11 14 12 15 14
REMARK SMILES IDX 16 15 24 16 17 17 28 18 23 19 19 20 18 21 25 22 27 23 22 24
REMARK SMILES IDX 20 25 26 26 21 27 5 28 4 29 3 30 2 32 1 33 31 34 32 35 36 36
REMARK SMILES IDX 33 37 35 38 34 39
REMARK H PARENT 11 9 14 13 3 31
ROOT
ATOM      1  C   UNL     1      11.403 -53.450 -23.495  1.00  0.00     0.284 C 
ATOM      2  N   UNL     1      10.442 -53.180 -22.359  1.00  0.00    -0.331 N 
ATOM      3  C   UNL     1      10.714 -54.123 -21.205  1.00  0.00     0.284 C 
ATOM      4  C   UNL     1      11.249 -54.904 -23.973  1.00  0.00     0.181 C 
ATOM      5  N   UNL     1      11.296 -55.911 -22.896  1.00  0.00    -0.331 N 
ATOM      6  C   UNL     1      11.555 -57.222 -23.292  1.00  0.00     0.228 C 
ATOM      7  C   UNL     1      10.559 -55.585 -21.662  1.00  0.00     0.181 C 
ATOM      8  O   UNL     1      11.978 -57.490 -24.419  1.00  0.00    -0.275 OA
ATOM      9  H   UNL     1       9.496 -53.371 -22.712  1.00  0.00     0.348 HD
ENDROOT
BRANCH   2  10
ATOM     10  C   UNL     1      10.373 -51.714 -21.965  1.00  0.00     0.283 C 
BRANCH  10  11
ATOM     11  C   UNL     1      11.726 -50.996 -22.202  1.00  0.00     0.174 C 
BRANCH  11  12
ATOM     12  N   UNL     1      11.582 -49.523 -22.188  1.00  0.00    -0.379 N 
ATOM     13  H   UNL     1      10.584 -49.276 -22.139  1.00  0.00     0.160 HD
BRANCH  12  14
ATOM     14  C   UNL     1      12.133 -48.752 -23.238  1.00  0.00     0.049 A 
ATOM     15  C   UNL     1      11.929 -47.363 -23.185  1.00  0.00    -0.003 A 
ATOM     16  C   UNL     1      12.822 -49.294 -24.356  1.00  0.00     0.024 A 
ATOM     17  C   UNL     1      12.618 -46.562 -24.090  1.00  0.00     0.046 A 
ATOM     18  C   UNL     1      11.060 -46.668 -22.167  1.00  0.00     0.039 C 
ATOM     19  C   UNL     1      12.867 -50.672 -24.688  1.00  0.00     0.012 A 
ATOM     20  C   UNL     1      13.492 -48.384 -25.205  1.00  0.00     0.073 A 
ATOM     21  N   UNL     1      13.457 -47.057 -25.020  1.00  0.00    -0.252 NA
ATOM     22  C   UNL     1      12.474 -45.066 -23.989  1.00  0.00     0.056 C 
ATOM     23  C   UNL     1      10.242 -45.539 -22.801  1.00  0.00     0.005 C 
ATOM     24  C   UNL     1      13.603 -51.136 -25.778  1.00  0.00     0.001 A 
ATOM     25  C   UNL     1      14.228 -48.869 -26.277  1.00  0.00     0.029 A 
ATOM     26  C   UNL     1      11.008 -44.676 -23.814  1.00  0.00     0.007 C 
ATOM     27  C   UNL     1      14.296 -50.233 -26.568  1.00  0.00     0.002 A 
ENDBRANCH  12  14
ENDBRANCH  11  12
ENDBRANCH  10  11
ENDBRANCH   2  10
BRANCH   6  28
ATOM     28  C   UNL     1      11.386 -58.336 -22.276  1.00  0.00     0.161 C 
BRANCH  28  29
ATOM     29  C   UNL     1      10.057 -59.097 -22.409  1.00  0.00     0.272 C 
BRANCH  29  30
ATOM     30  N   UNL     1       9.771 -59.703 -23.781  1.00  0.00    -0.332 N 
ATOM     31  H   UNL     1      10.579 -59.437 -24.380  1.00  0.00     0.348 HD
BRANCH  30  32
ATOM     32  C   UNL     1       8.551 -59.004 -24.406  1.00  0.00     0.258 C 
ATOM     33  C   UNL     1       7.844 -58.154 -23.366  1.00  0.00     0.071 C 
ENDBRANCH  30  32
BRANCH  30  34
ATOM     34  C   UNL     1       9.623 -61.231 -23.876  1.00  0.00     0.184 C 
ATOM     35  C   UNL     1       8.294 -61.660 -24.509  1.00  0.00     0.065 C 
ATOM     36  C   UNL     1       9.727 -61.826 -22.457  1.00  0.00     0.065 C 
ATOM     37  C   UNL     1       8.149 -63.183 -24.533  1.00  0.00     0.006 C 
ATOM     38  C   UNL     1       9.582 -63.346 -22.470  1.00  0.00     0.006 C 
ATOM     39  C   UNL     1       8.283 -63.782 -23.138  1.00  0.00     0.000 C 
ENDBRANCH  30  34
ENDBRANCH  29  30
ENDBRANCH  28  29
ENDBRANCH   6  28
TORSDOF 9
ENDMDL
MODEL 3
REMARK VINA RESULT:   -10.337      2.362     10.564
REMARK INTER + INTRA:         -17.168
REMARK INTER:                 -16.301
REMARK INTRA:                  -0.867
REMARK UNBOUND:                -1.393
REMARK SMILES CC[N@@H+](CCC(=O)N1CC[NH+](CCNc2c3c(nc4ccccc24)CCCC3)CC1)C1CCCCC1
REMARK SMILES IDX 10 1 11 2 29 3 9 4 8 5 6 6 30 7 7 8 12 10 13 11 14 12 15 14
REMARK SMILES IDX 16 15 24 16 17 17 28 18 23 19 19 20 18 21 25 22 27 23 22 24
REMARK SMILES IDX 20 25 26 26 21 27 5 28 4 29 3 30 2 32 1 33 31 34 32 35 36 36
REMARK SMILES IDX 33 37 35 38 34 39
REMARK H PARENT 11 9 14 13 3 31
ROOT
ATOM      1  C   UNL     1      10.738 -55.938 -21.621  1.00  0.00     0.284 C 
ATOM      2  N   UNL     1      10.510 -56.561 -22.980  1.00  0.00    -0.331 N 
ATOM      3  C   UNL     1      11.515 -56.027 -23.978  1.00  0.00     0.284 C 
ATOM      4  C   UNL     1      10.602 -54.409 -21.719  1.00  0.00     0.181 C 
ATOM      5  N   UNL     1      11.392 -53.792 -22.802  1.00  0.00    -0.331 N 
ATOM      6  C   UNL     1      11.616 -52.421 -22.693  1.00  0.00     0.228 C 
ATOM      7  C   UNL     1      11.392 -54.496 -24.096  1.00  0.00     0.181 C 
ATOM      8  O   UNL     1      11.405 -51.807 -21.644  1.00  0.00    -0.275 OA
ATOM      9  H   UNL     1       9.571 -56.277 -23.289  1.00  0.00     0.348 HD
ENDROOT
BRANCH   2  10
ATOM     10  C   UNL     1      10.415 -58.077 -22.939  1.00  0.00     0.283 C 
BRANCH  10  11
ATOM     11  C   UNL     1      11.817 -58.736 -22.955  1.00  0.00     0.174 C 
BRANCH  11  12
ATOM     12  N   UNL     1      11.741 -60.199 -23.161  1.00  0.00    -0.379 N 
ATOM     13  H   UNL     1      12.687 -60.573 -23.323  1.00  0.00     0.160 HD
BRANCH  12  14
ATOM     14  C   UNL     1      10.924 -60.725 -24.189  1.00  0.00     0.049 A 
ATOM     15  C   UNL     1       9.850 -61.542 -23.798  1.00  0.00    -0.003 A 
ATOM     16  C   UNL     1      11.153 -60.524 -25.578  1.00  0.00     0.024 A 
ATOM     17  C   UNL     1       8.919 -61.912 -24.763  1.00  0.00     0.046 A 
ATOM     18  C   UNL     1       9.598 -61.996 -22.382  1.00  0.00     0.039 C 
ATOM     19  C   UNL     1      12.332 -59.963 -26.130  1.00  0.00     0.012 A 
ATOM     20  C   UNL     1      10.133 -60.934 -26.466  1.00  0.00     0.073 A 
ATOM     21  N   UNL     1       9.008 -61.535 -26.053  1.00  0.00    -0.252 NA
ATOM     22  C   UNL     1       7.719 -62.717 -24.340  1.00  0.00     0.056 C 
ATOM     23  C   UNL     1       9.144 -63.459 -22.332  1.00  0.00     0.005 C 
ATOM     24  C   UNL     1      12.467 -59.756 -27.502  1.00  0.00     0.001 A 
ATOM     25  C   UNL     1      10.284 -60.707 -27.827  1.00  0.00     0.029 A 
ATOM     26  C   UNL     1       8.133 -63.860 -23.416  1.00  0.00     0.007 C 
ATOM     27  C   UNL     1      11.434 -60.117 -28.352  1.00  0.00     0.002 A 
ENDBRANCH  12  14
ENDBRANCH  11  12
ENDBRANCH  10  11
ENDBRANCH   2  10
BRANCH   6  28
ATOM     28  C   UNL     1      12.213 -51.685 -23.878  1.00  0.00     0.161 C 
BRANCH  28  29
ATOM     29  C   UNL     1      13.002 -50.424 -23.488  1.00  0.00     0.272 C 
BRANCH  29  30
ATOM     30  N   UNL     1      12.792 -49.204 -24.382  1.00  0.00    -0.332 N 
ATOM     31  H   UNL     1      12.035 -49.468 -25.045  1.00  0.00     0.348 HD
BRANCH  30  32
ATOM     32  C   UNL     1      14.041 -48.987 -25.254  1.00  0.00     0.258 C 
ATOM     33  C   UNL     1      14.078 -50.004 -26.380  1.00  0.00     0.071 C 
ENDBRANCH  30  32
BRANCH  30  34
ATOM     34  C   UNL     1      12.367 -47.886 -23.712  1.00  0.00     0.184 C 
ATOM     35  C   UNL     1      10.977 -47.968 -23.072  1.00  0.00     0.065 C 
ATOM     36  C   UNL     1      12.375 -46.768 -24.774  1.00  0.00     0.065 C 
ATOM     37  C   UNL     1      10.557 -46.626 -22.469  1.00  0.00     0.006 C 
ATOM     38  C   UNL     1      11.955 -45.424 -24.181  1.00  0.00     0.006 C 
ATOM     39  C   UNL     1      10.592 -45.509 -23.505  1.00  0.00     0.000 C 
ENDBRANCH  30  34
ENDBRANCH  29  30
ENDBRANCH  28  29
ENDBRANCH   6  28
TORSDOF 9
ENDMDL
MODEL 4
REMARK VINA RESULT:   -10.125      2.496      9.775
REMARK INTER + INTRA:         -16.845
REMARK INTER:                 -15.825
REMARK INTRA:                  -1.019
REMARK UNBOUND:                -1.393
REMARK SMILES CC[N@@H+](CCC(=O)N1CC[NH+](CCNc2c3c(nc4ccccc24)CCCC3)CC1)C1CCCCC1
REMARK SMILES IDX 10 1 11 2 29 3 9 4 8 5 6 6 30 7 7 8 12 10 13 11 14 12 15 14
REMARK SMILES IDX 16 15 24 16 17 17 28 18 23 19 19 20 18 21 25 22 27 23 22 24
REMARK SMILES IDX 20 25 26 26 21 27 5 28 4 29 3 30 2 32 1 33 31 34 32 35 36 36
REMARK SMILES IDX 33 37 35 38 34 39
REMARK H PARENT 11 9 14 13 3 31
ROOT
ATOM      1  C   UNL     1      10.428 -56.003 -21.891  1.00  0.00     0.284 C 
ATOM      2  N   UNL     1      10.475 -56.579 -23.289  1.00  0.00    -0.331 N 
ATOM      3  C   UNL     1      11.633 -55.985 -24.063  1.00  0.00     0.284 C 
ATOM      4  C   UNL     1      10.268 -54.475 -21.962  1.00  0.00     0.181 C 
ATOM      5  N   UNL     1      11.228 -53.800 -22.856  1.00  0.00    -0.331 N 
ATOM      6  C   UNL     1      11.388 -52.429 -22.662  1.00  0.00     0.228 C 
ATOM      7  C   UNL     1      11.489 -54.454 -24.150  1.00  0.00     0.181 C 
ATOM      8  O   UNL     1      10.967 -51.861 -21.651  1.00  0.00    -0.275 OA
ATOM      9  H   UNL     1       9.603 -56.304 -23.758  1.00  0.00     0.348 HD
ENDROOT
BRANCH   2  10
ATOM     10  C   UNL     1      10.418 -58.097 -23.317  1.00  0.00     0.283 C 
BRANCH  10  11
ATOM     11  C   UNL     1      11.775 -58.725 -22.910  1.00  0.00     0.174 C 
BRANCH  11  12
ATOM     12  N   UNL     1      11.846 -60.163 -23.252  1.00  0.00    -0.379 N 
ATOM     13  H   UNL     1      12.811 -60.407 -23.516  1.00  0.00     0.160 HD
BRANCH  12  14
ATOM     14  C   UNL     1      11.012 -60.689 -24.267  1.00  0.00     0.049 A 
ATOM     15  C   UNL     1       9.948 -61.510 -23.858  1.00  0.00    -0.003 A 
ATOM     16  C   UNL     1      11.216 -60.484 -25.659  1.00  0.00     0.024 A 
ATOM     17  C   UNL     1       9.000 -61.880 -24.807  1.00  0.00     0.046 A 
ATOM     18  C   UNL     1       9.722 -61.968 -22.439  1.00  0.00     0.039 C 
ATOM     19  C   UNL     1      12.383 -59.919 -26.231  1.00  0.00     0.012 A 
ATOM     20  C   UNL     1      10.181 -60.895 -26.529  1.00  0.00     0.073 A 
ATOM     21  N   UNL     1       9.065 -61.500 -26.098  1.00  0.00    -0.252 NA
ATOM     22  C   UNL     1       7.810 -62.689 -24.365  1.00  0.00     0.056 C 
ATOM     23  C   UNL     1       9.274 -63.432 -22.384  1.00  0.00     0.005 C 
ATOM     24  C   UNL     1      12.493 -59.708 -27.605  1.00  0.00     0.001 A 
ATOM     25  C   UNL     1      10.307 -60.664 -27.892  1.00  0.00     0.029 A 
ATOM     26  C   UNL     1       8.244 -63.833 -23.451  1.00  0.00     0.007 C 
ATOM     27  C   UNL     1      11.446 -60.070 -28.437  1.00  0.00     0.002 A 
ENDBRANCH  12  14
ENDBRANCH  11  12
ENDBRANCH  10  11
ENDBRANCH   2  10
BRANCH   6  28
ATOM     28  C   UNL     1      12.174 -51.635 -23.689  1.00  0.00     0.161 C 
BRANCH  28  29
ATOM     29  C   UNL     1      13.431 -50.958 -23.116  1.00  0.00     0.272 C 
BRANCH  29  30
ATOM     30  N   UNL     1      14.484 -50.538 -24.138  1.00  0.00    -0.332 N 
ATOM     31  H   UNL     1      14.734 -49.557 -23.897  1.00  0.00     0.348 HD
BRANCH  30  32
ATOM     32  C   UNL     1      13.843 -50.464 -25.534  1.00  0.00     0.258 C 
ATOM     33  C   UNL     1      14.057 -49.088 -26.139  1.00  0.00     0.071 C 
ENDBRANCH  30  32
BRANCH  30  34
ATOM     34  C   UNL     1      15.796 -51.339 -24.189  1.00  0.00     0.184 C 
ATOM     35  C   UNL     1      17.021 -50.455 -24.452  1.00  0.00     0.065 C 
ATOM     36  C   UNL     1      15.683 -52.399 -25.304  1.00  0.00     0.065 C 
ATOM     37  C   UNL     1      18.300 -51.287 -24.559  1.00  0.00     0.006 C 
ATOM     38  C   UNL     1      16.958 -53.233 -25.419  1.00  0.00     0.006 C 
ATOM     39  C   UNL     1      18.186 -52.358 -25.637  1.00  0.00     0.000 C 
ENDBRANCH  30  34
ENDBRANCH  29  30
ENDBRANCH  28  29
ENDBRANCH   6  28
TORSDOF 9
ENDMDL
MODEL 5
REMARK VINA RESULT:    -9.941      2.002      4.916
REMARK INTER + INTRA:         -16.564
REMARK INTER:                 -15.543
REMARK INTRA:                  -1.021
REMARK UNBOUND:                -1.393
REMARK SMILES CC[N@@H+](CCC(=O)N1CC[NH+](CCNc2c3c(nc4ccccc24)CCCC3)CC1)C1CCCCC1
REMARK SMILES IDX 10 1 11 2 29 3 9 4 8 5 6 6 30 7 7 8 12 10 13 11 14 12 15 14
REMARK SMILES IDX 16 15 24 16 17 17 28 18 23 19 19 20 18 21 25 22 27 23 22 24
REMARK SMILES IDX 20 25 26 26 21 27 5 28 4 29 3 30 2 32 1 33 31 34 32 35 36 36
REMARK SMILES IDX 33 37 35 38 34 39
REMARK H PARENT 11 9 14 13 3 31
ROOT
ATOM      1  C   UNL     1      10.399 -54.283 -21.638  1.00  0.00     0.284 C 
ATOM      2  N   UNL     1      11.142 -53.649 -22.793  1.00  0.00    -0.331 N 
ATOM      3  C   UNL     1      11.066 -54.538 -24.017  1.00  0.00     0.284 C 
ATOM      4  C   UNL     1      11.012 -55.655 -21.314  1.00  0.00     0.181 C 
ATOM      5  N   UNL     1      11.176 -56.543 -22.481  1.00  0.00    -0.331 N 
ATOM      6  C   UNL     1      11.347 -57.898 -22.202  1.00  0.00     0.228 C 
ATOM      7  C   UNL     1      11.681 -55.917 -23.715  1.00  0.00     0.181 C 
ATOM      8  O   UNL     1      11.115 -58.368 -21.085  1.00  0.00    -0.275 OA
ATOM      9  H   UNL     1      12.128 -53.574 -22.513  1.00  0.00     0.348 HD
ENDROOT
BRANCH   2  10
ATOM     10  C   UNL     1      10.744 -52.205 -23.044  1.00  0.00     0.283 C 
BRANCH  10  11
ATOM     11  C   UNL     1      11.037 -51.310 -21.814  1.00  0.00     0.174 C 
BRANCH  11  12
ATOM     12  N   UNL     1      12.382 -50.696 -21.881  1.00  0.00    -0.379 N 
ATOM     13  H   UNL     1      12.550 -50.143 -21.028  1.00  0.00     0.160 HD
BRANCH  12  14
ATOM     14  C   UNL     1      12.723 -49.861 -22.970  1.00  0.00     0.049 A 
ATOM     15  C   UNL     1      13.740 -50.313 -23.828  1.00  0.00    -0.003 A 
ATOM     16  C   UNL     1      12.146 -48.585 -23.215  1.00  0.00     0.024 A 
ATOM     17  C   UNL     1      13.961 -49.614 -25.011  1.00  0.00     0.046 A 
ATOM     18  C   UNL     1      14.569 -51.550 -23.589  1.00  0.00     0.039 C 
ATOM     19  C   UNL     1      11.321 -47.883 -22.300  1.00  0.00     0.012 A 
ATOM     20  C   UNL     1      12.437 -47.972 -24.454  1.00  0.00     0.073 A 
ATOM     21  N   UNL     1      13.258 -48.520 -25.361  1.00  0.00    -0.252 NA
ATOM     22  C   UNL     1      14.990 -50.136 -25.978  1.00  0.00     0.056 C 
ATOM     23  C   UNL     1      16.040 -51.320 -23.950  1.00  0.00     0.005 C 
ATOM     24  C   UNL     1      10.753 -46.652 -22.628  1.00  0.00     0.001 A 
ATOM     25  C   UNL     1      11.851 -46.753 -24.764  1.00  0.00     0.029 A 
ATOM     26  C   UNL     1      16.271 -50.528 -25.246  1.00  0.00     0.007 C 
ATOM     27  C   UNL     1      11.009 -46.091 -23.869  1.00  0.00     0.002 A 
ENDBRANCH  12  14
ENDBRANCH  11  12
ENDBRANCH  10  11
ENDBRANCH   2  10
BRANCH   6  28
ATOM     28  C   UNL     1      11.753 -58.828 -23.330  1.00  0.00     0.161 C 
BRANCH  28  29
ATOM     29  C   UNL     1      10.561 -59.413 -24.107  1.00  0.00     0.272 C 
BRANCH  29  30
ATOM     30  N   UNL     1      10.863 -60.641 -24.963  1.00  0.00    -0.332 N 
ATOM     31  H   UNL     1      11.881 -60.821 -24.847  1.00  0.00     0.348 HD
BRANCH  30  32
ATOM     32  C   UNL     1      10.676 -60.288 -26.449  1.00  0.00     0.258 C 
ATOM     33  C   UNL     1      11.959 -59.707 -27.015  1.00  0.00     0.071 C 
ENDBRANCH  30  32
BRANCH  30  34
ATOM     34  C   UNL     1      10.131 -61.951 -24.624  1.00  0.00     0.184 C 
ATOM     35  C   UNL     1       8.658 -61.933 -25.047  1.00  0.00     0.065 C 
ATOM     36  C   UNL     1      10.223 -62.188 -23.103  1.00  0.00     0.065 C 
ATOM     37  C   UNL     1       7.943 -63.224 -24.643  1.00  0.00     0.006 C 
ATOM     38  C   UNL     1       9.509 -63.474 -22.689  1.00  0.00     0.006 C 
ATOM     39  C   UNL     1       8.055 -63.483 -23.145  1.00  0.00     0.000 C 
ENDBRANCH  30  34
ENDBRANCH  29  30
ENDBRANCH  28  29
ENDBRANCH   6  28
TORSDOF 9
ENDMDL
MODEL 6
REMARK VINA RESULT:    -9.895      1.992      3.880
REMARK INTER + INTRA:         -16.494
REMARK INTER:                 -15.292
REMARK INTRA:                  -1.202
REMARK UNBOUND:                -1.393
REMARK SMILES CC[N@@H+](CCC(=O)N1CC[NH+](CCNc2c3c(nc4ccccc24)CCCC3)CC1)C1CCCCC1
REMARK SMILES IDX 10 1 11 2 29 3 9 4 8 5 6 6 30 7 7 8 12 10 13 11 14 12 15 14
REMARK SMILES IDX 16 15 24 16 17 17 28 18 23 19 19 20 18 21 25 22 27 23 22 24
REMARK SMILES IDX 20 25 26 26 21 27 5 28 4 29 3 30 2 32 1 33 31 34 32 35 36 36
REMARK SMILES IDX 33 37 35 38 34 39
REMARK H PARENT 11 9 14 13 3 31
ROOT
ATOM      1  C   UNL     1      10.198 -54.552 -21.387  1.00  0.00     0.284 C 
ATOM      2  N   UNL     1      10.655 -53.541 -22.414  1.00  0.00    -0.331 N 
ATOM      3  C   UNL     1      10.540 -54.120 -23.809  1.00  0.00     0.284 C 
ATOM      4  C   UNL     1      11.060 -55.822 -21.487  1.00  0.00     0.181 C 
ATOM      5  N   UNL     1      11.187 -56.369 -22.851  1.00  0.00    -0.331 N 
ATOM      6  C   UNL     1      11.608 -57.695 -22.943  1.00  0.00     0.228 C 
ATOM      7  C   UNL     1      11.401 -55.392 -23.932  1.00  0.00     0.181 C 
ATOM      8  O   UNL     1      11.619 -58.445 -21.964  1.00  0.00    -0.275 OA
ATOM      9  H   UNL     1      11.648 -53.349 -22.229  1.00  0.00     0.348 HD
ENDROOT
BRANCH   2  10
ATOM     10  C   UNL     1      10.003 -52.178 -22.249  1.00  0.00     0.283 C 
BRANCH  10  11
ATOM     11  C   UNL     1      11.028 -51.107 -21.797  1.00  0.00     0.174 C 
BRANCH  11  12
ATOM     12  N   UNL     1      11.463 -50.246 -22.919  1.00  0.00    -0.379 N 
ATOM     13  H   UNL     1      10.994 -50.548 -23.785  1.00  0.00     0.160 HD
BRANCH  12  14
ATOM     14  C   UNL     1      12.839 -50.135 -23.229  1.00  0.00     0.049 A 
ATOM     15  C   UNL     1      13.517 -49.009 -22.732  1.00  0.00    -0.003 A 
ATOM     16  C   UNL     1      13.554 -51.051 -24.048  1.00  0.00     0.024 A 
ATOM     17  C   UNL     1      14.902 -48.970 -22.852  1.00  0.00     0.046 A 
ATOM     18  C   UNL     1      12.851 -47.863 -22.012  1.00  0.00     0.039 C 
ATOM     19  C   UNL     1      12.956 -52.067 -24.836  1.00  0.00     0.012 A 
ATOM     20  C   UNL     1      14.960 -50.918 -24.089  1.00  0.00     0.073 A 
ATOM     21  N   UNL     1      15.618 -49.951 -23.435  1.00  0.00    -0.252 NA
ATOM     22  C   UNL     1      15.649 -47.809 -22.249  1.00  0.00     0.056 C 
ATOM     23  C   UNL     1      13.435 -46.513 -22.442  1.00  0.00     0.005 C 
ATOM     24  C   UNL     1      13.727 -52.959 -25.582  1.00  0.00     0.001 A 
ATOM     25  C   UNL     1      15.708 -51.825 -24.828  1.00  0.00     0.029 A 
ATOM     26  C   UNL     1      14.963 -46.489 -22.592  1.00  0.00     0.007 C 
ATOM     27  C   UNL     1      15.108 -52.845 -25.567  1.00  0.00     0.002 A 
ENDBRANCH  12  14
ENDBRANCH  11  12
ENDBRANCH  10  11
ENDBRANCH   2  10
BRANCH   6  28
ATOM     28  C   UNL     1      11.984 -58.246 -24.306  1.00  0.00     0.161 C 
BRANCH  28  29
ATOM     29  C   UNL     1      12.316 -59.748 -24.295  1.00  0.00     0.272 C 
BRANCH  29  30
ATOM     30  N   UNL     1      11.342 -60.651 -25.047  1.00  0.00    -0.332 N 
ATOM     31  H   UNL     1      11.920 -61.423 -25.438  1.00  0.00     0.348 HD
BRANCH  30  32
ATOM     32  C   UNL     1      10.785 -59.898 -26.268  1.00  0.00     0.258 C 
ATOM     33  C   UNL     1      11.726 -60.047 -27.450  1.00  0.00     0.071 C 
ENDBRANCH  30  32
BRANCH  30  34
ATOM     34  C   UNL     1      10.200 -61.301 -24.248  1.00  0.00     0.184 C 
ATOM     35  C   UNL     1      10.704 -62.288 -23.189  1.00  0.00     0.065 C 
ATOM     36  C   UNL     1       9.268 -62.039 -25.230  1.00  0.00     0.065 C 
ATOM     37  C   UNL     1       9.545 -62.963 -22.453  1.00  0.00     0.006 C 
ATOM     38  C   UNL     1       8.108 -62.718 -24.505  1.00  0.00     0.006 C 
ATOM     39  C   UNL     1       8.601 -63.668 -23.420  1.00  0.00     0.000 C 
ENDBRANCH  30  34
ENDBRANCH  29  30
ENDBRANCH  28  29
ENDBRANCH   6  28
TORSDOF 9
ENDMDL
MODEL 7
REMARK VINA RESULT:    -9.350      2.983      6.165
REMARK INTER + INTRA:         -15.661
REMARK INTER:                 -14.804
REMARK INTRA:                  -0.858
REMARK UNBOUND:                -1.393
REMARK SMILES CC[N@@H+](CCC(=O)N1CC[NH+](CCNc2c3c(nc4ccccc24)CCCC3)CC1)C1CCCCC1
REMARK SMILES IDX 10 1 11 2 29 3 9 4 8 5 6 6 30 7 7 8 12 10 13 11 14 12 15 14
REMARK SMILES IDX 16 15 24 16 17 17 28 18 23 19 19 20 18 21 25 22 27 23 22 24
REMARK SMILES IDX 20 25 26 26 21 27 5 28 4 29 3 30 2 32 1 33 31 34 32 35 36 36
REMARK SMILES IDX 33 37 35 38 34 39
REMARK H PARENT 11 9 14 13 3 31
ROOT
ATOM      1  C   UNL     1      10.868 -50.292 -22.371  1.00  0.00     0.284 C 
ATOM      2  N   UNL     1      12.208 -50.224 -23.069  1.00  0.00    -0.331 N 
ATOM      3  C   UNL     1      12.271 -51.242 -24.189  1.00  0.00     0.284 C 
ATOM      4  C   UNL     1      10.652 -51.702 -21.796  1.00  0.00     0.181 C 
ATOM      5  N   UNL     1      10.885 -52.798 -22.756  1.00  0.00    -0.331 N 
ATOM      6  C   UNL     1      10.337 -54.035 -22.420  1.00  0.00     0.228 C 
ATOM      7  C   UNL     1      12.062 -52.662 -23.632  1.00  0.00     0.181 C 
ATOM      8  O   UNL     1       9.495 -54.154 -21.526  1.00  0.00    -0.275 OA
ATOM      9  H   UNL     1      12.924 -50.470 -22.373  1.00  0.00     0.348 HD
ENDROOT
BRANCH   2  10
ATOM     10  C   UNL     1      12.599 -48.815 -23.483  1.00  0.00     0.283 C 
BRANCH  10  11
ATOM     11  C   UNL     1      13.700 -48.235 -22.561  1.00  0.00     0.174 C 
BRANCH  11  12
ATOM     12  N   UNL     1      15.030 -48.242 -23.211  1.00  0.00    -0.379 N 
ATOM     13  H   UNL     1      15.326 -47.274 -23.400  1.00  0.00     0.160 HD
BRANCH  12  14
ATOM     14  C   UNL     1      15.223 -48.960 -24.414  1.00  0.00     0.049 A 
ATOM     15  C   UNL     1      15.564 -50.318 -24.301  1.00  0.00    -0.003 A 
ATOM     16  C   UNL     1      15.147 -48.384 -25.712  1.00  0.00     0.024 A 
ATOM     17  C   UNL     1      15.568 -51.093 -25.456  1.00  0.00     0.046 A 
ATOM     18  C   UNL     1      15.864 -51.015 -22.998  1.00  0.00     0.039 C 
ATOM     19  C   UNL     1      15.086 -46.993 -25.977  1.00  0.00     0.012 A 
ATOM     20  C   UNL     1      15.154 -49.271 -26.812  1.00  0.00     0.073 A 
ATOM     21  N   UNL     1      15.275 -50.599 -26.675  1.00  0.00    -0.252 NA
ATOM     22  C   UNL     1      15.850 -52.567 -25.338  1.00  0.00     0.056 C 
ATOM     23  C   UNL     1      17.044 -51.983 -23.136  1.00  0.00     0.005 C 
ATOM     24  C   UNL     1      14.969 -46.503 -27.278  1.00  0.00     0.001 A 
ATOM     25  C   UNL     1      15.024 -48.762 -28.097  1.00  0.00     0.029 A 
ATOM     26  C   UNL     1      17.049 -52.817 -24.425  1.00  0.00     0.007 C 
ATOM     27  C   UNL     1      14.925 -47.392 -28.340  1.00  0.00     0.002 A 
ENDBRANCH  12  14
ENDBRANCH  11  12
ENDBRANCH  10  11
ENDBRANCH   2  10
BRANCH   6  28
ATOM     28  C   UNL     1      10.732 -55.252 -23.236  1.00  0.00     0.161 C 
BRANCH  28  29
ATOM     29  C   UNL     1      10.572 -56.581 -22.480  1.00  0.00     0.272 C 
BRANCH  29  30
ATOM     30  N   UNL     1       9.973 -57.735 -23.280  1.00  0.00    -0.332 N 
ATOM     31  H   UNL     1      10.063 -57.460 -24.280  1.00  0.00     0.348 HD
BRANCH  30  32
ATOM     32  C   UNL     1       8.460 -57.812 -23.012  1.00  0.00     0.258 C 
ATOM     33  C   UNL     1       7.722 -58.211 -24.278  1.00  0.00     0.071 C 
ENDBRANCH  30  32
BRANCH  30  34
ATOM     34  C   UNL     1      10.618 -59.123 -23.134  1.00  0.00     0.184 C 
ATOM     35  C   UNL     1      10.845 -59.817 -24.482  1.00  0.00     0.065 C 
ATOM     36  C   UNL     1       9.704 -60.001 -22.255  1.00  0.00     0.065 C 
ATOM     37  C   UNL     1      11.430 -61.219 -24.300  1.00  0.00     0.006 C 
ATOM     38  C   UNL     1      10.279 -61.405 -22.070  1.00  0.00     0.006 C 
ATOM     39  C   UNL     1      10.548 -62.084 -23.407  1.00  0.00     0.000 C 
ENDBRANCH  30  34
ENDBRANCH  29  30
ENDBRANCH  28  29
ENDBRANCH   6  28
TORSDOF 9
ENDMDL
MODEL 8
REMARK VINA RESULT:    -8.979      3.776      7.145
REMARK INTER + INTRA:         -15.096
REMARK INTER:                 -14.339
REMARK INTRA:                  -0.757
REMARK UNBOUND:                -1.393
REMARK SMILES CC[N@@H+](CCC(=O)N1CC[NH+](CCNc2c3c(nc4ccccc24)CCCC3)CC1)C1CCCCC1
REMARK SMILES IDX 10 1 11 2 29 3 9 4 8 5 6 6 30 7 7 8 12 10 13 11 14 12 15 14
REMARK SMILES IDX 16 15 24 16 17 17 28 18 23 19 19 20 18 21 25 22 27 23 22 24
REMARK SMILES IDX 20 25 26 26 21 27 5 28 4 29 3 30 2 32 1 33 31 34 32 35 36 36
REMARK SMILES IDX 33 37 35 38 34 39
REMARK H PARENT 11 9 14 13 3 31
ROOT
ATOM      1  C   UNL     1      11.316 -50.362 -22.053  1.00  0.00     0.284 C 
ATOM      2  N   UNL     1      12.635 -50.413 -22.792  1.00  0.00    -0.331 N 
ATOM      3  C   UNL     1      12.521 -51.305 -24.010  1.00  0.00     0.284 C 
ATOM      4  C   UNL     1      10.910 -51.780 -21.615  1.00  0.00     0.181 C 
ATOM      5  N   UNL     1      10.957 -52.790 -22.690  1.00  0.00    -0.331 N 
ATOM      6  C   UNL     1      10.243 -53.964 -22.460  1.00  0.00     0.228 C 
ATOM      7  C   UNL     1      12.120 -52.732 -23.592  1.00  0.00     0.181 C 
ATOM      8  O   UNL     1       9.414 -54.055 -21.550  1.00  0.00    -0.275 OA
ATOM      9  H   UNL     1      13.323 -50.831 -22.153  1.00  0.00     0.348 HD
ENDROOT
BRANCH   2  10
ATOM     10  C   UNL     1      13.218 -49.039 -23.077  1.00  0.00     0.283 C 
BRANCH  10  11
ATOM     11  C   UNL     1      14.282 -48.641 -22.023  1.00  0.00     0.174 C 
BRANCH  11  12
ATOM     12  N   UNL     1      13.724 -47.753 -20.978  1.00  0.00    -0.379 N 
ATOM     13  H   UNL     1      12.764 -48.049 -20.753  1.00  0.00     0.160 HD
BRANCH  12  14
ATOM     14  C   UNL     1      13.670 -46.357 -21.196  1.00  0.00     0.049 A 
ATOM     15  C   UNL     1      14.790 -45.605 -20.802  1.00  0.00    -0.003 A 
ATOM     16  C   UNL     1      12.545 -45.671 -21.729  1.00  0.00     0.024 A 
ATOM     17  C   UNL     1      14.848 -44.267 -21.178  1.00  0.00     0.046 A 
ATOM     18  C   UNL     1      15.973 -46.166 -20.053  1.00  0.00     0.039 C 
ATOM     19  C   UNL     1      11.261 -46.244 -21.913  1.00  0.00     0.012 A 
ATOM     20  C   UNL     1      12.724 -44.314 -22.080  1.00  0.00     0.073 A 
ATOM     21  N   UNL     1      13.877 -43.659 -21.886  1.00  0.00    -0.252 NA
ATOM     22  C   UNL     1      16.080 -43.472 -20.836  1.00  0.00     0.056 C 
ATOM     23  C   UNL     1      16.463 -45.200 -18.970  1.00  0.00     0.005 C 
ATOM     24  C   UNL     1      10.215 -45.520 -22.484  1.00  0.00     0.001 A 
ATOM     25  C   UNL     1      11.672 -43.617 -22.659  1.00  0.00     0.029 A 
ATOM     26  C   UNL     1      16.502 -43.724 -19.390  1.00  0.00     0.007 C 
ATOM     27  C   UNL     1      10.425 -44.206 -22.870  1.00  0.00     0.002 A 
ENDBRANCH  12  14
ENDBRANCH  11  12
ENDBRANCH  10  11
ENDBRANCH   2  10
BRANCH   6  28
ATOM     28  C   UNL     1      10.436 -55.132 -23.409  1.00  0.00     0.161 C 
BRANCH  28  29
ATOM     29  C   UNL     1      10.573 -56.489 -22.699  1.00  0.00     0.272 C 
BRANCH  29  30
ATOM     30  N   UNL     1       9.928 -57.678 -23.406  1.00  0.00    -0.332 N 
ATOM     31  H   UNL     1       9.982 -57.464 -24.423  1.00  0.00     0.348 HD
BRANCH  30  32
ATOM     32  C   UNL     1       8.426 -57.717 -23.076  1.00  0.00     0.258 C 
ATOM     33  C   UNL     1       7.635 -58.186 -24.284  1.00  0.00     0.071 C 
ENDBRANCH  30  32
BRANCH  30  34
ATOM     34  C   UNL     1      10.560 -59.066 -23.202  1.00  0.00     0.184 C 
ATOM     35  C   UNL     1      10.750 -59.830 -24.517  1.00  0.00     0.065 C 
ATOM     36  C   UNL     1       9.656 -59.887 -22.261  1.00  0.00     0.065 C 
ATOM     37  C   UNL     1      11.323 -61.228 -24.276  1.00  0.00     0.006 C 
ATOM     38  C   UNL     1      10.219 -61.286 -22.016  1.00  0.00     0.006 C 
ATOM     39  C   UNL     1      10.451 -62.036 -23.322  1.00  0.00     0.000 C 
ENDBRANCH  30  34
ENDBRANCH  29  30
ENDBRANCH  28  29
ENDBRANCH   6  28
TORSDOF 9
ENDMDL
MODEL 9
REMARK VINA RESULT:    -8.862      2.843      5.965
REMARK INTER + INTRA:         -14.918
REMARK INTER:                 -13.765
REMARK INTRA:                  -1.153
REMARK UNBOUND:                -1.393
REMARK SMILES CC[N@@H+](CCC(=O)N1CC[NH+](CCNc2c3c(nc4ccccc24)CCCC3)CC1)C1CCCCC1
REMARK SMILES IDX 10 1 11 2 29 3 9 4 8 5 6 6 30 7 7 8 12 10 13 11 14 12 15 14
REMARK SMILES IDX 16 15 24 16 17 17 28 18 23 19 19 20 18 21 25 22 27 23 22 24
REMARK SMILES IDX 20 25 26 26 21 27 5 28 4 29 3 30 2 32 1 33 31 34 32 35 36 36
REMARK SMILES IDX 33 37 35 38 34 39
REMARK H PARENT 11 9 14 13 3 31
ROOT
ATOM      1  C   UNL     1      11.936 -51.490 -23.165  1.00  0.00     0.284 C 
ATOM      2  N   UNL     1      13.045 -51.983 -24.067  1.00  0.00    -0.331 N 
ATOM      3  C   UNL     1      12.520 -53.042 -25.014  1.00  0.00     0.284 C 
ATOM      4  C   UNL     1      11.363 -52.664 -22.355  1.00  0.00     0.181 C 
ATOM      5  N   UNL     1      10.999 -53.845 -23.161  1.00  0.00    -0.331 N 
ATOM      6  C   UNL     1      10.134 -54.757 -22.559  1.00  0.00     0.228 C 
ATOM      7  C   UNL     1      11.946 -54.231 -24.222  1.00  0.00     0.181 C 
ATOM      8  O   UNL     1       9.503 -54.478 -21.536  1.00  0.00    -0.275 OA
ATOM      9  H   UNL     1      13.755 -52.417 -23.464  1.00  0.00     0.348 HD
ENDROOT
BRANCH   2  10
ATOM     10  C   UNL     1      13.811 -50.861 -24.748  1.00  0.00     0.283 C 
BRANCH  10  11
ATOM     11  C   UNL     1      14.752 -50.130 -23.758  1.00  0.00     0.174 C 
BRANCH  11  12
ATOM     12  N   UNL     1      14.682 -48.659 -23.908  1.00  0.00    -0.379 N 
ATOM     13  H   UNL     1      15.625 -48.289 -24.096  1.00  0.00     0.160 HD
BRANCH  12  14
ATOM     14  C   UNL     1      14.143 -47.869 -22.867  1.00  0.00     0.049 A 
ATOM     15  C   UNL     1      12.823 -47.416 -23.026  1.00  0.00    -0.003 A 
ATOM     16  C   UNL     1      14.865 -47.463 -21.712  1.00  0.00     0.024 A 
ATOM     17  C   UNL     1      12.201 -46.807 -21.941  1.00  0.00     0.046 A 
ATOM     18  C   UNL     1      12.002 -47.607 -24.277  1.00  0.00     0.039 C 
ATOM     19  C   UNL     1      16.266 -47.604 -21.542  1.00  0.00     0.012 A 
ATOM     20  C   UNL     1      14.127 -46.857 -20.669  1.00  0.00     0.073 A 
ATOM     21  N   UNL     1      12.812 -46.617 -20.755  1.00  0.00    -0.252 NA
ATOM     22  C   UNL     1      10.759 -46.393 -22.071  1.00  0.00     0.056 C 
ATOM     23  C   UNL     1      11.181 -46.356 -24.608  1.00  0.00     0.005 C 
ATOM     24  C   UNL     1      16.899 -47.222 -20.360  1.00  0.00     0.001 A 
ATOM     25  C   UNL     1      14.777 -46.497 -19.497  1.00  0.00     0.029 A 
ATOM     26  C   UNL     1      10.519 -45.679 -23.399  1.00  0.00     0.007 C 
ATOM     27  C   UNL     1      16.150 -46.678 -19.329  1.00  0.00     0.002 A 
ENDBRANCH  12  14
ENDBRANCH  11  12
ENDBRANCH  10  11
ENDBRANCH   2  10
BRANCH   6  28
ATOM     28  C   UNL     1       9.906 -56.098 -23.231  1.00  0.00     0.161 C 
BRANCH  28  29
ATOM     29  C   UNL     1      10.878 -57.195 -22.766  1.00  0.00     0.272 C 
BRANCH  29  30
ATOM     30  N   UNL     1      10.326 -58.619 -22.772  1.00  0.00    -0.332 N 
ATOM     31  H   UNL     1       9.291 -58.519 -22.752  1.00  0.00     0.348 HD
BRANCH  30  32
ATOM     32  C   UNL     1      10.696 -59.317 -21.452  1.00  0.00     0.258 C 
ATOM     33  C   UNL     1      11.451 -58.361 -20.546  1.00  0.00     0.071 C 
ENDBRANCH  30  32
BRANCH  30  34
ATOM     34  C   UNL     1      10.671 -59.518 -23.972  1.00  0.00     0.184 C 
ATOM     35  C   UNL     1      11.829 -58.968 -24.812  1.00  0.00     0.065 C 
ATOM     36  C   UNL     1       9.417 -59.657 -24.860  1.00  0.00     0.065 C 
ATOM     37  C   UNL     1      12.107 -59.850 -26.030  1.00  0.00     0.006 C 
ATOM     38  C   UNL     1       9.686 -60.535 -26.081  1.00  0.00     0.006 C 
ATOM     39  C   UNL     1      10.865 -60.019 -26.897  1.00  0.00     0.000 C 
ENDBRANCH  30  34
ENDBRANCH  29  30
ENDBRANCH  28  29
ENDBRANCH   6  28
TORSDOF 9
ENDMDL
