MODEL 1
REMARK VINA RESULT:    -9.086      0.000      0.000
REMARK INTER + INTRA:         -10.196
REMARK INTER:                 -10.148
REMARK INTRA:                  -0.048
REMARK UNBOUND:                -0.048
REMARK SMILES CNC(=O)Oc1ccc2c(c1)[C@]1(C)CC[N@@H+](C)[C@@H]1N2C
REMARK SMILES IDX 5 1 6 2 15 3 16 4 14 5 18 6 12 7 19 8 10 9 9 10 11 11 8 12
REMARK SMILES IDX 7 13 17 14 13 16 20 17 3 18 2 19 4 20 1 21
REMARK H PARENT 16 15 2 22
ROOT
ATOM      1  O   UNL     1      11.336 -56.564 -22.326  1.00  0.00    -0.410 OA
ENDROOT
BRANCH   1   2
ATOM      2  C   UNL     1      10.345 -57.483 -22.697  1.00  0.00     0.133 A 
ATOM      3  C   UNL     1       9.909 -61.683 -25.365  1.00  0.00     0.265 C 
ATOM      4  N   UNL     1       8.428 -61.783 -25.141  1.00  0.00    -0.317 N 
ATOM      5  C   UNL     1      10.513 -61.874 -23.988  1.00  0.00     0.081 C 
ATOM      6  C   UNL     1       8.147 -61.459 -23.712  1.00  0.00     0.296 C 
ATOM      7  C   UNL     1       9.520 -61.198 -23.050  1.00  0.00     0.072 C 
ATOM      8  N   UNL     1       7.407 -60.214 -23.881  1.00  0.00    -0.325 N 
ATOM      9  C   UNL     1       9.561 -59.699 -23.069  1.00  0.00    -0.007 A 
ATOM     10  C   UNL     1       8.325 -59.198 -23.496  1.00  0.00     0.045 A 
ATOM     11  C   UNL     1      10.590 -58.856 -22.676  1.00  0.00     0.054 A 
ATOM     12  C   UNL     1       8.103 -57.829 -23.548  1.00  0.00     0.030 A 
ATOM     13  C   UNL     1       9.125 -56.964 -23.149  1.00  0.00     0.049 A 
ATOM     14  C   UNL     1       7.785 -63.022 -25.639  1.00  0.00     0.334 C 
ATOM     15  H   UNL     1       7.979 -60.972 -25.589  1.00  0.00     0.349 HD
ATOM     16  C   UNL     1       9.595 -61.735 -21.623  1.00  0.00     0.025 C 
ATOM     17  C   UNL     1       6.141 -60.109 -23.146  1.00  0.00     0.150 C 
ENDBRANCH   1   2
BRANCH   1  18
ATOM     18  C   UNL     1      11.381 -55.394 -23.074  1.00  0.00     0.412 C 
ATOM     19  N   UNL     1      11.020 -54.339 -22.285  1.00  0.00    -0.324 N 
ATOM     20  O   UNL     1      11.697 -55.311 -24.253  1.00  0.00    -0.224 OA
ATOM     21  C   UNL     1      11.107 -52.978 -22.745  1.00  0.00     0.146 C 
ATOM     22  H   UNL     1      10.916 -54.527 -21.298  1.00  0.00     0.166 HD
ENDBRANCH   1  18
TORSDOF 2
ENDMDL
MODEL 2
REMARK VINA RESULT:    -8.269      3.760      9.420
REMARK INTER + INTRA:          -9.284
REMARK INTER:                  -9.129
REMARK INTRA:                  -0.155
REMARK UNBOUND:                -0.048
REMARK SMILES CNC(=O)Oc1ccc2c(c1)[C@]1(C)CC[N@@H+](C)[C@@H]1N2C
REMARK SMILES IDX 5 1 6 2 15 3 16 4 14 5 18 6 12 7 19 8 10 9 9 10 11 11 8 12
REMARK SMILES IDX 7 13 17 14 13 16 20 17 3 18 2 19 4 20 1 21
REMARK H PARENT 16 15 2 22
ROOT
ATOM      1  O   UNL     1      10.538 -54.908 -23.845  1.00  0.00    -0.410 OA
ENDROOT
BRANCH   1   2
ATOM      2  C   UNL     1      11.111 -53.649 -23.615  1.00  0.00     0.133 A 
ATOM      3  C   UNL     1      15.637 -51.616 -23.046  1.00  0.00     0.265 C 
ATOM      4  N   UNL     1      15.091 -50.238 -22.806  1.00  0.00    -0.317 N 
ATOM      5  C   UNL     1      15.264 -51.926 -24.482  1.00  0.00     0.081 C 
ATOM      6  C   UNL     1      13.989 -49.995 -23.781  1.00  0.00     0.296 C 
ATOM      7  C   UNL     1      13.905 -51.262 -24.663  1.00  0.00     0.072 C 
ATOM      8  N   UNL     1      12.858 -49.924 -22.864  1.00  0.00    -0.325 N 
ATOM      9  C   UNL     1      12.763 -51.983 -24.012  1.00  0.00    -0.007 A 
ATOM     10  C   UNL     1      12.177 -51.161 -23.041  1.00  0.00     0.045 A 
ATOM     11  C   UNL     1      12.251 -53.237 -24.305  1.00  0.00     0.054 A 
ATOM     12  C   UNL     1      11.065 -51.593 -22.333  1.00  0.00     0.030 A 
ATOM     13  C   UNL     1      10.530 -52.852 -22.621  1.00  0.00     0.049 A 
ATOM     14  C   UNL     1      16.099 -49.154 -22.718  1.00  0.00     0.334 C 
ATOM     15  H   UNL     1      14.544 -50.255 -21.934  1.00  0.00     0.349 HD
ATOM     16  C   UNL     1      13.594 -50.941 -26.123  1.00  0.00     0.025 C 
ATOM     17  C   UNL     1      11.957 -48.779 -23.036  1.00  0.00     0.150 C 
ENDBRANCH   1   2
BRANCH   1  18
ATOM     18  C   UNL     1      11.038 -55.946 -23.070  1.00  0.00     0.412 C 
ATOM     19  N   UNL     1      11.174 -57.063 -23.845  1.00  0.00    -0.324 N 
ATOM     20  O   UNL     1      11.319 -55.880 -21.881  1.00  0.00    -0.224 OA
ATOM     21  C   UNL     1      11.802 -58.260 -23.352  1.00  0.00     0.146 C 
ATOM     22  H   UNL     1      11.036 -56.944 -24.839  1.00  0.00     0.166 HD
ENDBRANCH   1  18
TORSDOF 2
ENDMDL
MODEL 3
REMARK VINA RESULT:    -8.121      1.587      2.836
REMARK INTER + INTRA:          -9.118
REMARK INTER:                  -8.865
REMARK INTRA:                  -0.253
REMARK UNBOUND:                -0.048
REMARK SMILES CNC(=O)Oc1ccc2c(c1)[C@]1(C)CC[N@@H+](C)[C@@H]1N2C
REMARK SMILES IDX 5 1 6 2 15 3 16 4 14 5 18 6 12 7 19 8 10 9 9 10 11 11 8 12
REMARK SMILES IDX 7 13 17 14 13 16 20 17 3 18 2 19 4 20 1 21
REMARK H PARENT 16 15 2 22
ROOT
ATOM      1  O   UNL     1       9.788 -55.360 -22.549  1.00  0.00    -0.410 OA
ENDROOT
BRANCH   1   2
ATOM      2  C   UNL     1      10.124 -56.704 -22.764  1.00  0.00     0.133 A 
ATOM      3  C   UNL     1       7.934 -61.193 -22.709  1.00  0.00     0.265 C 
ATOM      4  N   UNL     1       9.208 -61.922 -23.028  1.00  0.00    -0.317 N 
ATOM      5  C   UNL     1       7.649 -60.370 -23.950  1.00  0.00     0.081 C 
ATOM      6  C   UNL     1       9.929 -61.162 -24.090  1.00  0.00     0.296 C 
ATOM      7  C   UNL     1       9.029 -59.956 -24.446  1.00  0.00     0.072 C 
ATOM      8  N   UNL     1      11.099 -60.731 -23.334  1.00  0.00    -0.325 N 
ATOM      9  C   UNL     1       9.683 -58.870 -23.646  1.00  0.00    -0.007 A 
ATOM     10  C   UNL     1      10.873 -59.349 -23.084  1.00  0.00     0.045 A 
ATOM     11  C   UNL     1       9.284 -57.552 -23.487  1.00  0.00     0.054 A 
ATOM     12  C   UNL     1      11.684 -58.508 -22.336  1.00  0.00     0.030 A 
ATOM     13  C   UNL     1      11.303 -57.173 -22.172  1.00  0.00     0.049 A 
ATOM     14  C   UNL     1       9.069 -63.375 -23.284  1.00  0.00     0.334 C 
ATOM     15  H   UNL     1       9.863 -61.783 -22.247  1.00  0.00     0.349 HD
ATOM     16  C   UNL     1       9.047 -59.631 -25.938  1.00  0.00     0.025 C 
ATOM     17  C   UNL     1      12.401 -60.962 -23.971  1.00  0.00     0.150 C 
ENDBRANCH   1   2
BRANCH   1  18
ATOM     18  C   UNL     1      10.554 -54.431 -23.241  1.00  0.00     0.412 C 
ATOM     19  N   UNL     1      10.839 -53.378 -22.419  1.00  0.00    -0.324 N 
ATOM     20  O   UNL     1      10.926 -54.533 -24.402  1.00  0.00    -0.224 OA
ATOM     21  C   UNL     1      11.735 -52.324 -22.813  1.00  0.00     0.146 C 
ATOM     22  H   UNL     1      10.587 -53.483 -21.446  1.00  0.00     0.166 HD
ENDBRANCH   1  18
TORSDOF 2
ENDMDL
MODEL 4
REMARK VINA RESULT:    -7.731      3.352      5.168
REMARK INTER + INTRA:          -8.683
REMARK INTER:                  -8.504
REMARK INTRA:                  -0.179
REMARK UNBOUND:                -0.048
REMARK SMILES CNC(=O)Oc1ccc2c(c1)[C@]1(C)CC[N@@H+](C)[C@@H]1N2C
REMARK SMILES IDX 5 1 6 2 15 3 16 4 14 5 18 6 12 7 19 8 10 9 9 10 11 11 8 12
REMARK SMILES IDX 7 13 17 14 13 16 20 17 3 18 2 19 4 20 1 21
REMARK H PARENT 16 15 2 22
ROOT
ATOM      1  O   UNL     1      10.300 -60.782 -28.719  1.00  0.00    -0.410 OA
ENDROOT
BRANCH   1   2
ATOM      2  C   UNL     1       9.807 -61.037 -27.432  1.00  0.00     0.133 A 
ATOM      3  C   UNL     1      11.091 -60.226 -22.674  1.00  0.00     0.265 C 
ATOM      4  N   UNL     1       9.894 -60.950 -22.129  1.00  0.00    -0.317 N 
ATOM      5  C   UNL     1      10.513 -59.017 -23.383  1.00  0.00     0.081 C 
ATOM      6  C   UNL     1       8.702 -60.557 -22.936  1.00  0.00     0.296 C 
ATOM      7  C   UNL     1       9.204 -59.526 -23.974  1.00  0.00     0.072 C 
ATOM      8  N   UNL     1       8.403 -61.833 -23.573  1.00  0.00    -0.325 N 
ATOM      9  C   UNL     1       9.359 -60.398 -25.184  1.00  0.00    -0.007 A 
ATOM     10  C   UNL     1       8.843 -61.673 -24.917  1.00  0.00     0.045 A 
ATOM     11  C   UNL     1       9.857 -60.064 -26.434  1.00  0.00     0.054 A 
ATOM     12  C   UNL     1       8.830 -62.646 -25.906  1.00  0.00     0.030 A 
ATOM     13  C   UNL     1       9.320 -62.325 -27.174  1.00  0.00     0.049 A 
ATOM     14  C   UNL     1       9.709 -60.870 -20.661  1.00  0.00     0.334 C 
ATOM     15  H   UNL     1       9.964 -61.939 -22.403  1.00  0.00     0.349 HD
ATOM     16  C   UNL     1       8.195 -58.408 -24.225  1.00  0.00     0.025 C 
ATOM     17  C   UNL     1       7.005 -62.276 -23.509  1.00  0.00     0.150 C 
ENDBRANCH   1   2
BRANCH   1  18
ATOM     18  C   UNL     1      11.462 -60.024 -28.778  1.00  0.00     0.412 C 
ATOM     19  N   UNL     1      11.189 -58.824 -29.370  1.00  0.00    -0.324 N 
ATOM     20  O   UNL     1      12.561 -60.366 -28.363  1.00  0.00    -0.224 OA
ATOM     21  C   UNL     1      12.167 -57.771 -29.445  1.00  0.00     0.146 C 
ATOM     22  H   UNL     1      10.216 -58.615 -29.542  1.00  0.00     0.166 HD
ENDBRANCH   1  18
TORSDOF 2
ENDMDL
MODEL 5
REMARK VINA RESULT:    -7.492      3.118      4.842
REMARK INTER + INTRA:          -8.416
REMARK INTER:                  -8.218
REMARK INTRA:                  -0.198
REMARK UNBOUND:                -0.048
REMARK SMILES CNC(=O)Oc1ccc2c(c1)[C@]1(C)CC[N@@H+](C)[C@@H]1N2C
REMARK SMILES IDX 5 1 6 2 15 3 16 4 14 5 18 6 12 7 19 8 10 9 9 10 11 11 8 12
REMARK SMILES IDX 7 13 17 14 13 16 20 17 3 18 2 19 4 20 1 21
REMARK H PARENT 16 15 2 22
ROOT
ATOM      1  O   UNL     1      12.731 -60.011 -27.166  1.00  0.00    -0.410 OA
ENDROOT
BRANCH   1   2
ATOM      2  C   UNL     1      12.008 -59.867 -25.973  1.00  0.00     0.133 A 
ATOM      3  C   UNL     1       7.258 -59.744 -24.434  1.00  0.00     0.265 C 
ATOM      4  N   UNL     1       7.630 -59.499 -23.001  1.00  0.00    -0.317 N 
ATOM      5  C   UNL     1       7.787 -61.134 -24.731  1.00  0.00     0.081 C 
ATOM      6  C   UNL     1       8.782 -60.384 -22.658  1.00  0.00     0.296 C 
ATOM      7  C   UNL     1       9.078 -61.218 -23.926  1.00  0.00     0.072 C 
ATOM      8  N   UNL     1       9.814 -59.376 -22.446  1.00  0.00    -0.325 N 
ATOM      9  C   UNL     1      10.229 -60.451 -24.505  1.00  0.00    -0.007 A 
ATOM     10  C   UNL     1      10.636 -59.458 -23.605  1.00  0.00     0.045 A 
ATOM     11  C   UNL     1      10.896 -60.663 -25.702  1.00  0.00     0.054 A 
ATOM     12  C   UNL     1      11.721 -58.646 -23.900  1.00  0.00     0.030 A 
ATOM     13  C   UNL     1      12.411 -58.851 -25.098  1.00  0.00     0.049 A 
ATOM     14  C   UNL     1       6.509 -59.529 -22.032  1.00  0.00     0.334 C 
ATOM     15  H   UNL     1       8.097 -58.584 -22.941  1.00  0.00     0.349 HD
ATOM     16  C   UNL     1       9.480 -62.655 -23.602  1.00  0.00     0.025 C 
ATOM     17  C   UNL     1      10.599 -59.504 -21.214  1.00  0.00     0.150 C 
ENDBRANCH   1   2
BRANCH   1  18
ATOM     18  C   UNL     1      12.222 -59.326 -28.263  1.00  0.00     0.412 C 
ATOM     19  N   UNL     1      12.358 -60.099 -29.381  1.00  0.00    -0.324 N 
ATOM     20  O   UNL     1      11.723 -58.209 -28.241  1.00  0.00    -0.224 OA
ATOM     21  C   UNL     1      11.795 -59.714 -30.647  1.00  0.00     0.146 C 
ATOM     22  H   UNL     1      12.660 -61.053 -29.237  1.00  0.00     0.166 HD
ENDBRANCH   1  18
TORSDOF 2
ENDMDL
MODEL 6
REMARK VINA RESULT:    -7.484      3.615      6.547
REMARK INTER + INTRA:          -8.407
REMARK INTER:                  -9.442
REMARK INTRA:                   1.034
REMARK UNBOUND:                -0.048
REMARK SMILES CNC(=O)Oc1ccc2c(c1)[C@]1(C)CC[N@@H+](C)[C@@H]1N2C
REMARK SMILES IDX 5 1 6 2 15 3 16 4 14 5 18 6 12 7 19 8 10 9 9 10 11 11 8 12
REMARK SMILES IDX 7 13 17 14 13 16 20 17 3 18 2 19 4 20 1 21
REMARK H PARENT 16 15 2 22
ROOT
ATOM      1  O   UNL     1       8.669 -61.826 -28.127  1.00  0.00    -0.410 OA
ENDROOT
BRANCH   1   2
ATOM      2  C   UNL     1       9.552 -61.375 -27.136  1.00  0.00     0.133 A 
ATOM      3  C   UNL     1       9.393 -59.079 -22.704  1.00  0.00     0.265 C 
ATOM      4  N   UNL     1      10.887 -59.048 -22.561  1.00  0.00    -0.317 N 
ATOM      5  C   UNL     1       9.038 -60.552 -22.661  1.00  0.00     0.081 C 
ATOM      6  C   UNL     1      11.426 -60.369 -22.996  1.00  0.00     0.296 C 
ATOM      7  C   UNL     1      10.200 -61.234 -23.373  1.00  0.00     0.072 C 
ATOM      8  N   UNL     1      12.158 -59.958 -24.188  1.00  0.00    -0.325 N 
ATOM      9  C   UNL     1      10.197 -61.082 -24.865  1.00  0.00    -0.007 A 
ATOM     10  C   UNL     1      11.351 -60.400 -25.273  1.00  0.00     0.045 A 
ATOM     11  C   UNL     1       9.278 -61.567 -25.783  1.00  0.00     0.054 A 
ATOM     12  C   UNL     1      11.597 -60.182 -26.620  1.00  0.00     0.030 A 
ATOM     13  C   UNL     1      10.686 -60.671 -27.561  1.00  0.00     0.049 A 
ATOM     14  C   UNL     1      11.397 -58.564 -21.256  1.00  0.00     0.334 C 
ATOM     15  H   UNL     1      11.271 -58.455 -23.309  1.00  0.00     0.349 HD
ATOM     16  C   UNL     1      10.366 -62.696 -22.967  1.00  0.00     0.025 C 
ATOM     17  C   UNL     1      13.537 -60.448 -24.302  1.00  0.00     0.150 C 
ENDBRANCH   1   2
BRANCH   1  18
ATOM     18  C   UNL     1       8.089 -63.067 -27.895  1.00  0.00     0.412 C 
ATOM     19  N   UNL     1       7.593 -63.104 -26.623  1.00  0.00    -0.324 N 
ATOM     20  O   UNL     1       8.025 -63.987 -28.699  1.00  0.00    -0.224 OA
ATOM     21  C   UNL     1       6.812 -64.212 -26.142  1.00  0.00     0.146 C 
ATOM     22  H   UNL     1       7.592 -62.232 -26.113  1.00  0.00     0.166 HD
ENDBRANCH   1  18
TORSDOF 2
ENDMDL
MODEL 7
REMARK VINA RESULT:    -6.798      5.022     10.924
REMARK INTER + INTRA:          -7.641
REMARK INTER:                  -7.792
REMARK INTRA:                   0.152
REMARK UNBOUND:                -0.048
REMARK SMILES CNC(=O)Oc1ccc2c(c1)[C@]1(C)CC[N@@H+](C)[C@@H]1N2C
REMARK SMILES IDX 5 1 6 2 15 3 16 4 14 5 18 6 12 7 19 8 10 9 9 10 11 11 8 12
REMARK SMILES IDX 7 13 17 14 13 16 20 17 3 18 2 19 4 20 1 21
REMARK H PARENT 16 15 2 22
ROOT
ATOM      1  O   UNL     1       9.995 -52.452 -21.863  1.00  0.00    -0.410 OA
ENDROOT
BRANCH   1   2
ATOM      2  C   UNL     1      10.980 -51.668 -22.480  1.00  0.00     0.133 A 
ATOM      3  C   UNL     1      11.482 -47.102 -24.442  1.00  0.00     0.265 C 
ATOM      4  N   UNL     1      12.908 -47.333 -24.851  1.00  0.00    -0.317 N 
ATOM      5  C   UNL     1      11.512 -47.142 -22.927  1.00  0.00     0.081 C 
ATOM      6  C   UNL     1      13.607 -48.037 -23.737  1.00  0.00     0.296 C 
ATOM      7  C   UNL     1      12.566 -48.194 -22.604  1.00  0.00     0.072 C 
ATOM      8  N   UNL     1      13.871 -49.318 -24.381  1.00  0.00    -0.325 N 
ATOM      9  C   UNL     1      12.125 -49.610 -22.821  1.00  0.00    -0.007 A 
ATOM     10  C   UNL     1      12.930 -50.211 -23.797  1.00  0.00     0.045 A 
ATOM     11  C   UNL     1      11.135 -50.320 -22.158  1.00  0.00     0.054 A 
ATOM     12  C   UNL     1      12.745 -51.544 -24.136  1.00  0.00     0.030 A 
ATOM     13  C   UNL     1      11.757 -52.278 -23.473  1.00  0.00     0.049 A 
ATOM     14  C   UNL     1      13.621 -46.150 -25.388  1.00  0.00     0.334 C 
ATOM     15  H   UNL     1      12.923 -48.080 -25.559  1.00  0.00     0.349 HD
ATOM     16  C   UNL     1      13.178 -48.012 -21.217  1.00  0.00     0.025 C 
ATOM     17  C   UNL     1      15.243 -49.827 -24.271  1.00  0.00     0.150 C 
ENDBRANCH   1   2
BRANCH   1  18
ATOM     18  C   UNL     1      10.431 -53.665 -21.344  1.00  0.00     0.412 C 
ATOM     19  N   UNL     1      10.350 -54.626 -22.311  1.00  0.00    -0.324 N 
ATOM     20  O   UNL     1      10.831 -53.852 -20.203  1.00  0.00    -0.224 OA
ATOM     21  C   UNL     1      10.864 -55.955 -22.110  1.00  0.00     0.146 C 
ATOM     22  H   UNL     1      10.133 -54.310 -23.246  1.00  0.00     0.166 HD
ENDBRANCH   1  18
TORSDOF 2
ENDMDL
MODEL 8
REMARK VINA RESULT:    -6.679      4.827     11.027
REMARK INTER + INTRA:          -7.507
REMARK INTER:                  -7.499
REMARK INTRA:                  -0.008
REMARK UNBOUND:                -0.048
REMARK SMILES CNC(=O)Oc1ccc2c(c1)[C@]1(C)CC[N@@H+](C)[C@@H]1N2C
REMARK SMILES IDX 5 1 6 2 15 3 16 4 14 5 18 6 12 7 19 8 10 9 9 10 11 11 8 12
REMARK SMILES IDX 7 13 17 14 13 16 20 17 3 18 2 19 4 20 1 21
REMARK H PARENT 16 15 2 22
ROOT
ATOM      1  O   UNL     1      10.764 -52.668 -21.645  1.00  0.00    -0.410 OA
ENDROOT
BRANCH   1   2
ATOM      2  C   UNL     1      11.033 -51.379 -22.126  1.00  0.00     0.133 A 
ATOM      3  C   UNL     1      14.670 -47.963 -21.924  1.00  0.00     0.265 C 
ATOM      4  N   UNL     1      13.901 -46.959 -22.732  1.00  0.00    -0.317 N 
ATOM      5  C   UNL     1      14.933 -49.103 -22.887  1.00  0.00     0.081 C 
ATOM      6  C   UNL     1      13.247 -47.673 -23.866  1.00  0.00     0.296 C 
ATOM      7  C   UNL     1      13.680 -49.154 -23.752  1.00  0.00     0.072 C 
ATOM      8  N   UNL     1      11.848 -47.510 -23.489  1.00  0.00    -0.325 N 
ATOM      9  C   UNL     1      12.477 -49.747 -23.080  1.00  0.00    -0.007 A 
ATOM     10  C   UNL     1      11.457 -48.790 -23.006  1.00  0.00     0.045 A 
ATOM     11  C   UNL     1      12.288 -51.046 -22.634  1.00  0.00     0.054 A 
ATOM     12  C   UNL     1      10.223 -49.121 -22.466  1.00  0.00     0.030 A 
ATOM     13  C   UNL     1      10.011 -50.428 -22.018  1.00  0.00     0.049 A 
ATOM     14  C   UNL     1      14.644 -45.733 -23.110  1.00  0.00     0.334 C 
ATOM     15  H   UNL     1      13.064 -46.688 -22.198  1.00  0.00     0.349 HD
ATOM     16  C   UNL     1      13.926 -49.799 -25.113  1.00  0.00     0.025 C 
ATOM     17  C   UNL     1      10.946 -47.028 -24.541  1.00  0.00     0.150 C 
ENDBRANCH   1   2
BRANCH   1  18
ATOM     18  C   UNL     1      10.916 -53.697 -22.565  1.00  0.00     0.412 C 
ATOM     19  N   UNL     1      10.989 -54.889 -21.902  1.00  0.00    -0.324 N 
ATOM     20  O   UNL     1      10.972 -53.567 -23.780  1.00  0.00    -0.224 OA
ATOM     21  C   UNL     1      11.008 -56.148 -22.599  1.00  0.00     0.146 C 
ATOM     22  H   UNL     1      10.792 -54.869 -20.912  1.00  0.00     0.166 HD
ENDBRANCH   1  18
TORSDOF 2
ENDMDL
MODEL 9
REMARK VINA RESULT:    -6.413      9.255     11.429
REMARK INTER + INTRA:          -7.211
REMARK INTER:                  -7.038
REMARK INTRA:                  -0.173
REMARK UNBOUND:                -0.048
REMARK SMILES CNC(=O)Oc1ccc2c(c1)[C@]1(C)CC[N@@H+](C)[C@@H]1N2C
REMARK SMILES IDX 5 1 6 2 15 3 16 4 14 5 18 6 12 7 19 8 10 9 9 10 11 11 8 12
REMARK SMILES IDX 7 13 17 14 13 16 20 17 3 18 2 19 4 20 1 21
REMARK H PARENT 16 15 2 22
ROOT
ATOM      1  O   UNL     1      10.736 -47.635 -23.292  1.00  0.00    -0.410 OA
ENDROOT
BRANCH   1   2
ATOM      2  C   UNL     1      12.016 -48.195 -23.414  1.00  0.00     0.133 A 
ATOM      3  C   UNL     1      14.153 -52.386 -25.090  1.00  0.00     0.265 C 
ATOM      4  N   UNL     1      15.535 -51.951 -24.696  1.00  0.00    -0.317 N 
ATOM      5  C   UNL     1      13.744 -51.412 -26.177  1.00  0.00     0.081 C 
ATOM      6  C   UNL     1      15.697 -50.515 -25.068  1.00  0.00     0.296 C 
ATOM      7  C   UNL     1      14.373 -50.092 -25.748  1.00  0.00     0.072 C 
ATOM      8  N   UNL     1      15.809 -49.926 -23.739  1.00  0.00    -0.325 N 
ATOM      9  C   UNL     1      13.678 -49.407 -24.609  1.00  0.00    -0.007 A 
ATOM     10  C   UNL     1      14.553 -49.295 -23.521  1.00  0.00     0.045 A 
ATOM     11  C   UNL     1      12.399 -48.874 -24.570  1.00  0.00     0.054 A 
ATOM     12  C   UNL     1      14.150 -48.650 -22.361  1.00  0.00     0.030 A 
ATOM     13  C   UNL     1      12.867 -48.098 -22.306  1.00  0.00     0.049 A 
ATOM     14  C   UNL     1      16.637 -52.838 -25.136  1.00  0.00     0.334 C 
ATOM     15  H   UNL     1      15.566 -51.864 -23.671  1.00  0.00     0.349 HD
ATOM     16  C   UNL     1      14.594 -49.135 -26.916  1.00  0.00     0.025 C 
ATOM     17  C   UNL     1      16.926 -48.997 -23.536  1.00  0.00     0.150 C 
ENDBRANCH   1   2
BRANCH   1  18
ATOM     18  C   UNL     1      10.689 -46.358 -22.748  1.00  0.00     0.412 C 
ATOM     19  N   UNL     1      11.013 -45.445 -23.711  1.00  0.00    -0.324 N 
ATOM     20  O   UNL     1      10.398 -46.083 -21.592  1.00  0.00    -0.224 OA
ATOM     21  C   UNL     1      10.914 -44.028 -23.482  1.00  0.00     0.146 C 
ATOM     22  H   UNL     1      11.098 -45.794 -24.655  1.00  0.00     0.166 HD
ENDBRANCH   1  18
TORSDOF 2
ENDMDL
