MODEL 1
REMARK VINA RESULT:   -11.217      0.000      0.000
REMARK INTER + INTRA:         -17.873
REMARK INTER:                 -17.118
REMARK INTRA:                  -0.755
REMARK UNBOUND:                -0.755
REMARK SMILES CC[N@H+](CCC(=O)N1CC[NH+](CCN=c2c3c([nH]c4ccccc24)CCCC3)CC1)C1CCCCC1
REMARK SMILES IDX 11 1 10 2 9 3 8 4 6 5 7 6 30 7 29 8 12 10 13 11 14 12 15 13
REMARK SMILES IDX 18 14 17 15 19 16 16 17 25 18 20 19 24 20 28 21 26 22 21 23
REMARK SMILES IDX 23 24 27 25 22 26 5 28 4 29 3 30 2 32 1 33 31 34 32 35 36 36
REMARK SMILES IDX 33 37 35 38 34 39
REMARK H PARENT 11 9 18 27 3 31
ROOT
ATOM      1  N   UNL     1      10.592 -52.955 -22.548  1.00  0.00    -0.330 N 
ATOM      2  C   UNL     1      11.618 -53.388 -23.582  1.00  0.00     0.284 C 
ATOM      3  C   UNL     1      11.339 -54.834 -24.024  1.00  0.00     0.181 C 
ATOM      4  N   UNL     1      11.199 -55.789 -22.910  1.00  0.00    -0.331 N 
ATOM      5  C   UNL     1      11.395 -57.132 -23.234  1.00  0.00     0.228 C 
ATOM      6  O   UNL     1      11.804 -57.472 -24.342  1.00  0.00    -0.275 OA
ATOM      7  C   UNL     1      10.368 -55.347 -21.781  1.00  0.00     0.181 C 
ATOM      8  C   UNL     1      10.634 -53.891 -21.349  1.00  0.00     0.284 C 
ATOM      9  H   UNL     1       9.655 -53.023 -22.970  1.00  0.00     0.348 HD
ENDROOT
BRANCH   1  10
ATOM     10  C   UNL     1      10.755 -51.507 -22.108  1.00  0.00     0.286 C 
BRANCH  10  11
ATOM     11  C   UNL     1      12.210 -51.020 -22.237  1.00  0.00     0.204 C 
BRANCH  11  12
ATOM     12  N   UNL     1      12.177 -49.577 -22.331  1.00  0.00    -0.278 NA
BRANCH  12  13
ATOM     13  C   UNL     1      12.370 -48.895 -23.414  1.00  0.00     0.072 A 
ATOM     14  N   UNL     1      13.488 -46.962 -25.105  1.00  0.00    -0.358 N 
ATOM     15  C   UNL     1      12.453 -46.600 -24.262  1.00  0.00     0.021 A 
ATOM     16  C   UNL     1      13.676 -48.313 -25.443  1.00  0.00     0.048 A 
ATOM     17  C   UNL     1      11.852 -47.479 -23.432  1.00  0.00    -0.003 A 
ATOM     18  C   UNL     1      12.009 -45.153 -24.330  1.00  0.00     0.054 C 
ATOM     19  C   UNL     1      14.455 -48.661 -26.552  1.00  0.00     0.027 A 
ATOM     20  C   UNL     1      13.095 -49.323 -24.656  1.00  0.00     0.024 A 
ATOM     21  C   UNL     1      10.748 -47.108 -22.480  1.00  0.00     0.039 C 
ATOM     22  C   UNL     1      10.657 -44.890 -23.668  1.00  0.00     0.007 C 
ATOM     23  C   UNL     1      14.578 -49.997 -26.933  1.00  0.00     0.002 A 
ATOM     24  C   UNL     1      13.169 -50.654 -25.083  1.00  0.00     0.012 A 
ATOM     25  C   UNL     1      10.563 -45.597 -22.322  1.00  0.00     0.005 C 
ATOM     26  C   UNL     1      13.917 -50.990 -26.214  1.00  0.00     0.001 A 
ATOM     27  H   UNL     1      13.735 -46.285 -25.823  1.00  0.00     0.166 HD
ENDBRANCH  12  13
ENDBRANCH  11  12
ENDBRANCH  10  11
ENDBRANCH   1  10
BRANCH   5  28
ATOM     28  C   UNL     1      11.115 -58.183 -22.174  1.00  0.00     0.161 C 
BRANCH  28  29
ATOM     29  C   UNL     1      11.738 -59.514 -22.614  1.00  0.00     0.272 C 
BRANCH  29  30
ATOM     30  N   UNL     1      10.885 -60.203 -23.694  1.00  0.00    -0.332 N 
ATOM     31  H   UNL     1      10.395 -59.473 -24.227  1.00  0.00     0.348 HD
BRANCH  30  32
ATOM     32  C   UNL     1      11.779 -60.883 -24.733  1.00  0.00     0.258 C 
ATOM     33  C   UNL     1      13.250 -60.555 -24.546  1.00  0.00     0.071 C 
ENDBRANCH  30  32
BRANCH  30  34
ATOM     34  C   UNL     1       9.765 -61.102 -23.116  1.00  0.00     0.184 C 
ATOM     35  C   UNL     1       8.529 -61.037 -24.032  1.00  0.00     0.065 C 
ATOM     36  C   UNL     1      10.250 -62.558 -23.001  1.00  0.00     0.065 C 
ATOM     37  C   UNL     1       7.419 -61.974 -23.558  1.00  0.00     0.006 C 
ATOM     38  C   UNL     1       9.137 -63.494 -22.532  1.00  0.00     0.006 C 
ATOM     39  C   UNL     1       7.911 -63.410 -23.432  1.00  0.00     0.000 C 
ENDBRANCH  30  34
ENDBRANCH  29  30
ENDBRANCH  28  29
ENDBRANCH   5  28
TORSDOF 9
ENDMDL
MODEL 2
REMARK VINA RESULT:   -10.679      1.944     11.912
REMARK INTER + INTRA:         -17.053
REMARK INTER:                 -15.796
REMARK INTRA:                  -1.257
REMARK UNBOUND:                -0.755
REMARK SMILES CC[N@H+](CCC(=O)N1CC[NH+](CCN=c2c3c([nH]c4ccccc24)CCCC3)CC1)C1CCCCC1
REMARK SMILES IDX 11 1 10 2 9 3 8 4 6 5 7 6 30 7 29 8 12 10 13 11 14 12 15 13
REMARK SMILES IDX 18 14 17 15 19 16 16 17 25 18 20 19 24 20 28 21 26 22 21 23
REMARK SMILES IDX 23 24 27 25 22 26 5 28 4 29 3 30 2 32 1 33 31 34 32 35 36 36
REMARK SMILES IDX 33 37 35 38 34 39
REMARK H PARENT 11 9 18 27 3 31
ROOT
ATOM      1  N   UNL     1      10.461 -56.674 -23.280  1.00  0.00    -0.330 N 
ATOM      2  C   UNL     1      10.317 -55.731 -22.097  1.00  0.00     0.284 C 
ATOM      3  C   UNL     1      10.347 -54.273 -22.582  1.00  0.00     0.181 C 
ATOM      4  N   UNL     1      11.497 -53.948 -23.447  1.00  0.00    -0.331 N 
ATOM      5  C   UNL     1      11.821 -52.595 -23.541  1.00  0.00     0.228 C 
ATOM      6  O   UNL     1      11.276 -51.753 -22.831  1.00  0.00    -0.275 OA
ATOM      7  C   UNL     1      11.810 -54.926 -24.498  1.00  0.00     0.181 C 
ATOM      8  C   UNL     1      11.761 -56.391 -24.017  1.00  0.00     0.284 C 
ATOM      9  H   UNL     1       9.683 -56.501 -23.931  1.00  0.00     0.348 HD
ENDROOT
BRANCH   1  10
ATOM     10  C   UNL     1      10.370 -58.144 -22.893  1.00  0.00     0.286 C 
BRANCH  10  11
ATOM     11  C   UNL     1      11.733 -58.855 -22.986  1.00  0.00     0.204 C 
BRANCH  11  12
ATOM     12  N   UNL     1      11.474 -60.272 -23.115  1.00  0.00    -0.278 NA
BRANCH  12  13
ATOM     13  C   UNL     1      10.958 -60.844 -24.156  1.00  0.00     0.072 A 
ATOM     14  N   UNL     1       9.042 -61.451 -26.107  1.00  0.00    -0.358 N 
ATOM     15  C   UNL     1       8.994 -62.107 -24.890  1.00  0.00     0.021 A 
ATOM     16  C   UNL     1      10.240 -60.851 -26.532  1.00  0.00     0.048 A 
ATOM     17  C   UNL     1       9.892 -61.881 -23.909  1.00  0.00    -0.003 A 
ATOM     18  C   UNL     1       7.878 -63.118 -24.719  1.00  0.00     0.054 C 
ATOM     19  C   UNL     1      10.422 -60.514 -27.877  1.00  0.00     0.027 A 
ATOM     20  C   UNL     1      11.255 -60.569 -25.600  1.00  0.00     0.024 A 
ATOM     21  C   UNL     1       9.846 -62.554 -22.563  1.00  0.00     0.039 C 
ATOM     22  C   UNL     1       8.076 -64.060 -23.532  1.00  0.00     0.007 C 
ATOM     23  C   UNL     1      11.638 -59.990 -28.313  1.00  0.00     0.002 A 
ATOM     24  C   UNL     1      12.495 -60.106 -26.056  1.00  0.00     0.012 A 
ATOM     25  C   UNL     1       8.532 -63.293 -22.298  1.00  0.00     0.005 C 
ATOM     26  C   UNL     1      12.681 -59.808 -27.408  1.00  0.00     0.001 A 
ATOM     27  H   UNL     1       8.449 -61.830 -26.841  1.00  0.00     0.166 HD
ENDBRANCH  12  13
ENDBRANCH  11  12
ENDBRANCH  10  11
ENDBRANCH   1  10
BRANCH   5  28
ATOM     28  C   UNL     1      12.892 -52.172 -24.532  1.00  0.00     0.161 C 
BRANCH  28  29
ATOM     29  C   UNL     1      12.849 -50.648 -24.694  1.00  0.00     0.272 C 
BRANCH  29  30
ATOM     30  N   UNL     1      13.332 -49.933 -23.419  1.00  0.00    -0.332 N 
ATOM     31  H   UNL     1      12.897 -50.396 -22.610  1.00  0.00     0.348 HD
BRANCH  30  32
ATOM     32  C   UNL     1      14.831 -50.159 -23.212  1.00  0.00     0.258 C 
ATOM     33  C   UNL     1      15.540 -48.930 -22.671  1.00  0.00     0.071 C 
ENDBRANCH  30  32
BRANCH  30  34
ATOM     34  C   UNL     1      12.880 -48.455 -23.331  1.00  0.00     0.184 C 
ATOM     35  C   UNL     1      12.781 -47.863 -24.749  1.00  0.00     0.065 C 
ATOM     36  C   UNL     1      11.515 -48.351 -22.629  1.00  0.00     0.065 C 
ATOM     37  C   UNL     1      12.254 -46.428 -24.731  1.00  0.00     0.006 C 
ATOM     38  C   UNL     1      10.987 -46.917 -22.616  1.00  0.00     0.006 C 
ATOM     39  C   UNL     1      10.911 -46.331 -24.020  1.00  0.00     0.000 C 
ENDBRANCH  30  34
ENDBRANCH  29  30
ENDBRANCH  28  29
ENDBRANCH   5  28
TORSDOF 9
ENDMDL
MODEL 3
REMARK VINA RESULT:   -10.614      0.979      2.181
REMARK INTER + INTRA:         -16.954
REMARK INTER:                 -15.822
REMARK INTRA:                  -1.133
REMARK UNBOUND:                -0.755
REMARK SMILES CC[N@H+](CCC(=O)N1CC[NH+](CCN=c2c3c([nH]c4ccccc24)CCCC3)CC1)C1CCCCC1
REMARK SMILES IDX 11 1 10 2 9 3 8 4 6 5 7 6 30 7 29 8 12 10 13 11 14 12 15 13
REMARK SMILES IDX 18 14 17 15 19 16 16 17 25 18 20 19 24 20 28 21 26 22 21 23
REMARK SMILES IDX 23 24 27 25 22 26 5 28 4 29 3 30 2 32 1 33 31 34 32 35 36 36
REMARK SMILES IDX 33 37 35 38 34 39
REMARK H PARENT 11 9 18 27 3 31
ROOT
ATOM      1  N   UNL     1      10.836 -52.635 -22.057  1.00  0.00    -0.330 N 
ATOM      2  C   UNL     1      11.758 -53.054 -23.190  1.00  0.00     0.284 C 
ATOM      3  C   UNL     1      11.357 -54.446 -23.705  1.00  0.00     0.181 C 
ATOM      4  N   UNL     1      11.233 -55.468 -22.649  1.00  0.00    -0.331 N 
ATOM      5  C   UNL     1      11.319 -56.793 -23.075  1.00  0.00     0.228 C 
ATOM      6  O   UNL     1      11.628 -57.078 -24.230  1.00  0.00    -0.275 OA
ATOM      7  C   UNL     1      10.512 -55.057 -21.436  1.00  0.00     0.181 C 
ATOM      8  C   UNL     1      10.900 -53.653 -20.929  1.00  0.00     0.284 C 
ATOM      9  H   UNL     1       9.870 -52.617 -22.413  1.00  0.00     0.348 HD
ENDROOT
BRANCH   1  10
ATOM     10  C   UNL     1      11.122 -51.233 -21.535  1.00  0.00     0.286 C 
BRANCH  10  11
ATOM     11  C   UNL     1      10.783 -50.146 -22.572  1.00  0.00     0.204 C 
BRANCH  11  12
ATOM     12  N   UNL     1      11.871 -49.193 -22.571  1.00  0.00    -0.278 NA
BRANCH  12  13
ATOM     13  C   UNL     1      12.253 -48.496 -23.593  1.00  0.00     0.072 A 
ATOM     14  N   UNL     1      13.725 -46.609 -25.050  1.00  0.00    -0.358 N 
ATOM     15  C   UNL     1      12.622 -46.190 -24.328  1.00  0.00     0.021 A 
ATOM     16  C   UNL     1      13.849 -47.960 -25.417  1.00  0.00     0.048 A 
ATOM     17  C   UNL     1      11.854 -47.042 -23.617  1.00  0.00    -0.003 A 
ATOM     18  C   UNL     1      12.304 -44.710 -24.391  1.00  0.00     0.054 C 
ATOM     19  C   UNL     1      14.734 -48.336 -26.433  1.00  0.00     0.027 A 
ATOM     20  C   UNL     1      13.096 -48.943 -24.751  1.00  0.00     0.024 A 
ATOM     21  C   UNL     1      10.668 -46.611 -22.796  1.00  0.00     0.039 C 
ATOM     22  C   UNL     1      10.902 -44.358 -23.893  1.00  0.00     0.007 C 
ATOM     23  C   UNL     1      14.801 -49.665 -26.851  1.00  0.00     0.002 A 
ATOM     24  C   UNL     1      13.120 -50.262 -25.220  1.00  0.00     0.012 A 
ATOM     25  C   UNL     1      10.583 -45.096 -22.600  1.00  0.00     0.005 C 
ATOM     26  C   UNL     1      13.978 -50.622 -26.261  1.00  0.00     0.001 A 
ATOM     27  H   UNL     1      14.114 -45.933 -25.702  1.00  0.00     0.166 HD
ENDBRANCH  12  13
ENDBRANCH  11  12
ENDBRANCH  10  11
ENDBRANCH   1  10
BRANCH   5  28
ATOM     28  C   UNL     1      11.046 -57.898 -22.069  1.00  0.00     0.161 C 
BRANCH  28  29
ATOM     29  C   UNL     1      10.120 -58.939 -22.710  1.00  0.00     0.272 C 
BRANCH  29  30
ATOM     30  N   UNL     1      10.795 -60.320 -22.787  1.00  0.00    -0.332 N 
ATOM     31  H   UNL     1      11.636 -60.297 -22.196  1.00  0.00     0.348 HD
BRANCH  30  32
ATOM     32  C   UNL     1       9.914 -61.386 -22.132  1.00  0.00     0.258 C 
ATOM     33  C   UNL     1      10.062 -62.750 -22.782  1.00  0.00     0.071 C 
ENDBRANCH  30  32
BRANCH  30  34
ATOM     34  C   UNL     1      11.304 -60.680 -24.204  1.00  0.00     0.184 C 
ATOM     35  C   UNL     1      10.406 -60.007 -25.259  1.00  0.00     0.065 C 
ATOM     36  C   UNL     1      12.759 -60.214 -24.386  1.00  0.00     0.065 C 
ATOM     37  C   UNL     1      10.913 -60.256 -26.679  1.00  0.00     0.006 C 
ATOM     38  C   UNL     1      13.262 -60.459 -25.809  1.00  0.00     0.006 C 
ATOM     39  C   UNL     1      12.358 -59.806 -26.847  1.00  0.00     0.000 C 
ENDBRANCH  30  34
ENDBRANCH  29  30
ENDBRANCH  28  29
ENDBRANCH   5  28
TORSDOF 9
ENDMDL
MODEL 4
REMARK VINA RESULT:   -10.344      1.238      3.376
REMARK INTER + INTRA:         -16.541
REMARK INTER:                 -15.335
REMARK INTRA:                  -1.206
REMARK UNBOUND:                -0.755
REMARK SMILES CC[N@H+](CCC(=O)N1CC[NH+](CCN=c2c3c([nH]c4ccccc24)CCCC3)CC1)C1CCCCC1
REMARK SMILES IDX 11 1 10 2 9 3 8 4 6 5 7 6 30 7 29 8 12 10 13 11 14 12 15 13
REMARK SMILES IDX 18 14 17 15 19 16 16 17 25 18 20 19 24 20 28 21 26 22 21 23
REMARK SMILES IDX 23 24 27 25 22 26 5 28 4 29 3 30 2 32 1 33 31 34 32 35 36 36
REMARK SMILES IDX 33 37 35 38 34 39
REMARK H PARENT 11 9 18 27 3 31
ROOT
ATOM      1  N   UNL     1      10.410 -53.079 -22.448  1.00  0.00    -0.330 N 
ATOM      2  C   UNL     1      11.642 -53.145 -23.335  1.00  0.00     0.284 C 
ATOM      3  C   UNL     1      11.598 -54.414 -24.201  1.00  0.00     0.181 C 
ATOM      4  N   UNL     1      11.363 -55.656 -23.440  1.00  0.00    -0.331 N 
ATOM      5  C   UNL     1      11.752 -56.837 -24.072  1.00  0.00     0.228 C 
ATOM      6  O   UNL     1      12.384 -56.823 -25.126  1.00  0.00    -0.275 OA
ATOM      7  C   UNL     1      10.304 -55.598 -22.423  1.00  0.00     0.181 C 
ATOM      8  C   UNL     1      10.336 -54.316 -21.566  1.00  0.00     0.284 C 
ATOM      9  H   UNL     1       9.575 -53.069 -23.051  1.00  0.00     0.348 HD
ENDROOT
BRANCH   1  10
ATOM     10  C   UNL     1      10.341 -51.812 -21.607  1.00  0.00     0.286 C 
BRANCH  10  11
ATOM     11  C   UNL     1      10.397 -50.537 -22.469  1.00  0.00     0.204 C 
BRANCH  11  12
ATOM     12  N   UNL     1      11.663 -49.890 -22.203  1.00  0.00    -0.278 NA
BRANCH  12  13
ATOM     13  C   UNL     1      12.192 -48.958 -22.929  1.00  0.00     0.072 A 
ATOM     14  N   UNL     1      12.872 -47.537 -25.247  1.00  0.00    -0.358 N 
ATOM     15  C   UNL     1      13.655 -48.610 -24.860  1.00  0.00     0.021 A 
ATOM     16  C   UNL     1      12.051 -46.895 -24.304  1.00  0.00     0.048 A 
ATOM     17  C   UNL     1      13.402 -49.330 -23.748  1.00  0.00    -0.003 A 
ATOM     18  C   UNL     1      14.840 -48.927 -25.751  1.00  0.00     0.054 C 
ATOM     19  C   UNL     1      11.545 -45.617 -24.563  1.00  0.00     0.027 A 
ATOM     20  C   UNL     1      11.718 -47.544 -23.101  1.00  0.00     0.024 A 
ATOM     21  C   UNL     1      14.217 -50.521 -23.321  1.00  0.00     0.039 C 
ATOM     22  C   UNL     1      15.864 -49.861 -25.106  1.00  0.00     0.007 C 
ATOM     23  C   UNL     1      10.795 -44.948 -23.596  1.00  0.00     0.002 A 
ATOM     24  C   UNL     1      11.022 -46.841 -22.111  1.00  0.00     0.012 A 
ATOM     25  C   UNL     1      15.174 -51.023 -24.404  1.00  0.00     0.005 C 
ATOM     26  C   UNL     1      10.553 -45.550 -22.363  1.00  0.00     0.001 A 
ATOM     27  H   UNL     1      13.256 -46.945 -25.979  1.00  0.00     0.166 HD
ENDBRANCH  12  13
ENDBRANCH  11  12
ENDBRANCH  10  11
ENDBRANCH   1  10
BRANCH   5  28
ATOM     28  C   UNL     1      11.400 -58.161 -23.417  1.00  0.00     0.161 C 
BRANCH  28  29
ATOM     29  C   UNL     1      12.207 -59.280 -24.086  1.00  0.00     0.272 C 
BRANCH  29  30
ATOM     30  N   UNL     1      11.430 -59.908 -25.258  1.00  0.00    -0.332 N 
ATOM     31  H   UNL     1      10.640 -59.291 -25.484  1.00  0.00     0.348 HD
BRANCH  30  32
ATOM     32  C   UNL     1      12.280 -59.903 -26.530  1.00  0.00     0.258 C 
ATOM     33  C   UNL     1      11.510 -59.423 -27.748  1.00  0.00     0.071 C 
ENDBRANCH  30  32
BRANCH  30  34
ATOM     34  C   UNL     1      10.789 -61.274 -24.911  1.00  0.00     0.184 C 
ATOM     35  C   UNL     1      11.026 -61.590 -23.422  1.00  0.00     0.065 C 
ATOM     36  C   UNL     1       9.279 -61.249 -25.203  1.00  0.00     0.065 C 
ATOM     37  C   UNL     1      10.339 -62.888 -22.999  1.00  0.00     0.006 C 
ATOM     38  C   UNL     1       8.594 -62.546 -24.775  1.00  0.00     0.006 C 
ATOM     39  C   UNL     1       8.848 -62.862 -23.306  1.00  0.00     0.000 C 
ENDBRANCH  30  34
ENDBRANCH  29  30
ENDBRANCH  28  29
ENDBRANCH   5  28
TORSDOF 9
ENDMDL
MODEL 5
REMARK VINA RESULT:   -10.337      1.216      3.749
REMARK INTER + INTRA:         -16.531
REMARK INTER:                 -15.561
REMARK INTRA:                  -0.970
REMARK UNBOUND:                -0.755
REMARK SMILES CC[N@H+](CCC(=O)N1CC[NH+](CCN=c2c3c([nH]c4ccccc24)CCCC3)CC1)C1CCCCC1
REMARK SMILES IDX 11 1 10 2 9 3 8 4 6 5 7 6 30 7 29 8 12 10 13 11 14 12 15 13
REMARK SMILES IDX 18 14 17 15 19 16 16 17 25 18 20 19 24 20 28 21 26 22 21 23
REMARK SMILES IDX 23 24 27 25 22 26 5 28 4 29 3 30 2 32 1 33 31 34 32 35 36 36
REMARK SMILES IDX 33 37 35 38 34 39
REMARK H PARENT 11 9 18 27 3 31
ROOT
ATOM      1  N   UNL     1      10.417 -52.661 -22.478  1.00  0.00    -0.330 N 
ATOM      2  C   UNL     1      11.532 -53.023 -23.445  1.00  0.00     0.284 C 
ATOM      3  C   UNL     1      11.348 -54.465 -23.943  1.00  0.00     0.181 C 
ATOM      4  N   UNL     1      11.170 -55.457 -22.866  1.00  0.00    -0.331 N 
ATOM      5  C   UNL     1      11.447 -56.781 -23.209  1.00  0.00     0.228 C 
ATOM      6  O   UNL     1      11.949 -57.072 -24.292  1.00  0.00    -0.275 OA
ATOM      7  C   UNL     1      10.243 -55.081 -21.790  1.00  0.00     0.181 C 
ATOM      8  C   UNL     1      10.413 -53.628 -21.303  1.00  0.00     0.284 C 
ATOM      9  H   UNL     1       9.517 -52.756 -22.969  1.00  0.00     0.348 HD
ENDROOT
BRANCH   1  10
ATOM     10  C   UNL     1      10.485 -51.221 -21.991  1.00  0.00     0.286 C 
BRANCH  10  11
ATOM     11  C   UNL     1      11.837 -50.560 -22.319  1.00  0.00     0.204 C 
BRANCH  11  12
ATOM     12  N   UNL     1      11.572 -49.452 -23.211  1.00  0.00    -0.278 NA
BRANCH  12  13
ATOM     13  C   UNL     1      12.451 -48.592 -23.613  1.00  0.00     0.072 A 
ATOM     14  N   UNL     1      13.623 -46.643 -25.251  1.00  0.00    -0.358 N 
ATOM     15  C   UNL     1      13.803 -47.980 -25.560  1.00  0.00     0.021 A 
ATOM     16  C   UNL     1      13.266 -46.270 -23.944  1.00  0.00     0.048 A 
ATOM     17  C   UNL     1      13.286 -48.974 -24.809  1.00  0.00    -0.003 A 
ATOM     18  C   UNL     1      14.639 -48.275 -26.790  1.00  0.00     0.054 C 
ATOM     19  C   UNL     1      13.434 -44.949 -23.517  1.00  0.00     0.027 A 
ATOM     20  C   UNL     1      12.718 -47.221 -23.064  1.00  0.00     0.024 A 
ATOM     21  C   UNL     1      13.437 -50.435 -25.140  1.00  0.00     0.039 C 
ATOM     22  C   UNL     1      15.108 -49.726 -26.883  1.00  0.00     0.007 C 
ATOM     23  C   UNL     1      13.153 -44.595 -22.198  1.00  0.00     0.002 A 
ATOM     24  C   UNL     1      12.501 -46.874 -21.726  1.00  0.00     0.012 A 
ATOM     25  C   UNL     1      13.975 -50.687 -26.550  1.00  0.00     0.005 C 
ATOM     26  C   UNL     1      12.709 -45.560 -21.297  1.00  0.00     0.001 A 
ATOM     27  H   UNL     1      14.211 -45.986 -25.757  1.00  0.00     0.166 HD
ENDBRANCH  12  13
ENDBRANCH  11  12
ENDBRANCH  10  11
ENDBRANCH   1  10
BRANCH   5  28
ATOM     28  C   UNL     1      11.138 -57.872 -22.199  1.00  0.00     0.161 C 
BRANCH  28  29
ATOM     29  C   UNL     1      10.165 -58.876 -22.830  1.00  0.00     0.272 C 
BRANCH  29  30
ATOM     30  N   UNL     1      10.809 -60.267 -22.974  1.00  0.00    -0.332 N 
ATOM     31  H   UNL     1      11.695 -60.264 -22.451  1.00  0.00     0.348 HD
BRANCH  30  32
ATOM     32  C   UNL     1       9.964 -61.326 -22.263  1.00  0.00     0.258 C 
ATOM     33  C   UNL     1      10.222 -62.729 -22.784  1.00  0.00     0.071 C 
ENDBRANCH  30  32
BRANCH  30  34
ATOM     34  C   UNL     1      11.201 -60.619 -24.430  1.00  0.00     0.184 C 
ATOM     35  C   UNL     1      10.257 -59.891 -25.405  1.00  0.00     0.065 C 
ATOM     36  C   UNL     1      12.656 -60.206 -24.710  1.00  0.00     0.065 C 
ATOM     37  C   UNL     1      10.649 -60.131 -26.863  1.00  0.00     0.006 C 
ATOM     38  C   UNL     1      13.045 -60.442 -26.169  1.00  0.00     0.006 C 
ATOM     39  C   UNL     1      12.096 -59.735 -27.128  1.00  0.00     0.000 C 
ENDBRANCH  30  34
ENDBRANCH  29  30
ENDBRANCH  28  29
ENDBRANCH   5  28
TORSDOF 9
ENDMDL
MODEL 6
REMARK VINA RESULT:   -10.122      2.288     11.528
REMARK INTER + INTRA:         -16.203
REMARK INTER:                 -15.327
REMARK INTRA:                  -0.876
REMARK UNBOUND:                -0.755
REMARK SMILES CC[N@H+](CCC(=O)N1CC[NH+](CCN=c2c3c([nH]c4ccccc24)CCCC3)CC1)C1CCCCC1
REMARK SMILES IDX 11 1 10 2 9 3 8 4 6 5 7 6 30 7 29 8 12 10 13 11 14 12 15 13
REMARK SMILES IDX 18 14 17 15 19 16 16 17 25 18 20 19 24 20 28 21 26 22 21 23
REMARK SMILES IDX 23 24 27 25 22 26 5 28 4 29 3 30 2 32 1 33 31 34 32 35 36 36
REMARK SMILES IDX 33 37 35 38 34 39
REMARK H PARENT 11 9 18 27 3 31
ROOT
ATOM      1  N   UNL     1      10.507 -56.783 -23.112  1.00  0.00    -0.330 N 
ATOM      2  C   UNL     1      10.748 -56.147 -21.754  1.00  0.00     0.284 C 
ATOM      3  C   UNL     1      10.594 -54.621 -21.854  1.00  0.00     0.181 C 
ATOM      4  N   UNL     1      11.388 -54.004 -22.933  1.00  0.00    -0.331 N 
ATOM      5  C   UNL     1      11.642 -52.639 -22.795  1.00  0.00     0.228 C 
ATOM      6  O   UNL     1      11.350 -52.033 -21.766  1.00  0.00    -0.275 OA
ATOM      7  C   UNL     1      11.350 -54.688 -24.233  1.00  0.00     0.181 C 
ATOM      8  C   UNL     1      11.486 -56.221 -24.132  1.00  0.00     0.284 C 
ATOM      9  H   UNL     1       9.555 -56.542 -23.421  1.00  0.00     0.348 HD
ENDROOT
BRANCH   1  10
ATOM     10  C   UNL     1      10.572 -58.304 -23.085  1.00  0.00     0.286 C 
BRANCH  10  11
ATOM     11  C   UNL     1      12.020 -58.825 -23.115  1.00  0.00     0.204 C 
BRANCH  11  12
ATOM     12  N   UNL     1      11.965 -60.244 -23.392  1.00  0.00    -0.278 NA
BRANCH  12  13
ATOM     13  C   UNL     1      11.333 -60.785 -24.384  1.00  0.00     0.072 A 
ATOM     14  N   UNL     1       9.228 -61.288 -26.164  1.00  0.00    -0.358 N 
ATOM     15  C   UNL     1       9.251 -61.943 -24.946  1.00  0.00     0.021 A 
ATOM     16  C   UNL     1      10.414 -60.749 -26.690  1.00  0.00     0.048 A 
ATOM     17  C   UNL     1      10.240 -61.767 -24.045  1.00  0.00    -0.003 A 
ATOM     18  C   UNL     1       8.103 -62.897 -24.678  1.00  0.00     0.054 C 
ATOM     19  C   UNL     1      10.498 -60.417 -28.046  1.00  0.00     0.027 A 
ATOM     20  C   UNL     1      11.519 -60.522 -25.849  1.00  0.00     0.024 A 
ATOM     21  C   UNL     1      10.274 -62.441 -22.700  1.00  0.00     0.039 C 
ATOM     22  C   UNL     1       8.354 -63.851 -23.511  1.00  0.00     0.007 C 
ATOM     23  C   UNL     1      11.698 -59.955 -28.585  1.00  0.00     0.002 A 
ATOM     24  C   UNL     1      12.738 -60.122 -26.410  1.00  0.00     0.012 A 
ATOM     25  C   UNL     1       8.952 -63.111 -22.322  1.00  0.00     0.005 C 
ATOM     26  C   UNL     1      12.823 -59.830 -27.773  1.00  0.00     0.001 A 
ATOM     27  H   UNL     1       8.556 -61.634 -26.844  1.00  0.00     0.166 HD
ENDBRANCH  12  13
ENDBRANCH  11  12
ENDBRANCH  10  11
ENDBRANCH   1  10
BRANCH   5  28
ATOM     28  C   UNL     1      12.319 -51.907 -23.940  1.00  0.00     0.161 C 
BRANCH  28  29
ATOM     29  C   UNL     1      12.613 -50.466 -23.507  1.00  0.00     0.272 C 
BRANCH  29  30
ATOM     30  N   UNL     1      13.543 -49.757 -24.509  1.00  0.00    -0.332 N 
ATOM     31  H   UNL     1      13.255 -50.029 -25.458  1.00  0.00     0.348 HD
BRANCH  30  32
ATOM     32  C   UNL     1      13.318 -48.244 -24.474  1.00  0.00     0.258 C 
ATOM     33  C   UNL     1      14.549 -47.478 -24.023  1.00  0.00     0.071 C 
ENDBRANCH  30  32
BRANCH  30  34
ATOM     34  C   UNL     1      15.023 -50.195 -24.394  1.00  0.00     0.184 C 
ATOM     35  C   UNL     1      15.224 -50.992 -23.091  1.00  0.00     0.065 C 
ATOM     36  C   UNL     1      15.422 -51.064 -25.600  1.00  0.00     0.065 C 
ATOM     37  C   UNL     1      16.649 -51.527 -22.965  1.00  0.00     0.006 C 
ATOM     38  C   UNL     1      16.846 -51.602 -25.470  1.00  0.00     0.006 C 
ATOM     39  C   UNL     1      17.042 -52.372 -24.170  1.00  0.00     0.000 C 
ENDBRANCH  30  34
ENDBRANCH  29  30
ENDBRANCH  28  29
ENDBRANCH   5  28
TORSDOF 9
ENDMDL
MODEL 7
REMARK VINA RESULT:    -9.970      1.730      2.133
REMARK INTER + INTRA:         -15.970
REMARK INTER:                 -14.907
REMARK INTRA:                  -1.064
REMARK UNBOUND:                -0.755
REMARK SMILES CC[N@H+](CCC(=O)N1CC[NH+](CCN=c2c3c([nH]c4ccccc24)CCCC3)CC1)C1CCCCC1
REMARK SMILES IDX 11 1 10 2 9 3 8 4 6 5 7 6 30 7 29 8 12 10 13 11 14 12 15 13
REMARK SMILES IDX 18 14 17 15 19 16 16 17 25 18 20 19 24 20 28 21 26 22 21 23
REMARK SMILES IDX 23 24 27 25 22 26 5 28 4 29 3 30 2 32 1 33 31 34 32 35 36 36
REMARK SMILES IDX 33 37 35 38 34 39
REMARK H PARENT 11 9 18 27 3 31
ROOT
ATOM      1  N   UNL     1      11.008 -52.516 -22.382  1.00  0.00    -0.330 N 
ATOM      2  C   UNL     1      11.993 -53.001 -23.432  1.00  0.00     0.284 C 
ATOM      3  C   UNL     1      11.573 -54.387 -23.946  1.00  0.00     0.181 C 
ATOM      4  N   UNL     1      11.326 -55.377 -22.881  1.00  0.00    -0.331 N 
ATOM      5  C   UNL     1      11.386 -56.715 -23.270  1.00  0.00     0.228 C 
ATOM      6  O   UNL     1      11.769 -57.040 -24.391  1.00  0.00    -0.275 OA
ATOM      7  C   UNL     1      10.534 -54.907 -21.735  1.00  0.00     0.181 C 
ATOM      8  C   UNL     1      10.943 -53.508 -21.230  1.00  0.00     0.284 C 
ATOM      9  H   UNL     1      10.073 -52.467 -22.811  1.00  0.00     0.348 HD
ENDROOT
BRANCH   1  10
ATOM     10  C   UNL     1      11.314 -51.115 -21.870  1.00  0.00     0.286 C 
BRANCH  10  11
ATOM     11  C   UNL     1      10.573 -50.029 -22.673  1.00  0.00     0.204 C 
BRANCH  11  12
ATOM     12  N   UNL     1      11.464 -48.894 -22.788  1.00  0.00    -0.278 NA
BRANCH  12  13
ATOM     13  C   UNL     1      12.747 -48.966 -22.939  1.00  0.00     0.072 A 
ATOM     14  N   UNL     1      15.398 -49.673 -22.368  1.00  0.00    -0.358 N 
ATOM     15  C   UNL     1      14.856 -48.550 -21.767  1.00  0.00     0.021 A 
ATOM     16  C   UNL     1      14.826 -50.179 -23.547  1.00  0.00     0.048 A 
ATOM     17  C   UNL     1      13.594 -48.137 -22.007  1.00  0.00    -0.003 A 
ATOM     18  C   UNL     1      15.769 -47.787 -20.828  1.00  0.00     0.054 C 
ATOM     19  C   UNL     1      15.548 -51.060 -24.360  1.00  0.00     0.027 A 
ATOM     20  C   UNL     1      13.515 -49.818 -23.907  1.00  0.00     0.024 A 
ATOM     21  C   UNL     1      12.967 -46.941 -21.343  1.00  0.00     0.039 C 
ATOM     22  C   UNL     1      15.266 -46.387 -20.482  1.00  0.00     0.007 C 
ATOM     23  C   UNL     1      15.011 -51.502 -25.568  1.00  0.00     0.002 A 
ATOM     24  C   UNL     1      13.010 -50.212 -25.152  1.00  0.00     0.012 A 
ATOM     25  C   UNL     1      13.778 -46.407 -20.160  1.00  0.00     0.005 C 
ATOM     26  C   UNL     1      13.754 -51.061 -25.975  1.00  0.00     0.001 A 
ATOM     27  H   UNL     1      16.404 -49.785 -22.277  1.00  0.00     0.166 HD
ENDBRANCH  12  13
ENDBRANCH  11  12
ENDBRANCH  10  11
ENDBRANCH   1  10
BRANCH   5  28
ATOM     28  C   UNL     1      10.992 -57.782 -22.264  1.00  0.00     0.161 C 
BRANCH  28  29
ATOM     29  C   UNL     1      11.641 -59.112 -22.666  1.00  0.00     0.272 C 
BRANCH  29  30
ATOM     30  N   UNL     1      10.829 -59.824 -23.764  1.00  0.00    -0.332 N 
ATOM     31  H   UNL     1      10.261 -59.117 -24.249  1.00  0.00     0.348 HD
BRANCH  30  32
ATOM     32  C   UNL     1      11.757 -60.363 -24.855  1.00  0.00     0.258 C 
ATOM     33  C   UNL     1      13.197 -60.492 -24.390  1.00  0.00     0.071 C 
ENDBRANCH  30  32
BRANCH  30  34
ATOM     34  C   UNL     1       9.812 -60.852 -23.212  1.00  0.00     0.184 C 
ATOM     35  C   UNL     1       8.600 -60.936 -24.159  1.00  0.00     0.065 C 
ATOM     36  C   UNL     1      10.466 -62.238 -23.081  1.00  0.00     0.065 C 
ATOM     37  C   UNL     1       7.600 -62.001 -23.711  1.00  0.00     0.006 C 
ATOM     38  C   UNL     1       9.463 -63.302 -22.638  1.00  0.00     0.006 C 
ATOM     39  C   UNL     1       8.259 -63.367 -23.568  1.00  0.00     0.000 C 
ENDBRANCH  30  34
ENDBRANCH  29  30
ENDBRANCH  28  29
ENDBRANCH   5  28
TORSDOF 9
ENDMDL
MODEL 8
REMARK VINA RESULT:    -9.814      2.090      4.004
REMARK INTER + INTRA:         -15.733
REMARK INTER:                 -14.417
REMARK INTRA:                  -1.316
REMARK UNBOUND:                -0.755
REMARK SMILES CC[N@H+](CCC(=O)N1CC[NH+](CCN=c2c3c([nH]c4ccccc24)CCCC3)CC1)C1CCCCC1
REMARK SMILES IDX 11 1 10 2 9 3 8 4 6 5 7 6 30 7 29 8 12 10 13 11 14 12 15 13
REMARK SMILES IDX 18 14 17 15 19 16 16 17 25 18 20 19 24 20 28 21 26 22 21 23
REMARK SMILES IDX 23 24 27 25 22 26 5 28 4 29 3 30 2 32 1 33 31 34 32 35 36 36
REMARK SMILES IDX 33 37 35 38 34 39
REMARK H PARENT 11 9 18 27 3 31
ROOT
ATOM      1  N   UNL     1      11.724 -50.748 -22.962  1.00  0.00    -0.330 N 
ATOM      2  C   UNL     1      12.636 -51.581 -23.848  1.00  0.00     0.284 C 
ATOM      3  C   UNL     1      11.941 -52.899 -24.226  1.00  0.00     0.181 C 
ATOM      4  N   UNL     1      11.406 -53.650 -23.075  1.00  0.00    -0.331 N 
ATOM      5  C   UNL     1      11.181 -55.010 -23.290  1.00  0.00     0.228 C 
ATOM      6  O   UNL     1      11.549 -55.566 -24.323  1.00  0.00    -0.275 OA
ATOM      7  C   UNL     1      10.673 -52.861 -22.075  1.00  0.00     0.181 C 
ATOM      8  C   UNL     1      11.359 -51.530 -21.709  1.00  0.00     0.284 C 
ATOM      9  H   UNL     1      10.855 -50.556 -23.480  1.00  0.00     0.348 HD
ENDROOT
BRANCH   1  10
ATOM     10  C   UNL     1      12.312 -49.391 -22.600  1.00  0.00     0.286 C 
BRANCH  10  11
ATOM     11  C   UNL     1      12.564 -48.517 -23.842  1.00  0.00     0.204 C 
BRANCH  11  12
ATOM     12  N   UNL     1      13.992 -48.302 -23.936  1.00  0.00    -0.278 NA
BRANCH  12  13
ATOM     13  C   UNL     1      14.756 -48.770 -24.870  1.00  0.00     0.072 A 
ATOM     14  N   UNL     1      15.655 -50.530 -26.856  1.00  0.00    -0.358 N 
ATOM     15  C   UNL     1      15.979 -50.784 -25.535  1.00  0.00     0.021 A 
ATOM     16  C   UNL     1      15.292 -49.230 -27.249  1.00  0.00     0.048 A 
ATOM     17  C   UNL     1      15.598 -49.973 -24.526  1.00  0.00    -0.003 A 
ATOM     18  C   UNL     1      16.810 -52.025 -25.277  1.00  0.00     0.054 C 
ATOM     19  C   UNL     1      15.319 -48.869 -28.601  1.00  0.00     0.027 A 
ATOM     20  C   UNL     1      14.879 -48.292 -26.286  1.00  0.00     0.024 A 
ATOM     21  C   UNL     1      15.906 -50.242 -23.078  1.00  0.00     0.039 C 
ATOM     22  C   UNL     1      17.439 -52.067 -23.885  1.00  0.00     0.007 C 
ATOM     23  C   UNL     1      15.033 -47.559 -28.984  1.00  0.00     0.002 A 
ATOM     24  C   UNL     1      14.659 -46.964 -26.672  1.00  0.00     0.012 A 
ATOM     25  C   UNL     1      16.432 -51.655 -22.820  1.00  0.00     0.005 C 
ATOM     26  C   UNL     1      14.726 -46.602 -28.019  1.00  0.00     0.001 A 
ATOM     27  H   UNL     1      16.151 -51.083 -27.551  1.00  0.00     0.166 HD
ENDBRANCH  12  13
ENDBRANCH  11  12
ENDBRANCH  10  11
ENDBRANCH   1  10
BRANCH   5  28
ATOM     28  C   UNL     1      10.488 -55.812 -22.203  1.00  0.00     0.161 C 
BRANCH  28  29
ATOM     29  C   UNL     1       9.572 -56.853 -22.858  1.00  0.00     0.272 C 
BRANCH  29  30
ATOM     30  N   UNL     1      10.256 -58.230 -22.941  1.00  0.00    -0.332 N 
ATOM     31  H   UNL     1      10.660 -58.329 -23.881  1.00  0.00     0.348 HD
BRANCH  30  32
ATOM     32  C   UNL     1      11.469 -58.284 -22.009  1.00  0.00     0.258 C 
ATOM     33  C   UNL     1      11.140 -58.876 -20.651  1.00  0.00     0.071 C 
ENDBRANCH  30  32
BRANCH  30  34
ATOM     34  C   UNL     1       9.273 -59.417 -22.796  1.00  0.00     0.184 C 
ATOM     35  C   UNL     1       7.886 -59.003 -23.321  1.00  0.00     0.065 C 
ATOM     36  C   UNL     1       9.784 -60.636 -23.583  1.00  0.00     0.065 C 
ATOM     37  C   UNL     1       6.894 -60.165 -23.285  1.00  0.00     0.006 C 
ATOM     38  C   UNL     1       8.788 -61.795 -23.550  1.00  0.00     0.006 C 
ATOM     39  C   UNL     1       7.413 -61.373 -24.052  1.00  0.00     0.000 C 
ENDBRANCH  30  34
ENDBRANCH  29  30
ENDBRANCH  28  29
ENDBRANCH   5  28
TORSDOF 9
ENDMDL
MODEL 9
REMARK VINA RESULT:    -9.812      1.749      3.178
REMARK INTER + INTRA:         -15.729
REMARK INTER:                 -14.645
REMARK INTRA:                  -1.084
REMARK UNBOUND:                -0.755
REMARK SMILES CC[N@H+](CCC(=O)N1CC[NH+](CCN=c2c3c([nH]c4ccccc24)CCCC3)CC1)C1CCCCC1
REMARK SMILES IDX 11 1 10 2 9 3 8 4 6 5 7 6 30 7 29 8 12 10 13 11 14 12 15 13
REMARK SMILES IDX 18 14 17 15 19 16 16 17 25 18 20 19 24 20 28 21 26 22 21 23
REMARK SMILES IDX 23 24 27 25 22 26 5 28 4 29 3 30 2 32 1 33 31 34 32 35 36 36
REMARK SMILES IDX 33 37 35 38 34 39
REMARK H PARENT 11 9 18 27 3 31
ROOT
ATOM      1  N   UNL     1      11.860 -50.452 -22.815  1.00  0.00    -0.330 N 
ATOM      2  C   UNL     1      12.837 -51.266 -23.648  1.00  0.00     0.284 C 
ATOM      3  C   UNL     1      12.147 -52.532 -24.179  1.00  0.00     0.181 C 
ATOM      4  N   UNL     1      11.466 -53.328 -23.141  1.00  0.00    -0.331 N 
ATOM      5  C   UNL     1      11.224 -54.664 -23.463  1.00  0.00     0.228 C 
ATOM      6  O   UNL     1      11.685 -55.172 -24.483  1.00  0.00    -0.275 OA
ATOM      7  C   UNL     1      10.653 -52.572 -22.179  1.00  0.00     0.181 C 
ATOM      8  C   UNL     1      11.336 -51.292 -21.660  1.00  0.00     0.284 C 
ATOM      9  H   UNL     1      11.060 -50.197 -23.410  1.00  0.00     0.348 HD
ENDROOT
BRANCH   1  10
ATOM     10  C   UNL     1      12.446 -49.142 -22.308  1.00  0.00     0.286 C 
BRANCH  10  11
ATOM     11  C   UNL     1      11.684 -47.917 -22.848  1.00  0.00     0.204 C 
BRANCH  11  12
ATOM     12  N   UNL     1      12.662 -46.887 -23.123  1.00  0.00    -0.278 NA
BRANCH  12  13
ATOM     13  C   UNL     1      12.860 -46.337 -24.278  1.00  0.00     0.072 A 
ATOM     14  N   UNL     1      13.942 -44.573 -26.167  1.00  0.00    -0.358 N 
ATOM     15  C   UNL     1      12.860 -44.165 -25.408  1.00  0.00     0.021 A 
ATOM     16  C   UNL     1      14.209 -45.944 -26.325  1.00  0.00     0.048 A 
ATOM     17  C   UNL     1      12.274 -44.964 -24.492  1.00  0.00    -0.003 A 
ATOM     18  C   UNL     1      12.348 -42.763 -25.673  1.00  0.00     0.054 C 
ATOM     19  C   UNL     1      15.044 -46.386 -27.356  1.00  0.00     0.027 A 
ATOM     20  C   UNL     1      13.650 -46.877 -25.433  1.00  0.00     0.024 A 
ATOM     21  C   UNL     1      11.118 -44.536 -23.628  1.00  0.00     0.039 C 
ATOM     22  C   UNL     1      10.961 -42.493 -25.091  1.00  0.00     0.007 C 
ATOM     23  C   UNL     1      15.247 -47.750 -27.561  1.00  0.00     0.002 A 
ATOM     24  C   UNL     1      13.805 -48.245 -25.685  1.00  0.00     0.012 A 
ATOM     25  C   UNL     1      10.853 -43.029 -23.669  1.00  0.00     0.005 C 
ATOM     26  C   UNL     1      14.611 -48.679 -26.741  1.00  0.00     0.001 A 
ATOM     27  H   UNL     1      14.182 -43.979 -26.957  1.00  0.00     0.166 HD
ENDBRANCH  12  13
ENDBRANCH  11  12
ENDBRANCH  10  11
ENDBRANCH   1  10
BRANCH   5  28
ATOM     28  C   UNL     1      10.391 -55.502 -22.509  1.00  0.00     0.161 C 
BRANCH  28  29
ATOM     29  C   UNL     1      11.002 -56.905 -22.412  1.00  0.00     0.272 C 
BRANCH  29  30
ATOM     30  N   UNL     1       9.974 -57.991 -22.776  1.00  0.00    -0.332 N 
ATOM     31  H   UNL     1       9.706 -58.479 -21.911  1.00  0.00     0.348 HD
BRANCH  30  32
ATOM     32  C   UNL     1       8.669 -57.356 -23.260  1.00  0.00     0.258 C 
ATOM     33  C   UNL     1       7.727 -58.361 -23.899  1.00  0.00     0.071 C 
ENDBRANCH  30  32
BRANCH  30  34
ATOM     34  C   UNL     1      10.541 -59.093 -23.703  1.00  0.00     0.184 C 
ATOM     35  C   UNL     1      11.864 -58.609 -24.327  1.00  0.00     0.065 C 
ATOM     36  C   UNL     1      10.785 -60.389 -22.911  1.00  0.00     0.065 C 
ATOM     37  C   UNL     1      12.518 -59.691 -25.186  1.00  0.00     0.006 C 
ATOM     38  C   UNL     1      11.443 -61.468 -23.771  1.00  0.00     0.006 C 
ATOM     39  C   UNL     1      12.740 -60.976 -24.399  1.00  0.00     0.000 C 
ENDBRANCH  30  34
ENDBRANCH  29  30
ENDBRANCH  28  29
ENDBRANCH   5  28
TORSDOF 9
ENDMDL
