MODEL 1
REMARK VINA RESULT:    -9.828      0.000      0.000
REMARK INTER + INTRA:         -14.549
REMARK INTER:                 -13.562
REMARK INTRA:                  -0.986
REMARK UNBOUND:                -0.986
REMARK SMILES COc1cccc([C@@H]2CC(c3cc(F)cc(F)c3)=NN2c2ccc(S(N)(=O)=O)cc2)c1OC
REMARK SMILES IDX 21 1 22 2 23 3 24 4 29 5 30 6 20 7 8 8 9 9 10 10 19 11 7 12
REMARK SMILES IDX 3 13 4 14 31 15 5 16 6 17 2 18 1 19 32 20 33 21 11 22 12 23
REMARK SMILES IDX 18 24 13 25 16 26 15 27 14 28 17 29 25 30 27 31 28 32 26 33
REMARK H PARENT 26 34 26 35
ROOT
ATOM      1  C   UNL     1      12.063 -52.437 -23.661  1.00  0.00     0.060 A 
ATOM      2  C   UNL     1      11.423 -52.820 -22.466  1.00  0.00     0.029 A 
ATOM      3  C   UNL     1      10.958 -54.122 -22.258  1.00  0.00     0.024 A 
ATOM      4  C   UNL     1      11.142 -55.079 -23.253  1.00  0.00     0.082 A 
ATOM      5  C   UNL     1      11.762 -54.738 -24.453  1.00  0.00     0.024 A 
ATOM      6  C   UNL     1      12.218 -53.428 -24.646  1.00  0.00     0.029 A 
ENDROOT
BRANCH   1   7
ATOM      7  N   UNL     1      12.521 -51.132 -23.836  1.00  0.00    -0.257 N 
ATOM      8  C   UNL     1      13.474 -50.692 -24.864  1.00  0.00     0.148 C 
ATOM      9  C   UNL     1      13.245 -49.180 -24.910  1.00  0.00     0.091 C 
ATOM     10  C   UNL     1      12.383 -48.998 -23.692  1.00  0.00     0.071 C 
ATOM     11  N   UNL     1      11.969 -50.096 -23.137  1.00  0.00    -0.176 NA
BRANCH   8  12
ATOM     12  C   UNL     1      14.925 -51.008 -24.527  1.00  0.00     0.023 A 
ATOM     13  C   UNL     1      17.255 -51.254 -25.263  1.00  0.00     0.161 A 
ATOM     14  C   UNL     1      17.633 -51.501 -23.939  1.00  0.00     0.050 A 
ATOM     15  C   UNL     1      15.893 -51.033 -25.552  1.00  0.00     0.166 A 
ATOM     16  C   UNL     1      16.683 -51.494 -22.918  1.00  0.00     0.004 A 
ATOM     17  C   UNL     1      15.344 -51.238 -23.206  1.00  0.00     0.010 A 
BRANCH  13  18
ATOM     18  O   UNL     1      18.132 -51.192 -26.314  1.00  0.00    -0.493 OA
ATOM     19  C   UNL     1      19.347 -51.922 -26.206  1.00  0.00     0.278 C 
ENDBRANCH  13  18
BRANCH  15  20
ATOM     20  O   UNL     1      15.436 -50.747 -26.820  1.00  0.00    -0.492 OA
ATOM     21  C   UNL     1      15.824 -49.455 -27.283  1.00  0.00     0.278 C 
ENDBRANCH  15  20
ENDBRANCH   8  12
BRANCH  10  22
ATOM     22  C   UNL     1      12.009 -47.656 -23.192  1.00  0.00     0.004 A 
ATOM     23  C   UNL     1      12.581 -47.193 -22.000  1.00  0.00     0.049 A 
ATOM     24  C   UNL     1      11.101 -46.847 -23.879  1.00  0.00     0.049 A 
ATOM     25  C   UNL     1      12.244 -45.933 -21.515  1.00  0.00     0.126 A 
ATOM     26  C   UNL     1      10.780 -45.590 -23.370  1.00  0.00     0.126 A 
ATOM     27  C   UNL     1      11.345 -45.122 -22.191  1.00  0.00     0.078 A 
ATOM     28  F   UNL     1      12.796 -45.497 -20.377  1.00  0.00    -0.207 F 
ATOM     29  F   UNL     1       9.910 -44.818 -24.033  1.00  0.00    -0.207 F 
ENDBRANCH  10  22
ENDBRANCH   1   7
BRANCH   4  30
ATOM     30  S   UNL     1      10.566 -56.731 -22.986  1.00  0.00     0.238 S 
ATOM     31  O   UNL     1       9.187 -56.815 -23.412  1.00  0.00    -0.207 OA
ATOM     32  O   UNL     1      11.005 -57.167 -21.682  1.00  0.00    -0.207 OA
BRANCH  30  33
ATOM     33  N   UNL     1      11.444 -57.584 -24.145  1.00  0.00    -0.225 NA
ATOM     34  H   UNL     1      11.610 -57.046 -24.996  1.00  0.00     0.137 HD
ATOM     35  H   UNL     1      10.966 -58.466 -24.336  1.00  0.00     0.137 HD
ENDBRANCH  30  33
ENDBRANCH   4  30
TORSDOF 7
ENDMDL
MODEL 2
REMARK VINA RESULT:    -8.783      1.486      1.938
REMARK INTER + INTRA:         -13.106
REMARK INTER:                 -11.880
REMARK INTRA:                  -1.226
REMARK UNBOUND:                -0.986
REMARK SMILES COc1cccc([C@@H]2CC(c3cc(F)cc(F)c3)=NN2c2ccc(S(N)(=O)=O)cc2)c1OC
REMARK SMILES IDX 21 1 22 2 23 3 24 4 29 5 30 6 20 7 8 8 9 9 10 10 19 11 7 12
REMARK SMILES IDX 3 13 4 14 31 15 5 16 6 17 2 18 1 19 32 20 33 21 11 22 12 23
REMARK SMILES IDX 18 24 13 25 16 26 15 27 14 28 17 29 25 30 27 31 28 32 26 33
REMARK H PARENT 26 34 26 35
ROOT
ATOM      1  C   UNL     1      12.471 -51.641 -24.016  1.00  0.00     0.060 A 
ATOM      2  C   UNL     1      12.744 -52.695 -24.909  1.00  0.00     0.029 A 
ATOM      3  C   UNL     1      12.316 -54.004 -24.664  1.00  0.00     0.024 A 
ATOM      4  C   UNL     1      11.586 -54.277 -23.510  1.00  0.00     0.082 A 
ATOM      5  C   UNL     1      11.304 -53.264 -22.597  1.00  0.00     0.024 A 
ATOM      6  C   UNL     1      11.743 -51.960 -22.856  1.00  0.00     0.029 A 
ENDROOT
BRANCH   1   7
ATOM      7  N   UNL     1      12.906 -50.345 -24.292  1.00  0.00    -0.257 N 
ATOM      8  C   UNL     1      14.023 -49.990 -25.178  1.00  0.00     0.148 C 
ATOM      9  C   UNL     1      13.751 -48.516 -25.489  1.00  0.00     0.091 C 
ATOM     10  C   UNL     1      12.663 -48.225 -24.493  1.00  0.00     0.071 C 
ATOM     11  N   UNL     1      12.190 -49.261 -23.870  1.00  0.00    -0.176 NA
BRANCH   8  12
ATOM     12  C   UNL     1      15.391 -50.162 -24.532  1.00  0.00     0.023 A 
ATOM     13  C   UNL     1      17.784 -50.664 -24.766  1.00  0.00     0.161 A 
ATOM     14  C   UNL     1      17.957 -50.409 -23.402  1.00  0.00     0.050 A 
ATOM     15  C   UNL     1      16.491 -50.562 -25.319  1.00  0.00     0.166 A 
ATOM     16  C   UNL     1      16.874 -50.026 -22.610  1.00  0.00     0.004 A 
ATOM     17  C   UNL     1      15.606 -49.892 -23.171  1.00  0.00     0.010 A 
BRANCH  13  18
ATOM     18  O   UNL     1      18.803 -50.992 -25.621  1.00  0.00    -0.493 OA
ATOM     19  C   UNL     1      19.816 -50.021 -25.846  1.00  0.00     0.278 C 
ENDBRANCH  13  18
BRANCH  15  20
ATOM     20  O   UNL     1      16.235 -50.761 -26.658  1.00  0.00    -0.492 OA
ATOM     21  C   UNL     1      16.511 -49.616 -27.463  1.00  0.00     0.278 C 
ENDBRANCH  15  20
ENDBRANCH   8  12
BRANCH  10  22
ATOM     22  C   UNL     1      12.149 -46.854 -24.276  1.00  0.00     0.004 A 
ATOM     23  C   UNL     1      11.035 -46.671 -23.448  1.00  0.00     0.049 A 
ATOM     24  C   UNL     1      12.749 -45.744 -24.878  1.00  0.00     0.049 A 
ATOM     25  C   UNL     1      10.538 -45.389 -23.230  1.00  0.00     0.126 A 
ATOM     26  C   UNL     1      12.230 -44.473 -24.643  1.00  0.00     0.126 A 
ATOM     27  C   UNL     1      11.128 -44.282 -23.822  1.00  0.00     0.078 A 
ATOM     28  F   UNL     1       9.474 -45.222 -22.436  1.00  0.00    -0.207 F 
ATOM     29  F   UNL     1      12.809 -43.414 -25.221  1.00  0.00    -0.207 F 
ENDBRANCH  10  22
ENDBRANCH   1   7
BRANCH   4  30
ATOM     30  S   UNL     1      11.033 -55.931 -23.204  1.00  0.00     0.238 S 
ATOM     31  O   UNL     1      11.126 -56.195 -21.785  1.00  0.00    -0.207 OA
ATOM     32  O   UNL     1      11.614 -56.802 -24.197  1.00  0.00    -0.207 OA
BRANCH  30  33
ATOM     33  N   UNL     1       9.384 -55.798 -23.527  1.00  0.00    -0.225 NA
ATOM     34  H   UNL     1       9.162 -55.895 -24.518  1.00  0.00     0.137 HD
ATOM     35  H   UNL     1       9.044 -54.915 -23.143  1.00  0.00     0.137 HD
ENDBRANCH  30  33
ENDBRANCH   4  30
TORSDOF 7
ENDMDL
MODEL 3
REMARK VINA RESULT:    -8.752      3.562      6.111
REMARK INTER + INTRA:         -13.064
REMARK INTER:                 -11.985
REMARK INTRA:                  -1.079
REMARK UNBOUND:                -0.986
REMARK SMILES COc1cccc([C@@H]2CC(c3cc(F)cc(F)c3)=NN2c2ccc(S(N)(=O)=O)cc2)c1OC
REMARK SMILES IDX 21 1 22 2 23 3 24 4 29 5 30 6 20 7 8 8 9 9 10 10 19 11 7 12
REMARK SMILES IDX 3 13 4 14 31 15 5 16 6 17 2 18 1 19 32 20 33 21 11 22 12 23
REMARK SMILES IDX 18 24 13 25 16 26 15 27 14 28 17 29 25 30 27 31 28 32 26 33
REMARK H PARENT 26 34 26 35
ROOT
ATOM      1  C   UNL     1      12.923 -51.552 -24.623  1.00  0.00     0.060 A 
ATOM      2  C   UNL     1      12.184 -51.363 -23.439  1.00  0.00     0.029 A 
ATOM      3  C   UNL     1      11.427 -52.390 -22.865  1.00  0.00     0.024 A 
ATOM      4  C   UNL     1      11.409 -53.643 -23.472  1.00  0.00     0.082 A 
ATOM      5  C   UNL     1      12.118 -53.867 -24.649  1.00  0.00     0.024 A 
ATOM      6  C   UNL     1      12.868 -52.827 -25.212  1.00  0.00     0.029 A 
ENDROOT
BRANCH   1   7
ATOM      7  N   UNL     1      13.673 -50.510 -25.166  1.00  0.00    -0.257 N 
ATOM      8  C   UNL     1      14.303 -49.423 -24.403  1.00  0.00     0.148 C 
ATOM      9  C   UNL     1      15.348 -48.886 -25.383  1.00  0.00     0.091 C 
ATOM     10  C   UNL     1      14.933 -49.598 -26.641  1.00  0.00     0.071 C 
ATOM     11  N   UNL     1      14.029 -50.516 -26.485  1.00  0.00    -0.176 NA
BRANCH   8  12
ATOM     12  C   UNL     1      13.332 -48.325 -23.993  1.00  0.00     0.023 A 
ATOM     13  C   UNL     1      12.642 -46.622 -22.362  1.00  0.00     0.161 A 
ATOM     14  C   UNL     1      11.616 -46.229 -23.227  1.00  0.00     0.050 A 
ATOM     15  C   UNL     1      13.482 -47.689 -22.742  1.00  0.00     0.166 A 
ATOM     16  C   UNL     1      11.448 -46.859 -24.460  1.00  0.00     0.004 A 
ATOM     17  C   UNL     1      12.305 -47.888 -24.845  1.00  0.00     0.010 A 
BRANCH  13  18
ATOM     18  O   UNL     1      12.906 -46.021 -21.159  1.00  0.00    -0.493 OA
ATOM     19  C   UNL     1      13.330 -44.665 -21.177  1.00  0.00     0.278 C 
ENDBRANCH  13  18
BRANCH  15  20
ATOM     20  O   UNL     1      14.538 -48.120 -21.970  1.00  0.00    -0.492 OA
ATOM     21  C   UNL     1      15.695 -47.293 -22.082  1.00  0.00     0.278 C 
ENDBRANCH  15  20
ENDBRANCH   8  12
BRANCH  10  22
ATOM     22  C   UNL     1      15.548 -49.291 -27.952  1.00  0.00     0.004 A 
ATOM     23  C   UNL     1      16.909 -49.563 -28.142  1.00  0.00     0.049 A 
ATOM     24  C   UNL     1      14.804 -48.736 -28.996  1.00  0.00     0.049 A 
ATOM     25  C   UNL     1      17.504 -49.283 -29.368  1.00  0.00     0.126 A 
ATOM     26  C   UNL     1      15.427 -48.465 -30.213  1.00  0.00     0.126 A 
ATOM     27  C   UNL     1      16.773 -48.734 -30.411  1.00  0.00     0.078 A 
ATOM     28  F   UNL     1      18.804 -49.547 -29.544  1.00  0.00    -0.207 F 
ATOM     29  F   UNL     1      14.709 -47.935 -31.211  1.00  0.00    -0.207 F 
ENDBRANCH  10  22
ENDBRANCH   1   7
BRANCH   4  30
ATOM     30  S   UNL     1      10.461 -54.948 -22.740  1.00  0.00     0.238 S 
ATOM     31  O   UNL     1      11.341 -55.760 -21.928  1.00  0.00    -0.207 OA
ATOM     32  O   UNL     1       9.596 -55.510 -23.749  1.00  0.00    -0.207 OA
BRANCH  30  33
ATOM     33  N   UNL     1       9.504 -54.095 -21.647  1.00  0.00    -0.225 NA
ATOM     34  H   UNL     1       8.613 -53.797 -22.044  1.00  0.00     0.137 HD
ATOM     35  H   UNL     1      10.042 -53.307 -21.283  1.00  0.00     0.137 HD
ENDBRANCH  30  33
ENDBRANCH   4  30
TORSDOF 7
ENDMDL
MODEL 4
REMARK VINA RESULT:    -8.703      4.727      7.636
REMARK INTER + INTRA:         -12.996
REMARK INTER:                 -11.720
REMARK INTRA:                  -1.276
REMARK UNBOUND:                -0.986
REMARK SMILES COc1cccc([C@@H]2CC(c3cc(F)cc(F)c3)=NN2c2ccc(S(N)(=O)=O)cc2)c1OC
REMARK SMILES IDX 21 1 22 2 23 3 24 4 29 5 30 6 20 7 8 8 9 9 10 10 19 11 7 12
REMARK SMILES IDX 3 13 4 14 31 15 5 16 6 17 2 18 1 19 32 20 33 21 11 22 12 23
REMARK SMILES IDX 18 24 13 25 16 26 15 27 14 28 17 29 25 30 27 31 28 32 26 33
REMARK H PARENT 26 34 26 35
ROOT
ATOM      1  C   UNL     1      12.709 -47.483 -23.840  1.00  0.00     0.060 A 
ATOM      2  C   UNL     1      11.414 -47.073 -24.213  1.00  0.00     0.029 A 
ATOM      3  C   UNL     1      11.011 -45.736 -24.146  1.00  0.00     0.024 A 
ATOM      4  C   UNL     1      11.916 -44.772 -23.709  1.00  0.00     0.082 A 
ATOM      5  C   UNL     1      13.203 -45.138 -23.323  1.00  0.00     0.024 A 
ATOM      6  C   UNL     1      13.589 -46.483 -23.393  1.00  0.00     0.029 A 
ENDROOT
BRANCH   1   7
ATOM      7  N   UNL     1      13.082 -48.823 -23.925  1.00  0.00    -0.257 N 
ATOM      8  C   UNL     1      14.463 -49.324 -23.965  1.00  0.00     0.148 C 
ATOM      9  C   UNL     1      14.299 -50.794 -23.575  1.00  0.00     0.091 C 
ATOM     10  C   UNL     1      12.804 -50.931 -23.647  1.00  0.00     0.071 C 
ATOM     11  N   UNL     1      12.154 -49.818 -23.807  1.00  0.00    -0.176 NA
BRANCH   8  12
ATOM     12  C   UNL     1      15.117 -49.199 -25.335  1.00  0.00     0.023 A 
ATOM     13  C   UNL     1      17.139 -48.826 -26.680  1.00  0.00     0.161 A 
ATOM     14  C   UNL     1      16.390 -49.043 -27.840  1.00  0.00     0.050 A 
ATOM     15  C   UNL     1      16.488 -48.881 -25.430  1.00  0.00     0.166 A 
ATOM     16  C   UNL     1      15.030 -49.343 -27.761  1.00  0.00     0.004 A 
ATOM     17  C   UNL     1      14.402 -49.433 -26.521  1.00  0.00     0.010 A 
BRANCH  13  18
ATOM     18  O   UNL     1      18.486 -48.579 -26.669  1.00  0.00    -0.493 OA
ATOM     19  C   UNL     1      19.347 -49.587 -27.181  1.00  0.00     0.278 C 
ENDBRANCH  13  18
BRANCH  15  20
ATOM     20  O   UNL     1      17.153 -48.716 -24.235  1.00  0.00    -0.492 OA
ATOM     21  C   UNL     1      17.848 -49.886 -23.807  1.00  0.00     0.278 C 
ENDBRANCH  15  20
ENDBRANCH   8  12
BRANCH  10  22
ATOM     22  C   UNL     1      12.130 -52.241 -23.505  1.00  0.00     0.004 A 
ATOM     23  C   UNL     1      12.363 -53.230 -24.469  1.00  0.00     0.049 A 
ATOM     24  C   UNL     1      11.270 -52.509 -22.437  1.00  0.00     0.049 A 
ATOM     25  C   UNL     1      11.740 -54.468 -24.353  1.00  0.00     0.126 A 
ATOM     26  C   UNL     1      10.660 -53.759 -22.346  1.00  0.00     0.126 A 
ATOM     27  C   UNL     1      10.887 -54.745 -23.295  1.00  0.00     0.078 A 
ATOM     28  F   UNL     1      11.969 -55.409 -25.276  1.00  0.00    -0.207 F 
ATOM     29  F   UNL     1       9.838 -54.011 -21.320  1.00  0.00    -0.207 F 
ENDBRANCH  10  22
ENDBRANCH   1   7
BRANCH   4  30
ATOM     30  S   UNL     1      11.412 -43.077 -23.635  1.00  0.00     0.238 S 
ATOM     31  O   UNL     1      12.490 -42.251 -24.134  1.00  0.00    -0.207 OA
ATOM     32  O   UNL     1      10.778 -42.840 -22.361  1.00  0.00    -0.207 OA
BRANCH  30  33
ATOM     33  N   UNL     1      10.222 -43.028 -24.828  1.00  0.00    -0.225 NA
ATOM     34  H   UNL     1      10.078 -42.094 -25.210  1.00  0.00     0.137 HD
ATOM     35  H   UNL     1       9.361 -43.424 -24.448  1.00  0.00     0.137 HD
ENDBRANCH  30  33
ENDBRANCH   4  30
TORSDOF 7
ENDMDL
MODEL 5
REMARK VINA RESULT:    -8.644      3.584      6.152
REMARK INTER + INTRA:         -12.915
REMARK INTER:                 -11.831
REMARK INTRA:                  -1.084
REMARK UNBOUND:                -0.986
REMARK SMILES COc1cccc([C@@H]2CC(c3cc(F)cc(F)c3)=NN2c2ccc(S(N)(=O)=O)cc2)c1OC
REMARK SMILES IDX 21 1 22 2 23 3 24 4 29 5 30 6 20 7 8 8 9 9 10 10 19 11 7 12
REMARK SMILES IDX 3 13 4 14 31 15 5 16 6 17 2 18 1 19 32 20 33 21 11 22 12 23
REMARK SMILES IDX 18 24 13 25 16 26 15 27 14 28 17 29 25 30 27 31 28 32 26 33
REMARK H PARENT 26 34 26 35
ROOT
ATOM      1  C   UNL     1      13.261 -51.774 -25.200  1.00  0.00     0.060 A 
ATOM      2  C   UNL     1      12.515 -51.658 -24.012  1.00  0.00     0.029 A 
ATOM      3  C   UNL     1      11.786 -52.729 -23.485  1.00  0.00     0.024 A 
ATOM      4  C   UNL     1      11.805 -53.955 -24.144  1.00  0.00     0.082 A 
ATOM      5  C   UNL     1      12.524 -54.109 -25.327  1.00  0.00     0.024 A 
ATOM      6  C   UNL     1      13.245 -53.024 -25.843  1.00  0.00     0.029 A 
ENDROOT
BRANCH   1   7
ATOM      7  N   UNL     1      13.983 -50.689 -25.696  1.00  0.00    -0.257 N 
ATOM      8  C   UNL     1      14.715 -49.708 -24.883  1.00  0.00     0.148 C 
ATOM      9  C   UNL     1      15.672 -49.078 -25.897  1.00  0.00     0.091 C 
ATOM     10  C   UNL     1      15.116 -49.635 -27.179  1.00  0.00     0.071 C 
ATOM     11  N   UNL     1      14.206 -50.550 -27.036  1.00  0.00    -0.176 NA
BRANCH   8  12
ATOM     12  C   UNL     1      13.820 -48.648 -24.255  1.00  0.00     0.023 A 
ATOM     13  C   UNL     1      13.262 -47.233 -22.326  1.00  0.00     0.161 A 
ATOM     14  C   UNL     1      12.249 -46.631 -23.078  1.00  0.00     0.050 A 
ATOM     15  C   UNL     1      14.028 -48.260 -22.915  1.00  0.00     0.166 A 
ATOM     16  C   UNL     1      12.023 -47.016 -24.399  1.00  0.00     0.004 A 
ATOM     17  C   UNL     1      12.808 -48.006 -24.986  1.00  0.00     0.010 A 
BRANCH  13  18
ATOM     18  O   UNL     1      13.582 -46.877 -21.042  1.00  0.00    -0.493 OA
ATOM     19  C   UNL     1      14.225 -45.625 -20.845  1.00  0.00     0.278 C 
ENDBRANCH  13  18
BRANCH  15  20
ATOM     20  O   UNL     1      15.068 -48.884 -22.261  1.00  0.00    -0.492 OA
ATOM     21  C   UNL     1      16.302 -48.173 -22.355  1.00  0.00     0.278 C 
ENDBRANCH  15  20
ENDBRANCH   8  12
BRANCH  10  22
ATOM     22  C   UNL     1      15.606 -49.189 -28.502  1.00  0.00     0.004 A 
ATOM     23  C   UNL     1      14.738 -48.483 -29.344  1.00  0.00     0.049 A 
ATOM     24  C   UNL     1      16.910 -49.459 -28.927  1.00  0.00     0.049 A 
ATOM     25  C   UNL     1      15.181 -48.055 -30.591  1.00  0.00     0.126 A 
ATOM     26  C   UNL     1      17.326 -49.018 -30.182  1.00  0.00     0.126 A 
ATOM     27  C   UNL     1      16.473 -48.316 -31.021  1.00  0.00     0.078 A 
ATOM     28  F   UNL     1      14.346 -47.379 -31.390  1.00  0.00    -0.207 F 
ATOM     29  F   UNL     1      18.576 -49.279 -30.584  1.00  0.00    -0.207 F 
ENDBRANCH  10  22
ENDBRANCH   1   7
BRANCH   4  30
ATOM     30  S   UNL     1      10.894 -55.317 -23.472  1.00  0.00     0.238 S 
ATOM     31  O   UNL     1      11.640 -56.533 -23.706  1.00  0.00    -0.207 OA
ATOM     32  O   UNL     1       9.508 -55.171 -23.845  1.00  0.00    -0.207 OA
BRANCH  30  33
ATOM     33  N   UNL     1      11.024 -55.023 -21.818  1.00  0.00    -0.225 NA
ATOM     34  H   UNL     1      11.881 -54.532 -21.566  1.00  0.00     0.137 HD
ATOM     35  H   UNL     1      10.929 -55.909 -21.319  1.00  0.00     0.137 HD
ENDBRANCH  30  33
ENDBRANCH   4  30
TORSDOF 7
ENDMDL
MODEL 6
REMARK VINA RESULT:    -8.539      4.720      7.289
REMARK INTER + INTRA:         -12.770
REMARK INTER:                 -11.396
REMARK INTRA:                  -1.374
REMARK UNBOUND:                -0.986
REMARK SMILES COc1cccc([C@@H]2CC(c3cc(F)cc(F)c3)=NN2c2ccc(S(N)(=O)=O)cc2)c1OC
REMARK SMILES IDX 21 1 22 2 23 3 24 4 29 5 30 6 20 7 8 8 9 9 10 10 19 11 7 12
REMARK SMILES IDX 3 13 4 14 31 15 5 16 6 17 2 18 1 19 32 20 33 21 11 22 12 23
REMARK SMILES IDX 18 24 13 25 16 26 15 27 14 28 17 29 25 30 27 31 28 32 26 33
REMARK H PARENT 26 34 26 35
ROOT
ATOM      1  C   UNL     1      17.130 -51.164 -25.113  1.00  0.00     0.060 A 
ATOM      2  C   UNL     1      17.808 -50.349 -24.186  1.00  0.00     0.029 A 
ATOM      3  C   UNL     1      19.200 -50.377 -24.051  1.00  0.00     0.024 A 
ATOM      4  C   UNL     1      19.945 -51.226 -24.864  1.00  0.00     0.082 A 
ATOM      5  C   UNL     1      19.312 -52.055 -25.787  1.00  0.00     0.024 A 
ATOM      6  C   UNL     1      17.917 -52.016 -25.906  1.00  0.00     0.029 A 
ENDROOT
BRANCH   1   7
ATOM      7  N   UNL     1      15.742 -51.107 -25.228  1.00  0.00    -0.257 N 
ATOM      8  C   UNL     1      15.000 -50.706 -26.431  1.00  0.00     0.148 C 
ATOM      9  C   UNL     1      13.604 -51.275 -26.172  1.00  0.00     0.091 C 
ATOM     10  C   UNL     1      13.734 -51.668 -24.726  1.00  0.00     0.071 C 
ATOM     11  N   UNL     1      14.936 -51.597 -24.240  1.00  0.00    -0.176 NA
BRANCH   8  12
ATOM     12  C   UNL     1      14.940 -49.199 -26.636  1.00  0.00     0.023 A 
ATOM     13  C   UNL     1      15.301 -47.253 -28.092  1.00  0.00     0.161 A 
ATOM     14  C   UNL     1      14.768 -46.427 -27.097  1.00  0.00     0.050 A 
ATOM     15  C   UNL     1      15.407 -48.637 -27.843  1.00  0.00     0.166 A 
ATOM     16  C   UNL     1      14.317 -46.968 -25.894  1.00  0.00     0.004 A 
ATOM     17  C   UNL     1      14.390 -48.341 -25.670  1.00  0.00     0.010 A 
BRANCH  13  18
ATOM     18  O   UNL     1      15.718 -46.807 -29.319  1.00  0.00    -0.493 OA
ATOM     19  C   UNL     1      14.727 -46.590 -30.314  1.00  0.00     0.278 C 
ENDBRANCH  13  18
BRANCH  15  20
ATOM     20  O   UNL     1      15.886 -49.528 -28.778  1.00  0.00    -0.492 OA
ATOM     21  C   UNL     1      17.311 -49.598 -28.815  1.00  0.00     0.278 C 
ENDBRANCH  15  20
ENDBRANCH   8  12
BRANCH  10  22
ATOM     22  C   UNL     1      12.574 -52.136 -23.935  1.00  0.00     0.004 A 
ATOM     23  C   UNL     1      12.043 -53.405 -24.197  1.00  0.00     0.049 A 
ATOM     24  C   UNL     1      11.999 -51.340 -22.940  1.00  0.00     0.049 A 
ATOM     25  C   UNL     1      10.954 -53.863 -23.463  1.00  0.00     0.126 A 
ATOM     26  C   UNL     1      10.908 -51.825 -22.222  1.00  0.00     0.126 A 
ATOM     27  C   UNL     1      10.378 -53.082 -22.473  1.00  0.00     0.078 A 
ATOM     28  F   UNL     1      10.453 -55.078 -23.717  1.00  0.00    -0.207 F 
ATOM     29  F   UNL     1      10.362 -51.060 -21.269  1.00  0.00    -0.207 F 
ENDBRANCH  10  22
ENDBRANCH   1   7
BRANCH   4  30
ATOM     30  S   UNL     1      21.708 -51.255 -24.704  1.00  0.00     0.238 S 
ATOM     31  O   UNL     1      22.044 -51.368 -23.302  1.00  0.00    -0.207 OA
ATOM     32  O   UNL     1      22.264 -50.232 -25.556  1.00  0.00    -0.207 OA
BRANCH  30  33
ATOM     33  N   UNL     1      22.082 -52.755 -25.376  1.00  0.00    -0.225 NA
ATOM     34  H   UNL     1      21.962 -52.779 -26.389  1.00  0.00     0.137 HD
ATOM     35  H   UNL     1      21.527 -53.472 -24.907  1.00  0.00     0.137 HD
ENDBRANCH  30  33
ENDBRANCH   4  30
TORSDOF 7
ENDMDL
MODEL 7
REMARK VINA RESULT:    -8.377      5.335      8.412
REMARK INTER + INTRA:         -12.546
REMARK INTER:                 -11.185
REMARK INTRA:                  -1.361
REMARK UNBOUND:                -0.986
REMARK SMILES COc1cccc([C@@H]2CC(c3cc(F)cc(F)c3)=NN2c2ccc(S(N)(=O)=O)cc2)c1OC
REMARK SMILES IDX 21 1 22 2 23 3 24 4 29 5 30 6 20 7 8 8 9 9 10 10 19 11 7 12
REMARK SMILES IDX 3 13 4 14 31 15 5 16 6 17 2 18 1 19 32 20 33 21 11 22 12 23
REMARK SMILES IDX 18 24 13 25 16 26 15 27 14 28 17 29 25 30 27 31 28 32 26 33
REMARK H PARENT 26 34 26 35
ROOT
ATOM      1  C   UNL     1      14.929 -48.332 -21.777  1.00  0.00     0.060 A 
ATOM      2  C   UNL     1      16.289 -48.685 -21.690  1.00  0.00     0.029 A 
ATOM      3  C   UNL     1      17.144 -48.118 -20.739  1.00  0.00     0.024 A 
ATOM      4  C   UNL     1      16.638 -47.183 -19.840  1.00  0.00     0.082 A 
ATOM      5  C   UNL     1      15.300 -46.799 -19.900  1.00  0.00     0.024 A 
ATOM      6  C   UNL     1      14.459 -47.375 -20.860  1.00  0.00     0.029 A 
ENDROOT
BRANCH   1   7
ATOM      7  N   UNL     1      14.101 -48.921 -22.731  1.00  0.00    -0.257 N 
ATOM      8  C   UNL     1      13.736 -48.331 -24.026  1.00  0.00     0.148 C 
ATOM      9  C   UNL     1      13.254 -49.544 -24.825  1.00  0.00     0.091 C 
ATOM     10  C   UNL     1      13.178 -50.576 -23.734  1.00  0.00     0.071 C 
ATOM     11  N   UNL     1      13.686 -50.215 -22.595  1.00  0.00    -0.176 NA
BRANCH   8  12
ATOM     12  C   UNL     1      12.640 -47.278 -23.928  1.00  0.00     0.023 A 
ATOM     13  C   UNL     1      11.899 -44.965 -24.298  1.00  0.00     0.161 A 
ATOM     14  C   UNL     1      10.623 -45.317 -23.848  1.00  0.00     0.050 A 
ATOM     15  C   UNL     1      12.911 -45.948 -24.311  1.00  0.00     0.166 A 
ATOM     16  C   UNL     1      10.346 -46.625 -23.453  1.00  0.00     0.004 A 
ATOM     17  C   UNL     1      11.341 -47.599 -23.504  1.00  0.00     0.010 A 
BRANCH  13  18
ATOM     18  O   UNL     1      12.238 -43.718 -24.753  1.00  0.00    -0.493 OA
ATOM     19  C   UNL     1      11.272 -42.683 -24.625  1.00  0.00     0.278 C 
ENDBRANCH  13  18
BRANCH  15  20
ATOM     20  O   UNL     1      14.186 -45.700 -24.771  1.00  0.00    -0.492 OA
ATOM     21  C   UNL     1      15.040 -45.122 -23.785  1.00  0.00     0.278 C 
ENDBRANCH  15  20
ENDBRANCH   8  12
BRANCH  10  22
ATOM     22  C   UNL     1      12.596 -51.917 -23.966  1.00  0.00     0.004 A 
ATOM     23  C   UNL     1      11.619 -52.393 -23.084  1.00  0.00     0.049 A 
ATOM     24  C   UNL     1      13.003 -52.714 -25.040  1.00  0.00     0.049 A 
ATOM     25  C   UNL     1      11.059 -53.651 -23.286  1.00  0.00     0.126 A 
ATOM     26  C   UNL     1      12.426 -53.970 -25.217  1.00  0.00     0.126 A 
ATOM     27  C   UNL     1      11.455 -54.449 -24.350  1.00  0.00     0.078 A 
ATOM     28  F   UNL     1      10.124 -54.099 -22.441  1.00  0.00    -0.207 F 
ATOM     29  F   UNL     1      12.818 -54.729 -26.248  1.00  0.00    -0.207 F 
ENDBRANCH  10  22
ENDBRANCH   1   7
BRANCH   4  30
ATOM     30  S   UNL     1      17.715 -46.472 -18.628  1.00  0.00     0.238 S 
ATOM     31  O   UNL     1      18.332 -45.292 -19.192  1.00  0.00    -0.207 OA
ATOM     32  O   UNL     1      18.479 -47.531 -18.014  1.00  0.00    -0.207 OA
BRANCH  30  33
ATOM     33  N   UNL     1      16.610 -45.898 -17.492  1.00  0.00    -0.225 NA
ATOM     34  H   UNL     1      16.952 -45.965 -16.534  1.00  0.00     0.137 HD
ATOM     35  H   UNL     1      15.725 -46.392 -17.617  1.00  0.00     0.137 HD
ENDBRANCH  30  33
ENDBRANCH   4  30
TORSDOF 7
ENDMDL
MODEL 8
REMARK VINA RESULT:    -7.841      4.622      7.897
REMARK INTER + INTRA:         -11.806
REMARK INTER:                 -10.534
REMARK INTRA:                  -1.272
REMARK UNBOUND:                -0.986
REMARK SMILES COc1cccc([C@@H]2CC(c3cc(F)cc(F)c3)=NN2c2ccc(S(N)(=O)=O)cc2)c1OC
REMARK SMILES IDX 21 1 22 2 23 3 24 4 29 5 30 6 20 7 8 8 9 9 10 10 19 11 7 12
REMARK SMILES IDX 3 13 4 14 31 15 5 16 6 17 2 18 1 19 32 20 33 21 11 22 12 23
REMARK SMILES IDX 18 24 13 25 16 26 15 27 14 28 17 29 25 30 27 31 28 32 26 33
REMARK H PARENT 26 34 26 35
ROOT
ATOM      1  C   UNL     1      16.824 -49.779 -23.927  1.00  0.00     0.060 A 
ATOM      2  C   UNL     1      18.065 -50.445 -23.947  1.00  0.00     0.029 A 
ATOM      3  C   UNL     1      18.872 -50.546 -22.809  1.00  0.00     0.024 A 
ATOM      4  C   UNL     1      18.435 -49.983 -21.613  1.00  0.00     0.082 A 
ATOM      5  C   UNL     1      17.219 -49.308 -21.554  1.00  0.00     0.024 A 
ATOM      6  C   UNL     1      16.425 -49.214 -22.703  1.00  0.00     0.029 A 
ENDROOT
BRANCH   1   7
ATOM      7  N   UNL     1      16.040 -49.703 -25.076  1.00  0.00    -0.257 N 
ATOM      8  C   UNL     1      14.582 -49.519 -25.105  1.00  0.00     0.148 C 
ATOM      9  C   UNL     1      14.332 -49.032 -26.534  1.00  0.00     0.091 C 
ATOM     10  C   UNL     1      15.680 -49.288 -27.149  1.00  0.00     0.071 C 
ATOM     11  N   UNL     1      16.615 -49.625 -26.313  1.00  0.00    -0.176 NA
BRANCH   8  12
ATOM     12  C   UNL     1      13.802 -50.796 -24.826  1.00  0.00     0.023 A 
ATOM     13  C   UNL     1      12.201 -52.026 -23.425  1.00  0.00     0.161 A 
ATOM     14  C   UNL     1      12.272 -53.103 -24.313  1.00  0.00     0.050 A 
ATOM     15  C   UNL     1      12.990 -50.884 -23.675  1.00  0.00     0.166 A 
ATOM     16  C   UNL     1      13.082 -53.035 -25.447  1.00  0.00     0.004 A 
ATOM     17  C   UNL     1      13.830 -51.889 -25.707  1.00  0.00     0.010 A 
BRANCH  13  18
ATOM     18  O   UNL     1      11.392 -51.993 -22.320  1.00  0.00    -0.493 OA
ATOM     19  C   UNL     1      10.549 -53.112 -22.084  1.00  0.00     0.278 C 
ENDBRANCH  13  18
BRANCH  15  20
ATOM     20  O   UNL     1      12.957 -49.764 -22.874  1.00  0.00    -0.492 OA
ATOM     21  C   UNL     1      11.838 -48.917 -23.131  1.00  0.00     0.278 C 
ENDBRANCH  15  20
ENDBRANCH   8  12
BRANCH  10  22
ATOM     22  C   UNL     1      15.920 -49.128 -28.600  1.00  0.00     0.004 A 
ATOM     23  C   UNL     1      17.165 -49.495 -29.126  1.00  0.00     0.049 A 
ATOM     24  C   UNL     1      14.937 -48.617 -29.452  1.00  0.00     0.049 A 
ATOM     25  C   UNL     1      17.409 -49.353 -30.488  1.00  0.00     0.126 A 
ATOM     26  C   UNL     1      15.209 -48.485 -30.812  1.00  0.00     0.126 A 
ATOM     27  C   UNL     1      16.439 -48.850 -31.342  1.00  0.00     0.078 A 
ATOM     28  F   UNL     1      18.600 -49.709 -30.984  1.00  0.00    -0.207 F 
ATOM     29  F   UNL     1      14.264 -47.996 -31.624  1.00  0.00    -0.207 F 
ENDBRANCH  10  22
ENDBRANCH   1   7
BRANCH   4  30
ATOM     30  S   UNL     1      19.450 -50.120 -20.168  1.00  0.00     0.238 S 
ATOM     31  O   UNL     1      19.504 -48.830 -19.517  1.00  0.00    -0.207 OA
ATOM     32  O   UNL     1      20.635 -50.871 -20.507  1.00  0.00    -0.207 OA
BRANCH  30  33
ATOM     33  N   UNL     1      18.488 -51.083 -19.173  1.00  0.00    -0.225 NA
ATOM     34  H   UNL     1      18.201 -51.954 -19.618  1.00  0.00     0.137 HD
ATOM     35  H   UNL     1      17.688 -50.532 -18.858  1.00  0.00     0.137 HD
ENDBRANCH  30  33
ENDBRANCH   4  30
TORSDOF 7
ENDMDL
MODEL 9
REMARK VINA RESULT:    -7.789      5.119      8.105
REMARK INTER + INTRA:         -11.735
REMARK INTER:                 -10.480
REMARK INTRA:                  -1.255
REMARK UNBOUND:                -0.986
REMARK SMILES COc1cccc([C@@H]2CC(c3cc(F)cc(F)c3)=NN2c2ccc(S(N)(=O)=O)cc2)c1OC
REMARK SMILES IDX 21 1 22 2 23 3 24 4 29 5 30 6 20 7 8 8 9 9 10 10 19 11 7 12
REMARK SMILES IDX 3 13 4 14 31 15 5 16 6 17 2 18 1 19 32 20 33 21 11 22 12 23
REMARK SMILES IDX 18 24 13 25 16 26 15 27 14 28 17 29 25 30 27 31 28 32 26 33
REMARK H PARENT 26 34 26 35
ROOT
ATOM      1  C   UNL     1      14.700 -48.641 -27.081  1.00  0.00     0.060 A 
ATOM      2  C   UNL     1      15.283 -49.491 -28.040  1.00  0.00     0.029 A 
ATOM      3  C   UNL     1      15.855 -48.999 -29.218  1.00  0.00     0.024 A 
ATOM      4  C   UNL     1      15.861 -47.626 -29.451  1.00  0.00     0.082 A 
ATOM      5  C   UNL     1      15.285 -46.753 -28.531  1.00  0.00     0.024 A 
ATOM      6  C   UNL     1      14.715 -47.263 -27.358  1.00  0.00     0.029 A 
ENDROOT
BRANCH   1   7
ATOM      7  N   UNL     1      14.145 -49.162 -25.913  1.00  0.00    -0.257 N 
ATOM      8  C   UNL     1      13.744 -48.380 -24.735  1.00  0.00     0.148 C 
ATOM      9  C   UNL     1      12.797 -49.334 -24.004  1.00  0.00     0.091 C 
ATOM     10  C   UNL     1      13.045 -50.604 -24.770  1.00  0.00     0.071 C 
ATOM     11  N   UNL     1      13.766 -50.472 -25.841  1.00  0.00    -0.176 NA
BRANCH   8  12
ATOM     12  C   UNL     1      14.911 -47.986 -23.840  1.00  0.00     0.023 A 
ATOM     13  C   UNL     1      15.929 -46.374 -22.290  1.00  0.00     0.161 A 
ATOM     14  C   UNL     1      17.003 -47.251 -22.106  1.00  0.00     0.050 A 
ATOM     15  C   UNL     1      14.897 -46.739 -23.180  1.00  0.00     0.166 A 
ATOM     16  C   UNL     1      17.035 -48.480 -22.764  1.00  0.00     0.004 A 
ATOM     17  C   UNL     1      15.995 -48.850 -23.613  1.00  0.00     0.010 A 
BRANCH  13  18
ATOM     18  O   UNL     1      15.796 -45.174 -21.642  1.00  0.00    -0.493 OA
ATOM     19  C   UNL     1      15.875 -45.177 -20.223  1.00  0.00     0.278 C 
ENDBRANCH  13  18
BRANCH  15  20
ATOM     20  O   UNL     1      13.786 -45.955 -23.396  1.00  0.00    -0.492 OA
ATOM     21  C   UNL     1      12.831 -46.023 -22.338  1.00  0.00     0.278 C 
ENDBRANCH  15  20
ENDBRANCH   8  12
BRANCH  10  22
ATOM     22  C   UNL     1      12.471 -51.899 -24.342  1.00  0.00     0.004 A 
ATOM     23  C   UNL     1      11.713 -51.949 -23.165  1.00  0.00     0.049 A 
ATOM     24  C   UNL     1      12.669 -53.067 -25.084  1.00  0.00     0.049 A 
ATOM     25  C   UNL     1      11.164 -53.157 -22.748  1.00  0.00     0.126 A 
ATOM     26  C   UNL     1      12.108 -54.263 -24.641  1.00  0.00     0.126 A 
ATOM     27  C   UNL     1      11.354 -54.321 -23.478  1.00  0.00     0.078 A 
ATOM     28  F   UNL     1      10.439 -53.197 -21.623  1.00  0.00    -0.207 F 
ATOM     29  F   UNL     1      12.300 -55.379 -25.355  1.00  0.00    -0.207 F 
ENDBRANCH  10  22
ENDBRANCH   1   7
BRANCH   4  30
ATOM     30  S   UNL     1      16.595 -47.000 -30.935  1.00  0.00     0.238 S 
ATOM     31  O   UNL     1      16.582 -48.046 -31.934  1.00  0.00    -0.207 OA
ATOM     32  O   UNL     1      17.791 -46.273 -30.586  1.00  0.00    -0.207 OA
BRANCH  30  33
ATOM     33  N   UNL     1      15.434 -45.886 -31.439  1.00  0.00    -0.225 NA
ATOM     34  H   UNL     1      15.686 -44.922 -31.220  1.00  0.00     0.137 HD
ATOM     35  H   UNL     1      14.533 -46.147 -31.037  1.00  0.00     0.137 HD
ENDBRANCH  30  33
ENDBRANCH   4  30
TORSDOF 7
ENDMDL
