MODEL 1
REMARK VINA RESULT:   -12.225      0.000      0.000
REMARK INTER + INTRA:         -17.165
REMARK INTER:                 -16.513
REMARK INTRA:                  -0.653
REMARK UNBOUND:                -0.653
REMARK SMILES COc1cc2c(cc1OC)C(=O)/C(=C/c1cc[n+](Cc3cccc(C)c3)cc1)C2
REMARK SMILES IDX 15 1 16 2 17 3 18 4 27 5 28 6 14 7 13 8 3 9 4 10 8 11 5 12
REMARK SMILES IDX 7 13 6 14 29 15 11 16 12 17 2 18 1 19 9 20 10 21 19 22 20 23
REMARK SMILES IDX 21 24 26 25 22 26 24 27 23 28 25 29
REMARK H PARENT
ROOT
ATOM      1  C   UNL     1      10.473 -57.221 -22.944  1.00  0.00    -0.013 A 
ATOM      2  C   UNL     1       9.357 -57.925 -23.385  1.00  0.00     0.079 A 
ATOM      3  C   UNL     1       9.524 -59.163 -23.996  1.00  0.00     0.309 A 
ATOM      4  N   UNL     1      10.760 -59.685 -24.172  1.00  0.00    -0.201 N 
ATOM      5  C   UNL     1      11.857 -59.009 -23.759  1.00  0.00     0.309 A 
ATOM      6  C   UNL     1      11.737 -57.770 -23.139  1.00  0.00     0.079 A 
ENDROOT
BRANCH   1   7
ATOM      7  C   UNL     1      10.296 -55.901 -22.340  1.00  0.00     0.016 C 
BRANCH   7   8
ATOM      8  C   UNL     1      10.852 -54.770 -22.793  1.00  0.00     0.005 C 
ATOM      9  C   UNL     1      12.966 -50.895 -24.436  1.00  0.00     0.161 A 
ATOM     10  C   UNL     1      12.723 -52.233 -24.783  1.00  0.00     0.055 A 
ATOM     11  C   UNL     1      12.476 -50.367 -23.207  1.00  0.00     0.161 A 
ATOM     12  C   UNL     1      11.999 -53.026 -23.905  1.00  0.00    -0.028 A 
ATOM     13  C   UNL     1      11.748 -51.177 -22.332  1.00  0.00     0.063 A 
ATOM     14  C   UNL     1      11.529 -52.490 -22.708  1.00  0.00     0.030 A 
ATOM     15  C   UNL     1      11.615 -54.468 -24.059  1.00  0.00     0.076 C 
ATOM     16  C   UNL     1      10.804 -53.524 -21.966  1.00  0.00     0.189 C 
ATOM     17  O   UNL     1      10.270 -53.395 -20.884  1.00  0.00    -0.289 OA
BRANCH   9  18
ATOM     18  O   UNL     1      13.668 -50.013 -25.220  1.00  0.00    -0.493 OA
ATOM     19  C   UNL     1      14.056 -50.434 -26.519  1.00  0.00     0.278 C 
ENDBRANCH   9  18
BRANCH  11  20
ATOM     20  O   UNL     1      12.770 -49.046 -22.968  1.00  0.00    -0.493 OA
ATOM     21  C   UNL     1      11.684 -48.133 -22.868  1.00  0.00     0.278 C 
ENDBRANCH  11  20
ENDBRANCH   7   8
ENDBRANCH   1   7
BRANCH   4  22
ATOM     22  C   UNL     1      10.909 -61.003 -24.841  1.00  0.00     0.393 C 
BRANCH  22  23
ATOM     23  C   UNL     1       9.946 -62.008 -24.264  1.00  0.00     0.017 A 
ATOM     24  C   UNL     1      10.164 -62.547 -22.989  1.00  0.00     0.010 A 
ATOM     25  C   UNL     1       8.821 -62.426 -24.996  1.00  0.00     0.013 A 
ATOM     26  C   UNL     1       9.287 -63.495 -22.463  1.00  0.00     0.001 A 
ATOM     27  C   UNL     1       7.929 -63.367 -24.466  1.00  0.00    -0.051 A 
ATOM     28  C   UNL     1       8.179 -63.909 -23.201  1.00  0.00     0.003 A 
ATOM     29  C   UNL     1       6.743 -63.832 -25.262  1.00  0.00     0.044 C 
ENDBRANCH  22  23
ENDBRANCH   4  22
TORSDOF 6
ENDMDL
MODEL 2
REMARK VINA RESULT:   -11.486      1.037      1.369
REMARK INTER + INTRA:         -16.167
REMARK INTER:                 -15.705
REMARK INTRA:                  -0.462
REMARK UNBOUND:                -0.653
REMARK SMILES COc1cc2c(cc1OC)C(=O)/C(=C/c1cc[n+](Cc3cccc(C)c3)cc1)C2
REMARK SMILES IDX 15 1 16 2 17 3 18 4 27 5 28 6 14 7 13 8 3 9 4 10 8 11 5 12
REMARK SMILES IDX 7 13 6 14 29 15 11 16 12 17 2 18 1 19 9 20 10 21 19 22 20 23
REMARK SMILES IDX 21 24 26 25 22 26 24 27 23 28 25 29
REMARK H PARENT
ROOT
ATOM      1  C   UNL     1      10.156 -56.969 -22.693  1.00  0.00    -0.013 A 
ATOM      2  C   UNL     1       9.201 -57.832 -23.222  1.00  0.00     0.079 A 
ATOM      3  C   UNL     1       9.505 -59.179 -23.379  1.00  0.00     0.309 A 
ATOM      4  N   UNL     1      10.723 -59.658 -23.029  1.00  0.00    -0.201 N 
ATOM      5  C   UNL     1      11.667 -58.831 -22.524  1.00  0.00     0.309 A 
ATOM      6  C   UNL     1      11.405 -57.477 -22.346  1.00  0.00     0.079 A 
ENDROOT
BRANCH   1   7
ATOM      7  C   UNL     1       9.846 -55.546 -22.569  1.00  0.00     0.016 C 
BRANCH   7   8
ATOM      8  C   UNL     1      10.609 -54.551 -23.043  1.00  0.00     0.005 C 
ATOM      9  C   UNL     1      13.424 -51.186 -24.753  1.00  0.00     0.161 A 
ATOM     10  C   UNL     1      12.942 -52.466 -25.067  1.00  0.00     0.055 A 
ATOM     11  C   UNL     1      13.024 -50.538 -23.549  1.00  0.00     0.161 A 
ATOM     12  C   UNL     1      12.073 -53.084 -24.181  1.00  0.00    -0.028 A 
ATOM     13  C   UNL     1      12.147 -51.173 -22.665  1.00  0.00     0.063 A 
ATOM     14  C   UNL     1      11.694 -52.434 -23.008  1.00  0.00     0.030 A 
ATOM     15  C   UNL     1      11.430 -54.434 -24.302  1.00  0.00     0.076 C 
ATOM     16  C   UNL     1      10.781 -53.292 -22.252  1.00  0.00     0.189 C 
ATOM     17  O   UNL     1      10.265 -53.034 -21.184  1.00  0.00    -0.289 OA
BRANCH   9  18
ATOM     18  O   UNL     1      14.288 -50.473 -25.548  1.00  0.00    -0.493 OA
ATOM     19  C   UNL     1      15.657 -50.848 -25.555  1.00  0.00     0.278 C 
ENDBRANCH   9  18
BRANCH  11  20
ATOM     20  O   UNL     1      13.555 -49.288 -23.341  1.00  0.00    -0.493 OA
ATOM     21  C   UNL     1      12.906 -48.441 -22.401  1.00  0.00     0.278 C 
ENDBRANCH  11  20
ENDBRANCH   7   8
ENDBRANCH   1   7
BRANCH   4  22
ATOM     22  C   UNL     1      11.025 -61.100 -23.222  1.00  0.00     0.393 C 
BRANCH  22  23
ATOM     23  C   UNL     1       9.987 -61.752 -24.098  1.00  0.00     0.017 A 
ATOM     24  C   UNL     1       8.998 -62.571 -23.535  1.00  0.00     0.010 A 
ATOM     25  C   UNL     1       9.997 -61.556 -25.490  1.00  0.00     0.013 A 
ATOM     26  C   UNL     1       8.052 -63.194 -24.347  1.00  0.00     0.001 A 
ATOM     27  C   UNL     1       9.039 -62.168 -26.308  1.00  0.00    -0.051 A 
ATOM     28  C   UNL     1       8.076 -63.000 -25.727  1.00  0.00     0.003 A 
ATOM     29  C   UNL     1       9.070 -61.980 -27.798  1.00  0.00     0.044 C 
ENDBRANCH  22  23
ENDBRANCH   4  22
TORSDOF 6
ENDMDL
MODEL 3
REMARK VINA RESULT:   -11.021      0.904      2.210
REMARK INTER + INTRA:         -15.540
REMARK INTER:                 -15.666
REMARK INTRA:                   0.127
REMARK UNBOUND:                -0.653
REMARK SMILES COc1cc2c(cc1OC)C(=O)/C(=C/c1cc[n+](Cc3cccc(C)c3)cc1)C2
REMARK SMILES IDX 15 1 16 2 17 3 18 4 27 5 28 6 14 7 13 8 3 9 4 10 8 11 5 12
REMARK SMILES IDX 7 13 6 14 29 15 11 16 12 17 2 18 1 19 9 20 10 21 19 22 20 23
REMARK SMILES IDX 21 24 26 25 22 26 24 27 23 28 25 29
REMARK H PARENT
ROOT
ATOM      1  C   UNL     1      10.353 -57.133 -22.738  1.00  0.00    -0.013 A 
ATOM      2  C   UNL     1      11.572 -57.786 -22.590  1.00  0.00     0.079 A 
ATOM      3  C   UNL     1      11.775 -59.011 -23.215  1.00  0.00     0.309 A 
ATOM      4  N   UNL     1      10.797 -59.577 -23.960  1.00  0.00    -0.201 N 
ATOM      5  C   UNL     1       9.601 -58.962 -24.105  1.00  0.00     0.309 A 
ATOM      6  C   UNL     1       9.355 -57.733 -23.501  1.00  0.00     0.079 A 
ENDROOT
BRANCH   1   7
ATOM      7  C   UNL     1      10.129 -55.865 -22.046  1.00  0.00     0.016 C 
BRANCH   7   8
ATOM      8  C   UNL     1      10.684 -54.695 -22.389  1.00  0.00     0.005 C 
ATOM      9  C   UNL     1      12.473 -50.495 -23.543  1.00  0.00     0.161 A 
ATOM     10  C   UNL     1      11.749 -51.126 -22.519  1.00  0.00     0.055 A 
ATOM     11  C   UNL     1      12.888 -51.227 -24.692  1.00  0.00     0.161 A 
ATOM     12  C   UNL     1      11.449 -52.473 -22.653  1.00  0.00    -0.028 A 
ATOM     13  C   UNL     1      12.577 -52.584 -24.813  1.00  0.00     0.063 A 
ATOM     14  C   UNL     1      11.863 -53.171 -23.785  1.00  0.00     0.030 A 
ATOM     15  C   UNL     1      10.698 -53.354 -21.699  1.00  0.00     0.076 C 
ATOM     16  C   UNL     1      11.421 -54.563 -23.685  1.00  0.00     0.189 C 
ATOM     17  O   UNL     1      11.611 -55.442 -24.500  1.00  0.00    -0.289 OA
BRANCH   9  18
ATOM     18  O   UNL     1      12.832 -49.169 -23.526  1.00  0.00    -0.493 OA
ATOM     19  C   UNL     1      11.933 -48.240 -22.938  1.00  0.00     0.278 C 
ENDBRANCH   9  18
BRANCH  11  20
ATOM     20  O   UNL     1      13.591 -50.511 -25.632  1.00  0.00    -0.493 OA
ATOM     21  C   UNL     1      14.961 -50.839 -25.826  1.00  0.00     0.278 C 
ENDBRANCH  11  20
ENDBRANCH   7   8
ENDBRANCH   1   7
BRANCH   4  22
ATOM     22  C   UNL     1      11.037 -60.894 -24.604  1.00  0.00     0.393 C 
BRANCH  22  23
ATOM     23  C   UNL     1      10.044 -61.918 -24.118  1.00  0.00     0.017 A 
ATOM     24  C   UNL     1      10.156 -62.455 -22.828  1.00  0.00     0.010 A 
ATOM     25  C   UNL     1       8.998 -62.354 -24.949  1.00  0.00     0.013 A 
ATOM     26  C   UNL     1       9.252 -63.420 -22.385  1.00  0.00     0.001 A 
ATOM     27  C   UNL     1       8.079 -63.312 -24.502  1.00  0.00    -0.051 A 
ATOM     28  C   UNL     1       8.223 -63.852 -23.221  1.00  0.00     0.003 A 
ATOM     29  C   UNL     1       6.979 -63.796 -25.403  1.00  0.00     0.044 C 
ENDBRANCH  22  23
ENDBRANCH   4  22
TORSDOF 6
ENDMDL
MODEL 4
REMARK VINA RESULT:   -10.783      2.506      3.835
REMARK INTER + INTRA:         -15.217
REMARK INTER:                 -14.536
REMARK INTRA:                  -0.681
REMARK UNBOUND:                -0.653
REMARK SMILES COc1cc2c(cc1OC)C(=O)/C(=C/c1cc[n+](Cc3cccc(C)c3)cc1)C2
REMARK SMILES IDX 15 1 16 2 17 3 18 4 27 5 28 6 14 7 13 8 3 9 4 10 8 11 5 12
REMARK SMILES IDX 7 13 6 14 29 15 11 16 12 17 2 18 1 19 9 20 10 21 19 22 20 23
REMARK SMILES IDX 21 24 26 25 22 26 24 27 23 28 25 29
REMARK H PARENT
ROOT
ATOM      1  C   UNL     1      10.760 -53.746 -22.150  1.00  0.00    -0.013 A 
ATOM      2  C   UNL     1      10.832 -54.796 -21.239  1.00  0.00     0.079 A 
ATOM      3  C   UNL     1      11.154 -56.072 -21.687  1.00  0.00     0.309 A 
ATOM      4  N   UNL     1      11.391 -56.305 -23.000  1.00  0.00    -0.201 N 
ATOM      5  C   UNL     1      11.314 -55.298 -23.901  1.00  0.00     0.309 A 
ATOM      6  C   UNL     1      10.999 -54.005 -23.497  1.00  0.00     0.079 A 
ENDROOT
BRANCH   1   7
ATOM      7  C   UNL     1      10.381 -52.415 -21.681  1.00  0.00     0.016 C 
BRANCH   7   8
ATOM      8  C   UNL     1      10.812 -51.263 -22.214  1.00  0.00     0.005 C 
ATOM      9  C   UNL     1      12.498 -47.246 -24.001  1.00  0.00     0.161 A 
ATOM     10  C   UNL     1      12.851 -48.593 -23.829  1.00  0.00     0.055 A 
ATOM     11  C   UNL     1      11.240 -46.763 -23.540  1.00  0.00     0.161 A 
ATOM     12  C   UNL     1      11.950 -49.440 -23.201  1.00  0.00    -0.028 A 
ATOM     13  C   UNL     1      10.342 -47.628 -22.909  1.00  0.00     0.063 A 
ATOM     14  C   UNL     1      10.724 -48.948 -22.757  1.00  0.00     0.030 A 
ATOM     15  C   UNL     1      12.100 -50.904 -22.911  1.00  0.00     0.076 C 
ATOM     16  C   UNL     1       9.964 -50.032 -22.132  1.00  0.00     0.189 C 
ATOM     17  O   UNL     1       8.859 -49.948 -21.638  1.00  0.00    -0.289 OA
BRANCH   9  18
ATOM     18  O   UNL     1      13.303 -46.312 -24.607  1.00  0.00    -0.493 OA
ATOM     19  C   UNL     1      14.606 -46.109 -24.080  1.00  0.00     0.278 C 
ENDBRANCH   9  18
BRANCH  11  20
ATOM     20  O   UNL     1      10.998 -45.428 -23.761  1.00  0.00    -0.493 OA
ATOM     21  C   UNL     1      11.022 -44.557 -22.638  1.00  0.00     0.278 C 
ENDBRANCH  11  20
ENDBRANCH   7   8
ENDBRANCH   1   7
BRANCH   4  22
ATOM     22  C   UNL     1      11.718 -57.682 -23.451  1.00  0.00     0.393 C 
BRANCH  22  23
ATOM     23  C   UNL     1      10.669 -58.660 -22.991  1.00  0.00     0.017 A 
ATOM     24  C   UNL     1      11.007 -59.701 -22.115  1.00  0.00     0.010 A 
ATOM     25  C   UNL     1       9.340 -58.550 -23.437  1.00  0.00     0.013 A 
ATOM     26  C   UNL     1      10.042 -60.621 -21.707  1.00  0.00     0.001 A 
ATOM     27  C   UNL     1       8.365 -59.463 -23.017  1.00  0.00    -0.051 A 
ATOM     28  C   UNL     1       8.729 -60.508 -22.162  1.00  0.00     0.003 A 
ATOM     29  C   UNL     1       6.952 -59.360 -23.518  1.00  0.00     0.044 C 
ENDBRANCH  22  23
ENDBRANCH   4  22
TORSDOF 6
ENDMDL
MODEL 5
REMARK VINA RESULT:   -10.683      1.796      3.092
REMARK INTER + INTRA:         -15.083
REMARK INTER:                 -14.720
REMARK INTRA:                  -0.362
REMARK UNBOUND:                -0.653
REMARK SMILES COc1cc2c(cc1OC)C(=O)/C(=C/c1cc[n+](Cc3cccc(C)c3)cc1)C2
REMARK SMILES IDX 15 1 16 2 17 3 18 4 27 5 28 6 14 7 13 8 3 9 4 10 8 11 5 12
REMARK SMILES IDX 7 13 6 14 29 15 11 16 12 17 2 18 1 19 9 20 10 21 19 22 20 23
REMARK SMILES IDX 21 24 26 25 22 26 24 27 23 28 25 29
REMARK H PARENT
ROOT
ATOM      1  C   UNL     1      10.123 -56.008 -22.555  1.00  0.00    -0.013 A 
ATOM      2  C   UNL     1       9.099 -56.761 -23.120  1.00  0.00     0.079 A 
ATOM      3  C   UNL     1       9.246 -58.138 -23.240  1.00  0.00     0.309 A 
ATOM      4  N   UNL     1      10.377 -58.752 -22.819  1.00  0.00    -0.201 N 
ATOM      5  C   UNL     1      11.388 -58.033 -22.277  1.00  0.00     0.309 A 
ATOM      6  C   UNL     1      11.282 -56.654 -22.134  1.00  0.00     0.079 A 
ENDROOT
BRANCH   1   7
ATOM      7  C   UNL     1       9.982 -54.555 -22.469  1.00  0.00     0.016 C 
BRANCH   7   8
ATOM      8  C   UNL     1      10.907 -53.670 -22.866  1.00  0.00     0.005 C 
ATOM      9  C   UNL     1      14.036 -50.418 -24.210  1.00  0.00     0.161 A 
ATOM     10  C   UNL     1      13.175 -50.726 -23.146  1.00  0.00     0.055 A 
ATOM     11  C   UNL     1      14.116 -51.273 -25.346  1.00  0.00     0.161 A 
ATOM     12  C   UNL     1      12.406 -51.877 -23.226  1.00  0.00    -0.028 A 
ATOM     13  C   UNL     1      13.335 -52.430 -25.414  1.00  0.00     0.063 A 
ATOM     14  C   UNL     1      12.498 -52.700 -24.346  1.00  0.00     0.030 A 
ATOM     15  C   UNL     1      11.427 -52.410 -22.221  1.00  0.00     0.076 C 
ATOM     16  C   UNL     1      11.590 -53.838 -24.187  1.00  0.00     0.189 C 
ATOM     17  O   UNL     1      11.421 -54.743 -24.979  1.00  0.00    -0.289 OA
BRANCH   9  18
ATOM     18  O   UNL     1      14.846 -49.309 -24.248  1.00  0.00    -0.493 OA
ATOM     19  C   UNL     1      15.508 -48.923 -23.052  1.00  0.00     0.278 C 
ENDBRANCH   9  18
BRANCH  11  20
ATOM     20  O   UNL     1      14.991 -50.877 -26.329  1.00  0.00    -0.493 OA
ATOM     21  C   UNL     1      14.521 -49.951 -27.300  1.00  0.00     0.278 C 
ENDBRANCH  11  20
ENDBRANCH   7   8
ENDBRANCH   1   7
BRANCH   4  22
ATOM     22  C   UNL     1      10.511 -60.223 -22.973  1.00  0.00     0.393 C 
BRANCH  22  23
ATOM     23  C   UNL     1      10.214 -60.643 -24.389  1.00  0.00     0.017 A 
ATOM     24  C   UNL     1       9.272 -61.649 -24.646  1.00  0.00     0.010 A 
ATOM     25  C   UNL     1      10.878 -60.040 -25.471  1.00  0.00     0.013 A 
ATOM     26  C   UNL     1       9.013 -62.056 -25.954  1.00  0.00     0.001 A 
ATOM     27  C   UNL     1      10.609 -60.434 -26.788  1.00  0.00    -0.051 A 
ATOM     28  C   UNL     1       9.684 -61.457 -27.019  1.00  0.00     0.003 A 
ATOM     29  C   UNL     1      11.341 -59.807 -27.940  1.00  0.00     0.044 C 
ENDBRANCH  22  23
ENDBRANCH   4  22
TORSDOF 6
ENDMDL
MODEL 6
REMARK VINA RESULT:   -10.451      3.621     10.438
REMARK INTER + INTRA:         -14.770
REMARK INTER:                 -14.192
REMARK INTRA:                  -0.577
REMARK UNBOUND:                -0.653
REMARK SMILES COc1cc2c(cc1OC)C(=O)/C(=C/c1cc[n+](Cc3cccc(C)c3)cc1)C2
REMARK SMILES IDX 15 1 16 2 17 3 18 4 27 5 28 6 14 7 13 8 3 9 4 10 8 11 5 12
REMARK SMILES IDX 7 13 6 14 29 15 11 16 12 17 2 18 1 19 9 20 10 21 19 22 20 23
REMARK SMILES IDX 21 24 26 25 22 26 24 27 23 28 25 29
REMARK H PARENT
ROOT
ATOM      1  C   UNL     1      10.994 -55.913 -22.421  1.00  0.00    -0.013 A 
ATOM      2  C   UNL     1      10.990 -55.310 -21.167  1.00  0.00     0.079 A 
ATOM      3  C   UNL     1      10.635 -53.971 -21.051  1.00  0.00     0.309 A 
ATOM      4  N   UNL     1      10.299 -53.248 -22.145  1.00  0.00    -0.201 N 
ATOM      5  C   UNL     1      10.308 -53.815 -23.373  1.00  0.00     0.309 A 
ATOM      6  C   UNL     1      10.653 -55.153 -23.536  1.00  0.00     0.079 A 
ENDROOT
BRANCH   1   7
ATOM      7  C   UNL     1      11.409 -57.309 -22.544  1.00  0.00     0.016 C 
BRANCH   7   8
ATOM      8  C   UNL     1      10.687 -58.275 -23.130  1.00  0.00     0.005 C 
ATOM      9  C   UNL     1       8.139 -61.758 -25.015  1.00  0.00     0.161 A 
ATOM     10  C   UNL     1       8.170 -60.915 -23.894  1.00  0.00     0.055 A 
ATOM     11  C   UNL     1       9.141 -61.657 -26.023  1.00  0.00     0.161 A 
ATOM     12  C   UNL     1       9.194 -59.987 -23.788  1.00  0.00    -0.028 A 
ATOM     13  C   UNL     1      10.168 -60.716 -25.903  1.00  0.00     0.063 A 
ATOM     14  C   UNL     1      10.165 -59.904 -24.783  1.00  0.00     0.030 A 
ATOM     15  C   UNL     1       9.430 -58.987 -22.695  1.00  0.00     0.076 C 
ATOM     16  C   UNL     1      11.127 -58.856 -24.437  1.00  0.00     0.189 C 
ATOM     17  O   UNL     1      12.099 -58.525 -25.084  1.00  0.00    -0.289 OA
BRANCH   9  18
ATOM     18  O   UNL     1       7.178 -62.715 -25.233  1.00  0.00    -0.493 OA
ATOM     19  C   UNL     1       7.240 -63.911 -24.471  1.00  0.00     0.278 C 
ENDBRANCH   9  18
BRANCH  11  20
ATOM     20  O   UNL     1       9.016 -62.529 -27.077  1.00  0.00    -0.493 OA
ATOM     21  C   UNL     1       9.107 -61.995 -28.392  1.00  0.00     0.278 C 
ENDBRANCH  11  20
ENDBRANCH   7   8
ENDBRANCH   1   7
BRANCH   4  22
ATOM     22  C   UNL     1       9.937 -51.815 -21.992  1.00  0.00     0.393 C 
BRANCH  22  23
ATOM     23  C   UNL     1      11.053 -50.926 -22.476  1.00  0.00     0.017 A 
ATOM     24  C   UNL     1      10.824 -49.561 -22.700  1.00  0.00     0.010 A 
ATOM     25  C   UNL     1      12.336 -51.450 -22.716  1.00  0.00     0.013 A 
ATOM     26  C   UNL     1      11.849 -48.742 -23.171  1.00  0.00     0.001 A 
ATOM     27  C   UNL     1      13.372 -50.627 -23.174  1.00  0.00    -0.051 A 
ATOM     28  C   UNL     1      13.115 -49.273 -23.414  1.00  0.00     0.003 A 
ATOM     29  C   UNL     1      14.734 -51.196 -23.457  1.00  0.00     0.044 C 
ENDBRANCH  22  23
ENDBRANCH   4  22
TORSDOF 6
ENDMDL
MODEL 7
REMARK VINA RESULT:   -10.242      1.456      2.141
REMARK INTER + INTRA:         -14.487
REMARK INTER:                 -14.447
REMARK INTRA:                  -0.040
REMARK UNBOUND:                -0.653
REMARK SMILES COc1cc2c(cc1OC)C(=O)/C(=C/c1cc[n+](Cc3cccc(C)c3)cc1)C2
REMARK SMILES IDX 15 1 16 2 17 3 18 4 27 5 28 6 14 7 13 8 3 9 4 10 8 11 5 12
REMARK SMILES IDX 7 13 6 14 29 15 11 16 12 17 2 18 1 19 9 20 10 21 19 22 20 23
REMARK SMILES IDX 21 24 26 25 22 26 24 27 23 28 25 29
REMARK H PARENT
ROOT
ATOM      1  C   UNL     1      11.074 -55.615 -22.467  1.00  0.00    -0.013 A 
ATOM      2  C   UNL     1      11.404 -56.078 -23.737  1.00  0.00     0.079 A 
ATOM      3  C   UNL     1      11.732 -57.417 -23.915  1.00  0.00     0.309 A 
ATOM      4  N   UNL     1      11.740 -58.272 -22.865  1.00  0.00    -0.201 N 
ATOM      5  C   UNL     1      11.433 -57.836 -21.622  1.00  0.00     0.309 A 
ATOM      6  C   UNL     1      11.095 -56.506 -21.398  1.00  0.00     0.079 A 
ENDROOT
BRANCH   1   7
ATOM      7  C   UNL     1      10.770 -54.197 -22.277  1.00  0.00     0.016 C 
BRANCH   7   8
ATOM      8  C   UNL     1      11.361 -53.191 -22.936  1.00  0.00     0.005 C 
ATOM      9  C   UNL     1      13.598 -49.765 -25.267  1.00  0.00     0.161 A 
ATOM     10  C   UNL     1      13.376 -51.150 -25.316  1.00  0.00     0.055 A 
ATOM     11  C   UNL     1      13.024 -48.977 -24.229  1.00  0.00     0.161 A 
ATOM     12  C   UNL     1      12.589 -51.731 -24.334  1.00  0.00    -0.028 A 
ATOM     13  C   UNL     1      12.233 -49.577 -23.245  1.00  0.00     0.063 A 
ATOM     14  C   UNL     1      12.038 -50.944 -23.326  1.00  0.00     0.030 A 
ATOM     15  C   UNL     1      12.212 -53.176 -24.182  1.00  0.00     0.076 C 
ATOM     16  C   UNL     1      11.259 -51.790 -22.420  1.00  0.00     0.189 C 
ATOM     17  O   UNL     1      10.649 -51.426 -21.436  1.00  0.00    -0.289 OA
BRANCH   9  18
ATOM     18  O   UNL     1      14.357 -49.075 -26.181  1.00  0.00    -0.493 OA
ATOM     19  C   UNL     1      14.694 -49.724 -27.398  1.00  0.00     0.278 C 
ENDBRANCH   9  18
BRANCH  11  20
ATOM     20  O   UNL     1      13.305 -47.633 -24.277  1.00  0.00    -0.493 OA
ATOM     21  C   UNL     1      12.238 -46.744 -24.585  1.00  0.00     0.278 C 
ENDBRANCH  11  20
ENDBRANCH   7   8
ENDBRANCH   1   7
BRANCH   4  22
ATOM     22  C   UNL     1      12.109 -59.694 -23.083  1.00  0.00     0.393 C 
BRANCH  22  23
ATOM     23  C   UNL     1      10.878 -60.550 -23.233  1.00  0.00     0.017 A 
ATOM     24  C   UNL     1      10.998 -61.931 -23.443  1.00  0.00     0.010 A 
ATOM     25  C   UNL     1       9.595 -59.979 -23.174  1.00  0.00     0.013 A 
ATOM     26  C   UNL     1       9.860 -62.721 -23.606  1.00  0.00     0.001 A 
ATOM     27  C   UNL     1       8.450 -60.771 -23.322  1.00  0.00    -0.051 A 
ATOM     28  C   UNL     1       8.593 -62.143 -23.554  1.00  0.00     0.003 A 
ATOM     29  C   UNL     1       7.081 -60.153 -23.285  1.00  0.00     0.044 C 
ENDBRANCH  22  23
ENDBRANCH   4  22
TORSDOF 6
ENDMDL
MODEL 8
REMARK VINA RESULT:   -10.201      3.532     10.092
REMARK INTER + INTRA:         -14.432
REMARK INTER:                 -13.761
REMARK INTRA:                  -0.671
REMARK UNBOUND:                -0.653
REMARK SMILES COc1cc2c(cc1OC)C(=O)/C(=C/c1cc[n+](Cc3cccc(C)c3)cc1)C2
REMARK SMILES IDX 15 1 16 2 17 3 18 4 27 5 28 6 14 7 13 8 3 9 4 10 8 11 5 12
REMARK SMILES IDX 7 13 6 14 29 15 11 16 12 17 2 18 1 19 9 20 10 21 19 22 20 23
REMARK SMILES IDX 21 24 26 25 22 26 24 27 23 28 25 29
REMARK H PARENT
ROOT
ATOM      1  C   UNL     1      10.792 -54.275 -22.925  1.00  0.00    -0.013 A 
ATOM      2  C   UNL     1      11.406 -54.618 -24.126  1.00  0.00     0.079 A 
ATOM      3  C   UNL     1      12.210 -53.690 -24.776  1.00  0.00     0.309 A 
ATOM      4  N   UNL     1      12.396 -52.453 -24.257  1.00  0.00    -0.201 N 
ATOM      5  C   UNL     1      11.797 -52.098 -23.097  1.00  0.00     0.309 A 
ATOM      6  C   UNL     1      10.988 -52.996 -22.410  1.00  0.00     0.079 A 
ENDROOT
BRANCH   1   7
ATOM      7  C   UNL     1       9.914 -55.239 -22.266  1.00  0.00     0.016 C 
BRANCH   7   8
ATOM      8  C   UNL     1       9.686 -56.488 -22.697  1.00  0.00     0.005 C 
ATOM      9  C   UNL     1       8.702 -60.858 -24.150  1.00  0.00     0.161 A 
ATOM     10  C   UNL     1       8.182 -59.555 -24.188  1.00  0.00     0.055 A 
ATOM     11  C   UNL     1       9.937 -61.124 -23.493  1.00  0.00     0.161 A 
ATOM     12  C   UNL     1       8.895 -58.537 -23.572  1.00  0.00    -0.028 A 
ATOM     13  C   UNL     1      10.645 -60.089 -22.876  1.00  0.00     0.063 A 
ATOM     14  C   UNL     1      10.101 -58.819 -22.934  1.00  0.00     0.030 A 
ATOM     15  C   UNL     1       8.546 -57.081 -23.486  1.00  0.00     0.076 C 
ATOM     16  C   UNL     1      10.649 -57.585 -22.367  1.00  0.00     0.189 C 
ATOM     17  O   UNL     1      11.685 -57.475 -21.744  1.00  0.00    -0.289 OA
BRANCH   9  18
ATOM     18  O   UNL     1       8.090 -61.946 -24.722  1.00  0.00    -0.493 OA
ATOM     19  C   UNL     1       6.913 -62.451 -24.110  1.00  0.00     0.278 C 
ENDBRANCH   9  18
BRANCH  11  20
ATOM     20  O   UNL     1      10.353 -62.434 -23.517  1.00  0.00    -0.493 OA
ATOM     21  C   UNL     1      10.018 -63.256 -22.406  1.00  0.00     0.278 C 
ENDBRANCH  11  20
ENDBRANCH   7   8
ENDBRANCH   1   7
BRANCH   4  22
ATOM     22  C   UNL     1      13.249 -51.476 -24.982  1.00  0.00     0.393 C 
BRANCH  22  23
ATOM     23  C   UNL     1      14.679 -51.567 -24.519  1.00  0.00     0.017 A 
ATOM     24  C   UNL     1      15.021 -51.226 -23.203  1.00  0.00     0.010 A 
ATOM     25  C   UNL     1      15.693 -51.987 -25.398  1.00  0.00     0.013 A 
ATOM     26  C   UNL     1      16.348 -51.286 -22.780  1.00  0.00     0.001 A 
ATOM     27  C   UNL     1      17.025 -52.065 -24.972  1.00  0.00    -0.051 A 
ATOM     28  C   UNL     1      17.346 -51.696 -23.662  1.00  0.00     0.003 A 
ATOM     29  C   UNL     1      18.110 -52.487 -25.922  1.00  0.00     0.044 C 
ENDBRANCH  22  23
ENDBRANCH   4  22
TORSDOF 6
ENDMDL
MODEL 9
REMARK VINA RESULT:    -9.876      3.566     10.131
REMARK INTER + INTRA:         -13.992
REMARK INTER:                 -13.667
REMARK INTRA:                  -0.326
REMARK UNBOUND:                -0.653
REMARK SMILES COc1cc2c(cc1OC)C(=O)/C(=C/c1cc[n+](Cc3cccc(C)c3)cc1)C2
REMARK SMILES IDX 15 1 16 2 17 3 18 4 27 5 28 6 14 7 13 8 3 9 4 10 8 11 5 12
REMARK SMILES IDX 7 13 6 14 29 15 11 16 12 17 2 18 1 19 9 20 10 21 19 22 20 23
REMARK SMILES IDX 21 24 26 25 22 26 24 27 23 28 25 29
REMARK H PARENT
ROOT
ATOM      1  C   UNL     1      11.065 -54.380 -23.032  1.00  0.00    -0.013 A 
ATOM      2  C   UNL     1      11.266 -53.085 -22.564  1.00  0.00     0.079 A 
ATOM      3  C   UNL     1      12.038 -52.199 -23.308  1.00  0.00     0.309 A 
ATOM      4  N   UNL     1      12.600 -52.585 -24.477  1.00  0.00    -0.201 N 
ATOM      5  C   UNL     1      12.424 -53.844 -24.942  1.00  0.00     0.309 A 
ATOM      6  C   UNL     1      11.656 -54.763 -24.233  1.00  0.00     0.079 A 
ENDROOT
BRANCH   1   7
ATOM      7  C   UNL     1      10.288 -55.321 -22.227  1.00  0.00     0.016 C 
BRANCH   7   8
ATOM      8  C   UNL     1      10.246 -56.645 -22.424  1.00  0.00     0.005 C 
ATOM      9  C   UNL     1      10.288 -61.299 -23.146  1.00  0.00     0.161 A 
ATOM     10  C   UNL     1      10.983 -60.299 -22.449  1.00  0.00     0.055 A 
ATOM     11  C   UNL     1       9.162 -60.968 -23.953  1.00  0.00     0.161 A 
ATOM     12  C   UNL     1      10.551 -58.986 -22.565  1.00  0.00    -0.028 A 
ATOM     13  C   UNL     1       8.738 -59.640 -24.062  1.00  0.00     0.063 A 
ATOM     14  C   UNL     1       9.449 -58.683 -23.361  1.00  0.00     0.030 A 
ATOM     15  C   UNL     1      11.126 -57.760 -21.918  1.00  0.00     0.076 C 
ATOM     16  C   UNL     1       9.202 -57.240 -23.317  1.00  0.00     0.189 C 
ATOM     17  O   UNL     1       8.322 -56.641 -23.899  1.00  0.00    -0.289 OA
BRANCH   9  18
ATOM     18  O   UNL     1      10.617 -62.632 -23.111  1.00  0.00    -0.493 OA
ATOM     19  C   UNL     1       9.781 -63.509 -22.370  1.00  0.00     0.278 C 
ENDBRANCH   9  18
BRANCH  11  20
ATOM     20  O   UNL     1       8.556 -62.024 -24.591  1.00  0.00    -0.493 OA
ATOM     21  C   UNL     1       8.787 -62.176 -25.986  1.00  0.00     0.278 C 
ENDBRANCH  11  20
ENDBRANCH   7   8
ENDBRANCH   1   7
BRANCH   4  22
ATOM     22  C   UNL     1      13.431 -51.621 -25.243  1.00  0.00     0.393 C 
BRANCH  22  23
ATOM     23  C   UNL     1      14.846 -51.606 -24.727  1.00  0.00     0.017 A 
ATOM     24  C   UNL     1      15.118 -51.176 -23.420  1.00  0.00     0.010 A 
ATOM     25  C   UNL     1      15.914 -52.014 -25.546  1.00  0.00     0.013 A 
ATOM     26  C   UNL     1      16.430 -51.139 -22.949  1.00  0.00     0.001 A 
ATOM     27  C   UNL     1      17.231 -51.992 -25.071  1.00  0.00    -0.051 A 
ATOM     28  C   UNL     1      17.482 -51.538 -23.772  1.00  0.00     0.003 A 
ATOM     29  C   UNL     1      18.372 -52.402 -25.958  1.00  0.00     0.044 C 
ENDBRANCH  22  23
ENDBRANCH   4  22
TORSDOF 6
ENDMDL
