MODEL 1
REMARK VINA RESULT:   -11.969      0.000      0.000
REMARK INTER + INTRA:         -14.374
REMARK INTER:                 -14.068
REMARK INTRA:                  -0.306
REMARK UNBOUND:                -0.306
REMARK SMILES O=C(C[NH+]1CCCCC1)Nc1ccc2nc3c4[nH]c5ccccc5c4ccn3c(=O)c2c1
REMARK SMILES IDX 2 1 1 2 10 3 3 5 4 6 5 7 9 8 6 9 8 10 7 11 11 13 12 14 32 15
REMARK SMILES IDX 13 16 31 17 14 18 29 19 15 20 28 21 16 22 27 23 17 24 26 25
REMARK SMILES IDX 18 26 25 27 19 28 24 29 20 30 23 31 21 32 22 33 30 34
REMARK H PARENT 10 4 4 12 18 35
ROOT
ATOM      1  C   UNL     1       9.874 -57.596 -23.053  1.00  0.00     0.279 C 
ATOM      2  O   UNL     1       8.842 -57.207 -23.588  1.00  0.00    -0.268 OA
ATOM      3  N   UNL     1      10.899 -56.797 -22.569  1.00  0.00    -0.321 N 
ATOM      4  H   UNL     1      11.705 -57.244 -22.147  1.00  0.00     0.170 HD
ENDROOT
BRANCH   1   5
ATOM      5  C   UNL     1      10.140 -59.098 -22.861  1.00  0.00     0.363 C 
BRANCH   5   6
ATOM      6  N   UNL     1       9.440 -60.047 -23.845  1.00  0.00    -0.327 N 
ATOM      7  C   UNL     1      10.409 -60.900 -24.634  1.00  0.00     0.262 C 
ATOM      8  C   UNL     1       8.366 -60.888 -23.190  1.00  0.00     0.262 C 
ATOM      9  C   UNL     1       9.643 -61.629 -25.730  1.00  0.00     0.062 C 
ATOM     10  C   UNL     1       7.583 -61.617 -24.275  1.00  0.00     0.062 C 
ATOM     11  C   UNL     1       8.497 -62.460 -25.159  1.00  0.00     0.012 C 
ATOM     12  H   UNL     1       8.964 -59.438 -24.523  1.00  0.00     0.348 HD
ENDBRANCH   5   6
ENDBRANCH   1   5
BRANCH   3  13
ATOM     13  C   UNL     1      10.958 -55.382 -22.594  1.00  0.00     0.042 A 
ATOM     14  C   UNL     1      10.178 -54.696 -21.655  1.00  0.00     0.028 A 
ATOM     15  C   UNL     1      11.735 -54.643 -23.486  1.00  0.00     0.042 A 
ATOM     16  C   UNL     1      10.177 -53.296 -21.612  1.00  0.00     0.031 A 
ATOM     17  C   UNL     1      11.727 -53.239 -23.435  1.00  0.00     0.068 A 
ATOM     18  C   UNL     1      10.952 -52.555 -22.502  1.00  0.00     0.078 A 
ATOM     19  C   UNL     1      12.546 -52.446 -24.374  1.00  0.00     0.265 A 
ATOM     20  N   UNL     1      10.919 -51.160 -22.420  1.00  0.00    -0.228 NA
ATOM     21  N   UNL     1      12.469 -51.062 -24.241  1.00  0.00    -0.266 N 
ATOM     22  C   UNL     1      11.648 -50.493 -23.258  1.00  0.00     0.164 A 
ATOM     23  C   UNL     1      13.221 -50.245 -25.102  1.00  0.00     0.097 A 
ATOM     24  C   UNL     1      11.644 -49.057 -23.210  1.00  0.00     0.091 A 
ATOM     25  C   UNL     1      13.196 -48.900 -25.031  1.00  0.00     0.029 A 
ATOM     26  N   UNL     1      10.953 -48.229 -22.370  1.00  0.00    -0.351 N 
ATOM     27  C   UNL     1      12.383 -48.262 -24.056  1.00  0.00     0.013 A 
ATOM     28  C   UNL     1      11.240 -46.911 -22.667  1.00  0.00     0.047 A 
ATOM     29  C   UNL     1      12.146 -46.906 -23.736  1.00  0.00     0.007 A 
ATOM     30  C   UNL     1      10.767 -45.733 -22.076  1.00  0.00     0.027 A 
ATOM     31  C   UNL     1      12.600 -45.669 -24.232  1.00  0.00     0.011 A 
ATOM     32  C   UNL     1      11.233 -44.518 -22.588  1.00  0.00     0.002 A 
ATOM     33  C   UNL     1      12.136 -44.484 -23.649  1.00  0.00     0.001 A 
ATOM     34  O   UNL     1      13.236 -53.037 -25.204  1.00  0.00    -0.268 OA
ATOM     35  H   UNL     1      10.325 -48.542 -21.641  1.00  0.00     0.167 HD
ENDBRANCH   3  13
TORSDOF 3
ENDMDL
MODEL 2
REMARK VINA RESULT:   -11.638      1.679      2.265
REMARK INTER + INTRA:         -13.985
REMARK INTER:                 -13.699
REMARK INTRA:                  -0.286
REMARK UNBOUND:                -0.306
REMARK SMILES O=C(C[NH+]1CCCCC1)Nc1ccc2nc3c4[nH]c5ccccc5c4ccn3c(=O)c2c1
REMARK SMILES IDX 2 1 1 2 10 3 3 5 4 6 5 7 9 8 6 9 8 10 7 11 11 13 12 14 32 15
REMARK SMILES IDX 13 16 31 17 14 18 29 19 15 20 28 21 16 22 27 23 17 24 26 25
REMARK SMILES IDX 18 26 25 27 19 28 24 29 20 30 23 31 21 32 22 33 30 34
REMARK H PARENT 10 4 4 12 18 35
ROOT
ATOM      1  C   UNL     1      11.621 -59.650 -23.169  1.00  0.00     0.279 C 
ATOM      2  O   UNL     1      12.826 -59.515 -23.348  1.00  0.00    -0.268 OA
ATOM      3  N   UNL     1      10.691 -58.628 -23.054  1.00  0.00    -0.321 N 
ATOM      4  H   UNL     1       9.718 -58.872 -22.906  1.00  0.00     0.170 HD
ENDROOT
BRANCH   1   5
ATOM      5  C   UNL     1      10.997 -61.049 -23.051  1.00  0.00     0.363 C 
BRANCH   5   6
ATOM      6  N   UNL     1       9.908 -61.400 -24.075  1.00  0.00    -0.327 N 
ATOM      7  C   UNL     1      10.388 -61.296 -25.507  1.00  0.00     0.262 C 
ATOM      8  C   UNL     1       9.253 -62.738 -23.805  1.00  0.00     0.262 C 
ATOM      9  C   UNL     1       9.190 -61.435 -26.438  1.00  0.00     0.062 C 
ATOM     10  C   UNL     1       8.046 -62.888 -24.722  1.00  0.00     0.062 C 
ATOM     11  C   UNL     1       8.432 -62.737 -26.191  1.00  0.00     0.012 C 
ATOM     12  H   UNL     1       9.178 -60.686 -23.956  1.00  0.00     0.348 HD
ENDBRANCH   5   6
ENDBRANCH   1   5
BRANCH   3  13
ATOM     13  C   UNL     1      10.944 -57.236 -23.117  1.00  0.00     0.042 A 
ATOM     14  C   UNL     1      10.439 -56.450 -22.075  1.00  0.00     0.028 A 
ATOM     15  C   UNL     1      11.657 -56.612 -24.141  1.00  0.00     0.042 A 
ATOM     16  C   UNL     1      10.643 -55.064 -22.059  1.00  0.00     0.031 A 
ATOM     17  C   UNL     1      11.857 -55.221 -24.117  1.00  0.00     0.068 A 
ATOM     18  C   UNL     1      11.355 -54.438 -23.081  1.00  0.00     0.078 A 
ATOM     19  C   UNL     1      12.610 -54.549 -25.195  1.00  0.00     0.265 A 
ATOM     20  N   UNL     1      11.534 -53.053 -23.023  1.00  0.00    -0.228 NA
ATOM     21  N   UNL     1      12.752 -53.169 -25.079  1.00  0.00    -0.266 N 
ATOM     22  C   UNL     1      12.198 -52.493 -23.983  1.00  0.00     0.164 A 
ATOM     23  C   UNL     1      13.457 -52.464 -26.069  1.00  0.00     0.097 A 
ATOM     24  C   UNL     1      12.406 -51.071 -23.964  1.00  0.00     0.091 A 
ATOM     25  C   UNL     1      13.635 -51.130 -26.021  1.00  0.00     0.029 A 
ATOM     26  N   UNL     1      11.990 -50.157 -23.037  1.00  0.00    -0.351 N 
ATOM     27  C   UNL     1      13.097 -50.387 -24.937  1.00  0.00     0.013 A 
ATOM     28  C   UNL     1      12.406 -48.892 -23.404  1.00  0.00     0.047 A 
ATOM     29  C   UNL     1      13.112 -49.012 -24.609  1.00  0.00     0.007 A 
ATOM     30  C   UNL     1      12.211 -47.661 -22.766  1.00  0.00     0.027 A 
ATOM     31  C   UNL     1      13.646 -47.850 -25.198  1.00  0.00     0.011 A 
ATOM     32  C   UNL     1      12.752 -46.523 -23.372  1.00  0.00     0.002 A 
ATOM     33  C   UNL     1      13.459 -46.613 -24.570  1.00  0.00     0.001 A 
ATOM     34  O   UNL     1      13.060 -55.230 -26.117  1.00  0.00    -0.268 OA
ATOM     35  H   UNL     1      11.456 -50.380 -22.207  1.00  0.00     0.167 HD
ENDBRANCH   3  13
TORSDOF 3
ENDMDL
MODEL 3
REMARK VINA RESULT:   -11.305      1.962      3.014
REMARK INTER + INTRA:         -13.594
REMARK INTER:                 -13.322
REMARK INTRA:                  -0.272
REMARK UNBOUND:                -0.306
REMARK SMILES O=C(C[NH+]1CCCCC1)Nc1ccc2nc3c4[nH]c5ccccc5c4ccn3c(=O)c2c1
REMARK SMILES IDX 2 1 1 2 10 3 3 5 4 6 5 7 9 8 6 9 8 10 7 11 11 13 12 14 32 15
REMARK SMILES IDX 13 16 31 17 14 18 29 19 15 20 28 21 16 22 27 23 17 24 26 25
REMARK SMILES IDX 18 26 25 27 19 28 24 29 20 30 23 31 21 32 22 33 30 34
REMARK H PARENT 10 4 4 12 18 35
ROOT
ATOM      1  C   UNL     1       9.304 -58.253 -23.080  1.00  0.00     0.279 C 
ATOM      2  O   UNL     1       8.645 -57.955 -24.069  1.00  0.00    -0.268 OA
ATOM      3  N   UNL     1      10.357 -57.525 -22.546  1.00  0.00    -0.321 N 
ATOM      4  H   UNL     1      10.824 -57.881 -21.720  1.00  0.00     0.170 HD
ENDROOT
BRANCH   1   5
ATOM      5  C   UNL     1       9.002 -59.540 -22.294  1.00  0.00     0.363 C 
BRANCH   5   6
ATOM      6  N   UNL     1       8.818 -60.819 -23.123  1.00  0.00    -0.327 N 
ATOM      7  C   UNL     1       9.509 -62.021 -22.515  1.00  0.00     0.262 C 
ATOM      8  C   UNL     1       7.368 -61.113 -23.440  1.00  0.00     0.262 C 
ATOM      9  C   UNL     1       9.465 -63.171 -23.513  1.00  0.00     0.062 C 
ATOM     10  C   UNL     1       7.307 -62.256 -24.447  1.00  0.00     0.062 C 
ATOM     11  C   UNL     1       8.035 -63.496 -23.935  1.00  0.00     0.012 C 
ATOM     12  H   UNL     1       9.284 -60.635 -24.020  1.00  0.00     0.348 HD
ENDBRANCH   5   6
ENDBRANCH   1   5
BRANCH   3  13
ATOM     13  C   UNL     1      10.878 -56.302 -23.034  1.00  0.00     0.042 A 
ATOM     14  C   UNL     1      11.645 -56.359 -24.204  1.00  0.00     0.028 A 
ATOM     15  C   UNL     1      10.674 -55.062 -22.428  1.00  0.00     0.042 A 
ATOM     16  C   UNL     1      12.199 -55.197 -24.755  1.00  0.00     0.031 A 
ATOM     17  C   UNL     1      11.234 -53.901 -22.988  1.00  0.00     0.068 A 
ATOM     18  C   UNL     1      11.998 -53.957 -24.151  1.00  0.00     0.078 A 
ATOM     19  C   UNL     1      11.026 -52.583 -22.355  1.00  0.00     0.265 A 
ATOM     20  N   UNL     1      12.570 -52.824 -24.737  1.00  0.00    -0.228 NA
ATOM     21  N   UNL     1      11.622 -51.495 -22.988  1.00  0.00    -0.266 N 
ATOM     22  C   UNL     1      12.369 -51.683 -24.159  1.00  0.00     0.164 A 
ATOM     23  C   UNL     1      11.465 -50.211 -22.441  1.00  0.00     0.097 A 
ATOM     24  C   UNL     1      12.939 -50.492 -24.727  1.00  0.00     0.091 A 
ATOM     25  C   UNL     1      12.012 -49.113 -22.999  1.00  0.00     0.029 A 
ATOM     26  N   UNL     1      13.706 -50.362 -25.851  1.00  0.00    -0.351 N 
ATOM     27  C   UNL     1      12.782 -49.237 -24.186  1.00  0.00     0.013 A 
ATOM     28  C   UNL     1      14.044 -49.036 -26.038  1.00  0.00     0.047 A 
ATOM     29  C   UNL     1      13.468 -48.301 -24.992  1.00  0.00     0.007 A 
ATOM     30  C   UNL     1      14.810 -48.437 -27.045  1.00  0.00     0.027 A 
ATOM     31  C   UNL     1      13.668 -46.908 -24.955  1.00  0.00     0.011 A 
ATOM     32  C   UNL     1      14.993 -47.052 -26.984  1.00  0.00     0.002 A 
ATOM     33  C   UNL     1      14.432 -46.296 -25.956  1.00  0.00     0.001 A 
ATOM     34  O   UNL     1      10.352 -52.519 -21.327  1.00  0.00    -0.268 OA
ATOM     35  H   UNL     1      13.982 -51.127 -26.451  1.00  0.00     0.167 HD
ENDBRANCH   3  13
TORSDOF 3
ENDMDL
MODEL 4
REMARK VINA RESULT:   -11.169      2.233     10.949
REMARK INTER + INTRA:         -13.434
REMARK INTER:                 -13.080
REMARK INTRA:                  -0.355
REMARK UNBOUND:                -0.306
REMARK SMILES O=C(C[NH+]1CCCCC1)Nc1ccc2nc3c4[nH]c5ccccc5c4ccn3c(=O)c2c1
REMARK SMILES IDX 2 1 1 2 10 3 3 5 4 6 5 7 9 8 6 9 8 10 7 11 11 13 12 14 32 15
REMARK SMILES IDX 13 16 31 17 14 18 29 19 15 20 28 21 16 22 27 23 17 24 26 25
REMARK SMILES IDX 18 26 25 27 19 28 24 29 20 30 23 31 21 32 22 33 30 34
REMARK H PARENT 10 4 4 12 18 35
ROOT
ATOM      1  C   UNL     1      14.328 -48.377 -24.463  1.00  0.00     0.279 C 
ATOM      2  O   UNL     1      15.278 -48.849 -23.849  1.00  0.00    -0.268 OA
ATOM      3  N   UNL     1      13.251 -49.084 -24.977  1.00  0.00    -0.321 N 
ATOM      4  H   UNL     1      12.526 -48.573 -25.468  1.00  0.00     0.170 HD
ENDROOT
BRANCH   1   5
ATOM      5  C   UNL     1      14.241 -46.866 -24.731  1.00  0.00     0.363 C 
BRANCH   5   6
ATOM      6  N   UNL     1      13.218 -46.082 -23.897  1.00  0.00    -0.327 N 
ATOM      7  C   UNL     1      11.844 -46.042 -24.532  1.00  0.00     0.262 C 
ATOM      8  C   UNL     1      13.151 -46.545 -22.458  1.00  0.00     0.262 C 
ATOM      9  C   UNL     1      10.973 -45.062 -23.757  1.00  0.00     0.062 C 
ATOM     10  C   UNL     1      12.290 -45.568 -21.666  1.00  0.00     0.062 C 
ATOM     11  C   UNL     1      10.898 -45.422 -22.276  1.00  0.00     0.012 C 
ATOM     12  H   UNL     1      13.562 -45.114 -23.879  1.00  0.00     0.348 HD
ENDBRANCH   5   6
ENDBRANCH   1   5
BRANCH   3  13
ATOM     13  C   UNL     1      13.037 -50.481 -24.899  1.00  0.00     0.042 A 
ATOM     14  C   UNL     1      13.537 -51.262 -25.948  1.00  0.00     0.028 A 
ATOM     15  C   UNL     1      12.366 -51.117 -23.854  1.00  0.00     0.042 A 
ATOM     16  C   UNL     1      13.369 -52.652 -25.951  1.00  0.00     0.031 A 
ATOM     17  C   UNL     1      12.201 -52.513 -23.866  1.00  0.00     0.068 A 
ATOM     18  C   UNL     1      12.698 -53.290 -24.908  1.00  0.00     0.078 A 
ATOM     19  C   UNL     1      11.493 -53.197 -22.765  1.00  0.00     0.265 A 
ATOM     20  N   UNL     1      12.555 -54.679 -24.954  1.00  0.00    -0.228 NA
ATOM     21  N   UNL     1      11.383 -54.581 -22.870  1.00  0.00    -0.266 N 
ATOM     22  C   UNL     1      11.928 -55.250 -23.975  1.00  0.00     0.164 A 
ATOM     23  C   UNL     1      10.721 -55.297 -21.859  1.00  0.00     0.097 A 
ATOM     24  C   UNL     1      11.757 -56.677 -23.980  1.00  0.00     0.091 A 
ATOM     25  C   UNL     1      10.578 -56.636 -21.893  1.00  0.00     0.029 A 
ATOM     26  N   UNL     1      12.175 -57.586 -24.912  1.00  0.00    -0.351 N 
ATOM     27  C   UNL     1      11.108 -57.372 -22.987  1.00  0.00     0.013 A 
ATOM     28  C   UNL     1      11.801 -58.859 -24.527  1.00  0.00     0.047 A 
ATOM     29  C   UNL     1      11.121 -58.749 -23.307  1.00  0.00     0.007 A 
ATOM     30  C   UNL     1      12.011 -60.088 -25.163  1.00  0.00     0.027 A 
ATOM     31  C   UNL     1      10.632 -59.920 -22.697  1.00  0.00     0.011 A 
ATOM     32  C   UNL     1      11.515 -61.236 -24.537  1.00  0.00     0.002 A 
ATOM     33  C   UNL     1      10.836 -61.156 -23.322  1.00  0.00     0.001 A 
ATOM     34  O   UNL     1      11.049 -52.523 -21.836  1.00  0.00    -0.268 OA
ATOM     35  H   UNL     1      12.682 -57.354 -25.755  1.00  0.00     0.167 HD
ENDBRANCH   3  13
TORSDOF 3
ENDMDL
MODEL 5
REMARK VINA RESULT:   -10.343      1.813      2.377
REMARK INTER + INTRA:         -12.463
REMARK INTER:                 -12.512
REMARK INTRA:                   0.049
REMARK UNBOUND:                -0.306
REMARK SMILES O=C(C[NH+]1CCCCC1)Nc1ccc2nc3c4[nH]c5ccccc5c4ccn3c(=O)c2c1
REMARK SMILES IDX 2 1 1 2 10 3 3 5 4 6 5 7 9 8 6 9 8 10 7 11 11 13 12 14 32 15
REMARK SMILES IDX 13 16 31 17 14 18 29 19 15 20 28 21 16 22 27 23 17 24 26 25
REMARK SMILES IDX 18 26 25 27 19 28 24 29 20 30 23 31 21 32 22 33 30 34
REMARK H PARENT 10 4 4 12 18 35
ROOT
ATOM      1  C   UNL     1      12.143 -56.593 -25.011  1.00  0.00     0.279 C 
ATOM      2  O   UNL     1      12.889 -56.188 -25.896  1.00  0.00    -0.268 OA
ATOM      3  N   UNL     1      11.554 -55.822 -24.020  1.00  0.00    -0.321 N 
ATOM      4  H   UNL     1      10.954 -56.280 -23.342  1.00  0.00     0.170 HD
ENDROOT
BRANCH   1   5
ATOM      5  C   UNL     1      11.774 -58.082 -24.917  1.00  0.00     0.363 C 
BRANCH   5   6
ATOM      6  N   UNL     1      10.979 -58.511 -23.676  1.00  0.00    -0.327 N 
ATOM      7  C   UNL     1       9.865 -59.485 -23.996  1.00  0.00     0.262 C 
ATOM      8  C   UNL     1      11.861 -59.025 -22.558  1.00  0.00     0.262 C 
ATOM      9  C   UNL     1       9.001 -59.669 -22.754  1.00  0.00     0.062 C 
ATOM     10  C   UNL     1      11.013 -59.204 -21.305  1.00  0.00     0.062 C 
ATOM     11  C   UNL     1       9.827 -60.131 -21.557  1.00  0.00     0.012 C 
ATOM     12  H   UNL     1      10.530 -57.655 -23.327  1.00  0.00     0.348 HD
ENDBRANCH   5   6
ENDBRANCH   1   5
BRANCH   3  13
ATOM     13  C   UNL     1      11.694 -54.426 -23.832  1.00  0.00     0.042 A 
ATOM     14  C   UNL     1      11.094 -53.874 -22.694  1.00  0.00     0.028 A 
ATOM     15  C   UNL     1      12.384 -53.581 -24.701  1.00  0.00     0.042 A 
ATOM     16  C   UNL     1      11.183 -52.501 -22.432  1.00  0.00     0.031 A 
ATOM     17  C   UNL     1      12.468 -52.205 -24.430  1.00  0.00     0.068 A 
ATOM     18  C   UNL     1      11.872 -51.654 -23.298  1.00  0.00     0.078 A 
ATOM     19  C   UNL     1      13.197 -51.299 -25.342  1.00  0.00     0.265 A 
ATOM     20  N   UNL     1      11.935 -50.291 -22.995  1.00  0.00    -0.228 NA
ATOM     21  N   UNL     1      13.222 -49.954 -24.984  1.00  0.00    -0.266 N 
ATOM     22  C   UNL     1      12.580 -49.523 -23.815  1.00  0.00     0.164 A 
ATOM     23  C   UNL     1      13.896 -49.036 -25.807  1.00  0.00     0.097 A 
ATOM     24  C   UNL     1      12.670 -48.115 -23.542  1.00  0.00     0.091 A 
ATOM     25  C   UNL     1      13.963 -47.721 -25.523  1.00  0.00     0.029 A 
ATOM     26  N   UNL     1      12.152 -47.411 -22.492  1.00  0.00    -0.351 N 
ATOM     27  C   UNL     1      13.332 -47.221 -24.352  1.00  0.00     0.013 A 
ATOM     28  C   UNL     1      12.474 -46.074 -22.617  1.00  0.00     0.047 A 
ATOM     29  C   UNL     1      13.224 -45.928 -23.792  1.00  0.00     0.007 A 
ATOM     30  C   UNL     1      12.160 -44.992 -21.787  1.00  0.00     0.027 A 
ATOM     31  C   UNL     1      13.679 -44.644 -24.149  1.00  0.00     0.011 A 
ATOM     32  C   UNL     1      12.623 -43.728 -22.164  1.00  0.00     0.002 A 
ATOM     33  C   UNL     1      13.372 -43.554 -23.327  1.00  0.00     0.001 A 
ATOM     34  O   UNL     1      13.729 -51.773 -26.346  1.00  0.00    -0.268 OA
ATOM     35  H   UNL     1      11.613 -47.815 -21.738  1.00  0.00     0.167 HD
ENDBRANCH   3  13
TORSDOF 3
ENDMDL
MODEL 6
REMARK VINA RESULT:   -10.237      1.982      3.452
REMARK INTER + INTRA:         -12.339
REMARK INTER:                 -12.187
REMARK INTRA:                  -0.152
REMARK UNBOUND:                -0.306
REMARK SMILES O=C(C[NH+]1CCCCC1)Nc1ccc2nc3c4[nH]c5ccccc5c4ccn3c(=O)c2c1
REMARK SMILES IDX 2 1 1 2 10 3 3 5 4 6 5 7 9 8 6 9 8 10 7 11 11 13 12 14 32 15
REMARK SMILES IDX 13 16 31 17 14 18 29 19 15 20 28 21 16 22 27 23 17 24 26 25
REMARK SMILES IDX 18 26 25 27 19 28 24 29 20 30 23 31 21 32 22 33 30 34
REMARK H PARENT 10 4 4 12 18 35
ROOT
ATOM      1  C   UNL     1      12.329 -60.251 -23.865  1.00  0.00     0.279 C 
ATOM      2  O   UNL     1      13.539 -60.070 -23.784  1.00  0.00    -0.268 OA
ATOM      3  N   UNL     1      11.362 -59.267 -24.007  1.00  0.00    -0.321 N 
ATOM      4  H   UNL     1      10.389 -59.549 -24.062  1.00  0.00     0.170 HD
ENDROOT
BRANCH   1   5
ATOM      5  C   UNL     1      11.743 -61.670 -23.814  1.00  0.00     0.363 C 
BRANCH   5   6
ATOM      6  N   UNL     1      10.212 -61.776 -23.762  1.00  0.00    -0.327 N 
ATOM      7  C   UNL     1       9.571 -61.737 -25.133  1.00  0.00     0.262 C 
ATOM      8  C   UNL     1       9.729 -62.963 -22.957  1.00  0.00     0.262 C 
ATOM      9  C   UNL     1       8.061 -61.615 -24.966  1.00  0.00     0.062 C 
ATOM     10  C   UNL     1       8.221 -62.851 -22.773  1.00  0.00     0.062 C 
ATOM     11  C   UNL     1       7.496 -62.747 -24.112  1.00  0.00     0.012 C 
ATOM     12  H   UNL     1       9.895 -60.934 -23.265  1.00  0.00     0.348 HD
ENDBRANCH   5   6
ENDBRANCH   1   5
BRANCH   3  13
ATOM     13  C   UNL     1      11.575 -57.870 -24.085  1.00  0.00     0.042 A 
ATOM     14  C   UNL     1      12.256 -57.392 -25.211  1.00  0.00     0.028 A 
ATOM     15  C   UNL     1      11.153 -56.954 -23.121  1.00  0.00     0.042 A 
ATOM     16  C   UNL     1      12.509 -56.024 -25.368  1.00  0.00     0.031 A 
ATOM     17  C   UNL     1      11.412 -55.583 -23.286  1.00  0.00     0.068 A 
ATOM     18  C   UNL     1      12.089 -55.107 -24.405  1.00  0.00     0.078 A 
ATOM     19  C   UNL     1      10.970 -54.605 -22.272  1.00  0.00     0.265 A 
ATOM     20  N   UNL     1      12.365 -53.751 -24.605  1.00  0.00    -0.228 NA
ATOM     21  N   UNL     1      11.276 -53.271 -22.529  1.00  0.00    -0.266 N 
ATOM     22  C   UNL     1      11.965 -52.918 -23.698  1.00  0.00     0.164 A 
ATOM     23  C   UNL     1      10.886 -52.285 -21.607  1.00  0.00     0.097 A 
ATOM     24  C   UNL     1      12.227 -51.514 -23.862  1.00  0.00     0.091 A 
ATOM     25  C   UNL     1      11.146 -50.977 -21.790  1.00  0.00     0.029 A 
ATOM     26  N   UNL     1      12.871 -50.877 -24.885  1.00  0.00    -0.351 N 
ATOM     27  C   UNL     1      11.843 -50.555 -22.954  1.00  0.00     0.013 A 
ATOM     28  C   UNL     1      12.904 -49.517 -24.645  1.00  0.00     0.047 A 
ATOM     29  C   UNL     1      12.257 -49.287 -23.424  1.00  0.00     0.007 A 
ATOM     30  C   UNL     1      13.455 -48.483 -25.411  1.00  0.00     0.027 A 
ATOM     31  C   UNL     1      12.156 -47.965 -22.950  1.00  0.00     0.011 A 
ATOM     32  C   UNL     1      13.341 -47.179 -24.918  1.00  0.00     0.002 A 
ATOM     33  C   UNL     1      12.702 -46.921 -23.706  1.00  0.00     0.001 A 
ATOM     34  O   UNL     1      10.370 -55.012 -21.278  1.00  0.00    -0.268 OA
ATOM     35  H   UNL     1      13.263 -51.339 -25.695  1.00  0.00     0.167 HD
ENDBRANCH   3  13
TORSDOF 3
ENDMDL
MODEL 7
REMARK VINA RESULT:    -9.899      2.182     10.987
REMARK INTER + INTRA:         -11.942
REMARK INTER:                 -11.572
REMARK INTRA:                  -0.370
REMARK UNBOUND:                -0.306
REMARK SMILES O=C(C[NH+]1CCCCC1)Nc1ccc2nc3c4[nH]c5ccccc5c4ccn3c(=O)c2c1
REMARK SMILES IDX 2 1 1 2 10 3 3 5 4 6 5 7 9 8 6 9 8 10 7 11 11 13 12 14 32 15
REMARK SMILES IDX 13 16 31 17 14 18 29 19 15 20 28 21 16 22 27 23 17 24 26 25
REMARK SMILES IDX 18 26 25 27 19 28 24 29 20 30 23 31 21 32 22 33 30 34
REMARK H PARENT 10 4 4 12 18 35
ROOT
ATOM      1  C   UNL     1      12.527 -48.024 -22.285  1.00  0.00     0.279 C 
ATOM      2  O   UNL     1      13.481 -48.425 -21.627  1.00  0.00    -0.268 OA
ATOM      3  N   UNL     1      11.540 -48.810 -22.860  1.00  0.00    -0.321 N 
ATOM      4  H   UNL     1      10.801 -48.354 -23.384  1.00  0.00     0.170 HD
ENDROOT
BRANCH   1   5
ATOM      5  C   UNL     1      12.329 -46.522 -22.545  1.00  0.00     0.363 C 
BRANCH   5   6
ATOM      6  N   UNL     1      13.178 -45.905 -23.666  1.00  0.00    -0.327 N 
ATOM      7  C   UNL     1      12.345 -45.376 -24.814  1.00  0.00     0.262 C 
ATOM      8  C   UNL     1      14.155 -44.865 -23.162  1.00  0.00     0.262 C 
ATOM      9  C   UNL     1      13.273 -45.000 -25.962  1.00  0.00     0.062 C 
ATOM     10  C   UNL     1      15.097 -44.485 -24.298  1.00  0.00     0.062 C 
ATOM     11  C   UNL     1      14.333 -43.993 -25.523  1.00  0.00     0.012 C 
ATOM     12  H   UNL     1      13.740 -46.679 -24.043  1.00  0.00     0.348 HD
ENDBRANCH   5   6
ENDBRANCH   1   5
BRANCH   3  13
ATOM     13  C   UNL     1      11.438 -50.221 -22.805  1.00  0.00     0.042 A 
ATOM     14  C   UNL     1      10.773 -50.768 -21.700  1.00  0.00     0.028 A 
ATOM     15  C   UNL     1      11.951 -51.086 -23.771  1.00  0.00     0.042 A 
ATOM     16  C   UNL     1      10.627 -52.154 -21.566  1.00  0.00     0.031 A 
ATOM     17  C   UNL     1      11.800 -52.476 -23.628  1.00  0.00     0.068 A 
ATOM     18  C   UNL     1      11.140 -53.021 -22.530  1.00  0.00     0.078 A 
ATOM     19  C   UNL     1      12.339 -53.402 -24.645  1.00  0.00     0.265 A 
ATOM     20  N   UNL     1      10.969 -54.397 -22.354  1.00  0.00    -0.228 NA
ATOM     21  N   UNL     1      12.137 -54.759 -24.411  1.00  0.00    -0.266 N 
ATOM     22  C   UNL     1      11.454 -55.183 -23.262  1.00  0.00     0.164 A 
ATOM     23  C   UNL     1      12.624 -55.697 -25.337  1.00  0.00     0.097 A 
ATOM     24  C   UNL     1      11.302 -56.605 -23.122  1.00  0.00     0.091 A 
ATOM     25  C   UNL     1      12.464 -57.025 -25.176  1.00  0.00     0.029 A 
ATOM     26  N   UNL     1      10.690 -57.306 -22.121  1.00  0.00    -0.351 N 
ATOM     27  C   UNL     1      11.781 -57.518 -24.032  1.00  0.00     0.013 A 
ATOM     28  C   UNL     1      10.771 -58.661 -22.378  1.00  0.00     0.047 A 
ATOM     29  C   UNL     1      11.460 -58.821 -23.588  1.00  0.00     0.007 A 
ATOM     30  C   UNL     1      10.290 -59.747 -21.637  1.00  0.00     0.027 A 
ATOM     31  C   UNL     1      11.676 -60.124 -24.076  1.00  0.00     0.011 A 
ATOM     32  C   UNL     1      10.518 -61.030 -22.144  1.00  0.00     0.002 A 
ATOM     33  C   UNL     1      11.200 -61.218 -23.345  1.00  0.00     0.001 A 
ATOM     34  O   UNL     1      12.925 -52.934 -25.621  1.00  0.00    -0.268 OA
ATOM     35  H   UNL     1      10.246 -56.889 -21.314  1.00  0.00     0.167 HD
ENDBRANCH   3  13
TORSDOF 3
ENDMDL
MODEL 8
REMARK VINA RESULT:    -9.833      2.353     11.050
REMARK INTER + INTRA:         -11.863
REMARK INTER:                 -11.652
REMARK INTRA:                  -0.212
REMARK UNBOUND:                -0.306
REMARK SMILES O=C(C[NH+]1CCCCC1)Nc1ccc2nc3c4[nH]c5ccccc5c4ccn3c(=O)c2c1
REMARK SMILES IDX 2 1 1 2 10 3 3 5 4 6 5 7 9 8 6 9 8 10 7 11 11 13 12 14 32 15
REMARK SMILES IDX 13 16 31 17 14 18 29 19 15 20 28 21 16 22 27 23 17 24 26 25
REMARK SMILES IDX 18 26 25 27 19 28 24 29 20 30 23 31 21 32 22 33 30 34
REMARK H PARENT 10 4 4 12 18 35
ROOT
ATOM      1  C   UNL     1      13.041 -47.727 -22.543  1.00  0.00     0.279 C 
ATOM      2  O   UNL     1      13.791 -48.216 -21.705  1.00  0.00    -0.268 OA
ATOM      3  N   UNL     1      12.305 -48.424 -23.490  1.00  0.00    -0.321 N 
ATOM      4  H   UNL     1      11.719 -47.900 -24.131  1.00  0.00     0.170 HD
ENDROOT
BRANCH   1   5
ATOM      5  C   UNL     1      12.840 -46.206 -22.623  1.00  0.00     0.363 C 
BRANCH   5   6
ATOM      6  N   UNL     1      13.478 -45.494 -23.825  1.00  0.00    -0.327 N 
ATOM      7  C   UNL     1      14.502 -46.348 -24.541  1.00  0.00     0.262 C 
ATOM      8  C   UNL     1      12.456 -44.929 -24.787  1.00  0.00     0.262 C 
ATOM      9  C   UNL     1      15.236 -45.485 -25.560  1.00  0.00     0.062 C 
ATOM     10  C   UNL     1      13.173 -44.054 -25.808  1.00  0.00     0.062 C 
ATOM     11  C   UNL     1      14.269 -44.825 -26.539  1.00  0.00     0.012 C 
ATOM     12  H   UNL     1      13.986 -44.692 -23.431  1.00  0.00     0.348 HD
ENDBRANCH   5   6
ENDBRANCH   1   5
BRANCH   3  13
ATOM     13  C   UNL     1      12.272 -49.827 -23.677  1.00  0.00     0.042 A 
ATOM     14  C   UNL     1      12.906 -50.332 -24.819  1.00  0.00     0.028 A 
ATOM     15  C   UNL     1      11.655 -50.723 -22.804  1.00  0.00     0.042 A 
ATOM     16  C   UNL     1      12.920 -51.707 -25.081  1.00  0.00     0.031 A 
ATOM     17  C   UNL     1      11.675 -52.102 -23.075  1.00  0.00     0.068 A 
ATOM     18  C   UNL     1      12.304 -52.605 -24.210  1.00  0.00     0.078 A 
ATOM     19  C   UNL     1      11.025 -53.060 -22.158  1.00  0.00     0.265 A 
ATOM     20  N   UNL     1      12.345 -53.969 -24.514  1.00  0.00    -0.228 NA
ATOM     21  N   UNL     1      11.100 -54.403 -22.516  1.00  0.00    -0.266 N 
ATOM     22  C   UNL     1      11.766 -54.783 -23.690  1.00  0.00     0.164 A 
ATOM     23  C   UNL     1      10.504 -55.370 -21.690  1.00  0.00     0.097 A 
ATOM     24  C   UNL     1      11.783 -56.195 -23.963  1.00  0.00     0.091 A 
ATOM     25  C   UNL     1      10.538 -56.687 -21.973  1.00  0.00     0.029 A 
ATOM     26  N   UNL     1      12.347 -56.857 -25.017  1.00  0.00    -0.351 N 
ATOM     27  C   UNL     1      11.196 -57.136 -23.149  1.00  0.00     0.013 A 
ATOM     28  C   UNL     1      12.130 -58.215 -24.889  1.00  0.00     0.047 A 
ATOM     29  C   UNL     1      11.400 -58.418 -23.710  1.00  0.00     0.007 A 
ATOM     30  C   UNL     1      12.520 -59.270 -25.723  1.00  0.00     0.027 A 
ATOM     31  C   UNL     1      11.048 -59.733 -23.351  1.00  0.00     0.011 A 
ATOM     32  C   UNL     1      12.157 -60.565 -25.343  1.00  0.00     0.002 A 
ATOM     33  C   UNL     1      11.432 -60.796 -24.175  1.00  0.00     0.001 A 
ATOM     34  O   UNL     1      10.465 -52.629 -21.150  1.00  0.00    -0.268 OA
ATOM     35  H   UNL     1      12.848 -56.412 -25.774  1.00  0.00     0.167 HD
ENDBRANCH   3  13
TORSDOF 3
ENDMDL
MODEL 9
REMARK VINA RESULT:    -9.630      3.831     12.185
REMARK INTER + INTRA:         -11.625
REMARK INTER:                 -11.261
REMARK INTRA:                  -0.363
REMARK UNBOUND:                -0.306
REMARK SMILES O=C(C[NH+]1CCCCC1)Nc1ccc2nc3c4[nH]c5ccccc5c4ccn3c(=O)c2c1
REMARK SMILES IDX 2 1 1 2 10 3 3 5 4 6 5 7 9 8 6 9 8 10 7 11 11 13 12 14 32 15
REMARK SMILES IDX 13 16 31 17 14 18 29 19 15 20 28 21 16 22 27 23 17 24 26 25
REMARK SMILES IDX 18 26 25 27 19 28 24 29 20 30 23 31 21 32 22 33 30 34
REMARK H PARENT 10 4 4 12 18 35
ROOT
ATOM      1  C   UNL     1      13.702 -42.876 -23.130  1.00  0.00     0.279 C 
ATOM      2  O   UNL     1      14.769 -43.394 -22.822  1.00  0.00    -0.268 OA
ATOM      3  N   UNL     1      12.497 -43.536 -23.325  1.00  0.00    -0.321 N 
ATOM      4  H   UNL     1      11.681 -42.990 -23.580  1.00  0.00     0.170 HD
ENDROOT
BRANCH   1   5
ATOM      5  C   UNL     1      13.598 -41.357 -23.339  1.00  0.00     0.363 C 
BRANCH   5   6
ATOM      6  N   UNL     1      12.190 -40.795 -23.580  1.00  0.00    -0.327 N 
ATOM      7  C   UNL     1      11.728 -39.864 -22.479  1.00  0.00     0.262 C 
ATOM      8  C   UNL     1      12.033 -40.161 -24.945  1.00  0.00     0.262 C 
ATOM      9  C   UNL     1      10.253 -39.547 -22.690  1.00  0.00     0.062 C 
ATOM     10  C   UNL     1      10.560 -39.847 -25.175  1.00  0.00     0.062 C 
ATOM     11  C   UNL     1       9.996 -38.955 -24.072  1.00  0.00     0.012 C 
ATOM     12  H   UNL     1      11.562 -41.609 -23.560  1.00  0.00     0.348 HD
ENDBRANCH   5   6
ENDBRANCH   1   5
BRANCH   3  13
ATOM     13  C   UNL     1      12.262 -44.927 -23.210  1.00  0.00     0.042 A 
ATOM     14  C   UNL     1      11.380 -45.342 -22.205  1.00  0.00     0.028 A 
ATOM     15  C   UNL     1      12.847 -45.894 -24.027  1.00  0.00     0.042 A 
ATOM     16  C   UNL     1      11.091 -46.700 -22.021  1.00  0.00     0.031 A 
ATOM     17  C   UNL     1      12.551 -47.255 -23.835  1.00  0.00     0.068 A 
ATOM     18  C   UNL     1      11.675 -47.668 -22.836  1.00  0.00     0.078 A 
ATOM     19  C   UNL     1      13.164 -48.288 -24.694  1.00  0.00     0.265 A 
ATOM     20  N   UNL     1      11.356 -49.012 -22.615  1.00  0.00    -0.228 NA
ATOM     21  N   UNL     1      12.806 -49.606 -24.423  1.00  0.00    -0.266 N 
ATOM     22  C   UNL     1      11.910 -49.894 -23.384  1.00  0.00     0.164 A 
ATOM     23  C   UNL     1      13.352 -50.641 -25.201  1.00  0.00     0.097 A 
ATOM     24  C   UNL     1      11.611 -51.286 -23.193  1.00  0.00     0.091 A 
ATOM     25  C   UNL     1      13.051 -51.938 -24.996  1.00  0.00     0.029 A 
ATOM     26  N   UNL     1      10.784 -51.866 -22.272  1.00  0.00    -0.351 N 
ATOM     27  C   UNL     1      12.149 -52.295 -23.958  1.00  0.00     0.013 A 
ATOM     28  C   UNL     1      10.784 -53.238 -22.438  1.00  0.00     0.047 A 
ATOM     29  C   UNL     1      11.645 -53.535 -23.503  1.00  0.00     0.007 A 
ATOM     30  C   UNL     1      10.094 -54.229 -21.729  1.00  0.00     0.027 A 
ATOM     31  C   UNL     1      11.820 -54.881 -23.875  1.00  0.00     0.011 A 
ATOM     32  C   UNL     1      10.287 -55.558 -22.119  1.00  0.00     0.002 A 
ATOM     33  C   UNL     1      11.136 -55.882 -23.175  1.00  0.00     0.001 A 
ATOM     34  O   UNL     1      13.940 -47.936 -25.582  1.00  0.00    -0.268 OA
ATOM     35  H   UNL     1      10.253 -51.360 -21.576  1.00  0.00     0.167 HD
ENDBRANCH   3  13
TORSDOF 3
ENDMDL
