MODEL 1
REMARK VINA RESULT:    -8.801      0.000      0.000
REMARK INTER + INTRA:         -15.132
REMARK INTER:                 -13.946
REMARK INTRA:                  -1.186
REMARK UNBOUND:                -1.186
REMARK SMILES C[NH+](C)CC(C)(C)c1cccc(OC(=O)NCCCC[NH+]2CCOCC2)c1
REMARK SMILES IDX 16 1 14 2 15 3 17 5 18 6 19 7 20 8 21 9 22 10 26 11 23 12
REMARK SMILES IDX 25 13 24 14 13 16 12 17 27 18 11 19 8 20 10 21 9 22 5 23
REMARK SMILES IDX 6 24 7 25 4 26 2 27 1 28 3 29
REMARK H PARENT 16 4 21 15 2 30
ROOT
ATOM      1  N   UNL     1      10.883 -56.915 -22.150  1.00  0.00    -0.321 N 
ATOM      2  C   UNL     1      11.089 -56.391 -23.400  1.00  0.00     0.412 C 
ATOM      3  O   UNL     1      11.914 -56.824 -24.193  1.00  0.00    -0.224 OA
ATOM      4  H   UNL     1      10.124 -56.515 -21.613  1.00  0.00     0.167 HD
ENDROOT
BRANCH   1   5
ATOM      5  C   UNL     1      11.589 -58.085 -21.685  1.00  0.00     0.119 C 
BRANCH   5   6
ATOM      6  C   UNL     1      10.657 -59.291 -21.548  1.00  0.00     0.027 C 
BRANCH   6   7
ATOM      7  C   UNL     1      11.029 -60.468 -22.459  1.00  0.00     0.063 C 
BRANCH   7   8
ATOM      8  C   UNL     1      12.042 -60.098 -23.540  1.00  0.00     0.262 C 
BRANCH   8   9
ATOM      9  N   UNL     1      11.409 -59.830 -24.884  1.00  0.00    -0.331 N 
ATOM     10  C   UNL     1      12.342 -60.013 -26.081  1.00  0.00     0.291 C 
ATOM     11  C   UNL     1      10.092 -60.565 -25.133  1.00  0.00     0.291 C 
ATOM     12  C   UNL     1      11.623 -59.555 -27.356  1.00  0.00     0.221 C 
ATOM     13  C   UNL     1       9.486 -60.078 -26.455  1.00  0.00     0.221 C 
ATOM     14  O   UNL     1      10.400 -60.277 -27.540  1.00  0.00    -0.370 OA
ATOM     15  H   UNL     1      11.169 -58.829 -24.876  1.00  0.00     0.348 HD
ENDBRANCH   8   9
ENDBRANCH   7   8
ENDBRANCH   6   7
ENDBRANCH   5   6
ENDBRANCH   1   5
BRANCH   2  16
ATOM     16  O   UNL     1      10.224 -55.329 -23.610  1.00  0.00    -0.410 OA
BRANCH  16  17
ATOM     17  C   UNL     1      10.751 -54.102 -23.196  1.00  0.00     0.133 A 
ATOM     18  C   UNL     1      11.720 -53.463 -23.977  1.00  0.00     0.051 A 
ATOM     19  C   UNL     1      10.332 -53.576 -21.981  1.00  0.00     0.047 A 
ATOM     20  C   UNL     1      12.269 -52.235 -23.566  1.00  0.00    -0.033 A 
ATOM     21  C   UNL     1      10.855 -52.359 -21.563  1.00  0.00     0.004 A 
ATOM     22  C   UNL     1      11.801 -51.692 -22.349  1.00  0.00     0.005 A 
BRANCH  20  23
ATOM     23  C   UNL     1      13.319 -51.473 -24.400  1.00  0.00     0.039 C 
ATOM     24  C   UNL     1      12.859 -50.002 -24.543  1.00  0.00     0.022 C 
ATOM     25  C   UNL     1      13.484 -52.023 -25.836  1.00  0.00     0.022 C 
BRANCH  23  26
ATOM     26  C   UNL     1      14.714 -51.471 -23.691  1.00  0.00     0.272 C 
BRANCH  26  27
ATOM     27  N   UNL     1      15.876 -51.415 -24.681  1.00  0.00    -0.339 N 
ATOM     28  C   UNL     1      16.859 -52.538 -24.473  1.00  0.00     0.332 C 
ATOM     29  C   UNL     1      16.580 -50.085 -24.688  1.00  0.00     0.332 C 
ATOM     30  H   UNL     1      15.491 -51.562 -25.624  1.00  0.00     0.347 HD
ENDBRANCH  26  27
ENDBRANCH  23  26
ENDBRANCH  20  23
ENDBRANCH  16  17
ENDBRANCH   2  16
TORSDOF 10
ENDMDL
MODEL 2
REMARK VINA RESULT:    -8.800      2.020      2.375
REMARK INTER + INTRA:         -15.131
REMARK INTER:                 -14.376
REMARK INTRA:                  -0.754
REMARK UNBOUND:                -1.186
REMARK SMILES C[NH+](C)CC(C)(C)c1cccc(OC(=O)NCCCC[NH+]2CCOCC2)c1
REMARK SMILES IDX 16 1 14 2 15 3 17 5 18 6 19 7 20 8 21 9 22 10 26 11 23 12
REMARK SMILES IDX 25 13 24 14 13 16 12 17 27 18 11 19 8 20 10 21 9 22 5 23
REMARK SMILES IDX 6 24 7 25 4 26 2 27 1 28 3 29
REMARK H PARENT 16 4 21 15 2 30
ROOT
ATOM      1  N   UNL     1      10.969 -56.977 -22.661  1.00  0.00    -0.321 N 
ATOM      2  C   UNL     1      11.217 -56.207 -23.768  1.00  0.00     0.412 C 
ATOM      3  O   UNL     1      12.084 -56.460 -24.593  1.00  0.00    -0.224 OA
ATOM      4  H   UNL     1      10.179 -56.703 -22.089  1.00  0.00     0.167 HD
ENDROOT
BRANCH   1   5
ATOM      5  C   UNL     1      11.678 -58.209 -22.411  1.00  0.00     0.119 C 
BRANCH   5   6
ATOM      6  C   UNL     1      11.363 -58.771 -21.023  1.00  0.00     0.027 C 
BRANCH   6   7
ATOM      7  C   UNL     1      10.353 -59.926 -21.037  1.00  0.00     0.063 C 
BRANCH   7   8
ATOM      8  C   UNL     1      10.178 -60.556 -22.417  1.00  0.00     0.262 C 
BRANCH   8   9
ATOM      9  N   UNL     1       8.752 -60.950 -22.717  1.00  0.00    -0.331 N 
ATOM     10  C   UNL     1       7.892 -59.837 -23.318  1.00  0.00     0.291 C 
ATOM     11  C   UNL     1       8.595 -62.230 -23.536  1.00  0.00     0.291 C 
ATOM     12  C   UNL     1       6.439 -60.321 -23.417  1.00  0.00     0.221 C 
ATOM     13  C   UNL     1       7.107 -62.593 -23.624  1.00  0.00     0.221 C 
ATOM     14  O   UNL     1       6.353 -61.519 -24.197  1.00  0.00    -0.370 OA
ATOM     15  H   UNL     1       8.329 -61.155 -21.800  1.00  0.00     0.348 HD
ENDBRANCH   8   9
ENDBRANCH   7   8
ENDBRANCH   6   7
ENDBRANCH   5   6
ENDBRANCH   1   5
BRANCH   2  16
ATOM     16  O   UNL     1      10.340 -55.134 -23.797  1.00  0.00    -0.410 OA
BRANCH  16  17
ATOM     17  C   UNL     1      10.924 -53.936 -23.377  1.00  0.00     0.133 A 
ATOM     18  C   UNL     1      11.881 -53.308 -24.182  1.00  0.00     0.051 A 
ATOM     19  C   UNL     1      10.573 -53.427 -22.133  1.00  0.00     0.047 A 
ATOM     20  C   UNL     1      12.486 -52.109 -23.765  1.00  0.00    -0.033 A 
ATOM     21  C   UNL     1      11.152 -52.238 -21.708  1.00  0.00     0.004 A 
ATOM     22  C   UNL     1      12.087 -51.583 -22.517  1.00  0.00     0.005 A 
BRANCH  20  23
ATOM     23  C   UNL     1      13.526 -51.361 -24.624  1.00  0.00     0.039 C 
ATOM     24  C   UNL     1      13.155 -49.858 -24.645  1.00  0.00     0.022 C 
ATOM     25  C   UNL     1      13.557 -51.826 -26.099  1.00  0.00     0.022 C 
BRANCH  23  26
ATOM     26  C   UNL     1      14.963 -51.491 -24.018  1.00  0.00     0.272 C 
BRANCH  26  27
ATOM     27  N   UNL     1      16.048 -51.572 -25.089  1.00  0.00    -0.339 N 
ATOM     28  C   UNL     1      16.926 -52.785 -24.924  1.00  0.00     0.332 C 
ATOM     29  C   UNL     1      16.879 -50.320 -25.181  1.00  0.00     0.332 C 
ATOM     30  H   UNL     1      15.581 -51.696 -25.998  1.00  0.00     0.347 HD
ENDBRANCH  26  27
ENDBRANCH  23  26
ENDBRANCH  20  23
ENDBRANCH  16  17
ENDBRANCH   2  16
TORSDOF 10
ENDMDL
MODEL 3
REMARK VINA RESULT:    -8.736      2.185      2.736
REMARK INTER + INTRA:         -15.030
REMARK INTER:                 -14.570
REMARK INTRA:                  -0.460
REMARK UNBOUND:                -1.186
REMARK SMILES C[NH+](C)CC(C)(C)c1cccc(OC(=O)NCCCC[NH+]2CCOCC2)c1
REMARK SMILES IDX 16 1 14 2 15 3 17 5 18 6 19 7 20 8 21 9 22 10 26 11 23 12
REMARK SMILES IDX 25 13 24 14 13 16 12 17 27 18 11 19 8 20 10 21 9 22 5 23
REMARK SMILES IDX 6 24 7 25 4 26 2 27 1 28 3 29
REMARK H PARENT 16 4 21 15 2 30
ROOT
ATOM      1  N   UNL     1      11.007 -55.677 -21.954  1.00  0.00    -0.321 N 
ATOM      2  C   UNL     1      10.258 -54.820 -22.717  1.00  0.00     0.412 C 
ATOM      3  O   UNL     1       9.897 -55.064 -23.861  1.00  0.00    -0.224 OA
ATOM      4  H   UNL     1      11.184 -55.393 -20.998  1.00  0.00     0.167 HD
ENDROOT
BRANCH   1   5
ATOM      5  C   UNL     1      11.382 -56.991 -22.422  1.00  0.00     0.119 C 
BRANCH   5   6
ATOM      6  C   UNL     1      11.403 -58.011 -21.282  1.00  0.00     0.027 C 
BRANCH   6   7
ATOM      7  C   UNL     1      10.754 -59.354 -21.641  1.00  0.00     0.063 C 
BRANCH   7   8
ATOM      8  C   UNL     1      10.100 -59.358 -23.021  1.00  0.00     0.262 C 
BRANCH   8   9
ATOM      9  N   UNL     1       8.635 -59.723 -22.986  1.00  0.00    -0.331 N 
ATOM     10  C   UNL     1       7.681 -58.579 -23.328  1.00  0.00     0.291 C 
ATOM     11  C   UNL     1       8.263 -60.969 -23.787  1.00  0.00     0.291 C 
ATOM     12  C   UNL     1       6.236 -59.040 -23.096  1.00  0.00     0.221 C 
ATOM     13  C   UNL     1       6.790 -61.311 -23.531  1.00  0.00     0.221 C 
ATOM     14  O   UNL     1       5.943 -60.207 -23.872  1.00  0.00    -0.370 OA
ATOM     15  H   UNL     1       8.438 -59.957 -22.003  1.00  0.00     0.348 HD
ENDBRANCH   8   9
ENDBRANCH   7   8
ENDBRANCH   6   7
ENDBRANCH   5   6
ENDBRANCH   1   5
BRANCH   2  16
ATOM     16  O   UNL     1       9.978 -53.672 -21.993  1.00  0.00    -0.410 OA
BRANCH  16  17
ATOM     17  C   UNL     1      10.677 -52.551 -22.449  1.00  0.00     0.133 A 
ATOM     18  C   UNL     1      11.727 -52.709 -23.360  1.00  0.00     0.051 A 
ATOM     19  C   UNL     1      10.341 -51.305 -21.935  1.00  0.00     0.047 A 
ATOM     20  C   UNL     1      12.448 -51.591 -23.817  1.00  0.00    -0.033 A 
ATOM     21  C   UNL     1      11.035 -50.187 -22.381  1.00  0.00     0.004 A 
ATOM     22  C   UNL     1      12.066 -50.327 -23.317  1.00  0.00     0.005 A 
BRANCH  20  23
ATOM     23  C   UNL     1      13.595 -51.704 -24.842  1.00  0.00     0.039 C 
ATOM     24  C   UNL     1      13.538 -50.473 -25.780  1.00  0.00     0.022 C 
ATOM     25  C   UNL     1      13.492 -52.952 -25.749  1.00  0.00     0.022 C 
BRANCH  23  26
ATOM     26  C   UNL     1      14.991 -51.701 -24.134  1.00  0.00     0.272 C 
BRANCH  26  27
ATOM     27  N   UNL     1      15.876 -50.541 -24.584  1.00  0.00    -0.339 N 
ATOM     28  C   UNL     1      17.001 -50.992 -25.479  1.00  0.00     0.332 C 
ATOM     29  C   UNL     1      16.402 -49.722 -23.436  1.00  0.00     0.332 C 
ATOM     30  H   UNL     1      15.301 -49.916 -25.166  1.00  0.00     0.347 HD
ENDBRANCH  26  27
ENDBRANCH  23  26
ENDBRANCH  20  23
ENDBRANCH  16  17
ENDBRANCH   2  16
TORSDOF 10
ENDMDL
MODEL 4
REMARK VINA RESULT:    -8.335      2.135      8.699
REMARK INTER + INTRA:         -14.395
REMARK INTER:                 -13.673
REMARK INTRA:                  -0.721
REMARK UNBOUND:                -1.186
REMARK SMILES C[NH+](C)CC(C)(C)c1cccc(OC(=O)NCCCC[NH+]2CCOCC2)c1
REMARK SMILES IDX 16 1 14 2 15 3 17 5 18 6 19 7 20 8 21 9 22 10 26 11 23 12
REMARK SMILES IDX 25 13 24 14 13 16 12 17 27 18 11 19 8 20 10 21 9 22 5 23
REMARK SMILES IDX 6 24 7 25 4 26 2 27 1 28 3 29
REMARK H PARENT 16 4 21 15 2 30
ROOT
ATOM      1  N   UNL     1      11.012 -54.503 -22.081  1.00  0.00    -0.321 N 
ATOM      2  C   UNL     1      10.728 -55.382 -23.094  1.00  0.00     0.412 C 
ATOM      3  O   UNL     1       9.723 -55.320 -23.789  1.00  0.00    -0.224 OA
ATOM      4  H   UNL     1      11.908 -54.616 -21.623  1.00  0.00     0.167 HD
ENDROOT
BRANCH   1   5
ATOM      5  C   UNL     1      10.164 -53.371 -21.791  1.00  0.00     0.119 C 
BRANCH   5   6
ATOM      6  C   UNL     1      10.984 -52.125 -21.449  1.00  0.00     0.027 C 
BRANCH   6   7
ATOM      7  C   UNL     1      11.011 -51.075 -22.566  1.00  0.00     0.063 C 
BRANCH   7   8
ATOM      8  C   UNL     1      12.392 -50.460 -22.782  1.00  0.00     0.262 C 
BRANCH   8   9
ATOM      9  N   UNL     1      13.044 -50.895 -24.072  1.00  0.00    -0.331 N 
ATOM     10  C   UNL     1      14.538 -50.586 -24.172  1.00  0.00     0.291 C 
ATOM     11  C   UNL     1      12.784 -52.348 -24.467  1.00  0.00     0.291 C 
ATOM     12  C   UNL     1      15.030 -50.929 -25.584  1.00  0.00     0.221 C 
ATOM     13  C   UNL     1      13.364 -52.602 -25.864  1.00  0.00     0.221 C 
ATOM     14  O   UNL     1      14.764 -52.301 -25.898  1.00  0.00    -0.370 OA
ATOM     15  H   UNL     1      12.599 -50.326 -24.806  1.00  0.00     0.348 HD
ENDBRANCH   8   9
ENDBRANCH   7   8
ENDBRANCH   6   7
ENDBRANCH   5   6
ENDBRANCH   1   5
BRANCH   2  16
ATOM     16  O   UNL     1      11.747 -56.316 -23.200  1.00  0.00    -0.410 OA
BRANCH  16  17
ATOM     17  C   UNL     1      11.377 -57.586 -22.748  1.00  0.00     0.133 A 
ATOM     18  C   UNL     1      10.995 -58.568 -23.668  1.00  0.00     0.051 A 
ATOM     19  C   UNL     1      11.345 -57.819 -21.379  1.00  0.00     0.047 A 
ATOM     20  C   UNL     1      10.607 -59.846 -23.227  1.00  0.00    -0.033 A 
ATOM     21  C   UNL     1      10.974 -59.078 -20.923  1.00  0.00     0.004 A 
ATOM     22  C   UNL     1      10.621 -60.080 -21.834  1.00  0.00     0.005 A 
BRANCH  20  23
ATOM     23  C   UNL     1      10.204 -60.974 -24.197  1.00  0.00     0.039 C 
ATOM     24  C   UNL     1      10.407 -62.332 -23.482  1.00  0.00     0.022 C 
ATOM     25  C   UNL     1      11.066 -61.021 -25.480  1.00  0.00     0.022 C 
BRANCH  23  26
ATOM     26  C   UNL     1       8.696 -60.866 -24.599  1.00  0.00     0.272 C 
BRANCH  26  27
ATOM     27  N   UNL     1       7.754 -61.194 -23.443  1.00  0.00    -0.339 N 
ATOM     28  C   UNL     1       7.011 -62.487 -23.660  1.00  0.00     0.332 C 
ATOM     29  C   UNL     1       6.798 -60.076 -23.127  1.00  0.00     0.332 C 
ATOM     30  H   UNL     1       8.330 -61.350 -22.605  1.00  0.00     0.347 HD
ENDBRANCH  26  27
ENDBRANCH  23  26
ENDBRANCH  20  23
ENDBRANCH  16  17
ENDBRANCH   2  16
TORSDOF 10
ENDMDL
MODEL 5
REMARK VINA RESULT:    -8.294      1.639      2.729
REMARK INTER + INTRA:         -14.330
REMARK INTER:                 -13.410
REMARK INTRA:                  -0.920
REMARK UNBOUND:                -1.186
REMARK SMILES C[NH+](C)CC(C)(C)c1cccc(OC(=O)NCCCC[NH+]2CCOCC2)c1
REMARK SMILES IDX 16 1 14 2 15 3 17 5 18 6 19 7 20 8 21 9 22 10 26 11 23 12
REMARK SMILES IDX 25 13 24 14 13 16 12 17 27 18 11 19 8 20 10 21 9 22 5 23
REMARK SMILES IDX 6 24 7 25 4 26 2 27 1 28 3 29
REMARK H PARENT 16 4 21 15 2 30
ROOT
ATOM      1  N   UNL     1      10.902 -56.902 -22.822  1.00  0.00    -0.321 N 
ATOM      2  C   UNL     1      10.794 -55.612 -22.371  1.00  0.00     0.412 C 
ATOM      3  O   UNL     1      11.066 -55.264 -21.230  1.00  0.00    -0.224 OA
ATOM      4  H   UNL     1      10.715 -57.053 -23.805  1.00  0.00     0.167 HD
ENDROOT
BRANCH   1   5
ATOM      5  C   UNL     1      11.419 -57.963 -21.990  1.00  0.00     0.119 C 
BRANCH   5   6
ATOM      6  C   UNL     1      10.507 -59.191 -22.008  1.00  0.00     0.027 C 
BRANCH   6   7
ATOM      7  C   UNL     1      11.142 -60.425 -22.664  1.00  0.00     0.063 C 
BRANCH   7   8
ATOM      8  C   UNL     1      12.077 -60.079 -23.820  1.00  0.00     0.262 C 
BRANCH   8   9
ATOM      9  N   UNL     1      11.367 -59.960 -25.147  1.00  0.00    -0.331 N 
ATOM     10  C   UNL     1      12.289 -59.881 -26.364  1.00  0.00     0.291 C 
ATOM     11  C   UNL     1      10.274 -61.000 -25.387  1.00  0.00     0.291 C 
ATOM     12  C   UNL     1      11.449 -59.600 -27.616  1.00  0.00     0.221 C 
ATOM     13  C   UNL     1       9.535 -60.662 -26.689  1.00  0.00     0.221 C 
ATOM     14  O   UNL     1      10.445 -60.605 -27.793  1.00  0.00    -0.370 OA
ATOM     15  H   UNL     1      10.882 -59.052 -25.114  1.00  0.00     0.348 HD
ENDBRANCH   8   9
ENDBRANCH   7   8
ENDBRANCH   6   7
ENDBRANCH   5   6
ENDBRANCH   1   5
BRANCH   2  16
ATOM     16  O   UNL     1      10.350 -54.794 -23.398  1.00  0.00    -0.410 OA
BRANCH  16  17
ATOM     17  C   UNL     1      11.386 -54.117 -24.048  1.00  0.00     0.133 A 
ATOM     18  C   UNL     1      11.780 -52.852 -23.599  1.00  0.00     0.051 A 
ATOM     19  C   UNL     1      11.962 -54.704 -25.167  1.00  0.00     0.047 A 
ATOM     20  C   UNL     1      12.811 -52.154 -24.252  1.00  0.00    -0.033 A 
ATOM     21  C   UNL     1      12.989 -54.035 -25.820  1.00  0.00     0.004 A 
ATOM     22  C   UNL     1      13.415 -52.782 -25.363  1.00  0.00     0.005 A 
BRANCH  20  23
ATOM     23  C   UNL     1      13.304 -50.769 -23.784  1.00  0.00     0.039 C 
ATOM     24  C   UNL     1      13.266 -49.801 -24.992  1.00  0.00     0.022 C 
ATOM     25  C   UNL     1      14.763 -50.775 -23.272  1.00  0.00     0.022 C 
BRANCH  23  26
ATOM     26  C   UNL     1      12.374 -50.182 -22.671  1.00  0.00     0.272 C 
BRANCH  26  27
ATOM     27  N   UNL     1      12.106 -48.690 -22.856  1.00  0.00    -0.339 N 
ATOM     28  C   UNL     1      12.950 -47.839 -21.941  1.00  0.00     0.332 C 
ATOM     29  C   UNL     1      10.650 -48.333 -22.724  1.00  0.00     0.332 C 
ATOM     30  H   UNL     1      12.398 -48.435 -23.809  1.00  0.00     0.347 HD
ENDBRANCH  26  27
ENDBRANCH  23  26
ENDBRANCH  20  23
ENDBRANCH  16  17
ENDBRANCH   2  16
TORSDOF 10
ENDMDL
MODEL 6
REMARK VINA RESULT:    -8.290      1.414      2.279
REMARK INTER + INTRA:         -14.322
REMARK INTER:                 -13.726
REMARK INTRA:                  -0.596
REMARK UNBOUND:                -1.186
REMARK SMILES C[NH+](C)CC(C)(C)c1cccc(OC(=O)NCCCC[NH+]2CCOCC2)c1
REMARK SMILES IDX 16 1 14 2 15 3 17 5 18 6 19 7 20 8 21 9 22 10 26 11 23 12
REMARK SMILES IDX 25 13 24 14 13 16 12 17 27 18 11 19 8 20 10 21 9 22 5 23
REMARK SMILES IDX 6 24 7 25 4 26 2 27 1 28 3 29
REMARK H PARENT 16 4 21 15 2 30
ROOT
ATOM      1  N   UNL     1      11.007 -55.607 -21.981  1.00  0.00    -0.321 N 
ATOM      2  C   UNL     1      10.303 -54.678 -22.702  1.00  0.00     0.412 C 
ATOM      3  O   UNL     1       9.898 -54.863 -23.842  1.00  0.00    -0.224 OA
ATOM      4  H   UNL     1      11.226 -55.364 -21.024  1.00  0.00     0.167 HD
ENDROOT
BRANCH   1   5
ATOM      5  C   UNL     1      11.274 -56.931 -22.494  1.00  0.00     0.119 C 
BRANCH   5   6
ATOM      6  C   UNL     1      11.375 -57.962 -21.369  1.00  0.00     0.027 C 
BRANCH   6   7
ATOM      7  C   UNL     1      10.764 -59.325 -21.721  1.00  0.00     0.063 C 
BRANCH   7   8
ATOM      8  C   UNL     1      11.561 -60.087 -22.777  1.00  0.00     0.262 C 
BRANCH   8   9
ATOM      9  N   UNL     1      10.826 -60.235 -24.088  1.00  0.00    -0.331 N 
ATOM     10  C   UNL     1       9.407 -59.666 -24.096  1.00  0.00     0.291 C 
ATOM     11  C   UNL     1      11.593 -59.743 -25.314  1.00  0.00     0.291 C 
ATOM     12  C   UNL     1       8.726 -60.027 -25.422  1.00  0.00     0.221 C 
ATOM     13  C   UNL     1      10.802 -60.102 -26.579  1.00  0.00     0.221 C 
ATOM     14  O   UNL     1       9.485 -59.540 -26.534  1.00  0.00    -0.370 OA
ATOM     15  H   UNL     1      10.713 -61.250 -24.221  1.00  0.00     0.348 HD
ENDBRANCH   8   9
ENDBRANCH   7   8
ENDBRANCH   6   7
ENDBRANCH   5   6
ENDBRANCH   1   5
BRANCH   2  16
ATOM     16  O   UNL     1      10.124 -53.534 -21.940  1.00  0.00    -0.410 OA
BRANCH  16  17
ATOM     17  C   UNL     1      10.796 -52.422 -22.454  1.00  0.00     0.133 A 
ATOM     18  C   UNL     1      11.837 -52.600 -23.372  1.00  0.00     0.051 A 
ATOM     19  C   UNL     1      10.443 -51.161 -21.990  1.00  0.00     0.047 A 
ATOM     20  C   UNL     1      12.531 -51.490 -23.887  1.00  0.00    -0.033 A 
ATOM     21  C   UNL     1      11.110 -50.051 -22.494  1.00  0.00     0.004 A 
ATOM     22  C   UNL     1      12.132 -50.212 -23.437  1.00  0.00     0.005 A 
BRANCH  20  23
ATOM     23  C   UNL     1      13.667 -51.626 -24.921  1.00  0.00     0.039 C 
ATOM     24  C   UNL     1      13.428 -52.916 -25.743  1.00  0.00     0.022 C 
ATOM     25  C   UNL     1      15.068 -51.766 -24.282  1.00  0.00     0.022 C 
BRANCH  23  26
ATOM     26  C   UNL     1      13.677 -50.419 -25.916  1.00  0.00     0.272 C 
BRANCH  26  27
ATOM     27  N   UNL     1      14.963 -49.600 -25.834  1.00  0.00    -0.339 N 
ATOM     28  C   UNL     1      14.730 -48.225 -25.263  1.00  0.00     0.332 C 
ATOM     29  C   UNL     1      15.693 -49.517 -27.147  1.00  0.00     0.332 C 
ATOM     30  H   UNL     1      15.590 -50.069 -25.165  1.00  0.00     0.347 HD
ENDBRANCH  26  27
ENDBRANCH  23  26
ENDBRANCH  20  23
ENDBRANCH  16  17
ENDBRANCH   2  16
TORSDOF 10
ENDMDL
MODEL 7
REMARK VINA RESULT:    -8.238      2.454      3.596
REMARK INTER + INTRA:         -14.241
REMARK INTER:                 -13.411
REMARK INTRA:                  -0.830
REMARK UNBOUND:                -1.186
REMARK SMILES C[NH+](C)CC(C)(C)c1cccc(OC(=O)NCCCC[NH+]2CCOCC2)c1
REMARK SMILES IDX 16 1 14 2 15 3 17 5 18 6 19 7 20 8 21 9 22 10 26 11 23 12
REMARK SMILES IDX 25 13 24 14 13 16 12 17 27 18 11 19 8 20 10 21 9 22 5 23
REMARK SMILES IDX 6 24 7 25 4 26 2 27 1 28 3 29
REMARK H PARENT 16 4 21 15 2 30
ROOT
ATOM      1  N   UNL     1      10.379 -57.066 -23.465  1.00  0.00    -0.321 N 
ATOM      2  C   UNL     1      10.665 -55.886 -22.828  1.00  0.00     0.412 C 
ATOM      3  O   UNL     1      11.193 -55.816 -21.727  1.00  0.00    -0.224 OA
ATOM      4  H   UNL     1      10.006 -56.994 -24.403  1.00  0.00     0.167 HD
ENDROOT
BRANCH   1   5
ATOM      5  C   UNL     1      10.746 -58.346 -22.906  1.00  0.00     0.119 C 
BRANCH   5   6
ATOM      6  C   UNL     1      11.687 -59.118 -23.832  1.00  0.00     0.027 C 
BRANCH   6   7
ATOM      7  C   UNL     1      10.965 -60.054 -24.810  1.00  0.00     0.063 C 
BRANCH   7   8
ATOM      8  C   UNL     1      10.743 -61.457 -24.250  1.00  0.00     0.262 C 
BRANCH   8   9
ATOM      9  N   UNL     1       9.340 -61.681 -23.741  1.00  0.00    -0.331 N 
ATOM     10  C   UNL     1       8.283 -60.755 -24.343  1.00  0.00     0.291 C 
ATOM     11  C   UNL     1       8.858 -63.130 -23.799  1.00  0.00     0.291 C 
ATOM     12  C   UNL     1       6.947 -60.980 -23.624  1.00  0.00     0.221 C 
ATOM     13  C   UNL     1       7.493 -63.235 -23.107  1.00  0.00     0.221 C 
ATOM     14  O   UNL     1       6.543 -62.352 -23.713  1.00  0.00    -0.370 OA
ATOM     15  H   UNL     1       9.373 -61.442 -22.740  1.00  0.00     0.348 HD
ENDBRANCH   8   9
ENDBRANCH   7   8
ENDBRANCH   6   7
ENDBRANCH   5   6
ENDBRANCH   1   5
BRANCH   2  16
ATOM     16  O   UNL     1      10.276 -54.821 -23.625  1.00  0.00    -0.410 OA
BRANCH  16  17
ATOM     17  C   UNL     1      11.355 -54.151 -24.209  1.00  0.00     0.133 A 
ATOM     18  C   UNL     1      11.729 -52.888 -23.737  1.00  0.00     0.051 A 
ATOM     19  C   UNL     1      11.995 -54.741 -25.292  1.00  0.00     0.047 A 
ATOM     20  C   UNL     1      12.803 -52.196 -24.324  1.00  0.00    -0.033 A 
ATOM     21  C   UNL     1      13.065 -54.078 -25.880  1.00  0.00     0.004 A 
ATOM     22  C   UNL     1      13.470 -52.829 -25.396  1.00  0.00     0.005 A 
BRANCH  20  23
ATOM     23  C   UNL     1      13.275 -50.815 -23.826  1.00  0.00     0.039 C 
ATOM     24  C   UNL     1      13.362 -49.859 -25.041  1.00  0.00     0.022 C 
ATOM     25  C   UNL     1      14.681 -50.839 -23.185  1.00  0.00     0.022 C 
BRANCH  23  26
ATOM     26  C   UNL     1      12.259 -50.202 -22.807  1.00  0.00     0.272 C 
BRANCH  26  27
ATOM     27  N   UNL     1      12.193 -48.678 -22.887  1.00  0.00    -0.339 N 
ATOM     28  C   UNL     1      12.993 -48.012 -21.798  1.00  0.00     0.332 C 
ATOM     29  C   UNL     1      10.783 -48.150 -22.913  1.00  0.00     0.332 C 
ATOM     30  H   UNL     1      12.642 -48.392 -23.768  1.00  0.00     0.347 HD
ENDBRANCH  26  27
ENDBRANCH  23  26
ENDBRANCH  20  23
ENDBRANCH  16  17
ENDBRANCH   2  16
TORSDOF 10
ENDMDL
MODEL 8
REMARK VINA RESULT:    -8.194      2.123      2.959
REMARK INTER + INTRA:         -14.170
REMARK INTER:                 -13.277
REMARK INTRA:                  -0.893
REMARK UNBOUND:                -1.186
REMARK SMILES C[NH+](C)CC(C)(C)c1cccc(OC(=O)NCCCC[NH+]2CCOCC2)c1
REMARK SMILES IDX 16 1 14 2 15 3 17 5 18 6 19 7 20 8 21 9 22 10 26 11 23 12
REMARK SMILES IDX 25 13 24 14 13 16 12 17 27 18 11 19 8 20 10 21 9 22 5 23
REMARK SMILES IDX 6 24 7 25 4 26 2 27 1 28 3 29
REMARK H PARENT 16 4 21 15 2 30
ROOT
ATOM      1  N   UNL     1      10.433 -57.203 -23.116  1.00  0.00    -0.321 N 
ATOM      2  C   UNL     1      10.742 -55.913 -22.769  1.00  0.00     0.412 C 
ATOM      3  O   UNL     1      11.271 -55.600 -21.711  1.00  0.00    -0.224 OA
ATOM      4  H   UNL     1      10.062 -57.343 -24.048  1.00  0.00     0.167 HD
ENDROOT
BRANCH   1   5
ATOM      5  C   UNL     1      10.776 -58.325 -22.275  1.00  0.00     0.119 C 
BRANCH   5   6
ATOM      6  C   UNL     1      11.781 -59.256 -22.955  1.00  0.00     0.027 C 
BRANCH   6   7
ATOM      7  C   UNL     1      11.194 -60.052 -24.128  1.00  0.00     0.063 C 
BRANCH   7   8
ATOM      8  C   UNL     1      10.789 -61.474 -23.748  1.00  0.00     0.262 C 
BRANCH   8   9
ATOM      9  N   UNL     1       9.300 -61.640 -23.558  1.00  0.00    -0.331 N 
ATOM     10  C   UNL     1       8.445 -60.549 -24.202  1.00  0.00     0.291 C 
ATOM     11  C   UNL     1       8.753 -63.018 -23.929  1.00  0.00     0.291 C 
ATOM     12  C   UNL     1       6.980 -60.750 -23.795  1.00  0.00     0.221 C 
ATOM     13  C   UNL     1       7.273 -63.095 -23.535  1.00  0.00     0.221 C 
ATOM     14  O   UNL     1       6.521 -62.054 -24.169  1.00  0.00    -0.370 OA
ATOM     15  H   UNL     1       9.144 -61.545 -22.544  1.00  0.00     0.348 HD
ENDBRANCH   8   9
ENDBRANCH   7   8
ENDBRANCH   6   7
ENDBRANCH   5   6
ENDBRANCH   1   5
BRANCH   2  16
ATOM     16  O   UNL     1      10.375 -55.054 -23.792  1.00  0.00    -0.410 OA
BRANCH  16  17
ATOM     17  C   UNL     1      11.454 -54.348 -24.331  1.00  0.00     0.133 A 
ATOM     18  C   UNL     1      11.741 -53.058 -23.873  1.00  0.00     0.051 A 
ATOM     19  C   UNL     1      12.184 -54.935 -25.357  1.00  0.00     0.047 A 
ATOM     20  C   UNL     1      12.816 -52.332 -24.416  1.00  0.00    -0.033 A 
ATOM     21  C   UNL     1      13.256 -54.238 -25.900  1.00  0.00     0.004 A 
ATOM     22  C   UNL     1      13.574 -52.959 -25.428  1.00  0.00     0.005 A 
BRANCH  20  23
ATOM     23  C   UNL     1      13.194 -50.918 -23.930  1.00  0.00     0.039 C 
ATOM     24  C   UNL     1      12.115 -50.440 -22.927  1.00  0.00     0.022 C 
ATOM     25  C   UNL     1      13.235 -49.867 -25.063  1.00  0.00     0.022 C 
BRANCH  23  26
ATOM     26  C   UNL     1      14.570 -50.921 -23.186  1.00  0.00     0.272 C 
BRANCH  26  27
ATOM     27  N   UNL     1      15.445 -49.728 -23.562  1.00  0.00    -0.339 N 
ATOM     28  C   UNL     1      16.800 -50.149 -24.070  1.00  0.00     0.332 C 
ATOM     29  C   UNL     1      15.581 -48.723 -22.450  1.00  0.00     0.332 C 
ATOM     30  H   UNL     1      14.995 -49.247 -24.354  1.00  0.00     0.347 HD
ENDBRANCH  26  27
ENDBRANCH  23  26
ENDBRANCH  20  23
ENDBRANCH  16  17
ENDBRANCH   2  16
TORSDOF 10
ENDMDL
MODEL 9
REMARK VINA RESULT:    -8.167      3.227      9.972
REMARK INTER + INTRA:         -14.127
REMARK INTER:                 -13.449
REMARK INTRA:                  -0.677
REMARK UNBOUND:                -1.186
REMARK SMILES C[NH+](C)CC(C)(C)c1cccc(OC(=O)NCCCC[NH+]2CCOCC2)c1
REMARK SMILES IDX 16 1 14 2 15 3 17 5 18 6 19 7 20 8 21 9 22 10 26 11 23 12
REMARK SMILES IDX 25 13 24 14 13 16 12 17 27 18 11 19 8 20 10 21 9 22 5 23
REMARK SMILES IDX 6 24 7 25 4 26 2 27 1 28 3 29
REMARK H PARENT 16 4 21 15 2 30
ROOT
ATOM      1  N   UNL     1      10.995 -54.221 -22.293  1.00  0.00    -0.321 N 
ATOM      2  C   UNL     1      10.632 -55.336 -23.004  1.00  0.00     0.412 C 
ATOM      3  O   UNL     1       9.523 -55.499 -23.495  1.00  0.00    -0.224 OA
ATOM      4  H   UNL     1      11.962 -54.170 -21.997  1.00  0.00     0.167 HD
ENDROOT
BRANCH   1   5
ATOM      5  C   UNL     1      10.103 -53.100 -22.119  1.00  0.00     0.119 C 
BRANCH   5   6
ATOM      6  C   UNL     1      10.737 -51.793 -22.601  1.00  0.00     0.027 C 
BRANCH   6   7
ATOM      7  C   UNL     1      10.192 -50.543 -21.898  1.00  0.00     0.063 C 
BRANCH   7   8
ATOM      8  C   UNL     1      10.388 -49.264 -22.708  1.00  0.00     0.262 C 
BRANCH   8   9
ATOM      9  N   UNL     1      11.359 -48.298 -22.073  1.00  0.00    -0.331 N 
ATOM     10  C   UNL     1      12.834 -48.626 -22.304  1.00  0.00     0.291 C 
ATOM     11  C   UNL     1      11.097 -46.825 -22.382  1.00  0.00     0.291 C 
ATOM     12  C   UNL     1      13.700 -47.669 -21.475  1.00  0.00     0.221 C 
ATOM     13  C   UNL     1      12.050 -45.958 -21.549  1.00  0.00     0.221 C 
ATOM     14  O   UNL     1      13.415 -46.305 -21.809  1.00  0.00    -0.370 OA
ATOM     15  H   UNL     1      11.215 -48.397 -21.058  1.00  0.00     0.348 HD
ENDBRANCH   8   9
ENDBRANCH   7   8
ENDBRANCH   6   7
ENDBRANCH   5   6
ENDBRANCH   1   5
BRANCH   2  16
ATOM     16  O   UNL     1      11.703 -56.211 -23.080  1.00  0.00    -0.410 OA
BRANCH  16  17
ATOM     17  C   UNL     1      11.390 -57.501 -22.643  1.00  0.00     0.133 A 
ATOM     18  C   UNL     1      11.094 -58.500 -23.577  1.00  0.00     0.051 A 
ATOM     19  C   UNL     1      11.328 -57.741 -21.276  1.00  0.00     0.047 A 
ATOM     20  C   UNL     1      10.764 -59.799 -23.150  1.00  0.00    -0.033 A 
ATOM     21  C   UNL     1      11.014 -59.021 -20.835  1.00  0.00     0.004 A 
ATOM     22  C   UNL     1      10.746 -60.038 -21.759  1.00  0.00     0.005 A 
BRANCH  20  23
ATOM     23  C   UNL     1      10.455 -60.944 -24.136  1.00  0.00     0.039 C 
ATOM     24  C   UNL     1      10.653 -62.291 -23.399  1.00  0.00     0.022 C 
ATOM     25  C   UNL     1      11.397 -60.972 -25.362  1.00  0.00     0.022 C 
BRANCH  23  26
ATOM     26  C   UNL     1       8.973 -60.883 -24.632  1.00  0.00     0.272 C 
BRANCH  26  27
ATOM     27  N   UNL     1       7.966 -61.076 -23.501  1.00  0.00    -0.339 N 
ATOM     28  C   UNL     1       7.100 -62.292 -23.707  1.00  0.00     0.332 C 
ATOM     29  C   UNL     1       7.121 -59.856 -23.248  1.00  0.00     0.332 C 
ATOM     30  H   UNL     1       8.496 -61.264 -22.638  1.00  0.00     0.347 HD
ENDBRANCH  26  27
ENDBRANCH  23  26
ENDBRANCH  20  23
ENDBRANCH  16  17
ENDBRANCH   2  16
TORSDOF 10
ENDMDL
