MODEL 1
REMARK VINA RESULT:   -10.293      0.000      0.000
REMARK INTER + INTRA:         -17.918
REMARK INTER:                 -16.913
REMARK INTRA:                  -1.005
REMARK UNBOUND:                -1.005
REMARK SMILES CNC(=O)Oc1cccc(C[N@@H+](C)CCCOc2ccc(C(=O)c3ccccc3)cc2)c1
REMARK SMILES IDX 14 1 12 2 13 3 11 5 10 6 9 7 32 8 8 9 6 10 7 11 5 12 3 13
REMARK SMILES IDX 2 14 4 15 1 16 15 18 16 19 17 20 18 21 19 22 31 23 20 24
REMARK SMILES IDX 30 25 21 26 22 27 23 28 24 29 25 30 29 31 26 32 28 33 27 34
REMARK H PARENT 12 4 2 17
ROOT
ATOM      1  C   UNL     1      10.909 -52.509 -21.802  1.00  0.00     0.265 C 
ENDROOT
BRANCH   1   2
ATOM      2  N   UNL     1      12.030 -51.838 -22.553  1.00  0.00    -0.334 N 
ATOM      3  C   UNL     1      12.004 -50.339 -22.465  1.00  0.00     0.333 C 
ATOM      4  H   UNL     1      12.909 -52.154 -22.115  1.00  0.00     0.348 HD
BRANCH   2   5
ATOM      5  C   UNL     1      12.112 -52.336 -23.987  1.00  0.00     0.298 C 
BRANCH   5   6
ATOM      6  C   UNL     1      13.337 -51.842 -24.708  1.00  0.00     0.010 A 
ATOM      7  C   UNL     1      13.286 -50.712 -25.539  1.00  0.00     0.010 A 
ATOM      8  C   UNL     1      14.567 -52.484 -24.512  1.00  0.00     0.056 A 
ATOM      9  C   UNL     1      14.450 -50.217 -26.134  1.00  0.00     0.004 A 
ATOM     10  C   UNL     1      15.730 -51.941 -25.055  1.00  0.00     0.133 A 
ATOM     11  C   UNL     1      15.679 -50.827 -25.886  1.00  0.00     0.047 A 
BRANCH  10  12
ATOM     12  O   UNL     1      16.987 -52.513 -24.809  1.00  0.00    -0.410 OA
BRANCH  12  13
ATOM     13  C   UNL     1      17.860 -52.558 -25.889  1.00  0.00     0.412 C 
ATOM     14  N   UNL     1      18.860 -51.647 -25.701  1.00  0.00    -0.324 N 
ATOM     15  O   UNL     1      17.757 -53.296 -26.863  1.00  0.00    -0.224 OA
ATOM     16  C   UNL     1      19.991 -51.553 -26.585  1.00  0.00     0.146 C 
ATOM     17  H   UNL     1      18.894 -51.194 -24.798  1.00  0.00     0.166 HD
ENDBRANCH  12  13
ENDBRANCH  10  12
ENDBRANCH   5   6
ENDBRANCH   2   5
ENDBRANCH   1   2
BRANCH   1  18
ATOM     18  C   UNL     1      10.040 -53.402 -22.691  1.00  0.00     0.103 C 
BRANCH  18  19
ATOM     19  C   UNL     1       9.940 -54.870 -22.267  1.00  0.00     0.235 C 
BRANCH  19  20
ATOM     20  O   UNL     1      11.226 -55.456 -22.071  1.00  0.00    -0.493 OA
BRANCH  20  21
ATOM     21  C   UNL     1      11.391 -56.787 -22.334  1.00  0.00     0.119 A 
ATOM     22  C   UNL     1      11.717 -57.074 -23.663  1.00  0.00     0.047 A 
ATOM     23  C   UNL     1      11.233 -57.836 -21.427  1.00  0.00     0.047 A 
ATOM     24  C   UNL     1      11.868 -58.393 -24.091  1.00  0.00     0.016 A 
ATOM     25  C   UNL     1      11.390 -59.163 -21.849  1.00  0.00     0.016 A 
ATOM     26  C   UNL     1      11.715 -59.443 -23.181  1.00  0.00     0.023 A 
BRANCH  26  27
ATOM     27  C   UNL     1      11.836 -60.833 -23.680  1.00  0.00     0.193 C 
ATOM     28  O   UNL     1      12.945 -61.233 -24.021  1.00  0.00    -0.289 OA
BRANCH  27  29
ATOM     29  C   UNL     1      10.657 -61.729 -23.789  1.00  0.00     0.022 A 
ATOM     30  C   UNL     1      10.372 -62.588 -22.721  1.00  0.00     0.012 A 
ATOM     31  C   UNL     1       9.813 -61.703 -24.906  1.00  0.00     0.012 A 
ATOM     32  C   UNL     1       9.269 -63.440 -22.785  1.00  0.00     0.001 A 
ATOM     33  C   UNL     1       8.709 -62.556 -24.965  1.00  0.00     0.001 A 
ATOM     34  C   UNL     1       8.441 -63.427 -23.908  1.00  0.00     0.000 A 
ENDBRANCH  27  29
ENDBRANCH  26  27
ENDBRANCH  20  21
ENDBRANCH  19  20
ENDBRANCH  18  19
ENDBRANCH   1  18
TORSDOF 11
ENDMDL
MODEL 2
REMARK VINA RESULT:   -10.183      2.018      2.821
REMARK INTER + INTRA:         -17.737
REMARK INTER:                 -16.888
REMARK INTRA:                  -0.849
REMARK UNBOUND:                -1.005
REMARK SMILES CNC(=O)Oc1cccc(C[N@@H+](C)CCCOc2ccc(C(=O)c3ccccc3)cc2)c1
REMARK SMILES IDX 14 1 12 2 13 3 11 5 10 6 9 7 32 8 8 9 6 10 7 11 5 12 3 13
REMARK SMILES IDX 2 14 4 15 1 16 15 18 16 19 17 20 18 21 19 22 31 23 20 24
REMARK SMILES IDX 30 25 21 26 22 27 23 28 24 29 25 30 29 31 26 32 28 33 27 34
REMARK H PARENT 12 4 2 17
ROOT
ATOM      1  C   UNL     1       9.954 -52.175 -22.318  1.00  0.00     0.265 C 
ENDROOT
BRANCH   1   2
ATOM      2  N   UNL     1      10.307 -50.848 -21.697  1.00  0.00    -0.334 N 
ATOM      3  C   UNL     1       9.541 -49.690 -22.268  1.00  0.00     0.333 C 
ATOM      4  H   UNL     1      10.058 -50.916 -20.698  1.00  0.00     0.348 HD
BRANCH   2   5
ATOM      5  C   UNL     1      11.809 -50.614 -21.705  1.00  0.00     0.298 C 
BRANCH   5   6
ATOM      6  C   UNL     1      12.309 -50.075 -23.018  1.00  0.00     0.010 A 
ATOM      7  C   UNL     1      12.478 -48.697 -23.222  1.00  0.00     0.010 A 
ATOM      8  C   UNL     1      12.665 -50.961 -24.044  1.00  0.00     0.056 A 
ATOM      9  C   UNL     1      13.022 -48.218 -24.417  1.00  0.00     0.004 A 
ATOM     10  C   UNL     1      13.270 -50.476 -25.203  1.00  0.00     0.133 A 
ATOM     11  C   UNL     1      13.429 -49.109 -25.409  1.00  0.00     0.047 A 
BRANCH  10  12
ATOM     12  O   UNL     1      13.712 -51.342 -26.213  1.00  0.00    -0.410 OA
BRANCH  12  13
ATOM     13  C   UNL     1      14.043 -52.631 -25.811  1.00  0.00     0.412 C 
ATOM     14  N   UNL     1      12.997 -53.469 -26.071  1.00  0.00    -0.324 N 
ATOM     15  O   UNL     1      15.105 -52.972 -25.300  1.00  0.00    -0.224 OA
ATOM     16  C   UNL     1      13.087 -54.893 -25.890  1.00  0.00     0.146 C 
ATOM     17  H   UNL     1      12.232 -53.082 -26.608  1.00  0.00     0.166 HD
ENDBRANCH  12  13
ENDBRANCH  10  12
ENDBRANCH   5   6
ENDBRANCH   2   5
ENDBRANCH   1   2
BRANCH   1  18
ATOM     18  C   UNL     1      10.907 -53.302 -21.912  1.00  0.00     0.103 C 
BRANCH  18  19
ATOM     19  C   UNL     1      10.286 -54.698 -21.817  1.00  0.00     0.235 C 
BRANCH  19  20
ATOM     20  O   UNL     1      11.233 -55.674 -21.389  1.00  0.00    -0.493 OA
BRANCH  20  21
ATOM     21  C   UNL     1      11.289 -56.871 -22.046  1.00  0.00     0.119 A 
ATOM     22  C   UNL     1      11.159 -57.989 -21.215  1.00  0.00     0.047 A 
ATOM     23  C   UNL     1      11.491 -57.057 -23.414  1.00  0.00     0.047 A 
ATOM     24  C   UNL     1      11.246 -59.279 -21.738  1.00  0.00     0.016 A 
ATOM     25  C   UNL     1      11.573 -58.351 -23.946  1.00  0.00     0.016 A 
ATOM     26  C   UNL     1      11.443 -59.464 -23.109  1.00  0.00     0.023 A 
BRANCH  26  27
ATOM     27  C   UNL     1      11.578 -60.848 -23.622  1.00  0.00     0.193 C 
ATOM     28  O   UNL     1      12.679 -61.214 -24.022  1.00  0.00    -0.289 OA
BRANCH  27  29
ATOM     29  C   UNL     1      10.421 -61.777 -23.677  1.00  0.00     0.022 A 
ATOM     30  C   UNL     1       9.584 -61.733 -24.798  1.00  0.00     0.012 A 
ATOM     31  C   UNL     1      10.178 -62.712 -22.662  1.00  0.00     0.012 A 
ATOM     32  C   UNL     1       8.490 -62.596 -24.888  1.00  0.00     0.001 A 
ATOM     33  C   UNL     1       9.083 -63.574 -22.758  1.00  0.00     0.001 A 
ATOM     34  C   UNL     1       8.239 -63.512 -23.867  1.00  0.00     0.000 A 
ENDBRANCH  27  29
ENDBRANCH  26  27
ENDBRANCH  20  21
ENDBRANCH  19  20
ENDBRANCH  18  19
ENDBRANCH   1  18
TORSDOF 11
ENDMDL
MODEL 3
REMARK VINA RESULT:   -10.148      3.518     10.802
REMARK INTER + INTRA:         -17.678
REMARK INTER:                 -16.195
REMARK INTRA:                  -1.483
REMARK UNBOUND:                -1.005
REMARK SMILES CNC(=O)Oc1cccc(C[N@@H+](C)CCCOc2ccc(C(=O)c3ccccc3)cc2)c1
REMARK SMILES IDX 14 1 12 2 13 3 11 5 10 6 9 7 32 8 8 9 6 10 7 11 5 12 3 13
REMARK SMILES IDX 2 14 4 15 1 16 15 18 16 19 17 20 18 21 19 22 31 23 20 24
REMARK SMILES IDX 30 25 21 26 22 27 23 28 24 29 25 30 29 31 26 32 28 33 27 34
REMARK H PARENT 12 4 2 17
ROOT
ATOM      1  C   UNL     1      12.176 -58.689 -24.243  1.00  0.00     0.265 C 
ENDROOT
BRANCH   1   2
ATOM      2  N   UNL     1      12.241 -60.172 -24.502  1.00  0.00    -0.334 N 
ATOM      3  C   UNL     1      13.577 -60.639 -25.004  1.00  0.00     0.333 C 
ATOM      4  H   UNL     1      12.077 -60.637 -23.595  1.00  0.00     0.348 HD
BRANCH   2   5
ATOM      5  C   UNL     1      11.093 -60.632 -25.385  1.00  0.00     0.298 C 
BRANCH   5   6
ATOM      6  C   UNL     1      10.016 -61.348 -24.618  1.00  0.00     0.010 A 
ATOM      7  C   UNL     1      10.323 -62.402 -23.743  1.00  0.00     0.010 A 
ATOM      8  C   UNL     1       8.683 -60.930 -24.732  1.00  0.00     0.056 A 
ATOM      9  C   UNL     1       9.321 -63.001 -22.974  1.00  0.00     0.004 A 
ATOM     10  C   UNL     1       7.705 -61.489 -23.911  1.00  0.00     0.133 A 
ATOM     11  C   UNL     1       8.008 -62.539 -23.050  1.00  0.00     0.047 A 
BRANCH  10  12
ATOM     12  O   UNL     1       6.379 -61.035 -23.942  1.00  0.00    -0.410 OA
BRANCH  12  13
ATOM     13  C   UNL     1       6.110 -59.880 -23.217  1.00  0.00     0.412 C 
ATOM     14  N   UNL     1       4.775 -59.600 -23.291  1.00  0.00    -0.324 N 
ATOM     15  O   UNL     1       6.935 -59.211 -22.604  1.00  0.00    -0.224 OA
ATOM     16  C   UNL     1       4.168 -58.539 -22.531  1.00  0.00     0.146 C 
ATOM     17  H   UNL     1       4.190 -60.302 -23.724  1.00  0.00     0.166 HD
ENDBRANCH  12  13
ENDBRANCH  10  12
ENDBRANCH   5   6
ENDBRANCH   2   5
ENDBRANCH   1   2
BRANCH   1  18
ATOM     18  C   UNL     1      11.422 -58.336 -22.958  1.00  0.00     0.103 C 
BRANCH  18  19
ATOM     19  C   UNL     1      10.056 -57.672 -23.148  1.00  0.00     0.235 C 
BRANCH  19  20
ATOM     20  O   UNL     1       9.883 -56.552 -22.284  1.00  0.00    -0.493 OA
BRANCH  20  21
ATOM     21  C   UNL     1      10.473 -55.365 -22.615  1.00  0.00     0.119 A 
ATOM     22  C   UNL     1      10.436 -54.402 -21.602  1.00  0.00     0.047 A 
ATOM     23  C   UNL     1      11.053 -55.042 -23.843  1.00  0.00     0.047 A 
ATOM     24  C   UNL     1      10.955 -53.124 -21.813  1.00  0.00     0.016 A 
ATOM     25  C   UNL     1      11.582 -53.763 -24.059  1.00  0.00     0.016 A 
ATOM     26  C   UNL     1      11.540 -52.805 -23.041  1.00  0.00     0.023 A 
BRANCH  26  27
ATOM     27  C   UNL     1      12.039 -51.424 -23.247  1.00  0.00     0.193 C 
ATOM     28  O   UNL     1      11.411 -50.498 -22.743  1.00  0.00    -0.289 OA
BRANCH  27  29
ATOM     29  C   UNL     1      13.255 -51.145 -24.053  1.00  0.00     0.022 A 
ATOM     30  C   UNL     1      14.503 -51.225 -23.424  1.00  0.00     0.012 A 
ATOM     31  C   UNL     1      13.181 -50.849 -25.420  1.00  0.00     0.012 A 
ATOM     32  C   UNL     1      15.669 -50.976 -24.151  1.00  0.00     0.001 A 
ATOM     33  C   UNL     1      14.350 -50.602 -26.143  1.00  0.00     0.001 A 
ATOM     34  C   UNL     1      15.591 -50.661 -25.507  1.00  0.00     0.000 A 
ENDBRANCH  27  29
ENDBRANCH  26  27
ENDBRANCH  20  21
ENDBRANCH  19  20
ENDBRANCH  18  19
ENDBRANCH   1  18
TORSDOF 11
ENDMDL
MODEL 4
REMARK VINA RESULT:    -9.878      2.908      3.982
REMARK INTER + INTRA:         -17.235
REMARK INTER:                 -15.937
REMARK INTRA:                  -1.299
REMARK UNBOUND:                -1.005
REMARK SMILES CNC(=O)Oc1cccc(C[N@@H+](C)CCCOc2ccc(C(=O)c3ccccc3)cc2)c1
REMARK SMILES IDX 14 1 12 2 13 3 11 5 10 6 9 7 32 8 8 9 6 10 7 11 5 12 3 13
REMARK SMILES IDX 2 14 4 15 1 16 15 18 16 19 17 20 18 21 19 22 31 23 20 24
REMARK SMILES IDX 30 25 21 26 22 27 23 28 24 29 25 30 29 31 26 32 28 33 27 34
REMARK H PARENT 12 4 2 17
ROOT
ATOM      1  C   UNL     1      12.133 -53.178 -23.743  1.00  0.00     0.265 C 
ENDROOT
BRANCH   1   2
ATOM      2  N   UNL     1      12.454 -51.850 -24.379  1.00  0.00    -0.334 N 
ATOM      3  C   UNL     1      13.347 -51.955 -25.581  1.00  0.00     0.333 C 
ATOM      4  H   UNL     1      11.557 -51.452 -24.699  1.00  0.00     0.348 HD
BRANCH   2   5
ATOM      5  C   UNL     1      12.973 -50.855 -23.353  1.00  0.00     0.298 C 
BRANCH   5   6
ATOM      6  C   UNL     1      12.240 -49.542 -23.390  1.00  0.00     0.010 A 
ATOM      7  C   UNL     1      11.027 -49.364 -22.707  1.00  0.00     0.010 A 
ATOM      8  C   UNL     1      12.797 -48.452 -24.075  1.00  0.00     0.056 A 
ATOM      9  C   UNL     1      10.402 -48.114 -22.682  1.00  0.00     0.004 A 
ATOM     10  C   UNL     1      12.200 -47.196 -23.986  1.00  0.00     0.133 A 
ATOM     11  C   UNL     1      10.994 -47.022 -23.316  1.00  0.00     0.047 A 
BRANCH  10  12
ATOM     12  O   UNL     1      12.777 -46.070 -24.591  1.00  0.00    -0.410 OA
BRANCH  12  13
ATOM     13  C   UNL     1      14.124 -45.854 -24.323  1.00  0.00     0.412 C 
ATOM     14  N   UNL     1      14.852 -46.075 -25.458  1.00  0.00    -0.324 N 
ATOM     15  O   UNL     1      14.595 -45.521 -23.242  1.00  0.00    -0.224 OA
ATOM     16  C   UNL     1      16.262 -45.802 -25.533  1.00  0.00     0.146 C 
ATOM     17  H   UNL     1      14.326 -46.222 -26.309  1.00  0.00     0.166 HD
ENDBRANCH  12  13
ENDBRANCH  10  12
ENDBRANCH   5   6
ENDBRANCH   2   5
ENDBRANCH   1   2
BRANCH   1  18
ATOM     18  C   UNL     1      10.893 -53.132 -22.847  1.00  0.00     0.103 C 
BRANCH  18  19
ATOM     19  C   UNL     1      10.241 -54.482 -22.541  1.00  0.00     0.235 C 
BRANCH  19  20
ATOM     20  O   UNL     1      11.050 -55.283 -21.682  1.00  0.00    -0.493 OA
BRANCH  20  21
ATOM     21  C   UNL     1      11.287 -56.585 -22.022  1.00  0.00     0.119 A 
ATOM     22  C   UNL     1      11.559 -56.784 -23.380  1.00  0.00     0.047 A 
ATOM     23  C   UNL     1      11.248 -57.685 -21.165  1.00  0.00     0.047 A 
ATOM     24  C   UNL     1      11.772 -58.067 -23.883  1.00  0.00     0.016 A 
ATOM     25  C   UNL     1      11.467 -58.977 -21.663  1.00  0.00     0.016 A 
ATOM     26  C   UNL     1      11.736 -59.168 -23.023  1.00  0.00     0.023 A 
BRANCH  26  27
ATOM     27  C   UNL     1      11.920 -60.521 -23.599  1.00  0.00     0.193 C 
ATOM     28  O   UNL     1      13.053 -60.864 -23.927  1.00  0.00    -0.289 OA
BRANCH  27  29
ATOM     29  C   UNL     1      10.776 -61.446 -23.802  1.00  0.00     0.022 A 
ATOM     30  C   UNL     1      10.118 -61.431 -25.037  1.00  0.00     0.012 A 
ATOM     31  C   UNL     1      10.376 -62.350 -22.811  1.00  0.00     0.012 A 
ATOM     32  C   UNL     1       9.043 -62.291 -25.267  1.00  0.00     0.001 A 
ATOM     33  C   UNL     1       9.300 -63.210 -23.046  1.00  0.00     0.001 A 
ATOM     34  C   UNL     1       8.633 -63.176 -24.271  1.00  0.00     0.000 A 
ENDBRANCH  27  29
ENDBRANCH  26  27
ENDBRANCH  20  21
ENDBRANCH  19  20
ENDBRANCH  18  19
ENDBRANCH   1  18
TORSDOF 11
ENDMDL
MODEL 5
REMARK VINA RESULT:    -9.829      3.556     10.069
REMARK INTER + INTRA:         -17.154
REMARK INTER:                 -16.385
REMARK INTRA:                  -0.769
REMARK UNBOUND:                -1.005
REMARK SMILES CNC(=O)Oc1cccc(C[N@@H+](C)CCCOc2ccc(C(=O)c3ccccc3)cc2)c1
REMARK SMILES IDX 14 1 12 2 13 3 11 5 10 6 9 7 32 8 8 9 6 10 7 11 5 12 3 13
REMARK SMILES IDX 2 14 4 15 1 16 15 18 16 19 17 20 18 21 19 22 31 23 20 24
REMARK SMILES IDX 30 25 21 26 22 27 23 28 24 29 25 30 29 31 26 32 28 33 27 34
REMARK H PARENT 12 4 2 17
ROOT
ATOM      1  C   UNL     1       8.911 -59.353 -22.747  1.00  0.00     0.265 C 
ENDROOT
BRANCH   1   2
ATOM      2  N   UNL     1       7.888 -60.019 -23.631  1.00  0.00    -0.334 N 
ATOM      3  C   UNL     1       6.469 -59.695 -23.263  1.00  0.00     0.333 C 
ATOM      4  H   UNL     1       8.045 -59.659 -24.586  1.00  0.00     0.348 HD
BRANCH   2   5
ATOM      5  C   UNL     1       8.137 -61.515 -23.737  1.00  0.00     0.298 C 
BRANCH   5   6
ATOM      6  C   UNL     1       8.369 -61.970 -25.151  1.00  0.00     0.010 A 
ATOM      7  C   UNL     1       7.702 -63.089 -25.675  1.00  0.00     0.010 A 
ATOM      8  C   UNL     1       9.225 -61.240 -25.987  1.00  0.00     0.056 A 
ATOM      9  C   UNL     1       7.865 -63.449 -27.016  1.00  0.00     0.004 A 
ATOM     10  C   UNL     1       9.326 -61.568 -27.338  1.00  0.00     0.133 A 
ATOM     11  C   UNL     1       8.673 -62.682 -27.855  1.00  0.00     0.047 A 
BRANCH  10  12
ATOM     12  O   UNL     1      10.109 -60.807 -28.217  1.00  0.00    -0.410 OA
BRANCH  12  13
ATOM     13  C   UNL     1      11.129 -60.060 -27.638  1.00  0.00     0.412 C 
ATOM     14  N   UNL     1      11.329 -58.924 -28.368  1.00  0.00    -0.324 N 
ATOM     15  O   UNL     1      11.758 -60.367 -26.631  1.00  0.00    -0.224 OA
ATOM     16  C   UNL     1      12.227 -57.884 -27.943  1.00  0.00     0.146 C 
ATOM     17  H   UNL     1      10.658 -58.735 -29.101  1.00  0.00     0.166 HD
ENDBRANCH  12  13
ENDBRANCH  10  12
ENDBRANCH   5   6
ENDBRANCH   2   5
ENDBRANCH   1   2
BRANCH   1  18
ATOM     18  C   UNL     1       9.927 -58.516 -23.528  1.00  0.00     0.103 C 
BRANCH  18  19
ATOM     19  C   UNL     1      10.664 -57.442 -22.724  1.00  0.00     0.235 C 
BRANCH  19  20
ATOM     20  O   UNL     1       9.812 -56.348 -22.390  1.00  0.00    -0.493 OA
BRANCH  20  21
ATOM     21  C   UNL     1      10.309 -55.078 -22.466  1.00  0.00     0.119 A 
ATOM     22  C   UNL     1      11.017 -54.806 -23.642  1.00  0.00     0.047 A 
ATOM     23  C   UNL     1      10.200 -54.086 -21.490  1.00  0.00     0.047 A 
ATOM     24  C   UNL     1      11.624 -53.566 -23.838  1.00  0.00     0.016 A 
ATOM     25  C   UNL     1      10.802 -52.835 -21.684  1.00  0.00     0.016 A 
ATOM     26  C   UNL     1      11.509 -52.572 -22.862  1.00  0.00     0.023 A 
BRANCH  26  27
ATOM     27  C   UNL     1      12.206 -51.283 -23.083  1.00  0.00     0.193 C 
ATOM     28  O   UNL     1      11.756 -50.278 -22.540  1.00  0.00    -0.289 OA
BRANCH  27  29
ATOM     29  C   UNL     1      13.409 -51.183 -23.948  1.00  0.00     0.022 A 
ATOM     30  C   UNL     1      13.238 -50.801 -25.284  1.00  0.00     0.012 A 
ATOM     31  C   UNL     1      14.697 -51.419 -23.451  1.00  0.00     0.012 A 
ATOM     32  C   UNL     1      14.345 -50.689 -26.126  1.00  0.00     0.001 A 
ATOM     33  C   UNL     1      15.802 -51.305 -24.297  1.00  0.00     0.001 A 
ATOM     34  C   UNL     1      15.625 -50.945 -25.634  1.00  0.00     0.000 A 
ENDBRANCH  27  29
ENDBRANCH  26  27
ENDBRANCH  20  21
ENDBRANCH  19  20
ENDBRANCH  18  19
ENDBRANCH   1  18
TORSDOF 11
ENDMDL
MODEL 6
REMARK VINA RESULT:    -9.732      3.632     11.357
REMARK INTER + INTRA:         -16.995
REMARK INTER:                 -16.680
REMARK INTRA:                  -0.316
REMARK UNBOUND:                -1.005
REMARK SMILES CNC(=O)Oc1cccc(C[N@@H+](C)CCCOc2ccc(C(=O)c3ccccc3)cc2)c1
REMARK SMILES IDX 14 1 12 2 13 3 11 5 10 6 9 7 32 8 8 9 6 10 7 11 5 12 3 13
REMARK SMILES IDX 2 14 4 15 1 16 15 18 16 19 17 20 18 21 19 22 31 23 20 24
REMARK SMILES IDX 30 25 21 26 22 27 23 28 24 29 25 30 29 31 26 32 28 33 27 34
REMARK H PARENT 12 4 2 17
ROOT
ATOM      1  C   UNL     1      10.345 -54.591 -23.654  1.00  0.00     0.265 C 
ENDROOT
BRANCH   1   2
ATOM      2  N   UNL     1      10.326 -55.370 -22.364  1.00  0.00    -0.334 N 
ATOM      3  C   UNL     1      10.410 -54.509 -21.137  1.00  0.00     0.333 C 
ATOM      4  H   UNL     1       9.419 -55.861 -22.330  1.00  0.00     0.348 HD
BRANCH   2   5
ATOM      5  C   UNL     1      11.366 -56.479 -22.371  1.00  0.00     0.298 C 
BRANCH   5   6
ATOM      6  C   UNL     1      10.755 -57.853 -22.339  1.00  0.00     0.010 A 
ATOM      7  C   UNL     1      11.052 -58.759 -21.309  1.00  0.00     0.010 A 
ATOM      8  C   UNL     1       9.830 -58.227 -23.324  1.00  0.00     0.056 A 
ATOM      9  C   UNL     1      10.412 -60.000 -21.249  1.00  0.00     0.004 A 
ATOM     10  C   UNL     1       9.148 -59.438 -23.215  1.00  0.00     0.133 A 
ATOM     11  C   UNL     1       9.449 -60.340 -22.199  1.00  0.00     0.047 A 
BRANCH  10  12
ATOM     12  O   UNL     1       8.158 -59.804 -24.137  1.00  0.00    -0.410 OA
BRANCH  12  13
ATOM     13  C   UNL     1       6.901 -60.077 -23.611  1.00  0.00     0.412 C 
ATOM     14  N   UNL     1       6.447 -58.982 -22.932  1.00  0.00    -0.324 N 
ATOM     15  O   UNL     1       6.289 -61.133 -23.729  1.00  0.00    -0.224 OA
ATOM     16  C   UNL     1       5.117 -58.911 -22.388  1.00  0.00     0.146 C 
ATOM     17  H   UNL     1       6.997 -58.138 -23.019  1.00  0.00     0.166 HD
ENDBRANCH  12  13
ENDBRANCH  10  12
ENDBRANCH   5   6
ENDBRANCH   2   5
ENDBRANCH   1   2
BRANCH   1  18
ATOM     18  C   UNL     1      11.713 -53.980 -23.967  1.00  0.00     0.103 C 
BRANCH  18  19
ATOM     19  C   UNL     1      12.236 -54.209 -25.387  1.00  0.00     0.235 C 
BRANCH  19  20
ATOM     20  O   UNL     1      13.376 -53.401 -25.672  1.00  0.00    -0.493 OA
BRANCH  20  21
ATOM     21  C   UNL     1      13.325 -52.065 -25.391  1.00  0.00     0.119 A 
ATOM     22  C   UNL     1      13.907 -51.250 -26.369  1.00  0.00     0.047 A 
ATOM     23  C   UNL     1      12.792 -51.479 -24.243  1.00  0.00     0.047 A 
ATOM     24  C   UNL     1      13.973 -49.868 -26.197  1.00  0.00     0.016 A 
ATOM     25  C   UNL     1      12.850 -50.090 -24.067  1.00  0.00     0.016 A 
ATOM     26  C   UNL     1      13.435 -49.282 -25.048  1.00  0.00     0.023 A 
BRANCH  26  27
ATOM     27  C   UNL     1      13.564 -47.816 -24.876  1.00  0.00     0.193 C 
ATOM     28  O   UNL     1      14.488 -47.243 -25.448  1.00  0.00    -0.289 OA
BRANCH  27  29
ATOM     29  C   UNL     1      12.624 -47.042 -24.026  1.00  0.00     0.022 A 
ATOM     30  C   UNL     1      12.985 -46.785 -22.698  1.00  0.00     0.012 A 
ATOM     31  C   UNL     1      11.421 -46.535 -24.532  1.00  0.00     0.012 A 
ATOM     32  C   UNL     1      12.130 -46.055 -21.871  1.00  0.00     0.001 A 
ATOM     33  C   UNL     1      10.570 -45.804 -23.700  1.00  0.00     0.001 A 
ATOM     34  C   UNL     1      10.922 -45.569 -22.371  1.00  0.00     0.000 A 
ENDBRANCH  27  29
ENDBRANCH  26  27
ENDBRANCH  20  21
ENDBRANCH  19  20
ENDBRANCH  18  19
ENDBRANCH   1  18
TORSDOF 11
ENDMDL
MODEL 7
REMARK VINA RESULT:    -9.681      1.489      2.352
REMARK INTER + INTRA:         -16.911
REMARK INTER:                 -16.542
REMARK INTRA:                  -0.369
REMARK UNBOUND:                -1.005
REMARK SMILES CNC(=O)Oc1cccc(C[N@@H+](C)CCCOc2ccc(C(=O)c3ccccc3)cc2)c1
REMARK SMILES IDX 14 1 12 2 13 3 11 5 10 6 9 7 32 8 8 9 6 10 7 11 5 12 3 13
REMARK SMILES IDX 2 14 4 15 1 16 15 18 16 19 17 20 18 21 19 22 31 23 20 24
REMARK SMILES IDX 30 25 21 26 22 27 23 28 24 29 25 30 29 31 26 32 28 33 27 34
REMARK H PARENT 12 4 2 17
ROOT
ATOM      1  C   UNL     1      12.092 -50.929 -22.693  1.00  0.00     0.265 C 
ENDROOT
BRANCH   1   2
ATOM      2  N   UNL     1      12.568 -49.546 -23.057  1.00  0.00    -0.334 N 
ATOM      3  C   UNL     1      11.492 -48.501 -22.992  1.00  0.00     0.333 C 
ATOM      4  H   UNL     1      13.285 -49.289 -22.361  1.00  0.00     0.348 HD
BRANCH   2   5
ATOM      5  C   UNL     1      13.303 -49.545 -24.388  1.00  0.00     0.298 C 
BRANCH   5   6
ATOM      6  C   UNL     1      13.852 -50.897 -24.753  1.00  0.00     0.010 A 
ATOM      7  C   UNL     1      13.082 -51.826 -25.469  1.00  0.00     0.010 A 
ATOM      8  C   UNL     1      15.174 -51.224 -24.422  1.00  0.00     0.056 A 
ATOM      9  C   UNL     1      13.636 -53.045 -25.874  1.00  0.00     0.004 A 
ATOM     10  C   UNL     1      15.735 -52.412 -24.889  1.00  0.00     0.133 A 
ATOM     11  C   UNL     1      14.970 -53.337 -25.591  1.00  0.00     0.047 A 
BRANCH  10  12
ATOM     12  O   UNL     1      17.078 -52.730 -24.645  1.00  0.00    -0.410 OA
BRANCH  12  13
ATOM     13  C   UNL     1      17.923 -52.707 -25.748  1.00  0.00     0.412 C 
ATOM     14  N   UNL     1      19.004 -51.918 -25.474  1.00  0.00    -0.324 N 
ATOM     15  O   UNL     1      17.736 -53.297 -26.806  1.00  0.00    -0.224 OA
ATOM     16  C   UNL     1      20.122 -51.804 -26.373  1.00  0.00     0.146 C 
ATOM     17  H   UNL     1      19.095 -51.593 -24.520  1.00  0.00     0.166 HD
ENDBRANCH  12  13
ENDBRANCH  10  12
ENDBRANCH   5   6
ENDBRANCH   2   5
ENDBRANCH   1   2
BRANCH   1  18
ATOM     18  C   UNL     1      10.747 -50.929 -21.963  1.00  0.00     0.103 C 
BRANCH  18  19
ATOM     19  C   UNL     1       9.840 -52.131 -22.238  1.00  0.00     0.235 C 
BRANCH  19  20
ATOM     20  O   UNL     1      10.050 -53.183 -21.299  1.00  0.00    -0.493 OA
BRANCH  20  21
ATOM     21  C   UNL     1      10.508 -54.389 -21.751  1.00  0.00     0.119 A 
ATOM     22  C   UNL     1      10.448 -54.542 -23.140  1.00  0.00     0.047 A 
ATOM     23  C   UNL     1      10.977 -55.444 -20.967  1.00  0.00     0.047 A 
ATOM     24  C   UNL     1      10.836 -55.740 -23.742  1.00  0.00     0.016 A 
ATOM     25  C   UNL     1      11.374 -56.647 -21.566  1.00  0.00     0.016 A 
ATOM     26  C   UNL     1      11.310 -56.793 -22.956  1.00  0.00     0.023 A 
BRANCH  26  27
ATOM     27  C   UNL     1      11.668 -58.066 -23.624  1.00  0.00     0.193 C 
ATOM     28  O   UNL     1      12.380 -58.018 -24.623  1.00  0.00    -0.289 OA
BRANCH  27  29
ATOM     29  C   UNL     1      11.175 -59.376 -23.127  1.00  0.00     0.022 A 
ATOM     30  C   UNL     1      10.452 -59.404 -21.929  1.00  0.00     0.012 A 
ATOM     31  C   UNL     1      11.379 -60.561 -23.845  1.00  0.00     0.012 A 
ATOM     32  C   UNL     1       9.966 -60.615 -21.433  1.00  0.00     0.001 A 
ATOM     33  C   UNL     1      10.890 -61.770 -23.346  1.00  0.00     0.001 A 
ATOM     34  C   UNL     1      10.189 -61.797 -22.140  1.00  0.00     0.000 A 
ENDBRANCH  27  29
ENDBRANCH  26  27
ENDBRANCH  20  21
ENDBRANCH  19  20
ENDBRANCH  18  19
ENDBRANCH   1  18
TORSDOF 11
ENDMDL
MODEL 8
REMARK VINA RESULT:    -9.623      3.672     11.559
REMARK INTER + INTRA:         -16.815
REMARK INTER:                 -16.380
REMARK INTRA:                  -0.435
REMARK UNBOUND:                -1.005
REMARK SMILES CNC(=O)Oc1cccc(C[N@@H+](C)CCCOc2ccc(C(=O)c3ccccc3)cc2)c1
REMARK SMILES IDX 14 1 12 2 13 3 11 5 10 6 9 7 32 8 8 9 6 10 7 11 5 12 3 13
REMARK SMILES IDX 2 14 4 15 1 16 15 18 16 19 17 20 18 21 19 22 31 23 20 24
REMARK SMILES IDX 30 25 21 26 22 27 23 28 24 29 25 30 29 31 26 32 28 33 27 34
REMARK H PARENT 12 4 2 17
ROOT
ATOM      1  C   UNL     1      11.339 -57.188 -22.038  1.00  0.00     0.265 C 
ENDROOT
BRANCH   1   2
ATOM      2  N   UNL     1      11.669 -58.610 -22.409  1.00  0.00    -0.334 N 
ATOM      3  C   UNL     1      11.635 -58.872 -23.888  1.00  0.00     0.333 C 
ATOM      4  H   UNL     1      12.636 -58.780 -22.092  1.00  0.00     0.348 HD
BRANCH   2   5
ATOM      5  C   UNL     1      10.825 -59.600 -21.622  1.00  0.00     0.298 C 
BRANCH   5   6
ATOM      6  C   UNL     1      10.062 -60.549 -22.505  1.00  0.00     0.010 A 
ATOM      7  C   UNL     1      10.639 -61.747 -22.956  1.00  0.00     0.010 A 
ATOM      8  C   UNL     1       8.732 -60.267 -22.847  1.00  0.00     0.056 A 
ATOM      9  C   UNL     1       9.889 -62.657 -23.706  1.00  0.00     0.004 A 
ATOM     10  C   UNL     1       7.975 -61.213 -23.536  1.00  0.00     0.133 A 
ATOM     11  C   UNL     1       8.550 -62.396 -23.991  1.00  0.00     0.047 A 
BRANCH  10  12
ATOM     12  O   UNL     1       6.620 -60.996 -23.821  1.00  0.00    -0.410 OA
BRANCH  12  13
ATOM     13  C   UNL     1       6.145 -59.710 -23.592  1.00  0.00     0.412 C 
ATOM     14  N   UNL     1       5.014 -59.774 -22.830  1.00  0.00    -0.324 N 
ATOM     15  O   UNL     1       6.653 -58.674 -24.007  1.00  0.00    -0.224 OA
ATOM     16  C   UNL     1       4.365 -58.598 -22.314  1.00  0.00     0.146 C 
ATOM     17  H   UNL     1       4.775 -60.682 -22.452  1.00  0.00     0.166 HD
ENDBRANCH  12  13
ENDBRANCH  10  12
ENDBRANCH   5   6
ENDBRANCH   2   5
ENDBRANCH   1   2
BRANCH   1  18
ATOM     18  C   UNL     1      10.093 -56.655 -22.750  1.00  0.00     0.103 C 
BRANCH  18  19
ATOM     19  C   UNL     1      10.154 -55.191 -23.192  1.00  0.00     0.235 C 
BRANCH  19  20
ATOM     20  O   UNL     1      10.632 -54.339 -22.153  1.00  0.00    -0.493 OA
BRANCH  20  21
ATOM     21  C   UNL     1      11.025 -53.069 -22.468  1.00  0.00     0.119 A 
ATOM     22  C   UNL     1      11.878 -52.990 -23.574  1.00  0.00     0.047 A 
ATOM     23  C   UNL     1      10.684 -51.902 -21.783  1.00  0.00     0.047 A 
ATOM     24  C   UNL     1      12.400 -51.763 -23.984  1.00  0.00     0.016 A 
ATOM     25  C   UNL     1      11.200 -50.666 -22.194  1.00  0.00     0.016 A 
ATOM     26  C   UNL     1      12.054 -50.595 -23.299  1.00  0.00     0.023 A 
BRANCH  26  27
ATOM     27  C   UNL     1      12.665 -49.316 -23.733  1.00  0.00     0.193 C 
ATOM     28  O   UNL     1      13.590 -49.358 -24.539  1.00  0.00    -0.289 OA
BRANCH  27  29
ATOM     29  C   UNL     1      12.198 -48.009 -23.207  1.00  0.00     0.022 A 
ATOM     30  C   UNL     1      11.153 -47.357 -23.873  1.00  0.00     0.012 A 
ATOM     31  C   UNL     1      12.745 -47.442 -22.048  1.00  0.00     0.012 A 
ATOM     32  C   UNL     1      10.682 -46.130 -23.403  1.00  0.00     0.001 A 
ATOM     33  C   UNL     1      12.270 -46.215 -21.582  1.00  0.00     0.001 A 
ATOM     34  C   UNL     1      11.243 -45.558 -22.262  1.00  0.00     0.000 A 
ENDBRANCH  27  29
ENDBRANCH  26  27
ENDBRANCH  20  21
ENDBRANCH  19  20
ENDBRANCH  18  19
ENDBRANCH   1  18
TORSDOF 11
ENDMDL
MODEL 9
REMARK VINA RESULT:    -9.577      2.791      3.860
REMARK INTER + INTRA:         -16.741
REMARK INTER:                 -16.314
REMARK INTRA:                  -0.426
REMARK UNBOUND:                -1.005
REMARK SMILES CNC(=O)Oc1cccc(C[N@@H+](C)CCCOc2ccc(C(=O)c3ccccc3)cc2)c1
REMARK SMILES IDX 14 1 12 2 13 3 11 5 10 6 9 7 32 8 8 9 6 10 7 11 5 12 3 13
REMARK SMILES IDX 2 14 4 15 1 16 15 18 16 19 17 20 18 21 19 22 31 23 20 24
REMARK SMILES IDX 30 25 21 26 22 27 23 28 24 29 25 30 29 31 26 32 28 33 27 34
REMARK H PARENT 12 4 2 17
ROOT
ATOM      1  C   UNL     1      11.225 -52.430 -21.216  1.00  0.00     0.265 C 
ENDROOT
BRANCH   1   2
ATOM      2  N   UNL     1      11.520 -51.377 -22.253  1.00  0.00    -0.334 N 
ATOM      3  C   UNL     1      10.432 -50.354 -22.401  1.00  0.00     0.333 C 
ATOM      4  H   UNL     1      12.366 -50.879 -21.934  1.00  0.00     0.348 HD
BRANCH   2   5
ATOM      5  C   UNL     1      11.917 -52.003 -23.581  1.00  0.00     0.298 C 
BRANCH   5   6
ATOM      6  C   UNL     1      12.738 -51.080 -24.439  1.00  0.00     0.010 A 
ATOM      7  C   UNL     1      13.370 -51.539 -25.605  1.00  0.00     0.010 A 
ATOM      8  C   UNL     1      12.837 -49.722 -24.105  1.00  0.00     0.056 A 
ATOM      9  C   UNL     1      14.059 -50.650 -26.435  1.00  0.00     0.004 A 
ATOM     10  C   UNL     1      13.468 -48.835 -24.976  1.00  0.00     0.133 A 
ATOM     11  C   UNL     1      14.103 -49.291 -26.126  1.00  0.00     0.047 A 
BRANCH  10  12
ATOM     12  O   UNL     1      13.512 -47.459 -24.710  1.00  0.00    -0.410 OA
BRANCH  12  13
ATOM     13  C   UNL     1      12.382 -46.915 -24.111  1.00  0.00     0.412 C 
ATOM     14  N   UNL     1      12.668 -46.595 -22.814  1.00  0.00    -0.324 N 
ATOM     15  O   UNL     1      11.295 -46.747 -24.652  1.00  0.00    -0.224 OA
ATOM     16  C   UNL     1      11.738 -45.890 -21.973  1.00  0.00     0.146 C 
ATOM     17  H   UNL     1      13.637 -46.670 -22.534  1.00  0.00     0.166 HD
ENDBRANCH  12  13
ENDBRANCH  10  12
ENDBRANCH   5   6
ENDBRANCH   2   5
ENDBRANCH   1   2
BRANCH   1  18
ATOM     18  C   UNL     1      10.208 -53.471 -21.689  1.00  0.00     0.103 C 
BRANCH  18  19
ATOM     19  C   UNL     1      10.707 -54.918 -21.736  1.00  0.00     0.235 C 
BRANCH  19  20
ATOM     20  O   UNL     1       9.813 -55.767 -22.451  1.00  0.00    -0.493 OA
BRANCH  20  21
ATOM     21  C   UNL     1      10.213 -57.037 -22.759  1.00  0.00     0.119 A 
ATOM     22  C   UNL     1       9.175 -57.886 -23.156  1.00  0.00     0.047 A 
ATOM     23  C   UNL     1      11.513 -57.539 -22.680  1.00  0.00     0.047 A 
ATOM     24  C   UNL     1       9.425 -59.226 -23.454  1.00  0.00     0.016 A 
ATOM     25  C   UNL     1      11.771 -58.882 -22.984  1.00  0.00     0.016 A 
ATOM     26  C   UNL     1      10.728 -59.725 -23.378  1.00  0.00     0.023 A 
BRANCH  26  27
ATOM     27  C   UNL     1      10.949 -61.164 -23.657  1.00  0.00     0.193 C 
ATOM     28  O   UNL     1      12.099 -61.548 -23.854  1.00  0.00    -0.289 OA
BRANCH  27  29
ATOM     29  C   UNL     1       9.823 -62.130 -23.717  1.00  0.00     0.022 A 
ATOM     30  C   UNL     1       9.104 -62.241 -24.913  1.00  0.00     0.012 A 
ATOM     31  C   UNL     1       9.498 -62.952 -22.631  1.00  0.00     0.012 A 
ATOM     32  C   UNL     1       8.044 -63.143 -25.011  1.00  0.00     0.001 A 
ATOM     33  C   UNL     1       8.436 -63.854 -22.734  1.00  0.00     0.001 A 
ATOM     34  C   UNL     1       7.709 -63.946 -23.920  1.00  0.00     0.000 A 
ENDBRANCH  27  29
ENDBRANCH  26  27
ENDBRANCH  20  21
ENDBRANCH  19  20
ENDBRANCH  18  19
ENDBRANCH   1  18
TORSDOF 11
ENDMDL
