MODEL 1
REMARK VINA RESULT:   -11.845      0.000      0.000
REMARK INTER + INTRA:         -16.188
REMARK INTER:                 -16.000
REMARK INTRA:                  -0.188
REMARK UNBOUND:                -0.188
REMARK SMILES COc1cc2c(cc1OC)C(=O)/C(=C/c1cc[n+](Cc3ccc(F)cc3)cc1)OC2
REMARK SMILES IDX 15 1 16 2 17 3 18 4 27 5 28 6 14 7 13 8 3 9 4 10 8 11 5 12
REMARK SMILES IDX 7 13 6 14 30 15 11 16 29 17 12 18 2 19 1 20 9 21 10 22 19 23
REMARK SMILES IDX 20 24 21 25 26 26 22 27 25 28 23 29 24 30
REMARK H PARENT
ROOT
ATOM      1  C   UNL     1      10.310 -57.717 -22.748  1.00  0.00    -0.010 A 
ATOM      2  C   UNL     1      11.492 -58.359 -22.386  1.00  0.00     0.079 A 
ATOM      3  C   UNL     1      11.647 -59.718 -22.639  1.00  0.00     0.309 A 
ATOM      4  N   UNL     1      10.653 -60.430 -23.218  1.00  0.00    -0.201 N 
ATOM      5  C   UNL     1       9.493 -59.829 -23.566  1.00  0.00     0.309 A 
ATOM      6  C   UNL     1       9.296 -58.473 -23.333  1.00  0.00     0.079 A 
ENDROOT
BRANCH   1   7
ATOM      7  C   UNL     1      10.160 -56.288 -22.450  1.00  0.00     0.059 C 
BRANCH   7   8
ATOM      8  C   UNL     1      10.825 -55.279 -23.044  1.00  0.00     0.168 C 
ATOM      9  C   UNL     1      12.951 -50.821 -24.281  1.00  0.00     0.161 A 
ATOM     10  C   UNL     1      12.870 -52.086 -24.879  1.00  0.00     0.058 A 
ATOM     11  C   UNL     1      12.227 -50.556 -23.098  1.00  0.00     0.161 A 
ATOM     12  C   UNL     1      12.091 -53.096 -24.298  1.00  0.00     0.005 A 
ATOM     13  C   UNL     1      11.442 -51.560 -22.528  1.00  0.00     0.063 A 
ATOM     14  C   UNL     1      11.383 -52.822 -23.127  1.00  0.00     0.036 A 
ATOM     15  C   UNL     1      11.921 -54.434 -24.954  1.00  0.00     0.266 C 
ATOM     16  C   UNL     1      10.559 -53.892 -22.530  1.00  0.00     0.228 C 
ATOM     17  O   UNL     1      11.787 -55.506 -24.013  1.00  0.00    -0.485 OA
ATOM     18  O   UNL     1       9.736 -53.651 -21.657  1.00  0.00    -0.285 OA
BRANCH   9  19
ATOM     19  O   UNL     1      13.692 -49.779 -24.776  1.00  0.00    -0.493 OA
ATOM     20  C   UNL     1      14.114 -49.837 -26.130  1.00  0.00     0.278 C 
ENDBRANCH   9  19
BRANCH  11  21
ATOM     21  O   UNL     1      12.358 -49.290 -22.585  1.00  0.00    -0.493 OA
ATOM     22  C   UNL     1      11.276 -48.387 -22.759  1.00  0.00     0.278 C 
ENDBRANCH  11  21
ENDBRANCH   7   8
ENDBRANCH   1   7
BRANCH   4  23
ATOM     23  C   UNL     1      10.850 -61.877 -23.487  1.00  0.00     0.393 C 
BRANCH  23  24
ATOM     24  C   UNL     1       9.604 -62.500 -24.066  1.00  0.00     0.017 A 
ATOM     25  C   UNL     1       8.804 -63.347 -23.279  1.00  0.00     0.013 A 
ATOM     26  C   UNL     1       9.228 -62.253 -25.398  1.00  0.00     0.013 A 
ATOM     27  C   UNL     1       7.647 -63.921 -23.810  1.00  0.00     0.040 A 
ATOM     28  C   UNL     1       8.069 -62.830 -25.924  1.00  0.00     0.040 A 
ATOM     29  C   UNL     1       7.289 -63.656 -25.125  1.00  0.00     0.123 A 
ATOM     30  F   UNL     1       6.179 -64.207 -25.631  1.00  0.00    -0.207 F 
ENDBRANCH  23  24
ENDBRANCH   4  23
TORSDOF 6
ENDMDL
MODEL 2
REMARK VINA RESULT:   -10.736      2.734      4.598
REMARK INTER + INTRA:         -14.690
REMARK INTER:                 -14.160
REMARK INTRA:                  -0.530
REMARK UNBOUND:                -0.188
REMARK SMILES COc1cc2c(cc1OC)C(=O)/C(=C/c1cc[n+](Cc3ccc(F)cc3)cc1)OC2
REMARK SMILES IDX 15 1 16 2 17 3 18 4 27 5 28 6 14 7 13 8 3 9 4 10 8 11 5 12
REMARK SMILES IDX 7 13 6 14 30 15 11 16 29 17 12 18 2 19 1 20 9 21 10 22 19 23
REMARK SMILES IDX 20 24 21 25 26 26 22 27 25 28 23 29 24 30
REMARK H PARENT
ROOT
ATOM      1  C   UNL     1      10.879 -53.323 -22.040  1.00  0.00    -0.010 A 
ATOM      2  C   UNL     1      11.074 -53.684 -23.372  1.00  0.00     0.079 A 
ATOM      3  C   UNL     1      11.217 -55.025 -23.712  1.00  0.00     0.309 A 
ATOM      4  N   UNL     1      11.186 -55.985 -22.759  1.00  0.00    -0.201 N 
ATOM      5  C   UNL     1      11.010 -55.656 -21.460  1.00  0.00     0.309 A 
ATOM      6  C   UNL     1      10.862 -54.329 -21.076  1.00  0.00     0.079 A 
ENDROOT
BRANCH   1   7
ATOM      7  C   UNL     1      10.754 -51.900 -21.703  1.00  0.00     0.059 C 
BRANCH   7   8
ATOM      8  C   UNL     1      11.296 -50.873 -22.384  1.00  0.00     0.168 C 
ATOM      9  C   UNL     1      12.439 -46.330 -24.378  1.00  0.00     0.161 A 
ATOM     10  C   UNL     1      12.940 -47.632 -24.514  1.00  0.00     0.058 A 
ATOM     11  C   UNL     1      11.274 -46.102 -23.614  1.00  0.00     0.161 A 
ATOM     12  C   UNL     1      12.303 -48.706 -23.878  1.00  0.00     0.005 A 
ATOM     13  C   UNL     1      10.634 -47.175 -22.990  1.00  0.00     0.063 A 
ATOM     14  C   UNL     1      11.154 -48.467 -23.123  1.00  0.00     0.036 A 
ATOM     15  C   UNL     1      12.767 -50.119 -24.067  1.00  0.00     0.266 C 
ATOM     16  C   UNL     1      10.488 -49.608 -22.464  1.00  0.00     0.228 C 
ATOM     17  O   UNL     1      12.579 -50.931 -22.900  1.00  0.00    -0.485 OA
ATOM     18  O   UNL     1       9.361 -49.506 -21.998  1.00  0.00    -0.285 OA
BRANCH   9  19
ATOM     19  O   UNL     1      13.001 -45.221 -24.959  1.00  0.00    -0.493 OA
ATOM     20  C   UNL     1      13.775 -45.399 -26.136  1.00  0.00     0.278 C 
ENDBRANCH   9  19
BRANCH  11  21
ATOM     21  O   UNL     1      10.850 -44.799 -23.540  1.00  0.00    -0.493 OA
ATOM     22  C   UNL     1      11.186 -44.056 -22.376  1.00  0.00     0.278 C 
ENDBRANCH  11  21
ENDBRANCH   7   8
ENDBRANCH   1   7
BRANCH   4  23
ATOM     23  C   UNL     1      11.330 -57.410 -23.152  1.00  0.00     0.393 C 
BRANCH  23  24
ATOM     24  C   UNL     1      10.013 -58.140 -23.055  1.00  0.00     0.017 A 
ATOM     25  C   UNL     1       9.961 -59.439 -22.522  1.00  0.00     0.013 A 
ATOM     26  C   UNL     1       8.823 -57.540 -23.501  1.00  0.00     0.013 A 
ATOM     27  C   UNL     1       8.743 -60.116 -22.424  1.00  0.00     0.040 A 
ATOM     28  C   UNL     1       7.607 -58.221 -23.402  1.00  0.00     0.040 A 
ATOM     29  C   UNL     1       7.578 -59.501 -22.863  1.00  0.00     0.123 A 
ATOM     30  F   UNL     1       6.413 -60.151 -22.768  1.00  0.00    -0.207 F 
ENDBRANCH  23  24
ENDBRANCH   4  23
TORSDOF 6
ENDMDL
MODEL 3
REMARK VINA RESULT:   -10.727      4.513     10.389
REMARK INTER + INTRA:         -14.678
REMARK INTER:                 -14.210
REMARK INTRA:                  -0.468
REMARK UNBOUND:                -0.188
REMARK SMILES COc1cc2c(cc1OC)C(=O)/C(=C/c1cc[n+](Cc3ccc(F)cc3)cc1)OC2
REMARK SMILES IDX 15 1 16 2 17 3 18 4 27 5 28 6 14 7 13 8 3 9 4 10 8 11 5 12
REMARK SMILES IDX 7 13 6 14 30 15 11 16 29 17 12 18 2 19 1 20 9 21 10 22 19 23
REMARK SMILES IDX 20 24 21 25 26 26 22 27 25 28 23 29 24 30
REMARK H PARENT
ROOT
ATOM      1  C   UNL     1      10.919 -55.941 -22.292  1.00  0.00    -0.010 A 
ATOM      2  C   UNL     1      11.060 -55.214 -21.112  1.00  0.00     0.079 A 
ATOM      3  C   UNL     1      10.629 -53.893 -21.058  1.00  0.00     0.309 A 
ATOM      4  N   UNL     1      10.088 -53.298 -22.147  1.00  0.00    -0.201 N 
ATOM      5  C   UNL     1       9.952 -53.982 -23.305  1.00  0.00     0.309 A 
ATOM      6  C   UNL     1      10.370 -55.304 -23.403  1.00  0.00     0.079 A 
ENDROOT
BRANCH   1   7
ATOM      7  C   UNL     1      11.403 -57.326 -22.333  1.00  0.00     0.059 C 
BRANCH   7   8
ATOM      8  C   UNL     1      11.177 -58.218 -23.315  1.00  0.00     0.168 C 
ATOM      9  C   UNL     1       9.303 -61.861 -26.338  1.00  0.00     0.161 A 
ATOM     10  C   UNL     1      10.439 -61.041 -26.353  1.00  0.00     0.058 A 
ATOM     11  C   UNL     1       8.441 -61.846 -25.219  1.00  0.00     0.161 A 
ATOM     12  C   UNL     1      10.713 -60.190 -25.274  1.00  0.00     0.005 A 
ATOM     13  C   UNL     1       8.723 -61.006 -24.140  1.00  0.00     0.063 A 
ATOM     14  C   UNL     1       9.852 -60.182 -24.176  1.00  0.00     0.036 A 
ATOM     15  C   UNL     1      11.961 -59.359 -25.225  1.00  0.00     0.266 C 
ATOM     16  C   UNL     1      10.157 -59.287 -23.042  1.00  0.00     0.228 C 
ATOM     17  O   UNL     1      11.771 -58.103 -24.560  1.00  0.00    -0.485 OA
ATOM     18  O   UNL     1       9.589 -59.407 -21.965  1.00  0.00    -0.285 OA
BRANCH   9  19
ATOM     19  O   UNL     1       8.954 -62.718 -27.351  1.00  0.00    -0.493 OA
ATOM     20  C   UNL     1       8.853 -62.195 -28.667  1.00  0.00     0.278 C 
ENDBRANCH   9  19
BRANCH  11  21
ATOM     21  O   UNL     1       7.357 -62.685 -25.286  1.00  0.00    -0.493 OA
ATOM     22  C   UNL     1       7.294 -63.763 -24.362  1.00  0.00     0.278 C 
ENDBRANCH  11  21
ENDBRANCH   7   8
ENDBRANCH   1   7
BRANCH   4  23
ATOM     23  C   UNL     1       9.625 -51.890 -22.057  1.00  0.00     0.393 C 
BRANCH  23  24
ATOM     24  C   UNL     1      10.701 -50.931 -22.504  1.00  0.00     0.017 A 
ATOM     25  C   UNL     1      11.946 -51.417 -22.938  1.00  0.00     0.013 A 
ATOM     26  C   UNL     1      10.480 -49.543 -22.489  1.00  0.00     0.013 A 
ATOM     27  C   UNL     1      12.942 -50.533 -23.359  1.00  0.00     0.040 A 
ATOM     28  C   UNL     1      11.480 -48.663 -22.911  1.00  0.00     0.040 A 
ATOM     29  C   UNL     1      12.700 -49.166 -23.343  1.00  0.00     0.123 A 
ATOM     30  F   UNL     1      13.655 -48.321 -23.749  1.00  0.00    -0.207 F 
ENDBRANCH  23  24
ENDBRANCH   4  23
TORSDOF 6
ENDMDL
MODEL 4
REMARK VINA RESULT:   -10.683      1.109      2.478
REMARK INTER + INTRA:         -14.619
REMARK INTER:                 -14.714
REMARK INTRA:                   0.095
REMARK UNBOUND:                -0.188
REMARK SMILES COc1cc2c(cc1OC)C(=O)/C(=C/c1cc[n+](Cc3ccc(F)cc3)cc1)OC2
REMARK SMILES IDX 15 1 16 2 17 3 18 4 27 5 28 6 14 7 13 8 3 9 4 10 8 11 5 12
REMARK SMILES IDX 7 13 6 14 30 15 11 16 29 17 12 18 2 19 1 20 9 21 10 22 19 23
REMARK SMILES IDX 20 24 21 25 26 26 22 27 25 28 23 29 24 30
REMARK H PARENT
ROOT
ATOM      1  C   UNL     1      10.011 -56.843 -22.772  1.00  0.00    -0.010 A 
ATOM      2  C   UNL     1       9.336 -57.744 -23.592  1.00  0.00     0.079 A 
ATOM      3  C   UNL     1       9.869 -59.009 -23.817  1.00  0.00     0.309 A 
ATOM      4  N   UNL     1      11.048 -59.370 -23.259  1.00  0.00    -0.201 N 
ATOM      5  C   UNL     1      11.726 -58.507 -22.470  1.00  0.00     0.309 A 
ATOM      6  C   UNL     1      11.229 -57.233 -22.219  1.00  0.00     0.079 A 
ENDROOT
BRANCH   1   7
ATOM      7  C   UNL     1       9.441 -55.506 -22.569  1.00  0.00     0.059 C 
BRANCH   7   8
ATOM      8  C   UNL     1      10.132 -54.354 -22.482  1.00  0.00     0.168 C 
ATOM      9  C   UNL     1      13.032 -50.260 -23.348  1.00  0.00     0.161 A 
ATOM     10  C   UNL     1      12.327 -50.766 -22.249  1.00  0.00     0.058 A 
ATOM     11  C   UNL     1      13.127 -51.022 -24.534  1.00  0.00     0.161 A 
ATOM     12  C   UNL     1      11.698 -52.016 -22.324  1.00  0.00     0.005 A 
ATOM     13  C   UNL     1      12.508 -52.273 -24.603  1.00  0.00     0.063 A 
ATOM     14  C   UNL     1      11.796 -52.758 -23.502  1.00  0.00     0.036 A 
ATOM     15  C   UNL     1      11.003 -52.620 -21.140  1.00  0.00     0.266 C 
ATOM     16  C   UNL     1      11.135 -54.077 -23.566  1.00  0.00     0.228 C 
ATOM     17  O   UNL     1       9.865 -53.412 -21.503  1.00  0.00    -0.485 OA
ATOM     18  O   UNL     1      11.381 -54.871 -24.465  1.00  0.00    -0.285 OA
BRANCH   9  19
ATOM     19  O   UNL     1      13.672 -49.047 -23.365  1.00  0.00    -0.493 OA
ATOM     20  C   UNL     1      12.904 -47.887 -23.649  1.00  0.00     0.278 C 
ENDBRANCH   9  19
BRANCH  11  21
ATOM     21  O   UNL     1      13.841 -50.453 -25.558  1.00  0.00    -0.493 OA
ATOM     22  C   UNL     1      14.974 -51.156 -26.048  1.00  0.00     0.278 C 
ENDBRANCH  11  21
ENDBRANCH   7   8
ENDBRANCH   1   7
BRANCH   4  23
ATOM     23  C   UNL     1      11.588 -60.731 -23.506  1.00  0.00     0.393 C 
BRANCH  23  24
ATOM     24  C   UNL     1      10.484 -61.760 -23.539  1.00  0.00     0.017 A 
ATOM     25  C   UNL     1      10.184 -62.513 -22.391  1.00  0.00     0.013 A 
ATOM     26  C   UNL     1       9.746 -61.987 -24.714  1.00  0.00     0.013 A 
ATOM     27  C   UNL     1       9.159 -63.461 -22.415  1.00  0.00     0.040 A 
ATOM     28  C   UNL     1       8.721 -62.937 -24.732  1.00  0.00     0.040 A 
ATOM     29  C   UNL     1       8.437 -63.663 -23.583  1.00  0.00     0.123 A 
ATOM     30  F   UNL     1       7.455 -64.572 -23.604  1.00  0.00    -0.207 F 
ENDBRANCH  23  24
ENDBRANCH   4  23
TORSDOF 6
ENDMDL
MODEL 5
REMARK VINA RESULT:   -10.228      4.418     10.352
REMARK INTER + INTRA:         -14.003
REMARK INTER:                 -13.842
REMARK INTRA:                  -0.161
REMARK UNBOUND:                -0.188
REMARK SMILES COc1cc2c(cc1OC)C(=O)/C(=C/c1cc[n+](Cc3ccc(F)cc3)cc1)OC2
REMARK SMILES IDX 15 1 16 2 17 3 18 4 27 5 28 6 14 7 13 8 3 9 4 10 8 11 5 12
REMARK SMILES IDX 7 13 6 14 30 15 11 16 29 17 12 18 2 19 1 20 9 21 10 22 19 23
REMARK SMILES IDX 20 24 21 25 26 26 22 27 25 28 23 29 24 30
REMARK H PARENT
ROOT
ATOM      1  C   UNL     1      11.091 -55.822 -22.574  1.00  0.00    -0.010 A 
ATOM      2  C   UNL     1      11.478 -55.344 -23.824  1.00  0.00     0.079 A 
ATOM      3  C   UNL     1      11.640 -53.978 -24.023  1.00  0.00     0.309 A 
ATOM      4  N   UNL     1      11.407 -53.102 -23.017  1.00  0.00    -0.201 N 
ATOM      5  C   UNL     1      11.019 -53.543 -21.800  1.00  0.00     0.309 A 
ATOM      6  C   UNL     1      10.846 -54.901 -21.558  1.00  0.00     0.079 A 
ENDROOT
BRANCH   1   7
ATOM      7  C   UNL     1      10.904 -57.267 -22.394  1.00  0.00     0.059 C 
BRANCH   7   8
ATOM      8  C   UNL     1      10.798 -58.181 -23.376  1.00  0.00     0.168 C 
ATOM      9  C   UNL     1       9.337 -61.941 -26.483  1.00  0.00     0.161 A 
ATOM     10  C   UNL     1      10.437 -61.075 -26.416  1.00  0.00     0.058 A 
ATOM     11  C   UNL     1       8.381 -61.944 -25.444  1.00  0.00     0.161 A 
ATOM     12  C   UNL     1      10.583 -60.199 -25.332  1.00  0.00     0.005 A 
ATOM     13  C   UNL     1       8.535 -61.078 -24.359  1.00  0.00     0.063 A 
ATOM     14  C   UNL     1       9.630 -60.210 -24.313  1.00  0.00     0.036 A 
ATOM     15  C   UNL     1      11.788 -59.317 -25.191  1.00  0.00     0.266 C 
ATOM     16  C   UNL     1       9.801 -59.287 -23.174  1.00  0.00     0.228 C 
ATOM     17  O   UNL     1      11.493 -58.061 -24.567  1.00  0.00    -0.485 OA
ATOM     18  O   UNL     1       9.146 -59.414 -22.147  1.00  0.00    -0.285 OA
BRANCH   9  19
ATOM     19  O   UNL     1       9.111 -62.825 -27.507  1.00  0.00    -0.493 OA
ATOM     20  C   UNL     1       8.761 -62.304 -28.780  1.00  0.00     0.278 C 
ENDBRANCH   9  19
BRANCH  11  21
ATOM     21  O   UNL     1       7.340 -62.827 -25.588  1.00  0.00    -0.493 OA
ATOM     22  C   UNL     1       7.285 -63.939 -24.706  1.00  0.00     0.278 C 
ENDBRANCH  11  21
ENDBRANCH   7   8
ENDBRANCH   1   7
BRANCH   4  23
ATOM     23  C   UNL     1      11.599 -51.649 -23.255  1.00  0.00     0.393 C 
BRANCH  23  24
ATOM     24  C   UNL     1      12.932 -51.371 -23.906  1.00  0.00     0.017 A 
ATOM     25  C   UNL     1      14.099 -51.297 -23.126  1.00  0.00     0.013 A 
ATOM     26  C   UNL     1      13.028 -51.176 -25.295  1.00  0.00     0.013 A 
ATOM     27  C   UNL     1      15.335 -51.047 -23.726  1.00  0.00     0.040 A 
ATOM     28  C   UNL     1      14.267 -50.927 -25.889  1.00  0.00     0.040 A 
ATOM     29  C   UNL     1      15.409 -50.866 -25.101  1.00  0.00     0.123 A 
ATOM     30  F   UNL     1      16.594 -50.628 -25.673  1.00  0.00    -0.207 F 
ENDBRANCH  23  24
ENDBRANCH   4  23
TORSDOF 6
ENDMDL
MODEL 6
REMARK VINA RESULT:    -9.985      2.804      3.589
REMARK INTER + INTRA:         -13.675
REMARK INTER:                 -13.029
REMARK INTRA:                  -0.647
REMARK UNBOUND:                -0.188
REMARK SMILES COc1cc2c(cc1OC)C(=O)/C(=C/c1cc[n+](Cc3ccc(F)cc3)cc1)OC2
REMARK SMILES IDX 15 1 16 2 17 3 18 4 27 5 28 6 14 7 13 8 3 9 4 10 8 11 5 12
REMARK SMILES IDX 7 13 6 14 30 15 11 16 29 17 12 18 2 19 1 20 9 21 10 22 19 23
REMARK SMILES IDX 20 24 21 25 26 26 22 27 25 28 23 29 24 30
REMARK H PARENT
ROOT
ATOM      1  C   UNL     1      10.188 -55.536 -22.280  1.00  0.00    -0.010 A 
ATOM      2  C   UNL     1       9.177 -56.148 -23.018  1.00  0.00     0.079 A 
ATOM      3  C   UNL     1       9.266 -57.501 -23.324  1.00  0.00     0.309 A 
ATOM      4  N   UNL     1      10.334 -58.230 -22.925  1.00  0.00    -0.201 N 
ATOM      5  C   UNL     1      11.332 -57.654 -22.218  1.00  0.00     0.309 A 
ATOM      6  C   UNL     1      11.283 -56.304 -21.891  1.00  0.00     0.079 A 
ENDROOT
BRANCH   1   7
ATOM      7  C   UNL     1      10.083 -54.101 -21.990  1.00  0.00     0.059 C 
BRANCH   7   8
ATOM      8  C   UNL     1      10.821 -53.123 -22.548  1.00  0.00     0.168 C 
ATOM      9  C   UNL     1      12.901 -48.685 -23.926  1.00  0.00     0.161 A 
ATOM     10  C   UNL     1      13.086 -50.026 -24.286  1.00  0.00     0.058 A 
ATOM     11  C   UNL     1      11.846 -48.330 -23.057  1.00  0.00     0.161 A 
ATOM     12  C   UNL     1      12.243 -51.021 -23.773  1.00  0.00     0.005 A 
ATOM     13  C   UNL     1      11.000 -49.322 -22.555  1.00  0.00     0.063 A 
ATOM     14  C   UNL     1      11.207 -50.659 -22.912  1.00  0.00     0.036 A 
ATOM     15  C   UNL     1      12.366 -52.454 -24.200  1.00  0.00     0.266 C 
ATOM     16  C   UNL     1      10.321 -51.715 -22.384  1.00  0.00     0.228 C 
ATOM     17  O   UNL     1      12.038 -53.379 -23.156  1.00  0.00    -0.485 OA
ATOM     18  O   UNL     1       9.264 -51.443 -21.830  1.00  0.00    -0.285 OA
BRANCH   9  19
ATOM     19  O   UNL     1      13.680 -47.649 -24.375  1.00  0.00    -0.493 OA
ATOM     20  C   UNL     1      14.174 -47.708 -25.705  1.00  0.00     0.278 C 
ENDBRANCH   9  19
BRANCH  11  21
ATOM     21  O   UNL     1      11.734 -46.995 -22.762  1.00  0.00    -0.493 OA
ATOM     22  C   UNL     1      12.237 -46.546 -21.512  1.00  0.00     0.278 C 
ENDBRANCH  11  21
ENDBRANCH   7   8
ENDBRANCH   1   7
BRANCH   4  23
ATOM     23  C   UNL     1      10.397 -59.676 -23.256  1.00  0.00     0.393 C 
BRANCH  23  24
ATOM     24  C   UNL     1      11.340 -59.935 -24.406  1.00  0.00     0.017 A 
ATOM     25  C   UNL     1      10.911 -59.741 -25.730  1.00  0.00     0.013 A 
ATOM     26  C   UNL     1      12.654 -60.377 -24.174  1.00  0.00     0.013 A 
ATOM     27  C   UNL     1      11.782 -59.973 -26.797  1.00  0.00     0.040 A 
ATOM     28  C   UNL     1      13.521 -60.607 -25.245  1.00  0.00     0.040 A 
ATOM     29  C   UNL     1      13.079 -60.401 -26.545  1.00  0.00     0.123 A 
ATOM     30  F   UNL     1      13.912 -60.621 -27.568  1.00  0.00    -0.207 F 
ENDBRANCH  23  24
ENDBRANCH   4  23
TORSDOF 6
ENDMDL
MODEL 7
REMARK VINA RESULT:    -9.981      1.606      3.156
REMARK INTER + INTRA:         -13.670
REMARK INTER:                 -13.158
REMARK INTRA:                  -0.512
REMARK UNBOUND:                -0.188
REMARK SMILES COc1cc2c(cc1OC)C(=O)/C(=C/c1cc[n+](Cc3ccc(F)cc3)cc1)OC2
REMARK SMILES IDX 15 1 16 2 17 3 18 4 27 5 28 6 14 7 13 8 3 9 4 10 8 11 5 12
REMARK SMILES IDX 7 13 6 14 30 15 11 16 29 17 12 18 2 19 1 20 9 21 10 22 19 23
REMARK SMILES IDX 20 24 21 25 26 26 22 27 25 28 23 29 24 30
REMARK H PARENT
ROOT
ATOM      1  C   UNL     1      11.641 -55.994 -23.828  1.00  0.00    -0.010 A 
ATOM      2  C   UNL     1      11.999 -57.198 -24.432  1.00  0.00     0.079 A 
ATOM      3  C   UNL     1      11.841 -58.394 -23.739  1.00  0.00     0.309 A 
ATOM      4  N   UNL     1      11.358 -58.400 -22.475  1.00  0.00    -0.201 N 
ATOM      5  C   UNL     1      11.016 -57.243 -21.866  1.00  0.00     0.309 A 
ATOM      6  C   UNL     1      11.158 -56.025 -22.522  1.00  0.00     0.079 A 
ENDROOT
BRANCH   1   7
ATOM      7  C   UNL     1      11.840 -54.744 -24.569  1.00  0.00     0.059 C 
BRANCH   7   8
ATOM      8  C   UNL     1      11.780 -53.500 -24.059  1.00  0.00     0.168 C 
ATOM      9  C   UNL     1      12.255 -48.515 -23.134  1.00  0.00     0.161 A 
ATOM     10  C   UNL     1      11.641 -49.595 -22.484  1.00  0.00     0.058 A 
ATOM     11  C   UNL     1      13.052 -48.744 -24.277  1.00  0.00     0.161 A 
ATOM     12  C   UNL     1      11.798 -50.899 -22.974  1.00  0.00     0.005 A 
ATOM     13  C   UNL     1      13.216 -50.046 -24.756  1.00  0.00     0.063 A 
ATOM     14  C   UNL     1      12.586 -51.112 -24.106  1.00  0.00     0.036 A 
ATOM     15  C   UNL     1      11.220 -52.083 -22.257  1.00  0.00     0.266 C 
ATOM     16  C   UNL     1      12.749 -52.490 -24.607  1.00  0.00     0.228 C 
ATOM     17  O   UNL     1      10.807 -53.128 -23.147  1.00  0.00    -0.485 OA
ATOM     18  O   UNL     1      13.607 -52.771 -25.434  1.00  0.00    -0.285 OA
BRANCH   9  19
ATOM     19  O   UNL     1      12.151 -47.209 -22.729  1.00  0.00    -0.493 OA
ATOM     20  C   UNL     1      12.847 -46.812 -21.557  1.00  0.00     0.278 C 
ENDBRANCH   9  19
BRANCH  11  21
ATOM     21  O   UNL     1      13.619 -47.632 -24.846  1.00  0.00    -0.493 OA
ATOM     22  C   UNL     1      15.024 -47.637 -25.057  1.00  0.00     0.278 C 
ENDBRANCH  11  21
ENDBRANCH   7   8
ENDBRANCH   1   7
BRANCH   4  23
ATOM     23  C   UNL     1      11.189 -59.692 -21.763  1.00  0.00     0.393 C 
BRANCH  23  24
ATOM     24  C   UNL     1      10.218 -60.593 -22.488  1.00  0.00     0.017 A 
ATOM     25  C   UNL     1      10.663 -61.796 -23.063  1.00  0.00     0.013 A 
ATOM     26  C   UNL     1       8.862 -60.243 -22.606  1.00  0.00     0.013 A 
ATOM     27  C   UNL     1       9.768 -62.635 -23.729  1.00  0.00     0.040 A 
ATOM     28  C   UNL     1       7.970 -61.087 -23.273  1.00  0.00     0.040 A 
ATOM     29  C   UNL     1       8.430 -62.274 -23.826  1.00  0.00     0.123 A 
ATOM     30  F   UNL     1       7.574 -63.081 -24.464  1.00  0.00    -0.207 F 
ENDBRANCH  23  24
ENDBRANCH   4  23
TORSDOF 6
ENDMDL
MODEL 8
REMARK VINA RESULT:    -9.641      4.250      6.931
REMARK INTER + INTRA:         -13.211
REMARK INTER:                 -12.539
REMARK INTRA:                  -0.672
REMARK UNBOUND:                -0.188
REMARK SMILES COc1cc2c(cc1OC)C(=O)/C(=C/c1cc[n+](Cc3ccc(F)cc3)cc1)OC2
REMARK SMILES IDX 15 1 16 2 17 3 18 4 27 5 28 6 14 7 13 8 3 9 4 10 8 11 5 12
REMARK SMILES IDX 7 13 6 14 30 15 11 16 29 17 12 18 2 19 1 20 9 21 10 22 19 23
REMARK SMILES IDX 20 24 21 25 26 26 22 27 25 28 23 29 24 30
REMARK H PARENT
ROOT
ATOM      1  C   UNL     1      12.646 -52.705 -24.622  1.00  0.00    -0.010 A 
ATOM      2  C   UNL     1      12.277 -53.984 -25.035  1.00  0.00     0.079 A 
ATOM      3  C   UNL     1      11.362 -54.716 -24.287  1.00  0.00     0.309 A 
ATOM      4  N   UNL     1      10.835 -54.206 -23.150  1.00  0.00    -0.201 N 
ATOM      5  C   UNL     1      11.188 -52.972 -22.724  1.00  0.00     0.309 A 
ATOM      6  C   UNL     1      12.100 -52.207 -23.442  1.00  0.00     0.079 A 
ENDROOT
BRANCH   1   7
ATOM      7  C   UNL     1      13.632 -51.961 -25.415  1.00  0.00     0.059 C 
BRANCH   7   8
ATOM      8  C   UNL     1      14.835 -51.535 -24.988  1.00  0.00     0.168 C 
ATOM      9  C   UNL     1      19.807 -50.735 -24.237  1.00  0.00     0.161 A 
ATOM     10  C   UNL     1      18.623 -50.250 -23.667  1.00  0.00     0.058 A 
ATOM     11  C   UNL     1      19.752 -51.776 -25.190  1.00  0.00     0.161 A 
ATOM     12  C   UNL     1      17.383 -50.778 -24.051  1.00  0.00     0.005 A 
ATOM     13  C   UNL     1      18.516 -52.308 -25.564  1.00  0.00     0.063 A 
ATOM     14  C   UNL     1      17.342 -51.803 -24.996  1.00  0.00     0.036 A 
ATOM     15  C   UNL     1      16.105 -50.335 -23.403  1.00  0.00     0.266 C 
ATOM     16  C   UNL     1      16.030 -52.355 -25.387  1.00  0.00     0.228 C 
ATOM     17  O   UNL     1      14.989 -50.342 -24.302  1.00  0.00    -0.485 OA
ATOM     18  O   UNL     1      15.939 -53.402 -26.016  1.00  0.00    -0.285 OA
BRANCH   9  19
ATOM     19  O   UNL     1      21.061 -50.275 -23.926  1.00  0.00    -0.493 OA
ATOM     20  C   UNL     1      21.464 -50.294 -22.564  1.00  0.00     0.278 C 
ENDBRANCH   9  19
BRANCH  11  21
ATOM     21  O   UNL     1      20.959 -52.195 -25.693  1.00  0.00    -0.493 OA
ATOM     22  C   UNL     1      21.379 -51.663 -26.941  1.00  0.00     0.278 C 
ENDBRANCH  11  21
ENDBRANCH   7   8
ENDBRANCH   1   7
BRANCH   4  23
ATOM     23  C   UNL     1       9.851 -55.005 -22.377  1.00  0.00     0.393 C 
BRANCH  23  24
ATOM     24  C   UNL     1      10.216 -56.469 -22.376  1.00  0.00     0.017 A 
ATOM     25  C   UNL     1       9.468 -57.385 -23.136  1.00  0.00     0.013 A 
ATOM     26  C   UNL     1      11.298 -56.942 -21.612  1.00  0.00     0.013 A 
ATOM     27  C   UNL     1       9.806 -58.741 -23.143  1.00  0.00     0.040 A 
ATOM     28  C   UNL     1      11.631 -58.298 -21.623  1.00  0.00     0.040 A 
ATOM     29  C   UNL     1      10.884 -59.184 -22.389  1.00  0.00     0.123 A 
ATOM     30  F   UNL     1      11.207 -60.483 -22.398  1.00  0.00    -0.207 F 
ENDBRANCH  23  24
ENDBRANCH   4  23
TORSDOF 6
ENDMDL
MODEL 9
REMARK VINA RESULT:    -9.525      4.438     10.630
REMARK INTER + INTRA:         -13.054
REMARK INTER:                 -12.925
REMARK INTRA:                  -0.130
REMARK UNBOUND:                -0.188
REMARK SMILES COc1cc2c(cc1OC)C(=O)/C(=C/c1cc[n+](Cc3ccc(F)cc3)cc1)OC2
REMARK SMILES IDX 15 1 16 2 17 3 18 4 27 5 28 6 14 7 13 8 3 9 4 10 8 11 5 12
REMARK SMILES IDX 7 13 6 14 30 15 11 16 29 17 12 18 2 19 1 20 9 21 10 22 19 23
REMARK SMILES IDX 20 24 21 25 26 26 22 27 25 28 23 29 24 30
REMARK H PARENT
ROOT
ATOM      1  C   UNL     1      11.108 -55.405 -22.289  1.00  0.00    -0.010 A 
ATOM      2  C   UNL     1      11.499 -55.040 -23.576  1.00  0.00     0.079 A 
ATOM      3  C   UNL     1      11.639 -53.696 -23.902  1.00  0.00     0.309 A 
ATOM      4  N   UNL     1      11.383 -52.733 -22.985  1.00  0.00    -0.201 N 
ATOM      5  C   UNL     1      10.991 -53.065 -21.734  1.00  0.00     0.309 A 
ATOM      6  C   UNL     1      10.839 -54.396 -21.366  1.00  0.00     0.079 A 
ENDROOT
BRANCH   1   7
ATOM      7  C   UNL     1      10.944 -56.829 -21.975  1.00  0.00     0.059 C 
BRANCH   7   8
ATOM      8  C   UNL     1      10.057 -57.669 -22.540  1.00  0.00     0.168 C 
ATOM      9  C   UNL     1       7.482 -61.725 -24.227  1.00  0.00     0.161 A 
ATOM     10  C   UNL     1       7.321 -60.336 -24.315  1.00  0.00     0.058 A 
ATOM     11  C   UNL     1       8.652 -62.261 -23.645  1.00  0.00     0.161 A 
ATOM     12  C   UNL     1       8.305 -59.475 -23.810  1.00  0.00     0.005 A 
ATOM     13  C   UNL     1       9.636 -61.401 -23.153  1.00  0.00     0.063 A 
ATOM     14  C   UNL     1       9.455 -60.017 -23.235  1.00  0.00     0.036 A 
ATOM     15  C   UNL     1       8.199 -57.986 -23.959  1.00  0.00     0.266 C 
ATOM     16  C   UNL     1      10.487 -59.099 -22.714  1.00  0.00     0.228 C 
ATOM     17  O   UNL     1       8.769 -57.271 -22.855  1.00  0.00    -0.485 OA
ATOM     18  O   UNL     1      11.607 -59.498 -22.423  1.00  0.00    -0.285 OA
BRANCH   9  19
ATOM     19  O   UNL     1       6.570 -62.640 -24.688  1.00  0.00    -0.493 OA
ATOM     20  C   UNL     1       6.982 -63.549 -25.698  1.00  0.00     0.278 C 
ENDBRANCH   9  19
BRANCH  11  21
ATOM     21  O   UNL     1       8.730 -63.631 -23.606  1.00  0.00    -0.493 OA
ATOM     22  C   UNL     1       8.471 -64.276 -22.367  1.00  0.00     0.278 C 
ENDBRANCH  11  21
ENDBRANCH   7   8
ENDBRANCH   1   7
BRANCH   4  23
ATOM     23  C   UNL     1      11.551 -51.306 -23.357  1.00  0.00     0.393 C 
BRANCH  23  24
ATOM     24  C   UNL     1      12.924 -51.048 -23.929  1.00  0.00     0.017 A 
ATOM     25  C   UNL     1      14.064 -51.169 -23.117  1.00  0.00     0.013 A 
ATOM     26  C   UNL     1      13.084 -50.678 -25.276  1.00  0.00     0.013 A 
ATOM     27  C   UNL     1      15.336 -50.938 -23.644  1.00  0.00     0.040 A 
ATOM     28  C   UNL     1      14.359 -50.448 -25.799  1.00  0.00     0.040 A 
ATOM     29  C   UNL     1      15.473 -50.581 -24.979  1.00  0.00     0.123 A 
ATOM     30  F   UNL     1      16.693 -50.362 -25.483  1.00  0.00    -0.207 F 
ENDBRANCH  23  24
ENDBRANCH   4  23
TORSDOF 6
ENDMDL
