MODEL 1
REMARK VINA RESULT:    -9.835      0.000      0.000
REMARK INTER + INTRA:         -10.123
REMARK INTER:                 -10.123
REMARK INTRA:                   0.000
REMARK UNBOUND:                 0.000
REMARK SMILES CC1=C[C@@H]2Cc3[nH]c4cc(Cl)ccc4c(=N)c3[C@H](C1)C2
REMARK SMILES IDX 7 1 6 2 17 3 15 4 14 5 13 6 12 7 10 8 11 9 9 10 8 11 18 12
REMARK SMILES IDX 19 13 2 14 1 15 3 16 4 17 5 18 20 19 16 21
REMARK H PARENT 7 20 16 22
ROOT
ATOM      1  N   UNL     1      10.963 -57.066 -21.985  1.00  0.00    -0.358 N 
ATOM      2  C   UNL     1      11.316 -58.205 -22.675  1.00  0.00     0.021 A 
ATOM      3  C   UNL     1      11.867 -58.183 -23.911  1.00  0.00     0.000 A 
ATOM      4  C   UNL     1      12.080 -56.846 -24.574  1.00  0.00     0.068 A 
ATOM      5  C   UNL     1      11.655 -55.632 -23.815  1.00  0.00     0.023 A 
ATOM      6  C   UNL     1      11.815 -54.355 -24.369  1.00  0.00     0.014 A 
ATOM      7  C   UNL     1      11.417 -53.228 -23.648  1.00  0.00     0.021 A 
ATOM      8  C   UNL     1      10.865 -53.384 -22.379  1.00  0.00     0.043 A 
ATOM      9  Cl  UNL     1      10.380 -51.995 -21.485  1.00  0.00    -0.084 Cl
ATOM     10  C   UNL     1      10.703 -54.653 -21.823  1.00  0.00     0.047 A 
ATOM     11  C   UNL     1      11.088 -55.791 -22.543  1.00  0.00     0.049 A 
ATOM     12  C   UNL     1      12.286 -59.451 -24.639  1.00  0.00     0.028 C 
ATOM     13  C   UNL     1      11.205 -59.888 -25.657  1.00  0.00     0.039 C 
ATOM     14  C   UNL     1      10.031 -60.613 -25.027  1.00  0.00    -0.076 C 
ATOM     15  C   UNL     1       8.851 -60.860 -25.921  1.00  0.00     0.039 C 
ATOM     16  C   UNL     1      10.049 -60.995 -23.735  1.00  0.00    -0.024 C 
ATOM     17  C   UNL     1      11.240 -60.773 -22.826  1.00  0.00     0.018 C 
ATOM     18  C   UNL     1      11.037 -59.519 -21.955  1.00  0.00     0.062 C 
ATOM     19  C   UNL     1      12.520 -60.598 -23.647  1.00  0.00     0.017 C 
ATOM     20  H   UNL     1      10.438 -57.170 -21.124  1.00  0.00     0.166 HD
ENDROOT
BRANCH   4  21
ATOM     21  N   UNL     1      12.595 -56.692 -25.754  1.00  0.00    -0.300 NA
ATOM     22  H   UNL     1      12.057 -57.166 -26.479  1.00  0.00     0.188 HD
ENDBRANCH   4  21
TORSDOF 1
ENDMDL
MODEL 2
REMARK VINA RESULT:    -9.291      1.548      2.030
REMARK INTER + INTRA:          -9.563
REMARK INTER:                  -9.563
REMARK INTRA:                   0.000
REMARK UNBOUND:                 0.000
REMARK SMILES CC1=C[C@@H]2Cc3[nH]c4cc(Cl)ccc4c(=N)c3[C@H](C1)C2
REMARK SMILES IDX 7 1 6 2 17 3 15 4 14 5 13 6 12 7 10 8 11 9 9 10 8 11 18 12
REMARK SMILES IDX 19 13 2 14 1 15 3 16 4 17 5 18 20 19 16 21
REMARK H PARENT 7 20 16 22
ROOT
ATOM      1  N   UNL     1       9.113 -58.247 -22.660  1.00  0.00    -0.358 N 
ATOM      2  C   UNL     1       9.541 -59.508 -23.013  1.00  0.00     0.021 A 
ATOM      3  C   UNL     1      10.713 -59.744 -23.648  1.00  0.00     0.000 A 
ATOM      4  C   UNL     1      11.579 -58.563 -24.008  1.00  0.00     0.068 A 
ATOM      5  C   UNL     1      11.071 -57.207 -23.643  1.00  0.00     0.023 A 
ATOM      6  C   UNL     1      11.817 -56.061 -23.951  1.00  0.00     0.014 A 
ATOM      7  C   UNL     1      11.332 -54.800 -23.602  1.00  0.00     0.021 A 
ATOM      8  C   UNL     1      10.109 -54.691 -22.945  1.00  0.00     0.043 A 
ATOM      9  Cl  UNL     1       9.513 -53.137 -22.506  1.00  0.00    -0.084 Cl
ATOM     10  C   UNL     1       9.362 -55.829 -22.636  1.00  0.00     0.047 A 
ATOM     11  C   UNL     1       9.834 -57.097 -22.993  1.00  0.00     0.049 A 
ATOM     12  C   UNL     1      11.186 -61.147 -23.993  1.00  0.00     0.028 C 
ATOM     13  C   UNL     1      10.875 -61.487 -25.471  1.00  0.00     0.039 C 
ATOM     14  C   UNL     1       9.432 -61.891 -25.713  1.00  0.00    -0.076 C 
ATOM     15  C   UNL     1       9.014 -62.013 -27.150  1.00  0.00     0.039 C 
ATOM     16  C   UNL     1       8.580 -62.110 -24.694  1.00  0.00    -0.024 C 
ATOM     17  C   UNL     1       8.993 -62.013 -23.239  1.00  0.00     0.018 C 
ATOM     18  C   UNL     1       8.596 -60.647 -22.648  1.00  0.00     0.062 C 
ATOM     19  C   UNL     1      10.506 -62.189 -23.094  1.00  0.00     0.017 C 
ATOM     20  H   UNL     1       8.168 -58.143 -22.307  1.00  0.00     0.166 HD
ENDROOT
BRANCH   4  21
ATOM     21  N   UNL     1      12.719 -58.655 -24.617  1.00  0.00    -0.300 NA
ATOM     22  H   UNL     1      12.811 -59.523 -25.145  1.00  0.00     0.188 HD
ENDBRANCH   4  21
TORSDOF 1
ENDMDL
MODEL 3
REMARK VINA RESULT:    -8.943      4.324      8.654
REMARK INTER + INTRA:          -9.204
REMARK INTER:                  -9.204
REMARK INTRA:                   0.000
REMARK UNBOUND:                 0.000
REMARK SMILES CC1=C[C@@H]2Cc3[nH]c4cc(Cl)ccc4c(=N)c3[C@H](C1)C2
REMARK SMILES IDX 7 1 6 2 17 3 15 4 14 5 13 6 12 7 10 8 11 9 9 10 8 11 18 12
REMARK SMILES IDX 19 13 2 14 1 15 3 16 4 17 5 18 20 19 16 21
REMARK H PARENT 7 20 16 22
ROOT
ATOM      1  N   UNL     1      12.500 -52.525 -24.518  1.00  0.00    -0.358 N 
ATOM      2  C   UNL     1      13.069 -51.301 -24.242  1.00  0.00     0.021 A 
ATOM      3  C   UNL     1      12.915 -50.661 -23.059  1.00  0.00     0.000 A 
ATOM      4  C   UNL     1      12.058 -51.310 -22.002  1.00  0.00     0.068 A 
ATOM      5  C   UNL     1      11.427 -52.620 -22.345  1.00  0.00     0.023 A 
ATOM      6  C   UNL     1      10.611 -53.280 -21.416  1.00  0.00     0.014 A 
ATOM      7  C   UNL     1      10.030 -54.505 -21.747  1.00  0.00     0.021 A 
ATOM      8  C   UNL     1      10.270 -55.064 -23.000  1.00  0.00     0.043 A 
ATOM      9  Cl  UNL     1       9.560 -56.578 -23.408  1.00  0.00    -0.084 Cl
ATOM     10  C   UNL     1      11.081 -54.410 -23.929  1.00  0.00     0.047 A 
ATOM     11  C   UNL     1      11.658 -53.174 -23.611  1.00  0.00     0.049 A 
ATOM     12  C   UNL     1      13.585 -49.328 -22.761  1.00  0.00     0.028 C 
ATOM     13  C   UNL     1      12.598 -48.154 -22.972  1.00  0.00     0.039 C 
ATOM     14  C   UNL     1      12.418 -47.762 -24.427  1.00  0.00    -0.076 C 
ATOM     15  C   UNL     1      11.313 -46.789 -24.716  1.00  0.00     0.039 C 
ATOM     16  C   UNL     1      13.200 -48.273 -25.397  1.00  0.00    -0.024 C 
ATOM     17  C   UNL     1      14.335 -49.238 -25.118  1.00  0.00     0.018 C 
ATOM     18  C   UNL     1      13.891 -50.691 -25.372  1.00  0.00     0.062 C 
ATOM     19  C   UNL     1      14.805 -49.115 -23.667  1.00  0.00     0.017 C 
ATOM     20  H   UNL     1      12.553 -52.875 -25.468  1.00  0.00     0.166 HD
ENDROOT
BRANCH   4  21
ATOM     21  N   UNL     1      11.831 -50.798 -20.833  1.00  0.00    -0.300 NA
ATOM     22  H   UNL     1      11.389 -49.881 -20.887  1.00  0.00     0.188 HD
ENDBRANCH   4  21
TORSDOF 1
ENDMDL
MODEL 4
REMARK VINA RESULT:    -8.342      1.797      2.789
REMARK INTER + INTRA:          -8.586
REMARK INTER:                  -8.586
REMARK INTRA:                   0.000
REMARK UNBOUND:                 0.000
REMARK SMILES CC1=C[C@@H]2Cc3[nH]c4cc(Cl)ccc4c(=N)c3[C@H](C1)C2
REMARK SMILES IDX 7 1 6 2 17 3 15 4 14 5 13 6 12 7 10 8 11 9 9 10 8 11 18 12
REMARK SMILES IDX 19 13 2 14 1 15 3 16 4 17 5 18 20 19 16 21
REMARK H PARENT 7 20 16 22
ROOT
ATOM      1  N   UNL     1       9.180 -56.816 -23.603  1.00  0.00    -0.358 N 
ATOM      2  C   UNL     1       9.506 -58.149 -23.476  1.00  0.00     0.021 A 
ATOM      3  C   UNL     1      10.344 -58.622 -22.525  1.00  0.00     0.000 A 
ATOM      4  C   UNL     1      10.972 -57.636 -21.573  1.00  0.00     0.068 A 
ATOM      5  C   UNL     1      10.626 -56.194 -21.757  1.00  0.00     0.023 A 
ATOM      6  C   UNL     1      11.176 -55.218 -20.915  1.00  0.00     0.014 A 
ATOM      7  C   UNL     1      10.843 -53.875 -21.096  1.00  0.00     0.021 A 
ATOM      8  C   UNL     1       9.963 -53.516 -22.113  1.00  0.00     0.043 A 
ATOM      9  Cl  UNL     1       9.544 -51.860 -22.333  1.00  0.00    -0.084 Cl
ATOM     10  C   UNL     1       9.412 -54.484 -22.955  1.00  0.00     0.047 A 
ATOM     11  C   UNL     1       9.750 -55.833 -22.789  1.00  0.00     0.049 A 
ATOM     12  C   UNL     1      10.659 -60.103 -22.378  1.00  0.00     0.028 C 
ATOM     13  C   UNL     1      12.007 -60.451 -23.053  1.00  0.00     0.039 C 
ATOM     14  C   UNL     1      11.916 -60.599 -24.560  1.00  0.00    -0.076 C 
ATOM     15  C   UNL     1      13.221 -60.711 -25.293  1.00  0.00     0.039 C 
ATOM     16  C   UNL     1      10.729 -60.611 -25.197  1.00  0.00    -0.024 C 
ATOM     17  C   UNL     1       9.402 -60.522 -24.470  1.00  0.00     0.018 C 
ATOM     18  C   UNL     1       8.860 -59.080 -24.497  1.00  0.00     0.062 C 
ATOM     19  C   UNL     1       9.555 -60.961 -23.011  1.00  0.00     0.017 C 
ATOM     20  H   UNL     1       8.653 -56.526 -24.418  1.00  0.00     0.166 HD
ENDROOT
BRANCH   4  21
ATOM     21  N   UNL     1      11.791 -57.961 -20.622  1.00  0.00    -0.300 NA
ATOM     22  H   UNL     1      12.705 -57.523 -20.728  1.00  0.00     0.188 HD
ENDBRANCH   4  21
TORSDOF 1
ENDMDL
MODEL 5
REMARK VINA RESULT:    -8.318      6.180     10.877
REMARK INTER + INTRA:          -8.561
REMARK INTER:                  -8.561
REMARK INTRA:                   0.000
REMARK UNBOUND:                 0.000
REMARK SMILES CC1=C[C@@H]2Cc3[nH]c4cc(Cl)ccc4c(=N)c3[C@H](C1)C2
REMARK SMILES IDX 7 1 6 2 17 3 15 4 14 5 13 6 12 7 10 8 11 9 9 10 8 11 18 12
REMARK SMILES IDX 19 13 2 14 1 15 3 16 4 17 5 18 20 19 16 21
REMARK H PARENT 7 20 16 22
ROOT
ATOM      1  N   UNL     1      10.393 -48.831 -22.236  1.00  0.00    -0.358 N 
ATOM      2  C   UNL     1      10.940 -47.678 -22.757  1.00  0.00     0.021 A 
ATOM      3  C   UNL     1      11.983 -47.675 -23.620  1.00  0.00     0.000 A 
ATOM      4  C   UNL     1      12.591 -48.999 -24.009  1.00  0.00     0.068 A 
ATOM      5  C   UNL     1      11.998 -50.228 -23.400  1.00  0.00     0.023 A 
ATOM      6  C   UNL     1      12.514 -51.494 -23.708  1.00  0.00     0.014 A 
ATOM      7  C   UNL     1      11.949 -52.634 -23.135  1.00  0.00     0.021 A 
ATOM      8  C   UNL     1      10.872 -52.504 -22.261  1.00  0.00     0.043 A 
ATOM      9  Cl  UNL     1      10.169 -53.910 -21.560  1.00  0.00    -0.084 Cl
ATOM     10  C   UNL     1      10.355 -51.245 -21.951  1.00  0.00     0.047 A 
ATOM     11  C   UNL     1      10.923 -50.094 -22.511  1.00  0.00     0.049 A 
ATOM     12  C   UNL     1      12.546 -46.394 -24.214  1.00  0.00     0.028 C 
ATOM     13  C   UNL     1      13.808 -45.935 -23.444  1.00  0.00     0.039 C 
ATOM     14  C   UNL     1      13.502 -45.221 -22.141  1.00  0.00    -0.076 C 
ATOM     15  C   UNL     1      14.675 -44.954 -21.244  1.00  0.00     0.039 C 
ATOM     16  C   UNL     1      12.246 -44.865 -21.810  1.00  0.00    -0.024 C 
ATOM     17  C   UNL     1      11.055 -45.107 -22.714  1.00  0.00     0.018 C 
ATOM     18  C   UNL     1      10.295 -46.378 -22.289  1.00  0.00     0.062 C 
ATOM     19  C   UNL     1      11.504 -45.268 -24.168  1.00  0.00     0.017 C 
ATOM     20  H   UNL     1       9.703 -48.743 -21.498  1.00  0.00     0.166 HD
ENDROOT
BRANCH   4  21
ATOM     21  N   UNL     1      13.592 -49.130 -24.822  1.00  0.00    -0.300 NA
ATOM     22  H   UNL     1      13.894 -50.099 -24.916  1.00  0.00     0.188 HD
ENDBRANCH   4  21
TORSDOF 1
ENDMDL
MODEL 6
REMARK VINA RESULT:    -8.229      4.484      8.893
REMARK INTER + INTRA:          -8.469
REMARK INTER:                  -8.469
REMARK INTRA:                   0.000
REMARK UNBOUND:                 0.000
REMARK SMILES CC1=C[C@@H]2Cc3[nH]c4cc(Cl)ccc4c(=N)c3[C@H](C1)C2
REMARK SMILES IDX 7 1 6 2 17 3 15 4 14 5 13 6 12 7 10 8 11 9 9 10 8 11 18 12
REMARK SMILES IDX 19 13 2 14 1 15 3 16 4 17 5 18 20 19 16 21
REMARK H PARENT 7 20 16 22
ROOT
ATOM      1  N   UNL     1      11.689 -51.109 -22.849  1.00  0.00    -0.358 N 
ATOM      2  C   UNL     1      12.402 -50.076 -23.418  1.00  0.00     0.021 A 
ATOM      3  C   UNL     1      13.137 -50.213 -24.546  1.00  0.00     0.000 A 
ATOM      4  C   UNL     1      13.198 -51.572 -25.196  1.00  0.00     0.068 A 
ATOM      5  C   UNL     1      12.443 -52.680 -24.536  1.00  0.00     0.023 A 
ATOM      6  C   UNL     1      12.458 -53.972 -25.078  1.00  0.00     0.014 A 
ATOM      7  C   UNL     1      11.746 -54.997 -24.454  1.00  0.00     0.021 A 
ATOM      8  C   UNL     1      11.022 -54.725 -23.295  1.00  0.00     0.043 A 
ATOM      9  Cl  UNL     1      10.137 -55.986 -22.528  1.00  0.00    -0.084 Cl
ATOM     10  C   UNL     1      11.004 -53.440 -22.751  1.00  0.00     0.047 A 
ATOM     11  C   UNL     1      11.726 -52.408 -23.363  1.00  0.00     0.049 A 
ATOM     12  C   UNL     1      13.884 -49.050 -25.179  1.00  0.00     0.028 C 
ATOM     13  C   UNL     1      15.380 -49.071 -24.781  1.00  0.00     0.039 C 
ATOM     14  C   UNL     1      15.650 -48.517 -23.394  1.00  0.00    -0.076 C 
ATOM     15  C   UNL     1      17.040 -48.716 -22.864  1.00  0.00     0.039 C 
ATOM     16  C   UNL     1      14.689 -47.897 -22.683  1.00  0.00    -0.024 C 
ATOM     17  C   UNL     1      13.288 -47.668 -23.214  1.00  0.00     0.018 C 
ATOM     18  C   UNL     1      12.320 -48.742 -22.683  1.00  0.00     0.062 C 
ATOM     19  C   UNL     1      13.277 -47.710 -24.744  1.00  0.00     0.017 C 
ATOM     20  H   UNL     1      11.273 -50.959 -21.937  1.00  0.00     0.166 HD
ENDROOT
BRANCH   4  21
ATOM     21  N   UNL     1      13.867 -51.834 -26.274  1.00  0.00    -0.300 NA
ATOM     22  H   UNL     1      14.823 -52.130 -26.079  1.00  0.00     0.188 HD
ENDBRANCH   4  21
TORSDOF 1
ENDMDL
MODEL 7
REMARK VINA RESULT:    -8.207      7.472      9.536
REMARK INTER + INTRA:          -8.446
REMARK INTER:                  -8.446
REMARK INTRA:                   0.000
REMARK UNBOUND:                 0.000
REMARK SMILES CC1=C[C@@H]2Cc3[nH]c4cc(Cl)ccc4c(=N)c3[C@H](C1)C2
REMARK SMILES IDX 7 1 6 2 17 3 15 4 14 5 13 6 12 7 10 8 11 9 9 10 8 11 18 12
REMARK SMILES IDX 19 13 2 14 1 15 3 16 4 17 5 18 20 19 16 21
REMARK H PARENT 7 20 16 22
ROOT
ATOM      1  N   UNL     1      12.952 -47.486 -25.163  1.00  0.00    -0.358 N 
ATOM      2  C   UNL     1      13.212 -48.838 -25.125  1.00  0.00     0.021 A 
ATOM      3  C   UNL     1      12.665 -49.674 -24.212  1.00  0.00     0.000 A 
ATOM      4  C   UNL     1      11.745 -49.090 -23.170  1.00  0.00     0.068 A 
ATOM      5  C   UNL     1      11.510 -47.615 -23.217  1.00  0.00     0.023 A 
ATOM      6  C   UNL     1      10.673 -46.998 -22.277  1.00  0.00     0.014 A 
ATOM      7  C   UNL     1      10.460 -45.621 -22.333  1.00  0.00     0.021 A 
ATOM      8  C   UNL     1      11.080 -44.868 -23.328  1.00  0.00     0.043 A 
ATOM      9  Cl  UNL     1      10.812 -43.170 -23.404  1.00  0.00    -0.084 Cl
ATOM     10  C   UNL     1      11.915 -45.478 -24.266  1.00  0.00     0.047 A 
ATOM     11  C   UNL     1      12.146 -46.858 -24.210  1.00  0.00     0.049 A 
ATOM     12  C   UNL     1      12.934 -51.171 -24.212  1.00  0.00     0.028 C 
ATOM     13  C   UNL     1      14.026 -51.537 -23.177  1.00  0.00     0.039 C 
ATOM     14  C   UNL     1      15.439 -51.261 -23.656  1.00  0.00    -0.076 C 
ATOM     15  C   UNL     1      16.521 -51.380 -22.623  1.00  0.00     0.039 C 
ATOM     16  C   UNL     1      15.695 -50.916 -24.933  1.00  0.00    -0.024 C 
ATOM     17  C   UNL     1      14.617 -50.813 -25.992  1.00  0.00     0.018 C 
ATOM     18  C   UNL     1      14.179 -49.349 -26.187  1.00  0.00     0.062 C 
ATOM     19  C   UNL     1      13.393 -51.643 -25.599  1.00  0.00     0.017 C 
ATOM     20  H   UNL     1      13.500 -46.910 -25.791  1.00  0.00     0.166 HD
ENDROOT
BRANCH   4  21
ATOM     21  N   UNL     1      11.162 -49.782 -22.242  1.00  0.00    -0.300 NA
ATOM     22  H   UNL     1      11.101 -50.772 -22.475  1.00  0.00     0.188 HD
ENDBRANCH   4  21
TORSDOF 1
ENDMDL
MODEL 8
REMARK VINA RESULT:    -8.063      5.151      9.829
REMARK INTER + INTRA:          -8.298
REMARK INTER:                  -8.298
REMARK INTRA:                   0.000
REMARK UNBOUND:                 0.000
REMARK SMILES CC1=C[C@@H]2Cc3[nH]c4cc(Cl)ccc4c(=N)c3[C@H](C1)C2
REMARK SMILES IDX 7 1 6 2 17 3 15 4 14 5 13 6 12 7 10 8 11 9 9 10 8 11 18 12
REMARK SMILES IDX 19 13 2 14 1 15 3 16 4 17 5 18 20 19 16 21
REMARK H PARENT 7 20 16 22
ROOT
ATOM      1  N   UNL     1      13.883 -50.580 -25.068  1.00  0.00    -0.358 N 
ATOM      2  C   UNL     1      13.832 -49.476 -24.245  1.00  0.00     0.021 A 
ATOM      3  C   UNL     1      13.139 -49.447 -23.083  1.00  0.00     0.000 A 
ATOM      4  C   UNL     1      12.362 -50.677 -22.685  1.00  0.00     0.068 A 
ATOM      5  C   UNL     1      12.408 -51.845 -23.615  1.00  0.00     0.023 A 
ATOM      6  C   UNL     1      11.706 -53.020 -23.316  1.00  0.00     0.014 A 
ATOM      7  C   UNL     1      11.760 -54.105 -24.192  1.00  0.00     0.021 A 
ATOM      8  C   UNL     1      12.516 -54.011 -25.358  1.00  0.00     0.043 A 
ATOM      9  Cl  UNL     1      12.590 -55.351 -26.436  1.00  0.00    -0.084 Cl
ATOM     10  C   UNL     1      13.217 -52.843 -25.661  1.00  0.00     0.047 A 
ATOM     11  C   UNL     1      13.159 -51.744 -24.795  1.00  0.00     0.049 A 
ATOM     12  C   UNL     1      13.129 -48.231 -22.169  1.00  0.00     0.028 C 
ATOM     13  C   UNL     1      11.852 -47.384 -22.390  1.00  0.00     0.039 C 
ATOM     14  C   UNL     1      11.918 -46.490 -23.614  1.00  0.00    -0.076 C 
ATOM     15  C   UNL     1      10.636 -45.817 -24.009  1.00  0.00     0.039 C 
ATOM     16  C   UNL     1      13.061 -46.327 -24.308  1.00  0.00    -0.024 C 
ATOM     17  C   UNL     1      14.368 -46.981 -23.910  1.00  0.00     0.018 C 
ATOM     18  C   UNL     1      14.612 -48.260 -24.732  1.00  0.00     0.062 C 
ATOM     19  C   UNL     1      14.357 -47.348 -22.424  1.00  0.00     0.017 C 
ATOM     20  H   UNL     1      14.313 -50.479 -25.980  1.00  0.00     0.166 HD
ENDROOT
BRANCH   4  21
ATOM     21  N   UNL     1      11.658 -50.774 -21.601  1.00  0.00    -0.300 NA
ATOM     22  H   UNL     1      11.276 -51.709 -21.466  1.00  0.00     0.188 HD
ENDBRANCH   4  21
TORSDOF 1
ENDMDL
MODEL 9
REMARK VINA RESULT:    -7.298      6.267     10.731
REMARK INTER + INTRA:          -7.512
REMARK INTER:                  -7.512
REMARK INTRA:                   0.000
REMARK UNBOUND:                 0.000
REMARK SMILES CC1=C[C@@H]2Cc3[nH]c4cc(Cl)ccc4c(=N)c3[C@H](C1)C2
REMARK SMILES IDX 7 1 6 2 17 3 15 4 14 5 13 6 12 7 10 8 11 9 9 10 8 11 18 12
REMARK SMILES IDX 19 13 2 14 1 15 3 16 4 17 5 18 20 19 16 21
REMARK H PARENT 7 20 16 22
ROOT
ATOM      1  N   UNL     1      13.537 -49.937 -22.752  1.00  0.00    -0.358 N 
ATOM      2  C   UNL     1      13.704 -48.572 -22.674  1.00  0.00     0.021 A 
ATOM      3  C   UNL     1      12.692 -47.714 -22.404  1.00  0.00     0.000 A 
ATOM      4  C   UNL     1      11.309 -48.281 -22.206  1.00  0.00     0.068 A 
ATOM      5  C   UNL     1      11.154 -49.762 -22.331  1.00  0.00     0.023 A 
ATOM      6  C   UNL     1       9.898 -50.362 -22.166  1.00  0.00     0.014 A 
ATOM      7  C   UNL     1       9.768 -51.746 -22.283  1.00  0.00     0.021 A 
ATOM      8  C   UNL     1      10.890 -52.522 -22.560  1.00  0.00     0.043 A 
ATOM      9  Cl  UNL     1      10.733 -54.231 -22.696  1.00  0.00    -0.084 Cl
ATOM     10  C   UNL     1      12.143 -51.930 -22.725  1.00  0.00     0.047 A 
ATOM     11  C   UNL     1      12.283 -50.540 -22.623  1.00  0.00     0.049 A 
ATOM     12  C   UNL     1      12.906 -46.213 -22.283  1.00  0.00     0.028 C 
ATOM     13  C   UNL     1      12.521 -45.492 -23.598  1.00  0.00     0.039 C 
ATOM     14  C   UNL     1      13.587 -45.578 -24.675  1.00  0.00    -0.076 C 
ATOM     15  C   UNL     1      13.186 -45.098 -26.039  1.00  0.00     0.039 C 
ATOM     16  C   UNL     1      14.813 -46.072 -24.417  1.00  0.00    -0.024 C 
ATOM     17  C   UNL     1      15.240 -46.539 -23.040  1.00  0.00     0.018 C 
ATOM     18  C   UNL     1      15.122 -48.070 -22.922  1.00  0.00     0.062 C 
ATOM     19  C   UNL     1      14.371 -45.895 -21.957  1.00  0.00     0.017 C 
ATOM     20  H   UNL     1      14.313 -50.497 -23.086  1.00  0.00     0.166 HD
ENDROOT
BRANCH   4  21
ATOM     21  N   UNL     1      10.260 -47.567 -21.946  1.00  0.00    -0.300 NA
ATOM     22  H   UNL     1       9.659 -47.997 -21.244  1.00  0.00     0.188 HD
ENDBRANCH   4  21
TORSDOF 1
ENDMDL
