MODEL 1
REMARK VINA RESULT:    -9.220      0.000      0.000
REMARK INTER + INTRA:         -10.335
REMARK INTER:                 -10.298
REMARK INTRA:                  -0.037
REMARK UNBOUND:                -0.037
REMARK SMILES CNC(=O)Oc1cccc2c1SC[C@H]1CC[N@@H+](C)[C@H]21
REMARK SMILES IDX 5 1 6 2 16 3 17 4 15 5 19 6 14 7 10 8 13 9 11 10 9 11 12 12
REMARK SMILES IDX 8 13 7 14 18 15 3 17 2 18 4 19 1 20
REMARK H PARENT 17 16 2 21
ROOT
ATOM      1  O   UNL     1       6.643 -63.023 -24.198  1.00  0.00    -0.409 OA
ENDROOT
BRANCH   1   2
ATOM      2  C   UNL     1       7.795 -62.519 -23.581  1.00  0.00     0.146 A 
ATOM      3  C   UNL     1      10.721 -57.337 -23.054  1.00  0.00     0.263 C 
ATOM      4  N   UNL     1      10.735 -58.688 -22.354  1.00  0.00    -0.331 N 
ATOM      5  C   UNL     1       9.251 -56.994 -23.189  1.00  0.00     0.072 C 
ATOM      6  C   UNL     1       9.300 -59.235 -22.379  1.00  0.00     0.220 C 
ATOM      7  C   UNL     1       8.633 -58.358 -23.438  1.00  0.00     0.068 C 
ATOM      8  C   UNL     1       9.129 -60.697 -22.696  1.00  0.00     0.027 A 
ATOM      9  C   UNL     1       7.131 -58.402 -23.283  1.00  0.00     0.085 C 
ATOM     10  C   UNL     1       7.914 -61.152 -23.256  1.00  0.00     0.059 A 
ATOM     11  C   UNL     1      10.136 -61.641 -22.400  1.00  0.00     0.011 A 
ATOM     12  S   UNL     1       6.498 -60.082 -23.566  1.00  0.00    -0.121 SA
ATOM     13  C   UNL     1       9.971 -62.997 -22.691  1.00  0.00     0.004 A 
ATOM     14  C   UNL     1       8.801 -63.440 -23.288  1.00  0.00     0.048 A 
ATOM     15  C   UNL     1      11.325 -58.614 -20.978  1.00  0.00     0.333 C 
ATOM     16  H   UNL     1      11.313 -59.315 -22.929  1.00  0.00     0.348 HD
ENDBRANCH   1   2
BRANCH   1  17
ATOM     17  C   UNL     1       6.939 -63.720 -25.359  1.00  0.00     0.412 C 
ATOM     18  N   UNL     1       7.694 -62.932 -26.182  1.00  0.00    -0.324 N 
ATOM     19  O   UNL     1       6.576 -64.861 -25.623  1.00  0.00    -0.224 OA
ATOM     20  C   UNL     1       8.065 -63.338 -27.511  1.00  0.00     0.146 C 
ATOM     21  H   UNL     1       7.839 -61.976 -25.886  1.00  0.00     0.166 HD
ENDBRANCH   1  17
TORSDOF 2
ENDMDL
MODEL 2
REMARK VINA RESULT:    -8.475      3.361      6.096
REMARK INTER + INTRA:          -9.502
REMARK INTER:                  -9.202
REMARK INTRA:                  -0.300
REMARK UNBOUND:                -0.037
REMARK SMILES CNC(=O)Oc1cccc2c1SC[C@H]1CC[N@@H+](C)[C@H]21
REMARK SMILES IDX 5 1 6 2 16 3 17 4 15 5 19 6 14 7 10 8 13 9 11 10 9 11 12 12
REMARK SMILES IDX 8 13 7 14 18 15 3 17 2 18 4 19 1 20
REMARK H PARENT 17 16 2 21
ROOT
ATOM      1  O   UNL     1      11.557 -57.697 -23.244  1.00  0.00    -0.409 OA
ENDROOT
BRANCH   1   2
ATOM      2  C   UNL     1      10.959 -58.855 -22.730  1.00  0.00     0.146 A 
ATOM      3  C   UNL     1       7.189 -63.141 -24.493  1.00  0.00     0.263 C 
ATOM      4  N   UNL     1       8.170 -62.937 -23.348  1.00  0.00    -0.331 N 
ATOM      5  C   UNL     1       7.948 -62.695 -25.727  1.00  0.00     0.072 C 
ATOM      6  C   UNL     1       9.340 -62.101 -23.887  1.00  0.00     0.220 C 
ATOM      7  C   UNL     1       8.770 -61.539 -25.188  1.00  0.00     0.068 C 
ATOM      8  C   UNL     1       9.862 -61.001 -23.000  1.00  0.00     0.027 A 
ATOM      9  C   UNL     1       9.889 -61.089 -26.098  1.00  0.00     0.085 C 
ATOM     10  C   UNL     1      10.516 -59.890 -23.579  1.00  0.00     0.059 A 
ATOM     11  C   UNL     1       9.761 -61.073 -21.594  1.00  0.00     0.011 A 
ATOM     12  S   UNL     1      10.831 -59.729 -25.346  1.00  0.00    -0.121 SA
ATOM     13  C   UNL     1      10.250 -60.053 -20.776  1.00  0.00     0.004 A 
ATOM     14  C   UNL     1      10.847 -58.937 -21.342  1.00  0.00     0.048 A 
ATOM     15  C   UNL     1       8.594 -64.231 -22.721  1.00  0.00     0.333 C 
ATOM     16  H   UNL     1       7.686 -62.369 -22.640  1.00  0.00     0.348 HD
ENDBRANCH   1   2
BRANCH   1  17
ATOM     17  C   UNL     1      10.733 -56.588 -23.118  1.00  0.00     0.412 C 
ATOM     18  N   UNL     1      11.407 -55.595 -22.464  1.00  0.00    -0.324 N 
ATOM     19  O   UNL     1       9.576 -56.506 -23.514  1.00  0.00    -0.224 OA
ATOM     20  C   UNL     1      10.777 -54.359 -22.085  1.00  0.00     0.146 C 
ATOM     21  H   UNL     1      12.321 -55.829 -22.103  1.00  0.00     0.166 HD
ENDBRANCH   1  17
TORSDOF 2
ENDMDL
MODEL 3
REMARK VINA RESULT:    -8.227      6.694      9.172
REMARK INTER + INTRA:          -9.225
REMARK INTER:                  -9.193
REMARK INTRA:                  -0.032
REMARK UNBOUND:                -0.037
REMARK SMILES CNC(=O)Oc1cccc2c1SC[C@H]1CC[N@@H+](C)[C@H]21
REMARK SMILES IDX 5 1 6 2 16 3 17 4 15 5 19 6 14 7 10 8 13 9 11 10 9 11 12 12
REMARK SMILES IDX 8 13 7 14 18 15 3 17 2 18 4 19 1 20
REMARK H PARENT 17 16 2 21
ROOT
ATOM      1  O   UNL     1      10.522 -55.160 -23.828  1.00  0.00    -0.409 OA
ENDROOT
BRANCH   1   2
ATOM      2  C   UNL     1      11.476 -54.221 -24.238  1.00  0.00     0.146 A 
ATOM      3  C   UNL     1      12.409 -48.327 -23.949  1.00  0.00     0.263 C 
ATOM      4  N   UNL     1      13.238 -49.561 -24.276  1.00  0.00    -0.331 N 
ATOM      5  C   UNL     1      11.638 -48.707 -22.701  1.00  0.00     0.072 C 
ATOM      6  C   UNL     1      12.707 -50.714 -23.411  1.00  0.00     0.220 C 
ATOM      7  C   UNL     1      11.355 -50.178 -22.943  1.00  0.00     0.068 C 
ATOM      8  C   UNL     1      12.560 -52.057 -24.077  1.00  0.00     0.027 A 
ATOM      9  C   UNL     1      10.888 -50.935 -21.722  1.00  0.00     0.085 C 
ATOM     10  C   UNL     1      11.623 -52.987 -23.572  1.00  0.00     0.059 A 
ATOM     11  C   UNL     1      13.373 -52.436 -25.167  1.00  0.00     0.011 A 
ATOM     12  S   UNL     1      10.613 -52.689 -22.110  1.00  0.00    -0.121 SA
ATOM     13  C   UNL     1      13.236 -53.684 -25.779  1.00  0.00     0.004 A 
ATOM     14  C   UNL     1      12.283 -54.580 -25.318  1.00  0.00     0.048 A 
ATOM     15  C   UNL     1      14.709 -49.319 -24.117  1.00  0.00     0.333 C 
ATOM     16  H   UNL     1      13.045 -49.797 -25.258  1.00  0.00     0.348 HD
ENDBRANCH   1   2
BRANCH   1  17
ATOM     17  C   UNL     1      11.083 -56.164 -23.052  1.00  0.00     0.412 C 
ATOM     18  N   UNL     1      11.267 -57.281 -23.818  1.00  0.00    -0.324 N 
ATOM     19  O   UNL     1      11.361 -56.077 -21.861  1.00  0.00    -0.224 OA
ATOM     20  C   UNL     1      11.730 -58.525 -23.265  1.00  0.00     0.146 C 
ATOM     21  H   UNL     1      10.903 -57.250 -24.759  1.00  0.00     0.166 HD
ENDBRANCH   1  17
TORSDOF 2
ENDMDL
MODEL 4
REMARK VINA RESULT:    -8.018      5.685      8.210
REMARK INTER + INTRA:          -8.992
REMARK INTER:                  -9.293
REMARK INTRA:                   0.302
REMARK UNBOUND:                -0.037
REMARK SMILES CNC(=O)Oc1cccc2c1SC[C@H]1CC[N@@H+](C)[C@H]21
REMARK SMILES IDX 5 1 6 2 16 3 17 4 15 5 19 6 14 7 10 8 13 9 11 10 9 11 12 12
REMARK SMILES IDX 8 13 7 14 18 15 3 17 2 18 4 19 1 20
REMARK H PARENT 17 16 2 21
ROOT
ATOM      1  O   UNL     1      11.394 -56.597 -23.795  1.00  0.00    -0.409 OA
ENDROOT
BRANCH   1   2
ATOM      2  C   UNL     1      11.220 -55.329 -23.226  1.00  0.00     0.146 A 
ATOM      3  C   UNL     1      13.792 -49.939 -23.359  1.00  0.00     0.263 C 
ATOM      4  N   UNL     1      12.465 -50.517 -22.890  1.00  0.00    -0.331 N 
ATOM      5  C   UNL     1      14.017 -50.561 -24.722  1.00  0.00     0.072 C 
ATOM      6  C   UNL     1      12.109 -51.677 -23.832  1.00  0.00     0.220 C 
ATOM      7  C   UNL     1      13.440 -51.952 -24.531  1.00  0.00     0.068 C 
ATOM      8  C   UNL     1      11.557 -52.928 -23.199  1.00  0.00     0.027 A 
ATOM      9  C   UNL     1      13.208 -52.716 -25.813  1.00  0.00     0.085 C 
ATOM     10  C   UNL     1      11.710 -54.168 -23.859  1.00  0.00     0.059 A 
ATOM     11  C   UNL     1      10.842 -52.889 -21.983  1.00  0.00     0.011 A 
ATOM     12  S   UNL     1      12.484 -54.347 -25.476  1.00  0.00    -0.121 SA
ATOM     13  C   UNL     1      10.328 -54.050 -21.403  1.00  0.00     0.004 A 
ATOM     14  C   UNL     1      10.520 -55.276 -22.021  1.00  0.00     0.048 A 
ATOM     15  C   UNL     1      11.392 -49.475 -22.789  1.00  0.00     0.333 C 
ATOM     16  H   UNL     1      12.628 -50.917 -21.956  1.00  0.00     0.348 HD
ENDBRANCH   1   2
BRANCH   1  17
ATOM     17  C   UNL     1      10.567 -57.545 -23.212  1.00  0.00     0.412 C 
ATOM     18  N   UNL     1      11.301 -58.330 -22.367  1.00  0.00    -0.324 N 
ATOM     19  O   UNL     1       9.367 -57.676 -23.424  1.00  0.00    -0.224 OA
ATOM     20  C   UNL     1      10.742 -59.474 -21.699  1.00  0.00     0.146 C 
ATOM     21  H   UNL     1      12.300 -58.178 -22.361  1.00  0.00     0.166 HD
ENDBRANCH   1  17
TORSDOF 2
ENDMDL
MODEL 5
REMARK VINA RESULT:    -7.599      3.243      6.193
REMARK INTER + INTRA:          -8.524
REMARK INTER:                  -8.579
REMARK INTRA:                   0.055
REMARK UNBOUND:                -0.037
REMARK SMILES CNC(=O)Oc1cccc2c1SC[C@H]1CC[N@@H+](C)[C@H]21
REMARK SMILES IDX 5 1 6 2 16 3 17 4 15 5 19 6 14 7 10 8 13 9 11 10 9 11 12 12
REMARK SMILES IDX 8 13 7 14 18 15 3 17 2 18 4 19 1 20
REMARK H PARENT 17 16 2 21
ROOT
ATOM      1  O   UNL     1      11.468 -58.012 -22.326  1.00  0.00    -0.409 OA
ENDROOT
BRANCH   1   2
ATOM      2  C   UNL     1      11.349 -58.954 -23.356  1.00  0.00     0.146 A 
ATOM      3  C   UNL     1       7.675 -63.356 -25.034  1.00  0.00     0.263 C 
ATOM      4  N   UNL     1       8.791 -62.546 -25.676  1.00  0.00    -0.331 N 
ATOM      5  C   UNL     1       6.822 -62.327 -24.319  1.00  0.00     0.072 C 
ATOM      6  C   UNL     1       8.742 -61.134 -25.073  1.00  0.00     0.220 C 
ATOM      7  C   UNL     1       7.865 -61.336 -23.838  1.00  0.00     0.068 C 
ATOM      8  C   UNL     1      10.058 -60.498 -24.710  1.00  0.00     0.027 A 
ATOM      9  C   UNL     1       7.304 -60.012 -23.373  1.00  0.00     0.085 C 
ATOM     10  C   UNL     1      10.099 -59.504 -23.705  1.00  0.00     0.059 A 
ATOM     11  C   UNL     1      11.252 -60.831 -25.384  1.00  0.00     0.011 A 
ATOM     12  S   UNL     1       8.635 -58.888 -22.854  1.00  0.00    -0.121 SA
ATOM     13  C   UNL     1      12.469 -60.235 -25.047  1.00  0.00     0.004 A 
ATOM     14  C   UNL     1      12.522 -59.297 -24.028  1.00  0.00     0.048 A 
ATOM     15  C   UNL     1       8.721 -62.562 -27.173  1.00  0.00     0.333 C 
ATOM     16  H   UNL     1       9.678 -62.976 -25.381  1.00  0.00     0.348 HD
ENDBRANCH   1   2
BRANCH   1  17
ATOM     17  C   UNL     1      11.354 -56.712 -22.797  1.00  0.00     0.412 C 
ATOM     18  N   UNL     1      11.049 -55.879 -21.758  1.00  0.00    -0.324 N 
ATOM     19  O   UNL     1      11.491 -56.358 -23.962  1.00  0.00    -0.224 OA
ATOM     20  C   UNL     1      10.759 -54.483 -21.951  1.00  0.00     0.146 C 
ATOM     21  H   UNL     1      10.867 -56.315 -20.865  1.00  0.00     0.166 HD
ENDBRANCH   1  17
TORSDOF 2
ENDMDL
MODEL 6
REMARK VINA RESULT:    -7.294      1.639      2.792
REMARK INTER + INTRA:          -8.184
REMARK INTER:                  -8.076
REMARK INTRA:                  -0.108
REMARK UNBOUND:                -0.037
REMARK SMILES CNC(=O)Oc1cccc2c1SC[C@H]1CC[N@@H+](C)[C@H]21
REMARK SMILES IDX 5 1 6 2 16 3 17 4 15 5 19 6 14 7 10 8 13 9 11 10 9 11 12 12
REMARK SMILES IDX 8 13 7 14 18 15 3 17 2 18 4 19 1 20
REMARK H PARENT 17 16 2 21
ROOT
ATOM      1  O   UNL     1       7.727 -62.814 -23.868  1.00  0.00    -0.409 OA
ENDROOT
BRANCH   1   2
ATOM      2  C   UNL     1       7.715 -61.423 -23.703  1.00  0.00     0.146 A 
ATOM      3  C   UNL     1      11.219 -57.117 -21.496  1.00  0.00     0.263 C 
ATOM      4  N   UNL     1       9.993 -57.189 -22.394  1.00  0.00    -0.331 N 
ATOM      5  C   UNL     1      12.139 -58.200 -22.022  1.00  0.00     0.072 C 
ATOM      6  C   UNL     1      10.092 -58.491 -23.204  1.00  0.00     0.220 C 
ATOM      7  C   UNL     1      11.153 -59.276 -22.435  1.00  0.00     0.068 C 
ATOM      8  C   UNL     1       8.828 -59.295 -23.365  1.00  0.00     0.027 A 
ATOM      9  C   UNL     1      11.738 -60.359 -23.311  1.00  0.00     0.085 C 
ATOM     10  C   UNL     1       8.912 -60.687 -23.597  1.00  0.00     0.059 A 
ATOM     11  C   UNL     1       7.555 -58.686 -23.343  1.00  0.00     0.011 A 
ATOM     12  S   UNL     1      10.470 -61.574 -23.778  1.00  0.00    -0.121 SA
ATOM     13  C   UNL     1       6.387 -59.434 -23.498  1.00  0.00     0.004 A 
ATOM     14  C   UNL     1       6.463 -60.808 -23.673  1.00  0.00     0.048 A 
ATOM     15  C   UNL     1       9.833 -55.964 -23.243  1.00  0.00     0.333 C 
ATOM     16  H   UNL     1       9.175 -57.273 -21.775  1.00  0.00     0.348 HD
ENDBRANCH   1   2
BRANCH   1  17
ATOM     17  C   UNL     1       7.256 -63.191 -25.117  1.00  0.00     0.412 C 
ATOM     18  N   UNL     1       8.219 -62.950 -26.057  1.00  0.00    -0.324 N 
ATOM     19  O   UNL     1       6.147 -63.657 -25.354  1.00  0.00    -0.224 OA
ATOM     20  C   UNL     1       7.985 -63.135 -27.463  1.00  0.00     0.146 C 
ATOM     21  H   UNL     1       9.051 -62.471 -25.741  1.00  0.00     0.166 HD
ENDBRANCH   1  17
TORSDOF 2
ENDMDL
MODEL 7
REMARK VINA RESULT:    -7.224      1.639      1.972
REMARK INTER + INTRA:          -8.105
REMARK INTER:                  -8.509
REMARK INTRA:                   0.404
REMARK UNBOUND:                -0.037
REMARK SMILES CNC(=O)Oc1cccc2c1SC[C@H]1CC[N@@H+](C)[C@H]21
REMARK SMILES IDX 5 1 6 2 16 3 17 4 15 5 19 6 14 7 10 8 13 9 11 10 9 11 12 12
REMARK SMILES IDX 8 13 7 14 18 15 3 17 2 18 4 19 1 20
REMARK H PARENT 17 16 2 21
ROOT
ATOM      1  O   UNL     1       8.439 -61.582 -25.785  1.00  0.00    -0.409 OA
ENDROOT
BRANCH   1   2
ATOM      2  C   UNL     1       9.366 -61.191 -24.811  1.00  0.00     0.146 A 
ATOM      3  C   UNL     1      11.259 -56.192 -22.143  1.00  0.00     0.263 C 
ATOM      4  N   UNL     1      11.373 -57.688 -21.890  1.00  0.00    -0.331 N 
ATOM      5  C   UNL     1       9.800 -55.975 -22.487  1.00  0.00     0.072 C 
ATOM      6  C   UNL     1      10.074 -58.339 -22.389  1.00  0.00     0.220 C 
ATOM      7  C   UNL     1       9.468 -57.238 -23.259  1.00  0.00     0.068 C 
ATOM      8  C   UNL     1      10.205 -59.629 -23.156  1.00  0.00     0.027 A 
ATOM      9  C   UNL     1       7.991 -57.483 -23.456  1.00  0.00     0.085 C 
ATOM     10  C   UNL     1       9.199 -59.999 -24.077  1.00  0.00     0.059 A 
ATOM     11  C   UNL     1      11.286 -60.511 -22.940  1.00  0.00     0.011 A 
ATOM     12  S   UNL     1       7.702 -59.035 -24.356  1.00  0.00    -0.121 SA
ATOM     13  C   UNL     1      11.401 -61.709 -23.649  1.00  0.00     0.004 A 
ATOM     14  C   UNL     1      10.443 -62.050 -24.592  1.00  0.00     0.048 A 
ATOM     15  C   UNL     1      11.692 -58.004 -20.460  1.00  0.00     0.333 C 
ATOM     16  H   UNL     1      12.138 -58.032 -22.485  1.00  0.00     0.348 HD
ENDBRANCH   1   2
BRANCH   1  17
ATOM     17  C   UNL     1       7.906 -62.835 -25.520  1.00  0.00     0.412 C 
ATOM     18  N   UNL     1       7.852 -63.027 -24.168  1.00  0.00    -0.324 N 
ATOM     19  O   UNL     1       7.550 -63.654 -26.359  1.00  0.00    -0.224 OA
ATOM     20  C   UNL     1       7.448 -64.278 -23.584  1.00  0.00     0.146 C 
ATOM     21  H   UNL     1       8.270 -62.311 -23.590  1.00  0.00     0.166 HD
ENDBRANCH   1  17
TORSDOF 2
ENDMDL
MODEL 8
REMARK VINA RESULT:    -7.045      7.415     10.050
REMARK INTER + INTRA:          -7.905
REMARK INTER:                  -8.053
REMARK INTRA:                   0.148
REMARK UNBOUND:                -0.037
REMARK SMILES CNC(=O)Oc1cccc2c1SC[C@H]1CC[N@@H+](C)[C@H]21
REMARK SMILES IDX 5 1 6 2 16 3 17 4 15 5 19 6 14 7 10 8 13 9 11 10 9 11 12 12
REMARK SMILES IDX 8 13 7 14 18 15 3 17 2 18 4 19 1 20
REMARK H PARENT 17 16 2 21
ROOT
ATOM      1  O   UNL     1      11.421 -54.478 -23.718  1.00  0.00    -0.409 OA
ENDROOT
BRANCH   1   2
ATOM      2  C   UNL     1      11.077 -53.211 -23.229  1.00  0.00     0.146 A 
ATOM      3  C   UNL     1      13.742 -48.058 -21.802  1.00  0.00     0.263 C 
ATOM      4  N   UNL     1      12.318 -48.530 -22.059  1.00  0.00    -0.331 N 
ATOM      5  C   UNL     1      14.554 -48.671 -22.925  1.00  0.00     0.072 C 
ATOM      6  C   UNL     1      12.385 -49.637 -23.122  1.00  0.00     0.220 C 
ATOM      7  C   UNL     1      13.867 -50.010 -23.114  1.00  0.00     0.068 C 
ATOM      8  C   UNL     1      11.516 -50.848 -22.905  1.00  0.00     0.027 A 
ATOM      9  C   UNL     1      14.232 -50.727 -24.393  1.00  0.00     0.085 C 
ATOM     10  C   UNL     1      11.886 -52.084 -23.482  1.00  0.00     0.059 A 
ATOM     11  C   UNL     1      10.308 -50.772 -22.179  1.00  0.00     0.011 A 
ATOM     12  S   UNL     1      13.330 -52.297 -24.539  1.00  0.00    -0.121 SA
ATOM     13  C   UNL     1       9.503 -51.896 -21.984  1.00  0.00     0.004 A 
ATOM     14  C   UNL     1       9.888 -53.122 -22.505  1.00  0.00     0.048 A 
ATOM     15  C   UNL     1      11.400 -47.402 -22.424  1.00  0.00     0.333 C 
ATOM     16  H   UNL     1      11.985 -48.960 -21.187  1.00  0.00     0.348 HD
ENDBRANCH   1   2
BRANCH   1  17
ATOM     17  C   UNL     1      10.995 -55.492 -22.873  1.00  0.00     0.412 C 
ATOM     18  N   UNL     1      10.160 -56.331 -23.556  1.00  0.00    -0.324 N 
ATOM     19  O   UNL     1      11.302 -55.618 -21.693  1.00  0.00    -0.224 OA
ATOM     20  C   UNL     1       9.468 -57.418 -22.916  1.00  0.00     0.146 C 
ATOM     21  H   UNL     1       9.911 -56.057 -24.496  1.00  0.00     0.166 HD
ENDBRANCH   1  17
TORSDOF 2
ENDMDL
MODEL 9
REMARK VINA RESULT:    -6.969      7.993     10.593
REMARK INTER + INTRA:          -7.821
REMARK INTER:                  -8.198
REMARK INTRA:                   0.377
REMARK UNBOUND:                -0.037
REMARK SMILES CNC(=O)Oc1cccc2c1SC[C@H]1CC[N@@H+](C)[C@H]21
REMARK SMILES IDX 5 1 6 2 16 3 17 4 15 5 19 6 14 7 10 8 13 9 11 10 9 11 12 12
REMARK SMILES IDX 8 13 7 14 18 15 3 17 2 18 4 19 1 20
REMARK H PARENT 17 16 2 21
ROOT
ATOM      1  O   UNL     1      10.983 -53.308 -22.775  1.00  0.00    -0.409 OA
ENDROOT
BRANCH   1   2
ATOM      2  C   UNL     1      11.895 -52.776 -23.695  1.00  0.00     0.146 A 
ATOM      3  C   UNL     1      13.604 -47.445 -25.780  1.00  0.00     0.263 C 
ATOM      4  N   UNL     1      14.148 -48.866 -25.807  1.00  0.00    -0.331 N 
ATOM      5  C   UNL     1      13.171 -47.232 -24.344  1.00  0.00     0.072 C 
ATOM      6  C   UNL     1      13.739 -49.541 -24.489  1.00  0.00     0.220 C 
ATOM      7  C   UNL     1      12.649 -48.606 -23.967  1.00  0.00     0.068 C 
ATOM      8  C   UNL     1      13.244 -50.962 -24.572  1.00  0.00     0.027 A 
ATOM      9  C   UNL     1      12.449 -48.814 -22.483  1.00  0.00     0.085 C 
ATOM     10  C   UNL     1      12.376 -51.457 -23.572  1.00  0.00     0.059 A 
ATOM     11  C   UNL     1      13.666 -51.834 -25.598  1.00  0.00     0.011 A 
ATOM     12  S   UNL     1      11.860 -50.497 -22.137  1.00  0.00    -0.121 SA
ATOM     13  C   UNL     1      13.209 -53.151 -25.668  1.00  0.00     0.004 A 
ATOM     14  C   UNL     1      12.317 -53.626 -24.718  1.00  0.00     0.048 A 
ATOM     15  C   UNL     1      15.623 -48.910 -26.071  1.00  0.00     0.333 C 
ATOM     16  H   UNL     1      13.660 -49.357 -26.569  1.00  0.00     0.348 HD
ENDBRANCH   1   2
BRANCH   1  17
ATOM     17  C   UNL     1      10.580 -54.588 -23.124  1.00  0.00     0.412 C 
ATOM     18  N   UNL     1      11.151 -55.492 -22.272  1.00  0.00    -0.324 N 
ATOM     19  O   UNL     1       9.840 -54.877 -24.057  1.00  0.00    -0.224 OA
ATOM     20  C   UNL     1      11.010 -56.912 -22.449  1.00  0.00     0.146 C 
ATOM     21  H   UNL     1      11.820 -55.128 -21.607  1.00  0.00     0.166 HD
ENDBRANCH   1  17
TORSDOF 2
ENDMDL
