MODEL 1
REMARK VINA RESULT:    -7.788      0.000      0.000
REMARK INTER + INTRA:          -8.837
REMARK INTER:                  -8.699
REMARK INTRA:                  -0.138
REMARK UNBOUND:                -0.138
REMARK SMILES COc1cc2c(cc1OC)C(=O)[C@@H](C)C2
REMARK SMILES IDX 3 1 4 2 5 3 6 4 7 5 8 6 11 7 12 8 13 9 14 10 15 11 2 12 1 13
REMARK SMILES IDX 9 14 10 15
REMARK H PARENT
ROOT
ATOM      1  C   UNL     1       9.652 -61.352 -27.323  1.00  0.00     0.161 A 
ATOM      2  C   UNL     1       9.280 -61.873 -26.073  1.00  0.00     0.055 A 
ATOM      3  C   UNL     1      10.008 -61.502 -24.951  1.00  0.00    -0.033 A 
ATOM      4  C   UNL     1      11.077 -60.630 -25.080  1.00  0.00     0.025 A 
ATOM      5  C   UNL     1      11.474 -60.091 -26.291  1.00  0.00     0.062 A 
ATOM      6  C   UNL     1      10.753 -60.457 -27.431  1.00  0.00     0.161 A 
ATOM      7  C   UNL     1      11.657 -60.411 -23.764  1.00  0.00     0.166 C 
ATOM      8  O   UNL     1      12.593 -59.660 -23.552  1.00  0.00    -0.294 OA
ATOM      9  C   UNL     1      10.928 -61.263 -22.743  1.00  0.00     0.062 C 
ATOM     10  C   UNL     1      10.433 -60.422 -21.577  1.00  0.00     0.017 C 
ATOM     11  C   UNL     1       9.775 -61.921 -23.533  1.00  0.00     0.048 C 
ENDROOT
BRANCH   1  12
ATOM     12  O   UNL     1       9.009 -61.648 -28.501  1.00  0.00    -0.493 OA
ATOM     13  C   UNL     1       8.571 -62.983 -28.699  1.00  0.00     0.278 C 
ENDBRANCH   1  12
BRANCH   6  14
ATOM     14  O   UNL     1      11.033 -60.003 -28.697  1.00  0.00    -0.493 OA
ATOM     15  C   UNL     1      11.806 -58.817 -28.815  1.00  0.00     0.278 C 
ENDBRANCH   6  14
TORSDOF 2
ENDMDL
MODEL 2
REMARK VINA RESULT:    -7.771      3.422      4.732
REMARK INTER + INTRA:          -8.817
REMARK INTER:                  -8.686
REMARK INTRA:                  -0.132
REMARK UNBOUND:                -0.138
REMARK SMILES COc1cc2c(cc1OC)C(=O)[C@@H](C)C2
REMARK SMILES IDX 3 1 4 2 5 3 6 4 7 5 8 6 11 7 12 8 13 9 14 10 15 11 2 12 1 13
REMARK SMILES IDX 9 14 10 15
REMARK H PARENT
ROOT
ATOM      1  C   UNL     1       6.795 -60.398 -23.580  1.00  0.00     0.161 A 
ATOM      2  C   UNL     1       7.711 -59.494 -23.017  1.00  0.00     0.055 A 
ATOM      3  C   UNL     1       9.039 -59.875 -22.899  1.00  0.00    -0.033 A 
ATOM      4  C   UNL     1       9.439 -61.128 -23.338  1.00  0.00     0.025 A 
ATOM      5  C   UNL     1       8.571 -62.046 -23.902  1.00  0.00     0.062 A 
ATOM      6  C   UNL     1       7.228 -61.679 -24.025  1.00  0.00     0.161 A 
ATOM      7  C   UNL     1      10.868 -61.268 -23.100  1.00  0.00     0.166 C 
ATOM      8  O   UNL     1      11.514 -62.251 -23.416  1.00  0.00    -0.294 OA
ATOM      9  C   UNL     1      11.387 -60.026 -22.401  1.00  0.00     0.062 C 
ATOM     10  C   UNL     1      12.571 -59.431 -23.145  1.00  0.00     0.017 C 
ATOM     11  C   UNL     1      10.175 -59.069 -22.350  1.00  0.00     0.048 C 
ENDROOT
BRANCH   1  12
ATOM     12  O   UNL     1       5.456 -60.133 -23.746  1.00  0.00    -0.493 OA
ATOM     13  C   UNL     1       4.889 -59.084 -22.976  1.00  0.00     0.278 C 
ENDBRANCH   1  12
BRANCH   6  14
ATOM     14  O   UNL     1       6.255 -62.485 -24.563  1.00  0.00    -0.493 OA
ATOM     15  C   UNL     1       6.669 -63.710 -25.152  1.00  0.00     0.278 C 
ENDBRANCH   6  14
TORSDOF 2
ENDMDL
MODEL 3
REMARK VINA RESULT:    -7.456      1.959      3.198
REMARK INTER + INTRA:          -8.466
REMARK INTER:                  -8.331
REMARK INTRA:                  -0.135
REMARK UNBOUND:                -0.138
REMARK SMILES COc1cc2c(cc1OC)C(=O)[C@@H](C)C2
REMARK SMILES IDX 3 1 4 2 5 3 6 4 7 5 8 6 11 7 12 8 13 9 14 10 15 11 2 12 1 13
REMARK SMILES IDX 9 14 10 15
REMARK H PARENT
ROOT
ATOM      1  C   UNL     1       9.137 -62.259 -24.042  1.00  0.00     0.161 A 
ATOM      2  C   UNL     1       9.381 -61.694 -22.780  1.00  0.00     0.055 A 
ATOM      3  C   UNL     1      10.248 -60.615 -22.687  1.00  0.00    -0.033 A 
ATOM      4  C   UNL     1      10.851 -60.115 -23.830  1.00  0.00     0.025 A 
ATOM      5  C   UNL     1      10.635 -60.638 -25.092  1.00  0.00     0.062 A 
ATOM      6  C   UNL     1       9.767 -61.727 -25.203  1.00  0.00     0.161 A 
ATOM      7  C   UNL     1      11.702 -58.996 -23.453  1.00  0.00     0.166 C 
ATOM      8  O   UNL     1      12.336 -58.328 -24.251  1.00  0.00    -0.294 OA
ATOM      9  C   UNL     1      11.673 -58.825 -21.947  1.00  0.00     0.062 C 
ATOM     10  C   UNL     1      11.311 -57.400 -21.561  1.00  0.00     0.017 C 
ATOM     11  C   UNL     1      10.633 -59.857 -21.455  1.00  0.00     0.048 C 
ENDROOT
BRANCH   1  12
ATOM     12  O   UNL     1       8.300 -63.328 -24.257  1.00  0.00    -0.493 OA
ATOM     13  C   UNL     1       7.794 -64.011 -23.120  1.00  0.00     0.278 C 
ENDBRANCH   1  12
BRANCH   6  14
ATOM     14  O   UNL     1       9.458 -62.350 -26.388  1.00  0.00    -0.493 OA
ATOM     15  C   UNL     1       9.459 -61.557 -27.567  1.00  0.00     0.278 C 
ENDBRANCH   6  14
TORSDOF 2
ENDMDL
MODEL 4
REMARK VINA RESULT:    -7.439      8.171      9.661
REMARK INTER + INTRA:          -8.447
REMARK INTER:                  -8.306
REMARK INTRA:                  -0.141
REMARK UNBOUND:                -0.138
REMARK SMILES COc1cc2c(cc1OC)C(=O)[C@@H](C)C2
REMARK SMILES IDX 3 1 4 2 5 3 6 4 7 5 8 6 11 7 12 8 13 9 14 10 15 11 2 12 1 13
REMARK SMILES IDX 9 14 10 15
REMARK H PARENT
ROOT
ATOM      1  C   UNL     1      12.142 -50.585 -23.040  1.00  0.00     0.161 A 
ATOM      2  C   UNL     1      11.388 -51.407 -22.188  1.00  0.00     0.055 A 
ATOM      3  C   UNL     1      11.211 -52.740 -22.528  1.00  0.00    -0.033 A 
ATOM      4  C   UNL     1      11.778 -53.236 -23.691  1.00  0.00     0.025 A 
ATOM      5  C   UNL     1      12.532 -52.463 -24.556  1.00  0.00     0.062 A 
ATOM      6  C   UNL     1      12.717 -51.117 -24.230  1.00  0.00     0.161 A 
ATOM      7  C   UNL     1      11.442 -54.647 -23.805  1.00  0.00     0.166 C 
ATOM      8  O   UNL     1      11.832 -55.365 -24.710  1.00  0.00    -0.294 OA
ATOM      9  C   UNL     1      10.542 -55.046 -22.653  1.00  0.00     0.062 C 
ATOM     10  C   UNL     1      11.097 -56.254 -21.913  1.00  0.00     0.017 C 
ATOM     11  C   UNL     1      10.465 -53.787 -21.761  1.00  0.00     0.048 C 
ENDROOT
BRANCH   1  12
ATOM     12  O   UNL     1      12.383 -49.252 -22.809  1.00  0.00    -0.493 OA
ATOM     13  C   UNL     1      11.267 -48.375 -22.769  1.00  0.00     0.278 C 
ENDBRANCH   1  12
BRANCH   6  14
ATOM     14  O   UNL     1      13.438 -50.231 -24.992  1.00  0.00    -0.493 OA
ATOM     15  C   UNL     1      13.970 -50.703 -26.222  1.00  0.00     0.278 C 
ENDBRANCH   6  14
TORSDOF 2
ENDMDL
MODEL 5
REMARK VINA RESULT:    -7.372      4.089      4.945
REMARK INTER + INTRA:          -8.372
REMARK INTER:                  -8.222
REMARK INTRA:                  -0.150
REMARK UNBOUND:                -0.138
REMARK SMILES COc1cc2c(cc1OC)C(=O)[C@@H](C)C2
REMARK SMILES IDX 3 1 4 2 5 3 6 4 7 5 8 6 11 7 12 8 13 9 14 10 15 11 2 12 1 13
REMARK SMILES IDX 9 14 10 15
REMARK H PARENT
ROOT
ATOM      1  C   UNL     1       7.286 -61.029 -23.383  1.00  0.00     0.161 A 
ATOM      2  C   UNL     1       8.649 -61.100 -23.053  1.00  0.00     0.055 A 
ATOM      3  C   UNL     1       9.356 -59.920 -22.872  1.00  0.00    -0.033 A 
ATOM      4  C   UNL     1       8.711 -58.702 -23.017  1.00  0.00     0.025 A 
ATOM      5  C   UNL     1       7.370 -58.586 -23.337  1.00  0.00     0.062 A 
ATOM      6  C   UNL     1       6.645 -59.766 -23.526  1.00  0.00     0.161 A 
ATOM      7  C   UNL     1       9.674 -57.637 -22.775  1.00  0.00     0.166 C 
ATOM      8  O   UNL     1       9.392 -56.452 -22.795  1.00  0.00    -0.294 OA
ATOM      9  C   UNL     1      11.041 -58.241 -22.520  1.00  0.00     0.062 C 
ATOM     10  C   UNL     1      11.634 -57.729 -21.217  1.00  0.00     0.017 C 
ATOM     11  C   UNL     1      10.798 -59.767 -22.503  1.00  0.00     0.048 C 
ENDROOT
BRANCH   1  12
ATOM     12  O   UNL     1       6.486 -62.128 -23.587  1.00  0.00    -0.493 OA
ATOM     13  C   UNL     1       6.955 -63.133 -24.473  1.00  0.00     0.278 C 
ENDBRANCH   1  12
BRANCH   6  14
ATOM     14  O   UNL     1       5.310 -59.807 -23.848  1.00  0.00    -0.493 OA
ATOM     15  C   UNL     1       4.414 -59.067 -23.030  1.00  0.00     0.278 C 
ENDBRANCH   6  14
TORSDOF 2
ENDMDL
MODEL 6
REMARK VINA RESULT:    -7.264      4.122      5.938
REMARK INTER + INTRA:          -8.251
REMARK INTER:                  -8.098
REMARK INTRA:                  -0.154
REMARK UNBOUND:                -0.138
REMARK SMILES COc1cc2c(cc1OC)C(=O)[C@@H](C)C2
REMARK SMILES IDX 3 1 4 2 5 3 6 4 7 5 8 6 11 7 12 8 13 9 14 10 15 11 2 12 1 13
REMARK SMILES IDX 9 14 10 15
REMARK H PARENT
ROOT
ATOM      1  C   UNL     1      11.417 -58.754 -22.341  1.00  0.00     0.161 A 
ATOM      2  C   UNL     1      11.089 -57.647 -21.541  1.00  0.00     0.055 A 
ATOM      3  C   UNL     1      11.119 -56.381 -22.105  1.00  0.00    -0.033 A 
ATOM      4  C   UNL     1      11.465 -56.229 -23.439  1.00  0.00     0.025 A 
ATOM      5  C   UNL     1      11.791 -57.290 -24.263  1.00  0.00     0.062 A 
ATOM      6  C   UNL     1      11.769 -58.573 -23.709  1.00  0.00     0.161 A 
ATOM      7  C   UNL     1      11.417 -54.813 -23.770  1.00  0.00     0.166 C 
ATOM      8  O   UNL     1      11.637 -54.370 -24.885  1.00  0.00    -0.294 OA
ATOM      9  C   UNL     1      11.071 -54.015 -22.529  1.00  0.00     0.062 C 
ATOM     10  C   UNL     1       9.880 -53.102 -22.774  1.00  0.00     0.017 C 
ATOM     11  C   UNL     1      10.791 -55.079 -21.444  1.00  0.00     0.048 C 
ENDROOT
BRANCH   1  12
ATOM     12  O   UNL     1      11.424 -60.053 -21.892  1.00  0.00    -0.493 OA
ATOM     13  C   UNL     1      10.181 -60.632 -21.524  1.00  0.00     0.278 C 
ENDBRANCH   1  12
BRANCH   6  14
ATOM     14  O   UNL     1      12.070 -59.719 -24.405  1.00  0.00    -0.493 OA
ATOM     15  C   UNL     1      11.512 -59.865 -25.703  1.00  0.00     0.278 C 
ENDBRANCH   6  14
TORSDOF 2
ENDMDL
MODEL 7
REMARK VINA RESULT:    -7.189      8.212      9.694
REMARK INTER + INTRA:          -8.167
REMARK INTER:                  -8.025
REMARK INTRA:                  -0.142
REMARK UNBOUND:                -0.138
REMARK SMILES COc1cc2c(cc1OC)C(=O)[C@@H](C)C2
REMARK SMILES IDX 3 1 4 2 5 3 6 4 7 5 8 6 11 7 12 8 13 9 14 10 15 11 2 12 1 13
REMARK SMILES IDX 9 14 10 15
REMARK H PARENT
ROOT
ATOM      1  C   UNL     1      12.626 -51.164 -24.331  1.00  0.00     0.161 A 
ATOM      2  C   UNL     1      12.502 -52.524 -24.658  1.00  0.00     0.055 A 
ATOM      3  C   UNL     1      11.854 -53.368 -23.768  1.00  0.00    -0.033 A 
ATOM      4  C   UNL     1      11.342 -52.861 -22.585  1.00  0.00     0.025 A 
ATOM      5  C   UNL     1      11.438 -51.529 -22.226  1.00  0.00     0.062 A 
ATOM      6  C   UNL     1      12.091 -50.665 -23.109  1.00  0.00     0.161 A 
ATOM      7  C   UNL     1      10.719 -53.950 -21.846  1.00  0.00     0.166 C 
ATOM      8  O   UNL     1      10.148 -53.805 -20.779  1.00  0.00    -0.294 OA
ATOM      9  C   UNL     1      10.913 -55.249 -22.602  1.00  0.00     0.062 C 
ATOM     10  C   UNL     1       9.587 -55.959 -22.827  1.00  0.00     0.017 C 
ATOM     11  C   UNL     1      11.597 -54.835 -23.925  1.00  0.00     0.048 C 
ENDROOT
BRANCH   1  12
ATOM     12  O   UNL     1      13.248 -50.234 -25.130  1.00  0.00    -0.493 OA
ATOM     13  C   UNL     1      14.021 -50.711 -26.221  1.00  0.00     0.278 C 
ENDBRANCH   1  12
BRANCH   6  14
ATOM     14  O   UNL     1      12.264 -49.320 -22.886  1.00  0.00    -0.493 OA
ATOM     15  C   UNL     1      11.099 -48.509 -22.830  1.00  0.00     0.278 C 
ENDBRANCH   6  14
TORSDOF 2
ENDMDL
MODEL 8
REMARK VINA RESULT:    -7.158      3.132      4.563
REMARK INTER + INTRA:          -8.133
REMARK INTER:                  -7.982
REMARK INTRA:                  -0.151
REMARK UNBOUND:                -0.138
REMARK SMILES COc1cc2c(cc1OC)C(=O)[C@@H](C)C2
REMARK SMILES IDX 3 1 4 2 5 3 6 4 7 5 8 6 11 7 12 8 13 9 14 10 15 11 2 12 1 13
REMARK SMILES IDX 9 14 10 15
REMARK H PARENT
ROOT
ATOM      1  C   UNL     1      11.863 -60.346 -23.799  1.00  0.00     0.161 A 
ATOM      2  C   UNL     1      11.346 -61.648 -23.710  1.00  0.00     0.055 A 
ATOM      3  C   UNL     1       9.971 -61.825 -23.745  1.00  0.00    -0.033 A 
ATOM      4  C   UNL     1       9.137 -60.725 -23.869  1.00  0.00     0.025 A 
ATOM      5  C   UNL     1       9.604 -59.427 -23.965  1.00  0.00     0.062 A 
ATOM      6  C   UNL     1      10.987 -59.231 -23.927  1.00  0.00     0.161 A 
ATOM      7  C   UNL     1       7.758 -61.189 -23.881  1.00  0.00     0.166 C 
ATOM      8  O   UNL     1       6.796 -60.452 -24.016  1.00  0.00    -0.294 OA
ATOM      9  C   UNL     1       7.729 -62.692 -23.687  1.00  0.00     0.062 C 
ATOM     10  C   UNL     1       6.929 -63.374 -24.785  1.00  0.00     0.017 C 
ATOM     11  C   UNL     1       9.215 -63.116 -23.682  1.00  0.00     0.048 C 
ENDROOT
BRANCH   1  12
ATOM     12  O   UNL     1      13.205 -60.047 -23.773  1.00  0.00    -0.493 OA
ATOM     13  C   UNL     1      14.061 -60.775 -24.641  1.00  0.00     0.278 C 
ENDBRANCH   1  12
BRANCH   6  14
ATOM     14  O   UNL     1      11.594 -58.001 -24.010  1.00  0.00    -0.493 OA
ATOM     15  C   UNL     1      11.308 -57.057 -22.987  1.00  0.00     0.278 C 
ENDBRANCH   6  14
TORSDOF 2
ENDMDL
MODEL 9
REMARK VINA RESULT:    -7.051      2.019      3.840
REMARK INTER + INTRA:          -8.013
REMARK INTER:                  -7.906
REMARK INTRA:                  -0.107
REMARK UNBOUND:                -0.138
REMARK SMILES COc1cc2c(cc1OC)C(=O)[C@@H](C)C2
REMARK SMILES IDX 3 1 4 2 5 3 6 4 7 5 8 6 11 7 12 8 13 9 14 10 15 11 2 12 1 13
REMARK SMILES IDX 9 14 10 15
REMARK H PARENT
ROOT
ATOM      1  C   UNL     1      11.660 -60.675 -24.886  1.00  0.00     0.161 A 
ATOM      2  C   UNL     1      11.414 -61.571 -23.833  1.00  0.00     0.055 A 
ATOM      3  C   UNL     1      10.140 -62.100 -23.690  1.00  0.00    -0.033 A 
ATOM      4  C   UNL     1       9.140 -61.743 -24.581  1.00  0.00     0.025 A 
ATOM      5  C   UNL     1       9.341 -60.868 -25.634  1.00  0.00     0.062 A 
ATOM      6  C   UNL     1      10.619 -60.324 -25.790  1.00  0.00     0.161 A 
ATOM      7  C   UNL     1       7.916 -62.435 -24.206  1.00  0.00     0.166 C 
ATOM      8  O   UNL     1       6.872 -62.348 -24.827  1.00  0.00    -0.294 OA
ATOM      9  C   UNL     1       8.158 -63.240 -22.944  1.00  0.00     0.062 C 
ATOM     10  C   UNL     1       7.752 -64.693 -23.132  1.00  0.00     0.017 C 
ATOM     11  C   UNL     1       9.668 -63.076 -22.658  1.00  0.00     0.048 C 
ENDROOT
BRANCH   1  12
ATOM     12  O   UNL     1      12.879 -60.087 -25.126  1.00  0.00    -0.493 OA
ATOM     13  C   UNL     1      14.046 -60.857 -24.877  1.00  0.00     0.278 C 
ENDBRANCH   1  12
BRANCH   6  14
ATOM     14  O   UNL     1      10.964 -59.443 -26.786  1.00  0.00    -0.493 OA
ATOM     15  C   UNL     1      11.236 -59.979 -28.073  1.00  0.00     0.278 C 
ENDBRANCH   6  14
TORSDOF 2
ENDMDL
