MODEL 1
REMARK VINA RESULT:   -10.499      0.000      0.000
REMARK INTER + INTRA:         -16.752
REMARK INTER:                 -15.409
REMARK INTRA:                  -1.343
REMARK UNBOUND:                -1.343
REMARK SMILES COc1cc(N)c(Cl)cc1C(O)=CC[C@H]1CC[N@H+](Cc2ccccc2)CC1
REMARK SMILES IDX 13 1 11 2 12 3 10 5 9 6 3 7 7 8 4 9 5 10 8 11 2 12 1 13 6 14
REMARK SMILES IDX 14 17 15 18 27 19 16 20 26 21 17 22 18 23 19 25 20 26 21 27
REMARK SMILES IDX 25 28 22 29 24 30 23 31
REMARK H PARENT 12 4 6 15 6 16 18 24
ROOT
ATOM      1  C   UNL     1       9.560 -61.083 -22.265  1.00  0.00     0.020 C 
ENDROOT
BRANCH   1   2
ATOM      2  C   UNL     1       9.674 -62.087 -23.144  1.00  0.00     0.122 C 
BRANCH   2   3
ATOM      3  O   UNL     1       9.931 -63.363 -22.684  1.00  0.00    -0.508 OA
ATOM      4  H   UNL     1      10.880 -63.548 -22.800  1.00  0.00     0.293 HD
ENDBRANCH   2   3
BRANCH   2   5
ATOM      5  C   UNL     1       9.584 -61.936 -24.602  1.00  0.00     0.060 A 
ATOM      6  C   UNL     1      10.503 -61.104 -25.249  1.00  0.00     0.038 A 
ATOM      7  C   UNL     1       8.628 -62.615 -25.372  1.00  0.00     0.131 A 
ATOM      8  C   UNL     1      10.446 -60.937 -26.636  1.00  0.00     0.065 A 
ATOM      9  C   UNL     1       8.560 -62.429 -26.758  1.00  0.00     0.074 A 
ATOM     10  C   UNL     1       9.447 -61.562 -27.404  1.00  0.00     0.054 A 
ATOM     11  Cl  UNL     1      11.615 -59.905 -27.384  1.00  0.00    -0.082 Cl
BRANCH   7  12
ATOM     12  O   UNL     1       7.705 -63.433 -24.767  1.00  0.00    -0.496 OA
ATOM     13  C   UNL     1       6.846 -64.022 -25.748  1.00  0.00     0.278 C 
ENDBRANCH   7  12
BRANCH  10  14
ATOM     14  N   UNL     1       9.450 -61.510 -28.808  1.00  0.00    -0.397 N 
ATOM     15  H   UNL     1       9.801 -62.361 -29.245  1.00  0.00     0.156 HD
ATOM     16  H   UNL     1       9.832 -60.666 -29.218  1.00  0.00     0.156 HD
ENDBRANCH  10  14
ENDBRANCH   2   5
ENDBRANCH   1   2
BRANCH   1  17
ATOM     17  C   UNL     1      10.652 -60.186 -21.758  1.00  0.00     0.035 C 
BRANCH  17  18
ATOM     18  C   UNL     1      10.269 -58.695 -21.833  1.00  0.00     0.004 C 
ATOM     19  C   UNL     1      11.533 -57.824 -21.804  1.00  0.00     0.065 C 
ATOM     20  C   UNL     1       9.445 -58.372 -23.088  1.00  0.00     0.065 C 
ATOM     21  C   UNL     1      11.208 -56.341 -21.920  1.00  0.00     0.262 C 
ATOM     22  C   UNL     1       9.129 -56.890 -23.195  1.00  0.00     0.262 C 
ATOM     23  N   UNL     1      10.408 -56.095 -23.176  1.00  0.00    -0.331 N 
ATOM     24  H   UNL     1      10.983 -56.413 -23.966  1.00  0.00     0.348 HD
BRANCH  23  25
ATOM     25  C   UNL     1      10.142 -54.623 -23.421  1.00  0.00     0.299 C 
BRANCH  25  26
ATOM     26  C   UNL     1      11.314 -53.908 -24.037  1.00  0.00     0.006 A 
ATOM     27  C   UNL     1      12.029 -54.492 -25.095  1.00  0.00     0.009 A 
ATOM     28  C   UNL     1      11.721 -52.656 -23.551  1.00  0.00     0.009 A 
ATOM     29  C   UNL     1      13.131 -53.839 -25.648  1.00  0.00     0.001 A 
ATOM     30  C   UNL     1      12.825 -52.006 -24.108  1.00  0.00     0.001 A 
ATOM     31  C   UNL     1      13.529 -52.599 -25.153  1.00  0.00     0.000 A 
ENDBRANCH  25  26
ENDBRANCH  23  25
ENDBRANCH  17  18
ENDBRANCH   1  17
TORSDOF 9
ENDMDL
MODEL 2
REMARK VINA RESULT:   -10.406      3.792      8.739
REMARK INTER + INTRA:         -16.615
REMARK INTER:                 -15.933
REMARK INTRA:                  -0.682
REMARK UNBOUND:                -1.343
REMARK SMILES COc1cc(N)c(Cl)cc1C(O)=CC[C@H]1CC[N@H+](Cc2ccccc2)CC1
REMARK SMILES IDX 13 1 11 2 12 3 10 5 9 6 3 7 7 8 4 9 5 10 8 11 2 12 1 13 6 14
REMARK SMILES IDX 14 17 15 18 27 19 16 20 26 21 17 22 18 23 19 25 20 26 21 27
REMARK SMILES IDX 25 28 22 29 24 30 23 31
REMARK H PARENT 12 4 6 15 6 16 18 24
ROOT
ATOM      1  C   UNL     1       9.963 -54.967 -21.993  1.00  0.00     0.020 C 
ENDROOT
BRANCH   1   2
ATOM      2  C   UNL     1      10.153 -53.708 -22.410  1.00  0.00     0.122 C 
BRANCH   2   3
ATOM      3  O   UNL     1       9.276 -52.723 -22.003  1.00  0.00    -0.508 OA
ATOM      4  H   UNL     1       8.373 -52.993 -22.247  1.00  0.00     0.293 HD
ENDBRANCH   2   3
BRANCH   2   5
ATOM      5  C   UNL     1      11.223 -53.280 -23.319  1.00  0.00     0.060 A 
ATOM      6  C   UNL     1      11.611 -54.139 -24.352  1.00  0.00     0.038 A 
ATOM      7  C   UNL     1      11.853 -52.032 -23.206  1.00  0.00     0.131 A 
ATOM      8  C   UNL     1      12.626 -53.764 -25.237  1.00  0.00     0.065 A 
ATOM      9  C   UNL     1      12.885 -51.668 -24.080  1.00  0.00     0.074 A 
ATOM     10  C   UNL     1      13.307 -52.543 -25.086  1.00  0.00     0.054 A 
ATOM     11  Cl  UNL     1      13.056 -54.861 -26.502  1.00  0.00    -0.082 Cl
BRANCH   7  12
ATOM     12  O   UNL     1      11.503 -51.168 -22.197  1.00  0.00    -0.496 OA
ATOM     13  C   UNL     1      11.319 -49.848 -22.717  1.00  0.00     0.278 C 
ENDBRANCH   7  12
BRANCH  10  14
ATOM     14  N   UNL     1      14.239 -52.092 -26.036  1.00  0.00    -0.397 N 
ATOM     15  H   UNL     1      15.026 -52.725 -26.166  1.00  0.00     0.156 HD
ATOM     16  H   UNL     1      14.520 -51.121 -25.953  1.00  0.00     0.156 HD
ENDBRANCH  10  14
ENDBRANCH   2   5
ENDBRANCH   1   2
BRANCH   1  17
ATOM     17  C   UNL     1      11.013 -55.957 -21.575  1.00  0.00     0.035 C 
BRANCH  17  18
ATOM     18  C   UNL     1      10.853 -57.317 -22.283  1.00  0.00     0.004 C 
ATOM     19  C   UNL     1      11.772 -57.383 -23.511  1.00  0.00     0.065 C 
ATOM     20  C   UNL     1      11.154 -58.495 -21.344  1.00  0.00     0.065 C 
ATOM     21  C   UNL     1      11.682 -58.727 -24.220  1.00  0.00     0.262 C 
ATOM     22  C   UNL     1      11.064 -59.831 -22.063  1.00  0.00     0.262 C 
ATOM     23  N   UNL     1      11.998 -59.835 -23.246  1.00  0.00    -0.331 N 
ATOM     24  H   UNL     1      12.947 -59.664 -22.891  1.00  0.00     0.348 HD
BRANCH  23  25
ATOM     25  C   UNL     1      12.040 -61.200 -23.905  1.00  0.00     0.299 C 
BRANCH  25  26
ATOM     26  C   UNL     1      10.708 -61.900 -23.893  1.00  0.00     0.006 A 
ATOM     27  C   UNL     1      10.370 -62.769 -22.844  1.00  0.00     0.009 A 
ATOM     28  C   UNL     1       9.793 -61.711 -24.941  1.00  0.00     0.009 A 
ATOM     29  C   UNL     1       9.145 -63.438 -22.848  1.00  0.00     0.001 A 
ATOM     30  C   UNL     1       8.570 -62.383 -24.941  1.00  0.00     0.001 A 
ATOM     31  C   UNL     1       8.249 -63.247 -23.896  1.00  0.00     0.000 A 
ENDBRANCH  25  26
ENDBRANCH  23  25
ENDBRANCH  17  18
ENDBRANCH   1  17
TORSDOF 9
ENDMDL
MODEL 3
REMARK VINA RESULT:   -10.267      2.229      2.808
REMARK INTER + INTRA:         -16.412
REMARK INTER:                 -15.847
REMARK INTRA:                  -0.565
REMARK UNBOUND:                -1.343
REMARK SMILES COc1cc(N)c(Cl)cc1C(O)=CC[C@H]1CC[N@H+](Cc2ccccc2)CC1
REMARK SMILES IDX 13 1 11 2 12 3 10 5 9 6 3 7 7 8 4 9 5 10 8 11 2 12 1 13 6 14
REMARK SMILES IDX 14 17 15 18 27 19 16 20 26 21 17 22 18 23 19 25 20 26 21 27
REMARK SMILES IDX 25 28 22 29 24 30 23 31
REMARK H PARENT 12 4 6 15 6 16 18 24
ROOT
ATOM      1  C   UNL     1      11.449 -60.729 -23.563  1.00  0.00     0.020 C 
ENDROOT
BRANCH   1   2
ATOM      2  C   UNL     1      10.959 -61.038 -24.771  1.00  0.00     0.122 C 
BRANCH   2   3
ATOM      3  O   UNL     1      11.559 -60.513 -25.898  1.00  0.00    -0.508 OA
ATOM      4  H   UNL     1      11.617 -61.213 -26.572  1.00  0.00     0.293 HD
ENDBRANCH   2   3
BRANCH   2   5
ATOM      5  C   UNL     1       9.782 -61.884 -25.005  1.00  0.00     0.060 A 
ATOM      6  C   UNL     1       9.323 -62.698 -23.964  1.00  0.00     0.038 A 
ATOM      7  C   UNL     1       9.085 -61.885 -26.222  1.00  0.00     0.131 A 
ATOM      8  C   UNL     1       8.205 -63.516 -24.151  1.00  0.00     0.065 A 
ATOM      9  C   UNL     1       7.979 -62.722 -26.413  1.00  0.00     0.074 A 
ATOM     10  C   UNL     1       7.543 -63.572 -25.392  1.00  0.00     0.054 A 
ATOM     11  Cl  UNL     1       7.675 -64.493 -22.827  1.00  0.00    -0.082 Cl
BRANCH   7  12
ATOM     12  O   UNL     1       9.515 -61.104 -27.267  1.00  0.00    -0.496 OA
ATOM     13  C   UNL     1       9.363 -61.805 -28.505  1.00  0.00     0.278 C 
ENDBRANCH   7  12
BRANCH  10  14
ATOM     14  N   UNL     1       6.347 -64.287 -25.562  1.00  0.00    -0.397 N 
ATOM     15  H   UNL     1       5.722 -64.231 -24.759  1.00  0.00     0.156 HD
ATOM     16  H   UNL     1       6.442 -65.228 -25.926  1.00  0.00     0.156 HD
ENDBRANCH  10  14
ENDBRANCH   2   5
ENDBRANCH   1   2
BRANCH   1  17
ATOM     17  C   UNL     1      10.672 -60.455 -22.307  1.00  0.00     0.035 C 
BRANCH  17  18
ATOM     18  C   UNL     1      10.321 -58.963 -22.146  1.00  0.00     0.004 C 
ATOM     19  C   UNL     1      11.603 -58.119 -22.124  1.00  0.00     0.065 C 
ATOM     20  C   UNL     1       9.390 -58.466 -23.263  1.00  0.00     0.065 C 
ATOM     21  C   UNL     1      11.306 -56.631 -22.011  1.00  0.00     0.262 C 
ATOM     22  C   UNL     1       9.102 -56.979 -23.141  1.00  0.00     0.262 C 
ATOM     23  N   UNL     1      10.397 -56.209 -23.140  1.00  0.00    -0.331 N 
ATOM     24  H   UNL     1      10.887 -56.425 -24.018  1.00  0.00     0.348 HD
BRANCH  23  25
ATOM     25  C   UNL     1      10.146 -54.714 -23.161  1.00  0.00     0.299 C 
BRANCH  25  26
ATOM     26  C   UNL     1      11.253 -53.940 -23.824  1.00  0.00     0.006 A 
ATOM     27  C   UNL     1      11.617 -52.670 -23.349  1.00  0.00     0.009 A 
ATOM     28  C   UNL     1      11.925 -54.468 -24.938  1.00  0.00     0.009 A 
ATOM     29  C   UNL     1      12.627 -51.943 -23.981  1.00  0.00     0.001 A 
ATOM     30  C   UNL     1      12.933 -53.737 -25.567  1.00  0.00     0.001 A 
ATOM     31  C   UNL     1      13.281 -52.475 -25.090  1.00  0.00     0.000 A 
ENDBRANCH  25  26
ENDBRANCH  23  25
ENDBRANCH  17  18
ENDBRANCH   1  17
TORSDOF 9
ENDMDL
MODEL 4
REMARK VINA RESULT:    -9.617      3.903      8.817
REMARK INTER + INTRA:         -15.457
REMARK INTER:                 -15.409
REMARK INTRA:                  -0.048
REMARK UNBOUND:                -1.343
REMARK SMILES COc1cc(N)c(Cl)cc1C(O)=CC[C@H]1CC[N@H+](Cc2ccccc2)CC1
REMARK SMILES IDX 13 1 11 2 12 3 10 5 9 6 3 7 7 8 4 9 5 10 8 11 2 12 1 13 6 14
REMARK SMILES IDX 14 17 15 18 27 19 16 20 26 21 17 22 18 23 19 25 20 26 21 27
REMARK SMILES IDX 25 28 22 29 24 30 23 31
REMARK H PARENT 12 4 6 15 6 16 18 24
ROOT
ATOM      1  C   UNL     1      10.319 -55.262 -22.830  1.00  0.00     0.020 C 
ENDROOT
BRANCH   1   2
ATOM      2  C   UNL     1      10.400 -53.927 -22.746  1.00  0.00     0.122 C 
BRANCH   2   3
ATOM      3  O   UNL     1       9.469 -53.240 -21.994  1.00  0.00    -0.508 OA
ATOM      4  H   UNL     1       9.147 -53.828 -21.288  1.00  0.00     0.293 HD
ENDBRANCH   2   3
BRANCH   2   5
ATOM      5  C   UNL     1      11.402 -53.105 -23.436  1.00  0.00     0.060 A 
ATOM      6  C   UNL     1      11.698 -51.837 -22.924  1.00  0.00     0.038 A 
ATOM      7  C   UNL     1      12.092 -53.554 -24.572  1.00  0.00     0.131 A 
ATOM      8  C   UNL     1      12.646 -51.027 -23.556  1.00  0.00     0.065 A 
ATOM      9  C   UNL     1      13.025 -52.731 -25.214  1.00  0.00     0.074 A 
ATOM     10  C   UNL     1      13.291 -51.445 -24.734  1.00  0.00     0.054 A 
ATOM     11  Cl  UNL     1      12.980 -49.474 -22.873  1.00  0.00    -0.082 Cl
BRANCH   7  12
ATOM     12  O   UNL     1      11.819 -54.790 -25.104  1.00  0.00    -0.496 OA
ATOM     13  C   UNL     1      12.873 -55.195 -25.982  1.00  0.00     0.278 C 
ENDBRANCH   7  12
BRANCH  10  14
ATOM     14  N   UNL     1      14.336 -50.704 -25.310  1.00  0.00    -0.397 N 
ATOM     15  H   UNL     1      14.086 -49.737 -25.511  1.00  0.00     0.156 HD
ATOM     16  H   UNL     1      14.827 -51.153 -26.074  1.00  0.00     0.156 HD
ENDBRANCH  10  14
ENDBRANCH   2   5
ENDBRANCH   1   2
BRANCH   1  17
ATOM     17  C   UNL     1      11.045 -56.274 -21.991  1.00  0.00     0.035 C 
BRANCH  17  18
ATOM     18  C   UNL     1      10.904 -57.706 -22.545  1.00  0.00     0.004 C 
ATOM     19  C   UNL     1       9.499 -57.909 -23.129  1.00  0.00     0.065 C 
ATOM     20  C   UNL     1      11.961 -58.018 -23.615  1.00  0.00     0.065 C 
ATOM     21  C   UNL     1       9.324 -59.297 -23.729  1.00  0.00     0.262 C 
ATOM     22  C   UNL     1      11.776 -59.404 -24.208  1.00  0.00     0.262 C 
ATOM     23  N   UNL     1      10.386 -59.533 -24.775  1.00  0.00    -0.331 N 
ATOM     24  H   UNL     1      10.274 -58.802 -25.489  1.00  0.00     0.348 HD
BRANCH  23  25
ATOM     25  C   UNL     1      10.210 -60.852 -25.500  1.00  0.00     0.299 C 
BRANCH  25  26
ATOM     26  C   UNL     1       9.589 -61.919 -24.639  1.00  0.00     0.006 A 
ATOM     27  C   UNL     1       8.341 -62.468 -24.975  1.00  0.00     0.009 A 
ATOM     28  C   UNL     1      10.238 -62.365 -23.477  1.00  0.00     0.009 A 
ATOM     29  C   UNL     1       7.755 -63.438 -24.162  1.00  0.00     0.001 A 
ATOM     30  C   UNL     1       9.647 -63.336 -22.666  1.00  0.00     0.001 A 
ATOM     31  C   UNL     1       8.406 -63.869 -23.008  1.00  0.00     0.000 A 
ENDBRANCH  25  26
ENDBRANCH  23  25
ENDBRANCH  17  18
ENDBRANCH   1  17
TORSDOF 9
ENDMDL
MODEL 5
REMARK VINA RESULT:    -9.510      4.233      9.629
REMARK INTER + INTRA:         -15.301
REMARK INTER:                 -14.382
REMARK INTRA:                  -0.919
REMARK UNBOUND:                -1.343
REMARK SMILES COc1cc(N)c(Cl)cc1C(O)=CC[C@H]1CC[N@H+](Cc2ccccc2)CC1
REMARK SMILES IDX 13 1 11 2 12 3 10 5 9 6 3 7 7 8 4 9 5 10 8 11 2 12 1 13 6 14
REMARK SMILES IDX 14 17 15 18 27 19 16 20 26 21 17 22 18 23 19 25 20 26 21 27
REMARK SMILES IDX 25 28 22 29 24 30 23 31
REMARK H PARENT 12 4 6 15 6 16 18 24
ROOT
ATOM      1  C   UNL     1      11.187 -55.086 -22.886  1.00  0.00     0.020 C 
ENDROOT
BRANCH   1   2
ATOM      2  C   UNL     1      11.464 -54.119 -23.771  1.00  0.00     0.122 C 
BRANCH   2   3
ATOM      3  O   UNL     1      11.741 -54.461 -25.079  1.00  0.00    -0.508 OA
ATOM      4  H   UNL     1      11.411 -55.363 -25.239  1.00  0.00     0.293 HD
ENDBRANCH   2   3
BRANCH   2   5
ATOM      5  C   UNL     1      11.538 -52.688 -23.452  1.00  0.00     0.060 A 
ATOM      6  C   UNL     1      10.468 -52.095 -22.772  1.00  0.00     0.038 A 
ATOM      7  C   UNL     1      12.651 -51.899 -23.778  1.00  0.00     0.131 A 
ATOM      8  C   UNL     1      10.505 -50.736 -22.452  1.00  0.00     0.065 A 
ATOM      9  C   UNL     1      12.675 -50.533 -23.476  1.00  0.00     0.074 A 
ATOM     10  C   UNL     1      11.588 -49.925 -22.838  1.00  0.00     0.054 A 
ATOM     11  Cl  UNL     1       9.159 -50.059 -21.602  1.00  0.00    -0.082 Cl
BRANCH   7  12
ATOM     12  O   UNL     1      13.714 -52.448 -24.453  1.00  0.00    -0.496 OA
ATOM     13  C   UNL     1      13.809 -51.889 -25.767  1.00  0.00     0.278 C 
ENDBRANCH   7  12
BRANCH  10  14
ATOM     14  N   UNL     1      11.703 -48.591 -22.416  1.00  0.00    -0.397 N 
ATOM     15  H   UNL     1      11.333 -48.426 -21.481  1.00  0.00     0.156 HD
ATOM     16  H   UNL     1      11.412 -47.889 -23.087  1.00  0.00     0.156 HD
ENDBRANCH  10  14
ENDBRANCH   2   5
ENDBRANCH   1   2
BRANCH   1  17
ATOM     17  C   UNL     1       9.944 -55.926 -22.812  1.00  0.00     0.035 C 
BRANCH  17  18
ATOM     18  C   UNL     1      10.258 -57.425 -22.646  1.00  0.00     0.004 C 
ATOM     19  C   UNL     1       9.051 -58.268 -23.081  1.00  0.00     0.065 C 
ATOM     20  C   UNL     1      11.501 -57.847 -23.444  1.00  0.00     0.065 C 
ATOM     21  C   UNL     1       9.328 -59.761 -22.977  1.00  0.00     0.262 C 
ATOM     22  C   UNL     1      11.766 -59.339 -23.335  1.00  0.00     0.262 C 
ATOM     23  N   UNL     1      10.552 -60.106 -23.789  1.00  0.00    -0.331 N 
ATOM     24  H   UNL     1      10.357 -59.831 -24.760  1.00  0.00     0.348 HD
BRANCH  23  25
ATOM     25  C   UNL     1      10.828 -61.596 -23.827  1.00  0.00     0.299 C 
BRANCH  25  26
ATOM     26  C   UNL     1       9.603 -62.414 -24.138  1.00  0.00     0.006 A 
ATOM     27  C   UNL     1       8.994 -62.331 -25.400  1.00  0.00     0.009 A 
ATOM     28  C   UNL     1       9.042 -63.256 -23.166  1.00  0.00     0.009 A 
ATOM     29  C   UNL     1       7.844 -63.071 -25.679  1.00  0.00     0.001 A 
ATOM     30  C   UNL     1       7.890 -63.993 -23.449  1.00  0.00     0.001 A 
ATOM     31  C   UNL     1       7.292 -63.898 -24.703  1.00  0.00     0.000 A 
ENDBRANCH  25  26
ENDBRANCH  23  25
ENDBRANCH  17  18
ENDBRANCH   1  17
TORSDOF 9
ENDMDL
MODEL 6
REMARK VINA RESULT:    -9.470      3.960      9.320
REMARK INTER + INTRA:         -15.242
REMARK INTER:                 -15.073
REMARK INTRA:                  -0.169
REMARK UNBOUND:                -1.343
REMARK SMILES COc1cc(N)c(Cl)cc1C(O)=CC[C@H]1CC[N@H+](Cc2ccccc2)CC1
REMARK SMILES IDX 13 1 11 2 12 3 10 5 9 6 3 7 7 8 4 9 5 10 8 11 2 12 1 13 6 14
REMARK SMILES IDX 14 17 15 18 27 19 16 20 26 21 17 22 18 23 19 25 20 26 21 27
REMARK SMILES IDX 25 28 22 29 24 30 23 31
REMARK H PARENT 12 4 6 15 6 16 18 24
ROOT
ATOM      1  C   UNL     1      11.367 -55.016 -23.155  1.00  0.00     0.020 C 
ENDROOT
BRANCH   1   2
ATOM      2  C   UNL     1      11.725 -54.289 -24.223  1.00  0.00     0.122 C 
BRANCH   2   3
ATOM      3  O   UNL     1      11.778 -54.892 -25.463  1.00  0.00    -0.508 OA
ATOM      4  H   UNL     1      11.961 -54.208 -26.132  1.00  0.00     0.293 HD
ENDBRANCH   2   3
BRANCH   2   5
ATOM      5  C   UNL     1      12.112 -52.874 -24.180  1.00  0.00     0.060 A 
ATOM      6  C   UNL     1      12.894 -52.359 -25.219  1.00  0.00     0.038 A 
ATOM      7  C   UNL     1      11.706 -52.013 -23.150  1.00  0.00     0.131 A 
ATOM      8  C   UNL     1      13.282 -51.017 -25.211  1.00  0.00     0.065 A 
ATOM      9  C   UNL     1      12.115 -50.674 -23.132  1.00  0.00     0.074 A 
ATOM     10  C   UNL     1      12.935 -50.166 -24.145  1.00  0.00     0.054 A 
ATOM     11  Cl  UNL     1      14.238 -50.432 -26.527  1.00  0.00    -0.082 Cl
BRANCH   7  12
ATOM     12  O   UNL     1      10.946 -52.488 -22.110  1.00  0.00    -0.496 OA
ATOM     13  C   UNL     1       9.649 -51.884 -22.128  1.00  0.00     0.278 C 
ENDBRANCH   7  12
BRANCH  10  14
ATOM     14  N   UNL     1      13.204 -48.788 -24.179  1.00  0.00    -0.397 N 
ATOM     15  H   UNL     1      14.198 -48.567 -24.139  1.00  0.00     0.156 HD
ATOM     16  H   UNL     1      12.644 -48.213 -23.560  1.00  0.00     0.156 HD
ENDBRANCH  10  14
ENDBRANCH   2   5
ENDBRANCH   1   2
BRANCH   1  17
ATOM     17  C   UNL     1      10.104 -55.808 -22.973  1.00  0.00     0.035 C 
BRANCH  17  18
ATOM     18  C   UNL     1      10.380 -57.301 -22.712  1.00  0.00     0.004 C 
ATOM     19  C   UNL     1       9.178 -58.145 -23.157  1.00  0.00     0.065 C 
ATOM     20  C   UNL     1      11.650 -57.788 -23.428  1.00  0.00     0.065 C 
ATOM     21  C   UNL     1       9.420 -59.635 -22.959  1.00  0.00     0.262 C 
ATOM     22  C   UNL     1      11.880 -59.276 -23.226  1.00  0.00     0.262 C 
ATOM     23  N   UNL     1      10.673 -60.045 -23.694  1.00  0.00    -0.331 N 
ATOM     24  H   UNL     1      10.527 -59.820 -24.687  1.00  0.00     0.348 HD
BRANCH  23  25
ATOM     25  C   UNL     1      10.920 -61.540 -23.639  1.00  0.00     0.299 C 
BRANCH  25  26
ATOM     26  C   UNL     1       9.690 -62.352 -23.941  1.00  0.00     0.006 A 
ATOM     27  C   UNL     1       9.072 -62.267 -25.198  1.00  0.00     0.009 A 
ATOM     28  C   UNL     1       9.132 -63.191 -22.964  1.00  0.00     0.009 A 
ATOM     29  C   UNL     1       7.916 -63.001 -25.468  1.00  0.00     0.001 A 
ATOM     30  C   UNL     1       7.975 -63.923 -23.238  1.00  0.00     0.001 A 
ATOM     31  C   UNL     1       7.368 -63.826 -24.488  1.00  0.00     0.000 A 
ENDBRANCH  25  26
ENDBRANCH  23  25
ENDBRANCH  17  18
ENDBRANCH   1  17
TORSDOF 9
ENDMDL
MODEL 7
REMARK VINA RESULT:    -9.360      2.551      3.466
REMARK INTER + INTRA:         -15.080
REMARK INTER:                 -14.930
REMARK INTRA:                  -0.150
REMARK UNBOUND:                -1.343
REMARK SMILES COc1cc(N)c(Cl)cc1C(O)=CC[C@H]1CC[N@H+](Cc2ccccc2)CC1
REMARK SMILES IDX 13 1 11 2 12 3 10 5 9 6 3 7 7 8 4 9 5 10 8 11 2 12 1 13 6 14
REMARK SMILES IDX 14 17 15 18 27 19 16 20 26 21 17 22 18 23 19 25 20 26 21 27
REMARK SMILES IDX 25 28 22 29 24 30 23 31
REMARK H PARENT 12 4 6 15 6 16 18 24
ROOT
ATOM      1  C   UNL     1      11.833 -58.220 -23.842  1.00  0.00     0.020 C 
ENDROOT
BRANCH   1   2
ATOM      2  C   UNL     1      12.024 -59.472 -24.278  1.00  0.00     0.122 C 
BRANCH   2   3
ATOM      3  O   UNL     1      13.310 -59.921 -24.503  1.00  0.00    -0.508 OA
ATOM      4  H   UNL     1      13.294 -60.893 -24.555  1.00  0.00     0.293 HD
ENDBRANCH   2   3
BRANCH   2   5
ATOM      5  C   UNL     1      10.949 -60.425 -24.584  1.00  0.00     0.060 A 
ATOM      6  C   UNL     1      10.640 -61.413 -23.643  1.00  0.00     0.038 A 
ATOM      7  C   UNL     1      10.204 -60.365 -25.771  1.00  0.00     0.131 A 
ATOM      8  C   UNL     1       9.623 -62.336 -23.900  1.00  0.00     0.065 A 
ATOM      9  C   UNL     1       9.202 -61.305 -26.035  1.00  0.00     0.074 A 
ATOM     10  C   UNL     1       8.919 -62.323 -25.118  1.00  0.00     0.054 A 
ATOM     11  Cl  UNL     1       9.276 -63.528 -22.697  1.00  0.00    -0.082 Cl
BRANCH   7  12
ATOM     12  O   UNL     1      10.489 -59.413 -26.719  1.00  0.00    -0.496 OA
ATOM     13  C   UNL     1      11.233 -59.993 -27.796  1.00  0.00     0.278 C 
ENDBRANCH   7  12
BRANCH  10  14
ATOM     14  N   UNL     1       7.812 -63.157 -25.344  1.00  0.00    -0.397 N 
ATOM     15  H   UNL     1       8.065 -64.093 -25.658  1.00  0.00     0.156 HD
ATOM     16  H   UNL     1       7.054 -62.750 -25.881  1.00  0.00     0.156 HD
ENDBRANCH  10  14
ENDBRANCH   2   5
ENDBRANCH   1   2
BRANCH   1  17
ATOM     17  C   UNL     1      11.120 -57.790 -22.592  1.00  0.00     0.035 C 
BRANCH  17  18
ATOM     18  C   UNL     1      10.695 -56.309 -22.639  1.00  0.00     0.004 C 
ATOM     19  C   UNL     1      11.049 -55.617 -21.316  1.00  0.00     0.065 C 
ATOM     20  C   UNL     1      11.348 -55.558 -23.809  1.00  0.00     0.065 C 
ATOM     21  C   UNL     1      10.688 -54.138 -21.329  1.00  0.00     0.262 C 
ATOM     22  C   UNL     1      10.983 -54.083 -23.812  1.00  0.00     0.262 C 
ATOM     23  N   UNL     1      11.369 -53.462 -22.494  1.00  0.00    -0.331 N 
ATOM     24  H   UNL     1      12.380 -53.597 -22.372  1.00  0.00     0.348 HD
BRANCH  23  25
ATOM     25  C   UNL     1      11.148 -51.962 -22.511  1.00  0.00     0.299 C 
BRANCH  25  26
ATOM     26  C   UNL     1      12.020 -51.250 -23.509  1.00  0.00     0.006 A 
ATOM     27  C   UNL     1      12.764 -51.977 -24.451  1.00  0.00     0.009 A 
ATOM     28  C   UNL     1      12.118 -49.849 -23.499  1.00  0.00     0.009 A 
ATOM     29  C   UNL     1      13.592 -51.315 -25.359  1.00  0.00     0.001 A 
ATOM     30  C   UNL     1      12.948 -49.192 -24.409  1.00  0.00     0.001 A 
ATOM     31  C   UNL     1      13.685 -49.926 -25.335  1.00  0.00     0.000 A 
ENDBRANCH  25  26
ENDBRANCH  23  25
ENDBRANCH  17  18
ENDBRANCH   1  17
TORSDOF 9
ENDMDL
MODEL 8
REMARK VINA RESULT:    -9.135      5.049      9.961
REMARK INTER + INTRA:         -14.749
REMARK INTER:                 -13.514
REMARK INTRA:                  -1.235
REMARK UNBOUND:                -1.343
REMARK SMILES COc1cc(N)c(Cl)cc1C(O)=CC[C@H]1CC[N@H+](Cc2ccccc2)CC1
REMARK SMILES IDX 13 1 11 2 12 3 10 5 9 6 3 7 7 8 4 9 5 10 8 11 2 12 1 13 6 14
REMARK SMILES IDX 14 17 15 18 27 19 16 20 26 21 17 22 18 23 19 25 20 26 21 27
REMARK SMILES IDX 25 28 22 29 24 30 23 31
REMARK H PARENT 12 4 6 15 6 16 18 24
ROOT
ATOM      1  C   UNL     1      10.271 -50.556 -22.494  1.00  0.00     0.020 C 
ENDROOT
BRANCH   1   2
ATOM      2  C   UNL     1      11.575 -50.249 -22.477  1.00  0.00     0.122 C 
BRANCH   2   3
ATOM      3  O   UNL     1      12.166 -49.880 -21.285  1.00  0.00    -0.508 OA
ATOM      4  H   UNL     1      11.822 -50.455 -20.579  1.00  0.00     0.293 HD
ENDBRANCH   2   3
BRANCH   2   5
ATOM      5  C   UNL     1      12.447 -50.234 -23.658  1.00  0.00     0.060 A 
ATOM      6  C   UNL     1      12.938 -51.450 -24.146  1.00  0.00     0.038 A 
ATOM      7  C   UNL     1      12.784 -49.050 -24.331  1.00  0.00     0.131 A 
ATOM      8  C   UNL     1      13.770 -51.473 -25.268  1.00  0.00     0.065 A 
ATOM      9  C   UNL     1      13.636 -49.075 -25.441  1.00  0.00     0.074 A 
ATOM     10  C   UNL     1      14.167 -50.284 -25.906  1.00  0.00     0.054 A 
ATOM     11  Cl  UNL     1      14.338 -53.006 -25.834  1.00  0.00    -0.082 Cl
BRANCH   7  12
ATOM     12  O   UNL     1      12.327 -47.839 -23.873  1.00  0.00    -0.496 OA
ATOM     13  C   UNL     1      13.375 -47.137 -23.198  1.00  0.00     0.278 C 
ENDBRANCH   7  12
BRANCH  10  14
ATOM     14  N   UNL     1      14.896 -50.293 -27.106  1.00  0.00    -0.397 N 
ATOM     15  H   UNL     1      14.614 -49.562 -27.758  1.00  0.00     0.156 HD
ATOM     16  H   UNL     1      15.008 -51.198 -27.548  1.00  0.00     0.156 HD
ENDBRANCH  10  14
ENDBRANCH   2   5
ENDBRANCH   1   2
BRANCH   1  17
ATOM     17  C   UNL     1       9.622 -51.806 -21.974  1.00  0.00     0.035 C 
BRANCH  17  18
ATOM     18  C   UNL     1      10.506 -53.053 -22.170  1.00  0.00     0.004 C 
ATOM     19  C   UNL     1      10.261 -54.057 -21.035  1.00  0.00     0.065 C 
ATOM     20  C   UNL     1      10.256 -53.730 -23.526  1.00  0.00     0.065 C 
ATOM     21  C   UNL     1      11.081 -55.328 -21.210  1.00  0.00     0.262 C 
ATOM     22  C   UNL     1      11.077 -54.998 -23.688  1.00  0.00     0.262 C 
ATOM     23  N   UNL     1      10.780 -55.944 -22.554  1.00  0.00    -0.331 N 
ATOM     24  H   UNL     1       9.772 -56.146 -22.575  1.00  0.00     0.348 HD
BRANCH  23  25
ATOM     25  C   UNL     1      11.475 -57.276 -22.755  1.00  0.00     0.299 C 
BRANCH  25  26
ATOM     26  C   UNL     1      10.572 -58.454 -22.510  1.00  0.00     0.006 A 
ATOM     27  C   UNL     1      10.938 -59.453 -21.594  1.00  0.00     0.009 A 
ATOM     28  C   UNL     1       9.360 -58.581 -23.207  1.00  0.00     0.009 A 
ATOM     29  C   UNL     1      10.112 -60.558 -21.387  1.00  0.00     0.001 A 
ATOM     30  C   UNL     1       8.537 -59.689 -22.996  1.00  0.00     0.001 A 
ATOM     31  C   UNL     1       8.914 -60.676 -22.089  1.00  0.00     0.000 A 
ENDBRANCH  25  26
ENDBRANCH  23  25
ENDBRANCH  17  18
ENDBRANCH   1  17
TORSDOF 9
ENDMDL
MODEL 9
REMARK VINA RESULT:    -8.928      4.281      9.096
REMARK INTER + INTRA:         -14.446
REMARK INTER:                 -14.016
REMARK INTRA:                  -0.430
REMARK UNBOUND:                -1.343
REMARK SMILES COc1cc(N)c(Cl)cc1C(O)=CC[C@H]1CC[N@H+](Cc2ccccc2)CC1
REMARK SMILES IDX 13 1 11 2 12 3 10 5 9 6 3 7 7 8 4 9 5 10 8 11 2 12 1 13 6 14
REMARK SMILES IDX 14 17 15 18 27 19 16 20 26 21 17 22 18 23 19 25 20 26 21 27
REMARK SMILES IDX 25 28 22 29 24 30 23 31
REMARK H PARENT 12 4 6 15 6 16 18 24
ROOT
ATOM      1  C   UNL     1      10.586 -54.264 -22.489  1.00  0.00     0.020 C 
ENDROOT
BRANCH   1   2
ATOM      2  C   UNL     1      10.808 -52.961 -22.271  1.00  0.00     0.122 C 
BRANCH   2   3
ATOM      3  O   UNL     1      10.176 -52.335 -21.216  1.00  0.00    -0.508 OA
ATOM      4  H   UNL     1      10.851 -52.062 -20.569  1.00  0.00     0.293 HD
ENDBRANCH   2   3
BRANCH   2   5
ATOM      5  C   UNL     1      11.664 -52.108 -23.105  1.00  0.00     0.060 A 
ATOM      6  C   UNL     1      12.565 -52.716 -23.986  1.00  0.00     0.038 A 
ATOM      7  C   UNL     1      11.594 -50.707 -23.071  1.00  0.00     0.131 A 
ATOM      8  C   UNL     1      13.394 -51.935 -24.795  1.00  0.00     0.065 A 
ATOM      9  C   UNL     1      12.441 -49.928 -23.866  1.00  0.00     0.074 A 
ATOM     10  C   UNL     1      13.376 -50.531 -24.715  1.00  0.00     0.054 A 
ATOM     11  Cl  UNL     1      14.480 -52.741 -25.873  1.00  0.00    -0.082 Cl
BRANCH   7  12
ATOM     12  O   UNL     1      10.727 -50.079 -22.211  1.00  0.00    -0.496 OA
ATOM     13  C   UNL     1      10.492 -48.734 -22.640  1.00  0.00     0.278 C 
ENDBRANCH   7  12
BRANCH  10  14
ATOM     14  N   UNL     1      14.106 -49.728 -25.606  1.00  0.00    -0.397 N 
ATOM     15  H   UNL     1      13.728 -48.788 -25.711  1.00  0.00     0.156 HD
ATOM     16  H   UNL     1      14.349 -50.158 -26.491  1.00  0.00     0.156 HD
ENDBRANCH  10  14
ENDBRANCH   2   5
ENDBRANCH   1   2
BRANCH   1  17
ATOM     17  C   UNL     1      10.842 -55.404 -21.545  1.00  0.00     0.035 C 
BRANCH  17  18
ATOM     18  C   UNL     1      10.877 -56.766 -22.264  1.00  0.00     0.004 C 
ATOM     19  C   UNL     1      11.759 -56.678 -23.517  1.00  0.00     0.065 C 
ATOM     20  C   UNL     1      11.386 -57.890 -21.348  1.00  0.00     0.065 C 
ATOM     21  C   UNL     1      11.860 -58.014 -24.240  1.00  0.00     0.262 C 
ATOM     22  C   UNL     1      11.485 -59.218 -22.080  1.00  0.00     0.262 C 
ATOM     23  N   UNL     1      12.373 -59.067 -23.288  1.00  0.00    -0.331 N 
ATOM     24  H   UNL     1      13.294 -58.752 -22.957  1.00  0.00     0.348 HD
BRANCH  23  25
ATOM     25  C   UNL     1      12.609 -60.402 -23.964  1.00  0.00     0.299 C 
BRANCH  25  26
ATOM     26  C   UNL     1      11.515 -60.776 -24.927  1.00  0.00     0.006 A 
ATOM     27  C   UNL     1      11.515 -60.269 -26.237  1.00  0.00     0.009 A 
ATOM     28  C   UNL     1      10.468 -61.620 -24.525  1.00  0.00     0.009 A 
ATOM     29  C   UNL     1      10.486 -60.596 -27.120  1.00  0.00     0.001 A 
ATOM     30  C   UNL     1       9.440 -61.944 -25.413  1.00  0.00     0.001 A 
ATOM     31  C   UNL     1       9.450 -61.430 -26.708  1.00  0.00     0.000 A 
ENDBRANCH  25  26
ENDBRANCH  23  25
ENDBRANCH  17  18
ENDBRANCH   1  17
TORSDOF 9
ENDMDL
