MODEL 1
REMARK VINA RESULT:   -12.445      0.000      0.000
REMARK INTER + INTRA:         -16.740
REMARK INTER:                 -16.083
REMARK INTRA:                  -0.657
REMARK UNBOUND:                -0.657
REMARK SMILES O=C1Cc2cc3c(CC[C@H]4CC[N@@H+](Cc5ccccc5)CC4)noc3cc2N1
REMARK SMILES IDX 9 1 10 2 12 3 13 4 11 5 21 6 22 7 14 9 15 10 16 11 20 12
REMARK SMILES IDX 17 13 19 14 18 15 8 16 7 17 6 18 23 19 5 20 25 21 24 22 4 23
REMARK SMILES IDX 26 24 3 25 27 26 2 27 28 28 1 29
REMARK H PARENT 13 8 28 30
ROOT
ATOM      1  C   UNL     1       9.473 -61.856 -22.935  1.00  0.00     0.010 C 
ENDROOT
BRANCH   1   2
ATOM      2  C   UNL     1       9.103 -60.691 -21.981  1.00  0.00     0.000 C 
ATOM      3  C   UNL     1       9.400 -58.714 -23.582  1.00  0.00     0.262 C 
ATOM      4  N   UNL     1      10.501 -58.202 -22.689  1.00  0.00    -0.331 N 
ATOM      5  C   UNL     1       8.425 -59.544 -22.753  1.00  0.00     0.065 C 
ATOM      6  C   UNL     1      11.257 -59.323 -22.021  1.00  0.00     0.262 C 
ATOM      7  C   UNL     1      10.288 -60.138 -21.174  1.00  0.00     0.065 C 
ATOM      8  H   UNL     1      10.040 -57.677 -21.935  1.00  0.00     0.348 HD
BRANCH   4   9
ATOM      9  C   UNL     1      11.401 -57.184 -23.361  1.00  0.00     0.299 C 
BRANCH   9  10
ATOM     10  C   UNL     1      11.203 -55.753 -22.940  1.00  0.00     0.006 A 
ATOM     11  C   UNL     1      10.832 -55.440 -21.622  1.00  0.00     0.009 A 
ATOM     12  C   UNL     1      11.391 -54.704 -23.855  1.00  0.00     0.009 A 
ATOM     13  C   UNL     1      10.669 -54.112 -21.228  1.00  0.00     0.001 A 
ATOM     14  C   UNL     1      11.228 -53.377 -23.456  1.00  0.00     0.001 A 
ATOM     15  C   UNL     1      10.871 -53.081 -22.143  1.00  0.00     0.000 A 
ENDBRANCH   9  10
ENDBRANCH   4   9
ENDBRANCH   1   2
BRANCH   1  16
ATOM     16  C   UNL     1       8.297 -62.664 -23.503  1.00  0.00     0.061 C 
BRANCH  16  17
ATOM     17  C   UNL     1       8.283 -62.743 -24.991  1.00  0.00     0.091 A 
ATOM     18  C   UNL     1       9.067 -62.017 -25.926  1.00  0.00     0.045 A 
ATOM     19  N   UNL     1       7.438 -63.587 -25.600  1.00  0.00    -0.084 NA
ATOM     20  C   UNL     1      10.075 -61.032 -25.874  1.00  0.00     0.020 A 
ATOM     21  C   UNL     1       8.628 -62.492 -27.157  1.00  0.00     0.169 A 
ATOM     22  O   UNL     1       7.660 -63.426 -26.958  1.00  0.00    -0.356 OA
ATOM     23  C   UNL     1      10.569 -60.598 -27.099  1.00  0.00    -0.014 A 
ATOM     24  C   UNL     1       9.109 -62.074 -28.399  1.00  0.00     0.077 A 
ATOM     25  C   UNL     1      11.635 -59.575 -27.378  1.00  0.00     0.138 C 
ATOM     26  C   UNL     1      10.094 -61.109 -28.309  1.00  0.00     0.048 A 
ATOM     27  C   UNL     1      11.691 -59.574 -28.909  1.00  0.00     0.228 C 
ATOM     28  N   UNL     1      10.759 -60.500 -29.361  1.00  0.00    -0.325 N 
ATOM     29  O   UNL     1      12.416 -58.889 -29.610  1.00  0.00    -0.274 OA
ATOM     30  H   UNL     1      10.613 -60.683 -30.344  1.00  0.00     0.169 HD
ENDBRANCH  16  17
ENDBRANCH   1  16
TORSDOF 5
ENDMDL
MODEL 2
REMARK VINA RESULT:   -12.164      3.870      8.200
REMARK INTER + INTRA:         -16.377
REMARK INTER:                 -15.574
REMARK INTRA:                  -0.803
REMARK UNBOUND:                -0.657
REMARK SMILES O=C1Cc2cc3c(CC[C@H]4CC[N@@H+](Cc5ccccc5)CC4)noc3cc2N1
REMARK SMILES IDX 9 1 10 2 12 3 13 4 11 5 21 6 22 7 14 9 15 10 16 11 20 12
REMARK SMILES IDX 17 13 19 14 18 15 8 16 7 17 6 18 23 19 5 20 25 21 24 22 4 23
REMARK SMILES IDX 26 24 3 25 27 26 2 27 28 28 1 29
REMARK H PARENT 13 8 28 30
ROOT
ATOM      1  C   UNL     1       9.652 -57.127 -22.442  1.00  0.00     0.010 C 
ENDROOT
BRANCH   1   2
ATOM      2  C   UNL     1      11.145 -57.504 -22.265  1.00  0.00     0.000 C 
ATOM      3  C   UNL     1      11.421 -59.106 -24.244  1.00  0.00     0.262 C 
ATOM      4  N   UNL     1      11.724 -60.209 -23.263  1.00  0.00    -0.331 N 
ATOM      5  C   UNL     1      11.811 -57.766 -23.629  1.00  0.00     0.065 C 
ATOM      6  C   UNL     1      10.979 -60.033 -21.963  1.00  0.00     0.262 C 
ATOM      7  C   UNL     1      11.385 -58.705 -21.337  1.00  0.00     0.065 C 
ATOM      8  H   UNL     1      12.723 -60.128 -23.035  1.00  0.00     0.348 HD
BRANCH   4   9
ATOM      9  C   UNL     1      11.585 -61.599 -23.854  1.00  0.00     0.299 C 
BRANCH   9  10
ATOM     10  C   UNL     1      10.211 -62.207 -23.784  1.00  0.00     0.006 A 
ATOM     11  C   UNL     1       9.249 -61.918 -24.766  1.00  0.00     0.009 A 
ATOM     12  C   UNL     1       9.865 -63.079 -22.739  1.00  0.00     0.009 A 
ATOM     13  C   UNL     1       7.982 -62.499 -24.712  1.00  0.00     0.001 A 
ATOM     14  C   UNL     1       8.596 -63.658 -22.688  1.00  0.00     0.001 A 
ATOM     15  C   UNL     1       7.658 -63.372 -23.676  1.00  0.00     0.000 A 
ENDBRANCH   9  10
ENDBRANCH   4   9
ENDBRANCH   1   2
BRANCH   1  16
ATOM     16  C   UNL     1       9.363 -55.905 -23.327  1.00  0.00     0.061 C 
BRANCH  16  17
ATOM     17  C   UNL     1       9.996 -54.647 -22.843  1.00  0.00     0.091 A 
ATOM     18  C   UNL     1      11.032 -53.886 -23.445  1.00  0.00     0.045 A 
ATOM     19  N   UNL     1       9.588 -54.104 -21.687  1.00  0.00    -0.084 NA
ATOM     20  C   UNL     1      11.818 -53.965 -24.613  1.00  0.00     0.020 A 
ATOM     21  C   UNL     1      11.219 -52.831 -22.558  1.00  0.00     0.169 A 
ATOM     22  O   UNL     1      10.358 -52.966 -21.514  1.00  0.00    -0.356 OA
ATOM     23  C   UNL     1      12.750 -52.949 -24.793  1.00  0.00    -0.014 A 
ATOM     24  C   UNL     1      12.146 -51.800 -22.716  1.00  0.00     0.077 A 
ATOM     25  C   UNL     1      13.723 -52.750 -25.923  1.00  0.00     0.138 C 
ATOM     26  C   UNL     1      12.898 -51.911 -23.870  1.00  0.00     0.048 A 
ATOM     27  C   UNL     1      14.442 -51.463 -25.508  1.00  0.00     0.228 C 
ATOM     28  N   UNL     1      13.893 -51.048 -24.300  1.00  0.00    -0.325 N 
ATOM     29  O   UNL     1      15.335 -50.900 -26.117  1.00  0.00    -0.274 OA
ATOM     30  H   UNL     1      14.203 -50.212 -23.825  1.00  0.00     0.169 HD
ENDBRANCH  16  17
ENDBRANCH   1  16
TORSDOF 5
ENDMDL
MODEL 3
REMARK VINA RESULT:   -12.126      3.595      8.469
REMARK INTER + INTRA:         -16.327
REMARK INTER:                 -15.807
REMARK INTRA:                  -0.521
REMARK UNBOUND:                -0.657
REMARK SMILES O=C1Cc2cc3c(CC[C@H]4CC[N@@H+](Cc5ccccc5)CC4)noc3cc2N1
REMARK SMILES IDX 9 1 10 2 12 3 13 4 11 5 21 6 22 7 14 9 15 10 16 11 20 12
REMARK SMILES IDX 17 13 19 14 18 15 8 16 7 17 6 18 23 19 5 20 25 21 24 22 4 23
REMARK SMILES IDX 26 24 3 25 27 26 2 27 28 28 1 29
REMARK H PARENT 13 8 28 30
ROOT
ATOM      1  C   UNL     1      11.219 -56.876 -22.425  1.00  0.00     0.010 C 
ENDROOT
BRANCH   1   2
ATOM      2  C   UNL     1      10.849 -58.332 -22.043  1.00  0.00     0.000 C 
ATOM      3  C   UNL     1      12.015 -59.585 -23.948  1.00  0.00     0.262 C 
ATOM      4  N   UNL     1      10.666 -60.077 -24.404  1.00  0.00    -0.331 N 
ATOM      5  C   UNL     1      11.970 -59.307 -22.449  1.00  0.00     0.065 C 
ATOM      6  C   UNL     1       9.573 -59.075 -24.125  1.00  0.00     0.262 C 
ATOM      7  C   UNL     1       9.511 -58.815 -22.625  1.00  0.00     0.065 C 
ATOM      8  H   UNL     1      10.451 -60.903 -23.832  1.00  0.00     0.348 HD
BRANCH   4   9
ATOM      9  C   UNL     1      10.660 -60.594 -25.829  1.00  0.00     0.299 C 
BRANCH   9  10
ATOM     10  C   UNL     1       9.599 -61.609 -26.155  1.00  0.00     0.006 A 
ATOM     11  C   UNL     1       8.905 -62.274 -25.130  1.00  0.00     0.009 A 
ATOM     12  C   UNL     1       9.280 -61.909 -27.490  1.00  0.00     0.009 A 
ATOM     13  C   UNL     1       7.908 -63.200 -25.434  1.00  0.00     0.001 A 
ATOM     14  C   UNL     1       8.281 -62.837 -27.789  1.00  0.00     0.001 A 
ATOM     15  C   UNL     1       7.593 -63.478 -26.762  1.00  0.00     0.000 A 
ENDBRANCH   9  10
ENDBRANCH   4   9
ENDBRANCH   1   2
BRANCH   1  16
ATOM     16  C   UNL     1      10.046 -55.889 -22.540  1.00  0.00     0.061 C 
BRANCH  16  17
ATOM     17  C   UNL     1      10.439 -54.464 -22.361  1.00  0.00     0.091 A 
ATOM     18  C   UNL     1      11.259 -53.657 -23.194  1.00  0.00     0.045 A 
ATOM     19  N   UNL     1      10.002 -53.787 -21.290  1.00  0.00    -0.084 NA
ATOM     20  C   UNL     1      11.970 -53.819 -24.400  1.00  0.00     0.020 A 
ATOM     21  C   UNL     1      11.283 -52.431 -22.538  1.00  0.00     0.169 A 
ATOM     22  O   UNL     1      10.533 -52.514 -21.406  1.00  0.00    -0.356 OA
ATOM     23  C   UNL     1      12.664 -52.704 -24.856  1.00  0.00    -0.014 A 
ATOM     24  C   UNL     1      11.969 -51.297 -22.975  1.00  0.00     0.077 A 
ATOM     25  C   UNL     1      13.503 -52.555 -26.095  1.00  0.00     0.138 C 
ATOM     26  C   UNL     1      12.654 -51.493 -24.159  1.00  0.00     0.048 A 
ATOM     27  C   UNL     1      13.970 -51.099 -25.998  1.00  0.00     0.228 C 
ATOM     28  N   UNL     1      13.424 -50.562 -24.838  1.00  0.00    -0.325 N 
ATOM     29  O   UNL     1      14.690 -50.512 -26.786  1.00  0.00    -0.274 OA
ATOM     30  H   UNL     1      13.587 -49.605 -24.557  1.00  0.00     0.169 HD
ENDBRANCH  16  17
ENDBRANCH   1  16
TORSDOF 5
ENDMDL
MODEL 4
REMARK VINA RESULT:   -11.191      1.562      2.608
REMARK INTER + INTRA:         -15.119
REMARK INTER:                 -14.459
REMARK INTRA:                  -0.660
REMARK UNBOUND:                -0.657
REMARK SMILES O=C1Cc2cc3c(CC[C@H]4CC[N@@H+](Cc5ccccc5)CC4)noc3cc2N1
REMARK SMILES IDX 9 1 10 2 12 3 13 4 11 5 21 6 22 7 14 9 15 10 16 11 20 12
REMARK SMILES IDX 17 13 19 14 18 15 8 16 7 17 6 18 23 19 5 20 25 21 24 22 4 23
REMARK SMILES IDX 26 24 3 25 27 26 2 27 28 28 1 29
REMARK H PARENT 13 8 28 30
ROOT
ATOM      1  C   UNL     1      10.237 -59.655 -21.939  1.00  0.00     0.010 C 
ENDROOT
BRANCH   1   2
ATOM      2  C   UNL     1      11.564 -58.854 -21.898  1.00  0.00     0.000 C 
ATOM      3  C   UNL     1      10.626 -56.476 -21.753  1.00  0.00     0.262 C 
ATOM      4  N   UNL     1      11.272 -56.178 -23.082  1.00  0.00    -0.331 N 
ATOM      5  C   UNL     1      11.409 -57.579 -21.049  1.00  0.00     0.065 C 
ATOM      6  C   UNL     1      11.318 -57.392 -23.975  1.00  0.00     0.262 C 
ATOM      7  C   UNL     1      12.120 -58.486 -23.283  1.00  0.00     0.065 C 
ATOM      8  H   UNL     1      12.249 -55.933 -22.879  1.00  0.00     0.348 HD
BRANCH   4   9
ATOM      9  C   UNL     1      10.709 -54.947 -23.765  1.00  0.00     0.299 C 
BRANCH   9  10
ATOM     10  C   UNL     1      11.719 -53.929 -24.219  1.00  0.00     0.006 A 
ATOM     11  C   UNL     1      12.508 -54.161 -25.357  1.00  0.00     0.009 A 
ATOM     12  C   UNL     1      11.888 -52.725 -23.515  1.00  0.00     0.009 A 
ATOM     13  C   UNL     1      13.430 -53.206 -25.788  1.00  0.00     0.001 A 
ATOM     14  C   UNL     1      12.812 -51.773 -23.950  1.00  0.00     0.001 A 
ATOM     15  C   UNL     1      13.578 -52.012 -25.087  1.00  0.00     0.000 A 
ENDBRANCH   9  10
ENDBRANCH   4   9
ENDBRANCH   1   2
BRANCH   1  16
ATOM     16  C   UNL     1      10.367 -61.166 -22.189  1.00  0.00     0.061 C 
BRANCH  16  17
ATOM     17  C   UNL     1       9.744 -61.621 -23.463  1.00  0.00     0.091 A 
ATOM     18  C   UNL     1      10.105 -61.288 -24.796  1.00  0.00     0.045 A 
ATOM     19  N   UNL     1       8.695 -62.454 -23.426  1.00  0.00    -0.084 NA
ATOM     20  C   UNL     1      11.081 -60.490 -25.426  1.00  0.00     0.020 A 
ATOM     21  C   UNL     1       9.185 -61.991 -25.567  1.00  0.00     0.169 A 
ATOM     22  O   UNL     1       8.349 -62.683 -24.748  1.00  0.00    -0.356 OA
ATOM     23  C   UNL     1      11.048 -60.466 -26.816  1.00  0.00    -0.014 A 
ATOM     24  C   UNL     1       9.132 -61.985 -26.962  1.00  0.00     0.077 A 
ATOM     25  C   UNL     1      11.944 -59.724 -27.769  1.00  0.00     0.138 C 
ATOM     26  C   UNL     1      10.102 -61.192 -27.544  1.00  0.00     0.048 A 
ATOM     27  C   UNL     1      11.371 -60.125 -29.132  1.00  0.00     0.228 C 
ATOM     28  N   UNL     1      10.302 -60.983 -28.899  1.00  0.00    -0.325 N 
ATOM     29  O   UNL     1      11.771 -59.763 -30.224  1.00  0.00    -0.274 OA
ATOM     30  H   UNL     1       9.762 -61.388 -29.651  1.00  0.00     0.169 HD
ENDBRANCH  16  17
ENDBRANCH   1  16
TORSDOF 5
ENDMDL
MODEL 5
REMARK VINA RESULT:   -11.119      3.901      9.036
REMARK INTER + INTRA:         -15.026
REMARK INTER:                 -14.803
REMARK INTRA:                  -0.223
REMARK UNBOUND:                -0.657
REMARK SMILES O=C1Cc2cc3c(CC[C@H]4CC[N@@H+](Cc5ccccc5)CC4)noc3cc2N1
REMARK SMILES IDX 9 1 10 2 12 3 13 4 11 5 21 6 22 7 14 9 15 10 16 11 20 12
REMARK SMILES IDX 17 13 19 14 18 15 8 16 7 17 6 18 23 19 5 20 25 21 24 22 4 23
REMARK SMILES IDX 26 24 3 25 27 26 2 27 28 28 1 29
REMARK H PARENT 13 8 28 30
ROOT
ATOM      1  C   UNL     1      10.130 -56.568 -23.084  1.00  0.00     0.010 C 
ENDROOT
BRANCH   1   2
ATOM      2  C   UNL     1      11.092 -57.620 -22.474  1.00  0.00     0.000 C 
ATOM      3  C   UNL     1      11.565 -59.028 -24.560  1.00  0.00     0.262 C 
ATOM      4  N   UNL     1      10.923 -60.204 -23.869  1.00  0.00    -0.331 N 
ATOM      5  C   UNL     1      12.133 -58.078 -23.512  1.00  0.00     0.065 C 
ATOM      6  C   UNL     1       9.813 -59.779 -22.941  1.00  0.00     0.262 C 
ATOM      7  C   UNL     1      10.385 -58.849 -21.880  1.00  0.00     0.065 C 
ATOM      8  H   UNL     1      11.650 -60.622 -23.276  1.00  0.00     0.348 HD
BRANCH   4   9
ATOM      9  C   UNL     1      10.524 -61.318 -24.817  1.00  0.00     0.299 C 
BRANCH   9  10
ATOM     10  C   UNL     1       9.519 -62.303 -24.285  1.00  0.00     0.006 A 
ATOM     11  C   UNL     1       8.343 -62.583 -25.000  1.00  0.00     0.009 A 
ATOM     12  C   UNL     1       9.741 -62.966 -23.067  1.00  0.00     0.009 A 
ATOM     13  C   UNL     1       7.422 -63.512 -24.516  1.00  0.00     0.001 A 
ATOM     14  C   UNL     1       8.817 -63.895 -22.586  1.00  0.00     0.001 A 
ATOM     15  C   UNL     1       7.661 -64.171 -23.312  1.00  0.00     0.000 A 
ENDBRANCH   9  10
ENDBRANCH   4   9
ENDBRANCH   1   2
BRANCH   1  16
ATOM     16  C   UNL     1      10.395 -55.105 -22.696  1.00  0.00     0.061 C 
BRANCH  16  17
ATOM     17  C   UNL     1      11.261 -54.374 -23.662  1.00  0.00     0.091 A 
ATOM     18  C   UNL     1      11.691 -53.020 -23.621  1.00  0.00     0.045 A 
ATOM     19  N   UNL     1      11.733 -55.011 -24.743  1.00  0.00    -0.084 NA
ATOM     20  C   UNL     1      11.517 -51.914 -22.765  1.00  0.00     0.020 A 
ATOM     21  C   UNL     1      12.465 -52.890 -24.769  1.00  0.00     0.169 A 
ATOM     22  O   UNL     1      12.487 -54.077 -25.432  1.00  0.00    -0.356 OA
ATOM     23  C   UNL     1      12.153 -50.738 -23.147  1.00  0.00    -0.014 A 
ATOM     24  C   UNL     1      13.115 -51.723 -25.173  1.00  0.00     0.077 A 
ATOM     25  C   UNL     1      12.165 -49.403 -22.455  1.00  0.00     0.138 C 
ATOM     26  C   UNL     1      12.922 -50.661 -24.311  1.00  0.00     0.048 A 
ATOM     27  C   UNL     1      13.038 -48.561 -23.390  1.00  0.00     0.228 C 
ATOM     28  N   UNL     1      13.433 -49.380 -24.442  1.00  0.00    -0.325 N 
ATOM     29  O   UNL     1      13.336 -47.388 -23.248  1.00  0.00    -0.274 OA
ATOM     30  H   UNL     1      14.024 -49.048 -25.192  1.00  0.00     0.169 HD
ENDBRANCH  16  17
ENDBRANCH   1  16
TORSDOF 5
ENDMDL
MODEL 6
REMARK VINA RESULT:   -10.951      2.916      5.694
REMARK INTER + INTRA:         -14.809
REMARK INTER:                 -14.191
REMARK INTRA:                  -0.618
REMARK UNBOUND:                -0.657
REMARK SMILES O=C1Cc2cc3c(CC[C@H]4CC[N@@H+](Cc5ccccc5)CC4)noc3cc2N1
REMARK SMILES IDX 9 1 10 2 12 3 13 4 11 5 21 6 22 7 14 9 15 10 16 11 20 12
REMARK SMILES IDX 17 13 19 14 18 15 8 16 7 17 6 18 23 19 5 20 25 21 24 22 4 23
REMARK SMILES IDX 26 24 3 25 27 26 2 27 28 28 1 29
REMARK H PARENT 13 8 28 30
ROOT
ATOM      1  C   UNL     1      11.206 -56.047 -22.405  1.00  0.00     0.010 C 
ENDROOT
BRANCH   1   2
ATOM      2  C   UNL     1      10.296 -54.947 -23.009  1.00  0.00     0.000 C 
ATOM      3  C   UNL     1      12.088 -53.356 -23.911  1.00  0.00     0.262 C 
ATOM      4  N   UNL     1      11.584 -52.303 -22.958  1.00  0.00    -0.331 N 
ATOM      5  C   UNL     1      10.951 -54.313 -24.251  1.00  0.00     0.065 C 
ATOM      6  C   UNL     1      11.052 -52.903 -21.681  1.00  0.00     0.262 C 
ATOM      7  C   UNL     1       9.901 -53.842 -22.017  1.00  0.00     0.065 C 
ATOM      8  H   UNL     1      10.783 -51.855 -23.420  1.00  0.00     0.348 HD
BRANCH   4   9
ATOM      9  C   UNL     1      12.568 -51.172 -22.729  1.00  0.00     0.299 C 
BRANCH   9  10
ATOM     10  C   UNL     1      12.122 -49.812 -23.190  1.00  0.00     0.006 A 
ATOM     11  C   UNL     1      10.982 -49.206 -22.637  1.00  0.00     0.009 A 
ATOM     12  C   UNL     1      12.841 -49.119 -24.178  1.00  0.00     0.009 A 
ATOM     13  C   UNL     1      10.582 -47.935 -23.051  1.00  0.00     0.001 A 
ATOM     14  C   UNL     1      12.438 -47.847 -24.588  1.00  0.00     0.001 A 
ATOM     15  C   UNL     1      11.312 -47.255 -24.022  1.00  0.00     0.000 A 
ENDBRANCH   9  10
ENDBRANCH   4   9
ENDBRANCH   1   2
BRANCH   1  16
ATOM     16  C   UNL     1      10.599 -57.457 -22.324  1.00  0.00     0.061 C 
BRANCH  16  17
ATOM     17  C   UNL     1      10.820 -58.278 -23.547  1.00  0.00     0.091 A 
ATOM     18  C   UNL     1      10.086 -59.406 -24.003  1.00  0.00     0.045 A 
ATOM     19  N   UNL     1      11.831 -57.977 -24.373  1.00  0.00    -0.084 NA
ATOM     20  C   UNL     1       8.972 -60.151 -23.566  1.00  0.00     0.020 A 
ATOM     21  C   UNL     1      10.738 -59.764 -25.179  1.00  0.00     0.169 A 
ATOM     22  O   UNL     1      11.774 -58.910 -25.395  1.00  0.00    -0.356 OA
ATOM     23  C   UNL     1       8.597 -61.221 -24.370  1.00  0.00    -0.014 A 
ATOM     24  C   UNL     1      10.381 -60.831 -26.004  1.00  0.00     0.077 A 
ATOM     25  C   UNL     1       7.465 -62.192 -24.182  1.00  0.00     0.138 C 
ATOM     26  C   UNL     1       9.286 -61.538 -25.544  1.00  0.00     0.048 A 
ATOM     27  C   UNL     1       7.612 -63.103 -25.406  1.00  0.00     0.228 C 
ATOM     28  N   UNL     1       8.699 -62.642 -26.140  1.00  0.00    -0.325 N 
ATOM     29  O   UNL     1       6.912 -64.058 -25.689  1.00  0.00    -0.274 OA
ATOM     30  H   UNL     1       8.994 -63.082 -27.000  1.00  0.00     0.169 HD
ENDBRANCH  16  17
ENDBRANCH   1  16
TORSDOF 5
ENDMDL
MODEL 7
REMARK VINA RESULT:   -10.841      3.228      6.157
REMARK INTER + INTRA:         -14.667
REMARK INTER:                 -14.149
REMARK INTRA:                  -0.518
REMARK UNBOUND:                -0.657
REMARK SMILES O=C1Cc2cc3c(CC[C@H]4CC[N@@H+](Cc5ccccc5)CC4)noc3cc2N1
REMARK SMILES IDX 9 1 10 2 12 3 13 4 11 5 21 6 22 7 14 9 15 10 16 11 20 12
REMARK SMILES IDX 17 13 19 14 18 15 8 16 7 17 6 18 23 19 5 20 25 21 24 22 4 23
REMARK SMILES IDX 26 24 3 25 27 26 2 27 28 28 1 29
REMARK H PARENT 13 8 28 30
ROOT
ATOM      1  C   UNL     1      11.022 -55.682 -21.837  1.00  0.00     0.010 C 
ENDROOT
BRANCH   1   2
ATOM      2  C   UNL     1      10.125 -54.604 -22.500  1.00  0.00     0.000 C 
ATOM      3  C   UNL     1      11.891 -53.368 -23.883  1.00  0.00     0.262 C 
ATOM      4  N   UNL     1      11.613 -52.132 -23.068  1.00  0.00    -0.331 N 
ATOM      5  C   UNL     1      10.644 -54.246 -23.905  1.00  0.00     0.065 C 
ATOM      6  C   UNL     1      11.224 -52.463 -21.649  1.00  0.00     0.262 C 
ATOM      7  C   UNL     1       9.966 -53.321 -21.669  1.00  0.00     0.065 C 
ATOM      8  H   UNL     1      10.793 -51.683 -23.494  1.00  0.00     0.348 HD
BRANCH   4   9
ATOM      9  C   UNL     1      12.706 -51.085 -23.165  1.00  0.00     0.299 C 
BRANCH   9  10
ATOM     10  C   UNL     1      12.248 -49.680 -23.442  1.00  0.00     0.006 A 
ATOM     11  C   UNL     1      12.928 -48.875 -24.370  1.00  0.00     0.009 A 
ATOM     12  C   UNL     1      11.128 -49.148 -22.782  1.00  0.00     0.009 A 
ATOM     13  C   UNL     1      12.489 -47.579 -24.641  1.00  0.00     0.001 A 
ATOM     14  C   UNL     1      10.692 -47.851 -23.056  1.00  0.00     0.001 A 
ATOM     15  C   UNL     1      11.370 -47.069 -23.988  1.00  0.00     0.000 A 
ENDBRANCH   9  10
ENDBRANCH   4   9
ENDBRANCH   1   2
BRANCH   1  16
ATOM     16  C   UNL     1      11.415 -56.873 -22.724  1.00  0.00     0.061 C 
BRANCH  16  17
ATOM     17  C   UNL     1      10.982 -58.193 -22.188  1.00  0.00     0.091 A 
ATOM     18  C   UNL     1      10.338 -59.260 -22.869  1.00  0.00     0.045 A 
ATOM     19  N   UNL     1      11.189 -58.482 -20.896  1.00  0.00    -0.084 NA
ATOM     20  C   UNL     1       9.885 -59.516 -24.179  1.00  0.00     0.020 A 
ATOM     21  C   UNL     1      10.173 -60.224 -21.880  1.00  0.00     0.169 A 
ATOM     22  O   UNL     1      10.681 -59.756 -20.709  1.00  0.00    -0.356 OA
ATOM     23  C   UNL     1       9.287 -60.754 -24.389  1.00  0.00    -0.014 A 
ATOM     24  C   UNL     1       9.578 -61.473 -22.065  1.00  0.00     0.077 A 
ATOM     25  C   UNL     1       8.712 -61.322 -25.657  1.00  0.00     0.138 C 
ATOM     26  C   UNL     1       9.146 -61.688 -23.360  1.00  0.00     0.048 A 
ATOM     27  C   UNL     1       8.222 -62.700 -25.201  1.00  0.00     0.228 C 
ATOM     28  N   UNL     1       8.520 -62.823 -23.849  1.00  0.00    -0.325 N 
ATOM     29  O   UNL     1       7.669 -63.539 -25.890  1.00  0.00    -0.274 OA
ATOM     30  H   UNL     1       8.295 -63.655 -23.321  1.00  0.00     0.169 HD
ENDBRANCH  16  17
ENDBRANCH   1  16
TORSDOF 5
ENDMDL
MODEL 8
REMARK VINA RESULT:   -10.642      3.458      6.063
REMARK INTER + INTRA:         -14.409
REMARK INTER:                 -14.910
REMARK INTRA:                   0.501
REMARK UNBOUND:                -0.657
REMARK SMILES O=C1Cc2cc3c(CC[C@H]4CC[N@@H+](Cc5ccccc5)CC4)noc3cc2N1
REMARK SMILES IDX 9 1 10 2 12 3 13 4 11 5 21 6 22 7 14 9 15 10 16 11 20 12
REMARK SMILES IDX 17 13 19 14 18 15 8 16 7 17 6 18 23 19 5 20 25 21 24 22 4 23
REMARK SMILES IDX 26 24 3 25 27 26 2 27 28 28 1 29
REMARK H PARENT 13 8 28 30
ROOT
ATOM      1  C   UNL     1      10.984 -56.150 -22.005  1.00  0.00     0.010 C 
ENDROOT
BRANCH   1   2
ATOM      2  C   UNL     1      10.054 -55.030 -22.539  1.00  0.00     0.000 C 
ATOM      3  C   UNL     1      11.742 -53.699 -23.931  1.00  0.00     0.262 C 
ATOM      4  N   UNL     1      11.515 -52.522 -23.017  1.00  0.00    -0.331 N 
ATOM      5  C   UNL     1      10.494 -54.575 -23.943  1.00  0.00     0.065 C 
ATOM      6  C   UNL     1      11.206 -52.953 -21.605  1.00  0.00     0.262 C 
ATOM      7  C   UNL     1       9.946 -53.808 -21.613  1.00  0.00     0.065 C 
ATOM      8  H   UNL     1      10.673 -52.046 -23.363  1.00  0.00     0.348 HD
BRANCH   4   9
ATOM      9  C   UNL     1      12.604 -51.471 -23.102  1.00  0.00     0.299 C 
BRANCH   9  10
ATOM     10  C   UNL     1      12.136 -50.056 -23.305  1.00  0.00     0.006 A 
ATOM     11  C   UNL     1      11.017 -49.565 -22.612  1.00  0.00     0.009 A 
ATOM     12  C   UNL     1      12.811 -49.198 -24.189  1.00  0.00     0.009 A 
ATOM     13  C   UNL     1      10.597 -48.246 -22.786  1.00  0.00     0.001 A 
ATOM     14  C   UNL     1      12.386 -47.879 -24.360  1.00  0.00     0.001 A 
ATOM     15  C   UNL     1      11.284 -47.403 -23.656  1.00  0.00     0.000 A 
ENDBRANCH   9  10
ENDBRANCH   4   9
ENDBRANCH   1   2
BRANCH   1  16
ATOM     16  C   UNL     1      10.984 -57.465 -22.800  1.00  0.00     0.061 C 
BRANCH  16  17
ATOM     17  C   UNL     1       9.621 -57.989 -23.098  1.00  0.00     0.091 A 
ATOM     18  C   UNL     1       9.174 -59.337 -23.122  1.00  0.00     0.045 A 
ATOM     19  N   UNL     1       8.635 -57.133 -23.398  1.00  0.00    -0.084 NA
ATOM     20  C   UNL     1       9.738 -60.609 -22.903  1.00  0.00     0.020 A 
ATOM     21  C   UNL     1       7.830 -59.227 -23.462  1.00  0.00     0.169 A 
ATOM     22  O   UNL     1       7.514 -57.914 -23.624  1.00  0.00    -0.356 OA
ATOM     23  C   UNL     1       8.879 -61.693 -23.047  1.00  0.00    -0.014 A 
ATOM     24  C   UNL     1       6.947 -60.297 -23.611  1.00  0.00     0.077 A 
ATOM     25  C   UNL     1       9.171 -63.159 -22.879  1.00  0.00     0.138 C 
ATOM     26  C   UNL     1       7.535 -61.528 -23.389  1.00  0.00     0.048 A 
ATOM     27  C   UNL     1       7.811 -63.797 -23.179  1.00  0.00     0.228 C 
ATOM     28  N   UNL     1       6.921 -62.768 -23.464  1.00  0.00    -0.325 N 
ATOM     29  O   UNL     1       7.549 -64.987 -23.173  1.00  0.00    -0.274 OA
ATOM     30  H   UNL     1       5.952 -62.940 -23.690  1.00  0.00     0.169 HD
ENDBRANCH  16  17
ENDBRANCH   1  16
TORSDOF 5
ENDMDL
MODEL 9
REMARK VINA RESULT:   -10.572      5.916     11.107
REMARK INTER + INTRA:         -14.319
REMARK INTER:                 -13.990
REMARK INTRA:                  -0.329
REMARK UNBOUND:                -0.657
REMARK SMILES O=C1Cc2cc3c(CC[C@H]4CC[N@@H+](Cc5ccccc5)CC4)noc3cc2N1
REMARK SMILES IDX 9 1 10 2 12 3 13 4 11 5 21 6 22 7 14 9 15 10 16 11 20 12
REMARK SMILES IDX 17 13 19 14 18 15 8 16 7 17 6 18 23 19 5 20 25 21 24 22 4 23
REMARK SMILES IDX 26 24 3 25 27 26 2 27 28 28 1 29
REMARK H PARENT 13 8 28 30
ROOT
ATOM      1  C   UNL     1      11.722 -53.013 -23.263  1.00  0.00     0.010 C 
ENDROOT
BRANCH   1   2
ATOM      2  C   UNL     1      10.422 -53.846 -23.121  1.00  0.00     0.000 C 
ATOM      3  C   UNL     1      11.004 -55.191 -21.021  1.00  0.00     0.262 C 
ATOM      4  N   UNL     1      10.918 -56.449 -21.846  1.00  0.00    -0.331 N 
ATOM      5  C   UNL     1      10.108 -54.123 -21.639  1.00  0.00     0.065 C 
ATOM      6  C   UNL     1      11.344 -56.221 -23.275  1.00  0.00     0.262 C 
ATOM      7  C   UNL     1      10.435 -55.170 -23.900  1.00  0.00     0.065 C 
ATOM      8  H   UNL     1       9.924 -56.706 -21.880  1.00  0.00     0.348 HD
BRANCH   4   9
ATOM      9  C   UNL     1      11.592 -57.644 -21.200  1.00  0.00     0.299 C 
BRANCH   9  10
ATOM     10  C   UNL     1      11.319 -58.978 -21.840  1.00  0.00     0.006 A 
ATOM     11  C   UNL     1      10.293 -59.806 -21.358  1.00  0.00     0.009 A 
ATOM     12  C   UNL     1      12.083 -59.418 -22.933  1.00  0.00     0.009 A 
ATOM     13  C   UNL     1      10.027 -61.034 -21.965  1.00  0.00     0.001 A 
ATOM     14  C   UNL     1      11.814 -60.647 -23.538  1.00  0.00     0.001 A 
ATOM     15  C   UNL     1      10.785 -61.451 -23.057  1.00  0.00     0.000 A 
ENDBRANCH   9  10
ENDBRANCH   4   9
ENDBRANCH   1   2
BRANCH   1  16
ATOM     16  C   UNL     1      11.720 -51.634 -22.585  1.00  0.00     0.061 C 
BRANCH  16  17
ATOM     17  C   UNL     1      12.225 -50.534 -23.453  1.00  0.00     0.091 A 
ATOM     18  C   UNL     1      11.863 -49.161 -23.446  1.00  0.00     0.045 A 
ATOM     19  N   UNL     1      13.141 -50.802 -24.394  1.00  0.00    -0.084 NA
ATOM     20  C   UNL     1      10.987 -48.334 -22.714  1.00  0.00     0.020 A 
ATOM     21  C   UNL     1      12.639 -48.615 -24.463  1.00  0.00     0.169 A 
ATOM     22  O   UNL     1      13.397 -49.595 -25.023  1.00  0.00    -0.356 OA
ATOM     23  C   UNL     1      10.966 -46.992 -23.076  1.00  0.00    -0.014 A 
ATOM     24  C   UNL     1      12.637 -47.273 -24.845  1.00  0.00     0.077 A 
ATOM     25  C   UNL     1      10.153 -45.869 -22.494  1.00  0.00     0.138 C 
ATOM     26  C   UNL     1      11.767 -46.494 -24.107  1.00  0.00     0.048 A 
ATOM     27  C   UNL     1      10.600 -44.672 -23.339  1.00  0.00     0.228 C 
ATOM     28  N   UNL     1      11.542 -45.134 -24.251  1.00  0.00    -0.325 N 
ATOM     29  O   UNL     1      10.206 -43.524 -23.240  1.00  0.00    -0.274 OA
ATOM     30  H   UNL     1      11.990 -44.524 -24.920  1.00  0.00     0.169 HD
ENDBRANCH  16  17
ENDBRANCH   1  16
TORSDOF 5
ENDMDL
