MODEL 1
REMARK VINA RESULT:   -13.052      0.000      0.000
REMARK INTER + INTRA:         -19.415
REMARK INTER:                 -18.394
REMARK INTRA:                  -1.021
REMARK UNBOUND:                -1.021
REMARK SMILES Cc1cc(=O)[nH]c2c1C(=O)C(NCCCCNc1c3c(nc4cc(Cl)ccc14)CCCC3)=CC2=O
REMARK SMILES IDX 14 1 13 2 12 3 11 5 2 6 3 7 8 8 4 9 7 10 9 11 6 12 34 13
REMARK SMILES IDX 33 14 1 15 5 16 10 17 35 19 15 20 16 21 17 22 18 24 19 25
REMARK SMILES IDX 28 26 20 27 32 28 27 29 22 30 21 31 29 32 31 33 26 34 23 35
REMARK SMILES IDX 30 36 24 37 25 38
REMARK H PARENT 12 4 6 18 17 23
ROOT
ATOM      1  C   UNL     1      11.389 -58.135 -21.907  1.00  0.00     0.023 C 
ENDROOT
BRANCH   1   2
ATOM      2  C   UNL     1      10.303 -57.621 -22.854  1.00  0.00     0.113 C 
BRANCH   2   3
ATOM      3  N   UNL     1      10.826 -56.556 -23.692  1.00  0.00    -0.382 N 
ATOM      4  H   UNL     1      10.533 -56.605 -24.676  1.00  0.00     0.160 HD
BRANCH   3   5
ATOM      5  C   UNL     1      10.989 -55.225 -23.314  1.00  0.00     0.087 C 
ATOM      6  C   UNL     1      12.856 -52.054 -24.806  1.00  0.00    -0.032 A 
ATOM      7  C   UNL     1      13.064 -50.775 -24.433  1.00  0.00     0.075 A 
ATOM      8  C   UNL     1      12.059 -52.945 -23.945  1.00  0.00     0.055 A 
ATOM      9  C   UNL     1      12.503 -50.245 -23.169  1.00  0.00     0.248 A 
ATOM     10  C   UNL     1      11.561 -52.450 -22.798  1.00  0.00     0.101 A 
ATOM     11  C   UNL     1      11.770 -54.372 -24.293  1.00  0.00     0.211 C 
ATOM     12  N   UNL     1      11.782 -51.140 -22.431  1.00  0.00    -0.319 N 
ATOM     13  C   UNL     1      10.749 -53.261 -21.858  1.00  0.00     0.205 C 
ATOM     14  C   UNL     1      10.523 -54.671 -22.191  1.00  0.00     0.084 C 
ATOM     15  C   UNL     1      13.446 -52.557 -26.093  1.00  0.00     0.045 C 
ATOM     16  O   UNL     1      12.687 -49.085 -22.828  1.00  0.00    -0.270 OA
ATOM     17  O   UNL     1      12.126 -54.885 -25.353  1.00  0.00    -0.287 OA
ATOM     18  H   UNL     1      11.383 -50.809 -21.557  1.00  0.00     0.170 HD
ATOM     19  O   UNL     1      10.283 -52.776 -20.832  1.00  0.00    -0.288 OA
ENDBRANCH   3   5
ENDBRANCH   2   3
ENDBRANCH   1   2
BRANCH   1  20
ATOM     20  C   UNL     1      11.018 -59.477 -21.270  1.00  0.00     0.023 C 
BRANCH  20  21
ATOM     21  C   UNL     1      10.055 -60.266 -22.158  1.00  0.00     0.113 C 
BRANCH  21  22
ATOM     22  N   UNL     1      10.817 -61.278 -22.902  1.00  0.00    -0.384 N 
ATOM     23  H   UNL     1      11.790 -60.992 -22.994  1.00  0.00     0.160 HD
BRANCH  22  24
ATOM     24  C   UNL     1      10.262 -61.505 -24.197  1.00  0.00     0.049 A 
ATOM     25  C   UNL     1       9.155 -62.370 -24.310  1.00  0.00    -0.003 A 
ATOM     26  C   UNL     1      10.752 -60.826 -25.349  1.00  0.00     0.024 A 
ATOM     27  C   UNL     1       8.605 -62.555 -25.578  1.00  0.00     0.046 A 
ATOM     28  C   UNL     1       8.655 -63.160 -23.123  1.00  0.00     0.039 C 
ATOM     29  C   UNL     1      11.844 -59.920 -25.344  1.00  0.00     0.014 A 
ATOM     30  C   UNL     1      10.096 -61.079 -26.572  1.00  0.00     0.074 A 
ATOM     31  N   UNL     1       9.056 -61.912 -26.681  1.00  0.00    -0.252 NA
ATOM     32  C   UNL     1       7.419 -63.457 -25.804  1.00  0.00     0.056 C 
ATOM     33  C   UNL     1       7.288 -63.808 -23.340  1.00  0.00     0.005 C 
ATOM     34  C   UNL     1      12.268 -59.292 -26.514  1.00  0.00     0.021 A 
ATOM     35  C   UNL     1      10.533 -60.443 -27.725  1.00  0.00     0.049 A 
ATOM     36  C   UNL     1       7.229 -64.489 -24.698  1.00  0.00     0.007 C 
ATOM     37  C   UNL     1      11.606 -59.559 -27.703  1.00  0.00     0.043 A 
ATOM     38  Cl  UNL     1      12.116 -58.790 -29.155  1.00  0.00    -0.084 Cl
ENDBRANCH  22  24
ENDBRANCH  21  22
ENDBRANCH  20  21
ENDBRANCH   1  20
TORSDOF 7
ENDMDL
MODEL 2
REMARK VINA RESULT:   -11.591      1.150      2.175
REMARK INTER + INTRA:         -17.356
REMARK INTER:                 -16.758
REMARK INTRA:                  -0.598
REMARK UNBOUND:                -1.021
REMARK SMILES Cc1cc(=O)[nH]c2c1C(=O)C(NCCCCNc1c3c(nc4cc(Cl)ccc14)CCCC3)=CC2=O
REMARK SMILES IDX 14 1 13 2 12 3 11 5 2 6 3 7 8 8 4 9 7 10 9 11 6 12 34 13
REMARK SMILES IDX 33 14 1 15 5 16 10 17 35 19 15 20 16 21 17 22 18 24 19 25
REMARK SMILES IDX 28 26 20 27 32 28 27 29 22 30 21 31 29 32 31 33 26 34 23 35
REMARK SMILES IDX 30 36 24 37 25 38
REMARK H PARENT 12 4 6 18 17 23
ROOT
ATOM      1  C   UNL     1      10.060 -57.867 -22.663  1.00  0.00     0.023 C 
ENDROOT
BRANCH   1   2
ATOM      2  C   UNL     1      11.278 -57.024 -23.041  1.00  0.00     0.113 C 
BRANCH   2   3
ATOM      3  N   UNL     1      10.915 -56.031 -24.038  1.00  0.00    -0.382 N 
ATOM      4  H   UNL     1       9.903 -55.895 -24.156  1.00  0.00     0.160 HD
BRANCH   3   5
ATOM      5  C   UNL     1      11.583 -54.831 -24.277  1.00  0.00     0.087 C 
ATOM      6  C   UNL     1      11.534 -51.186 -22.704  1.00  0.00    -0.032 A 
ATOM      7  C   UNL     1      12.136 -50.005 -22.951  1.00  0.00     0.075 A 
ATOM      8  C   UNL     1      11.850 -52.356 -23.542  1.00  0.00     0.055 A 
ATOM      9  C   UNL     1      13.113 -49.859 -24.055  1.00  0.00     0.248 A 
ATOM     10  C   UNL     1      12.736 -52.206 -24.543  1.00  0.00     0.101 A 
ATOM     11  C   UNL     1      11.238 -53.705 -23.325  1.00  0.00     0.211 C 
ATOM     12  N   UNL     1      13.342 -50.992 -24.782  1.00  0.00    -0.319 N 
ATOM     13  C   UNL     1      13.122 -53.317 -25.448  1.00  0.00     0.205 C 
ATOM     14  C   UNL     1      12.470 -54.616 -25.252  1.00  0.00     0.084 C 
ATOM     15  C   UNL     1      10.543 -51.293 -21.580  1.00  0.00     0.045 C 
ATOM     16  O   UNL     1      13.663 -48.791 -24.280  1.00  0.00    -0.270 OA
ATOM     17  O   UNL     1      10.473 -53.948 -22.392  1.00  0.00    -0.287 OA
ATOM     18  H   UNL     1      14.008 -50.927 -25.548  1.00  0.00     0.170 HD
ATOM     19  O   UNL     1      13.954 -53.159 -26.335  1.00  0.00    -0.288 OA
ENDBRANCH   3   5
ENDBRANCH   2   3
ENDBRANCH   1   2
BRANCH   1  20
ATOM     20  C   UNL     1      10.448 -59.274 -22.199  1.00  0.00     0.023 C 
BRANCH  20  21
ATOM     21  C   UNL     1      11.795 -59.699 -22.783  1.00  0.00     0.113 C 
BRANCH  21  22
ATOM     22  N   UNL     1      11.729 -61.123 -23.140  1.00  0.00    -0.384 N 
ATOM     23  H   UNL     1      12.662 -61.485 -23.327  1.00  0.00     0.160 HD
BRANCH  22  24
ATOM     24  C   UNL     1      10.896 -61.341 -24.277  1.00  0.00     0.049 A 
ATOM     25  C   UNL     1       9.739 -62.132 -24.120  1.00  0.00    -0.003 A 
ATOM     26  C   UNL     1      11.165 -60.720 -25.530  1.00  0.00     0.024 A 
ATOM     27  C   UNL     1       8.919 -62.307 -25.234  1.00  0.00     0.046 A 
ATOM     28  C   UNL     1       9.460 -62.861 -22.826  1.00  0.00     0.039 C 
ATOM     29  C   UNL     1      12.286 -59.890 -25.791  1.00  0.00     0.014 A 
ATOM     30  C   UNL     1      10.248 -60.956 -26.576  1.00  0.00     0.074 A 
ATOM     31  N   UNL     1       9.159 -61.720 -26.430  1.00  0.00    -0.252 NA
ATOM     32  C   UNL     1       7.659 -63.133 -25.169  1.00  0.00     0.056 C 
ATOM     33  C   UNL     1       8.042 -63.420 -22.723  1.00  0.00     0.005 C 
ATOM     34  C   UNL     1      12.485 -59.317 -27.047  1.00  0.00     0.021 A 
ATOM     35  C   UNL     1      10.463 -60.376 -27.817  1.00  0.00     0.049 A 
ATOM     36  C   UNL     1       7.651 -64.126 -24.013  1.00  0.00     0.007 C 
ATOM     37  C   UNL     1      11.568 -59.565 -28.056  1.00  0.00     0.043 A 
ATOM     38  Cl  UNL     1      11.798 -58.863 -29.610  1.00  0.00    -0.084 Cl
ENDBRANCH  22  24
ENDBRANCH  21  22
ENDBRANCH  20  21
ENDBRANCH   1  20
TORSDOF 7
ENDMDL
MODEL 3
REMARK VINA RESULT:   -11.534      4.024     10.996
REMARK INTER + INTRA:         -17.275
REMARK INTER:                 -16.648
REMARK INTRA:                  -0.628
REMARK UNBOUND:                -1.021
REMARK SMILES Cc1cc(=O)[nH]c2c1C(=O)C(NCCCCNc1c3c(nc4cc(Cl)ccc14)CCCC3)=CC2=O
REMARK SMILES IDX 14 1 13 2 12 3 11 5 2 6 3 7 8 8 4 9 7 10 9 11 6 12 34 13
REMARK SMILES IDX 33 14 1 15 5 16 10 17 35 19 15 20 16 21 17 22 18 24 19 25
REMARK SMILES IDX 28 26 20 27 32 28 27 29 22 30 21 31 29 32 31 33 26 34 23 35
REMARK SMILES IDX 30 36 24 37 25 38
REMARK H PARENT 12 4 6 18 17 23
ROOT
ATOM      1  C   UNL     1      10.005 -53.448 -22.650  1.00  0.00     0.023 C 
ENDROOT
BRANCH   1   2
ATOM      2  C   UNL     1      10.022 -54.897 -22.163  1.00  0.00     0.113 C 
BRANCH   2   3
ATOM      3  N   UNL     1       9.983 -55.810 -23.292  1.00  0.00    -0.382 N 
ATOM      4  H   UNL     1      10.762 -55.703 -23.954  1.00  0.00     0.160 HD
BRANCH   3   5
ATOM      5  C   UNL     1       9.579 -57.143 -23.252  1.00  0.00     0.087 C 
ATOM      6  C   UNL     1      11.362 -60.669 -23.645  1.00  0.00    -0.032 A 
ATOM      7  C   UNL     1      10.982 -61.963 -23.656  1.00  0.00     0.075 A 
ATOM      8  C   UNL     1      10.353 -59.613 -23.445  1.00  0.00     0.055 A 
ATOM      9  C   UNL     1       9.563 -62.345 -23.470  1.00  0.00     0.248 A 
ATOM     10  C   UNL     1       9.070 -59.977 -23.281  1.00  0.00     0.101 A 
ATOM     11  C   UNL     1      10.694 -58.156 -23.405  1.00  0.00     0.211 C 
ATOM     12  N   UNL     1       8.697 -61.303 -23.295  1.00  0.00    -0.319 N 
ATOM     13  C   UNL     1       7.975 -58.996 -23.077  1.00  0.00     0.205 C 
ATOM     14  C   UNL     1       8.323 -57.571 -23.095  1.00  0.00     0.084 C 
ATOM     15  C   UNL     1      12.809 -60.319 -23.844  1.00  0.00     0.045 C 
ATOM     16  O   UNL     1       9.214 -63.518 -23.476  1.00  0.00    -0.270 OA
ATOM     17  O   UNL     1      11.851 -57.739 -23.475  1.00  0.00    -0.287 OA
ATOM     18  H   UNL     1       7.715 -61.531 -23.164  1.00  0.00     0.170 HD
ATOM     19  O   UNL     1       6.817 -59.357 -22.902  1.00  0.00    -0.288 OA
ENDBRANCH   3   5
ENDBRANCH   2   3
ENDBRANCH   1   2
BRANCH   1  20
ATOM     20  C   UNL     1      10.630 -52.486 -21.636  1.00  0.00     0.023 C 
BRANCH  20  21
ATOM     21  C   UNL     1      10.428 -51.029 -22.054  1.00  0.00     0.113 C 
BRANCH  21  22
ATOM     22  N   UNL     1      11.658 -50.278 -21.767  1.00  0.00    -0.384 N 
ATOM     23  H   UNL     1      11.518 -49.660 -20.970  1.00  0.00     0.160 HD
BRANCH  22  24
ATOM     24  C   UNL     1      12.081 -49.514 -22.895  1.00  0.00     0.049 A 
ATOM     25  C   UNL     1      12.859 -50.151 -23.884  1.00  0.00    -0.003 A 
ATOM     26  C   UNL     1      11.675 -48.161 -23.076  1.00  0.00     0.024 A 
ATOM     27  C   UNL     1      13.236 -49.398 -24.995  1.00  0.00     0.046 A 
ATOM     28  C   UNL     1      13.365 -51.562 -23.691  1.00  0.00     0.039 C 
ATOM     29  C   UNL     1      10.878 -47.432 -22.157  1.00  0.00     0.014 A 
ATOM     30  C   UNL     1      12.102 -47.513 -24.254  1.00  0.00     0.074 A 
ATOM     31  N   UNL     1      12.854 -48.114 -25.183  1.00  0.00    -0.252 NA
ATOM     32  C   UNL     1      14.065 -49.988 -26.107  1.00  0.00     0.056 C 
ATOM     33  C   UNL     1      13.929 -52.197 -24.961  1.00  0.00     0.005 C 
ATOM     34  C   UNL     1      10.520 -46.107 -22.401  1.00  0.00     0.021 A 
ATOM     35  C   UNL     1      11.735 -46.194 -24.479  1.00  0.00     0.049 A 
ATOM     36  C   UNL     1      14.850 -51.225 -25.682  1.00  0.00     0.007 C 
ATOM     37  C   UNL     1      10.954 -45.494 -23.566  1.00  0.00     0.043 A 
ATOM     38  Cl  UNL     1      10.519 -43.860 -23.885  1.00  0.00    -0.084 Cl
ENDBRANCH  22  24
ENDBRANCH  21  22
ENDBRANCH  20  21
ENDBRANCH   1  20
TORSDOF 7
ENDMDL
MODEL 4
REMARK VINA RESULT:   -11.499      1.723      3.550
REMARK INTER + INTRA:         -17.226
REMARK INTER:                 -17.001
REMARK INTRA:                  -0.225
REMARK UNBOUND:                -1.021
REMARK SMILES Cc1cc(=O)[nH]c2c1C(=O)C(NCCCCNc1c3c(nc4cc(Cl)ccc14)CCCC3)=CC2=O
REMARK SMILES IDX 14 1 13 2 12 3 11 5 2 6 3 7 8 8 4 9 7 10 9 11 6 12 34 13
REMARK SMILES IDX 33 14 1 15 5 16 10 17 35 19 15 20 16 21 17 22 18 24 19 25
REMARK SMILES IDX 28 26 20 27 32 28 27 29 22 30 21 31 29 32 31 33 26 34 23 35
REMARK SMILES IDX 30 36 24 37 25 38
REMARK H PARENT 12 4 6 18 17 23
ROOT
ATOM      1  C   UNL     1      10.057 -58.177 -22.811  1.00  0.00     0.023 C 
ENDROOT
BRANCH   1   2
ATOM      2  C   UNL     1      11.373 -57.439 -23.061  1.00  0.00     0.113 C 
BRANCH   2   3
ATOM      3  N   UNL     1      11.144 -56.260 -23.878  1.00  0.00    -0.382 N 
ATOM      4  H   UNL     1      10.384 -56.357 -24.562  1.00  0.00     0.160 HD
BRANCH   3   5
ATOM      5  C   UNL     1      11.223 -54.938 -23.445  1.00  0.00     0.087 C 
ATOM      6  C   UNL     1      12.936 -51.609 -24.769  1.00  0.00    -0.032 A 
ATOM      7  C   UNL     1      13.063 -50.337 -24.342  1.00  0.00     0.075 A 
ATOM      8  C   UNL     1      12.174 -52.578 -23.961  1.00  0.00     0.055 A 
ATOM      9  C   UNL     1      12.448 -49.891 -23.070  1.00  0.00     0.248 A 
ATOM     10  C   UNL     1      11.626 -52.159 -22.807  1.00  0.00     0.101 A 
ATOM     11  C   UNL     1      11.973 -54.004 -24.371  1.00  0.00     0.211 C 
ATOM     12  N   UNL     1      11.765 -50.855 -22.385  1.00  0.00    -0.319 N 
ATOM     13  C   UNL     1      10.843 -53.052 -21.918  1.00  0.00     0.205 C 
ATOM     14  C   UNL     1      10.705 -54.458 -22.311  1.00  0.00     0.084 C 
ATOM     15  C   UNL     1      13.579 -52.026 -26.061  1.00  0.00     0.045 C 
ATOM     16  O   UNL     1      12.558 -48.737 -22.680  1.00  0.00    -0.270 OA
ATOM     17  O   UNL     1      12.380 -54.453 -25.443  1.00  0.00    -0.287 OA
ATOM     18  H   UNL     1      11.330 -50.582 -21.507  1.00  0.00     0.170 HD
ATOM     19  O   UNL     1      10.330 -52.635 -20.884  1.00  0.00    -0.288 OA
ENDBRANCH   3   5
ENDBRANCH   2   3
ENDBRANCH   1   2
BRANCH   1  20
ATOM     20  C   UNL     1      10.277 -59.603 -22.301  1.00  0.00     0.023 C 
BRANCH  20  21
ATOM     21  C   UNL     1      11.568 -60.200 -22.861  1.00  0.00     0.113 C 
BRANCH  21  22
ATOM     22  N   UNL     1      11.305 -61.581 -23.290  1.00  0.00    -0.384 N 
ATOM     23  H   UNL     1      12.178 -62.093 -23.392  1.00  0.00     0.160 HD
BRANCH  22  24
ATOM     24  C   UNL     1      10.583 -61.620 -24.521  1.00  0.00     0.049 A 
ATOM     25  C   UNL     1      11.099 -60.909 -25.624  1.00  0.00    -0.003 A 
ATOM     26  C   UNL     1       9.411 -62.413 -24.675  1.00  0.00     0.024 A 
ATOM     27  C   UNL     1      10.399 -60.985 -26.828  1.00  0.00     0.046 A 
ATOM     28  C   UNL     1      12.300 -60.003 -25.478  1.00  0.00     0.039 C 
ATOM     29  C   UNL     1       8.820 -63.182 -23.639  1.00  0.00     0.014 A 
ATOM     30  C   UNL     1       8.805 -62.426 -25.949  1.00  0.00     0.074 A 
ATOM     31  N   UNL     1       9.286 -61.738 -26.990  1.00  0.00    -0.252 NA
ATOM     32  C   UNL     1      10.869 -60.263 -28.065  1.00  0.00     0.056 C 
ATOM     33  C   UNL     1      12.900 -59.550 -26.808  1.00  0.00     0.005 C 
ATOM     34  C   UNL     1       7.668 -63.935 -23.865  1.00  0.00     0.021 A 
ATOM     35  C   UNL     1       7.660 -63.182 -26.153  1.00  0.00     0.049 A 
ATOM     36  C   UNL     1      11.805 -59.098 -27.762  1.00  0.00     0.007 C 
ATOM     37  C   UNL     1       7.093 -63.929 -25.126  1.00  0.00     0.043 A 
ATOM     38  Cl  UNL     1       5.673 -64.855 -25.421  1.00  0.00    -0.084 Cl
ENDBRANCH  22  24
ENDBRANCH  21  22
ENDBRANCH  20  21
ENDBRANCH   1  20
TORSDOF 7
ENDMDL
MODEL 5
REMARK VINA RESULT:   -11.243      4.046     11.121
REMARK INTER + INTRA:         -16.866
REMARK INTER:                 -16.196
REMARK INTRA:                  -0.670
REMARK UNBOUND:                -1.021
REMARK SMILES Cc1cc(=O)[nH]c2c1C(=O)C(NCCCCNc1c3c(nc4cc(Cl)ccc14)CCCC3)=CC2=O
REMARK SMILES IDX 14 1 13 2 12 3 11 5 2 6 3 7 8 8 4 9 7 10 9 11 6 12 34 13
REMARK SMILES IDX 33 14 1 15 5 16 10 17 35 19 15 20 16 21 17 22 18 24 19 25
REMARK SMILES IDX 28 26 20 27 32 28 27 29 22 30 21 31 29 32 31 33 26 34 23 35
REMARK SMILES IDX 30 36 24 37 25 38
REMARK H PARENT 12 4 6 18 17 23
ROOT
ATOM      1  C   UNL     1      10.572 -53.467 -22.687  1.00  0.00     0.023 C 
ENDROOT
BRANCH   1   2
ATOM      2  C   UNL     1      10.414 -54.886 -22.140  1.00  0.00     0.113 C 
BRANCH   2   3
ATOM      3  N   UNL     1      10.149 -55.818 -23.223  1.00  0.00    -0.382 N 
ATOM      4  H   UNL     1      10.352 -55.451 -24.161  1.00  0.00     0.160 HD
BRANCH   3   5
ATOM      5  C   UNL     1      10.381 -57.191 -23.194  1.00  0.00     0.087 C 
ATOM      6  C   UNL     1       8.124 -60.456 -23.093  1.00  0.00    -0.032 A 
ATOM      7  C   UNL     1       8.328 -61.787 -23.018  1.00  0.00     0.075 A 
ATOM      8  C   UNL     1       9.277 -59.540 -23.127  1.00  0.00     0.055 A 
ATOM      9  C   UNL     1       9.698 -62.348 -22.967  1.00  0.00     0.248 A 
ATOM     10  C   UNL     1      10.514 -60.065 -23.075  1.00  0.00     0.101 A 
ATOM     11  C   UNL     1       9.136 -58.053 -23.225  1.00  0.00     0.211 C 
ATOM     12  N   UNL     1      10.707 -61.427 -22.998  1.00  0.00    -0.319 N 
ATOM     13  C   UNL     1      11.742 -59.234 -23.099  1.00  0.00     0.205 C 
ATOM     14  C   UNL     1      11.581 -57.777 -23.140  1.00  0.00     0.084 C 
ATOM     15  C   UNL     1       6.719 -59.923 -23.136  1.00  0.00     0.045 C 
ATOM     16  O   UNL     1       9.889 -63.555 -22.901  1.00  0.00    -0.270 OA
ATOM     17  O   UNL     1       8.046 -57.493 -23.346  1.00  0.00    -0.287 OA
ATOM     18  H   UNL     1      11.660 -61.780 -22.965  1.00  0.00     0.170 HD
ATOM     19  O   UNL     1      12.859 -59.742 -23.079  1.00  0.00    -0.288 OA
ENDBRANCH   3   5
ENDBRANCH   2   3
ENDBRANCH   1   2
BRANCH   1  20
ATOM     20  C   UNL     1      10.307 -52.400 -21.621  1.00  0.00     0.023 C 
BRANCH  20  21
ATOM     21  C   UNL     1      10.264 -51.000 -22.235  1.00  0.00     0.113 C 
BRANCH  21  22
ATOM     22  N   UNL     1      11.500 -50.289 -21.880  1.00  0.00    -0.384 N 
ATOM     23  H   UNL     1      11.346 -49.695 -21.068  1.00  0.00     0.160 HD
BRANCH  22  24
ATOM     24  C   UNL     1      11.981 -49.498 -22.966  1.00  0.00     0.049 A 
ATOM     25  C   UNL     1      12.797 -50.115 -23.936  1.00  0.00    -0.003 A 
ATOM     26  C   UNL     1      11.595 -48.137 -23.126  1.00  0.00     0.024 A 
ATOM     27  C   UNL     1      13.231 -49.336 -25.008  1.00  0.00     0.046 A 
ATOM     28  C   UNL     1      13.282 -51.536 -23.761  1.00  0.00     0.039 C 
ATOM     29  C   UNL     1      10.763 -47.426 -22.224  1.00  0.00     0.014 A 
ATOM     30  C   UNL     1      12.081 -47.460 -24.265  1.00  0.00     0.074 A 
ATOM     31  N   UNL     1      12.868 -48.042 -25.177  1.00  0.00    -0.252 NA
ATOM     32  C   UNL     1      14.104 -49.903 -26.097  1.00  0.00     0.056 C 
ATOM     33  C   UNL     1      13.897 -52.141 -25.021  1.00  0.00     0.005 C 
ATOM     34  C   UNL     1      10.428 -46.091 -22.447  1.00  0.00     0.021 A 
ATOM     35  C   UNL     1      11.736 -46.132 -24.470  1.00  0.00     0.049 A 
ATOM     36  C   UNL     1      14.858 -51.158 -25.672  1.00  0.00     0.007 C 
ATOM     37  C   UNL     1      10.920 -45.450 -23.574  1.00  0.00     0.043 A 
ATOM     38  Cl  UNL     1      10.514 -43.803 -23.865  1.00  0.00    -0.084 Cl
ENDBRANCH  22  24
ENDBRANCH  21  22
ENDBRANCH  20  21
ENDBRANCH   1  20
TORSDOF 7
ENDMDL
MODEL 6
REMARK VINA RESULT:   -10.824      1.982      3.526
REMARK INTER + INTRA:         -16.274
REMARK INTER:                 -15.699
REMARK INTRA:                  -0.575
REMARK UNBOUND:                -1.021
REMARK SMILES Cc1cc(=O)[nH]c2c1C(=O)C(NCCCCNc1c3c(nc4cc(Cl)ccc14)CCCC3)=CC2=O
REMARK SMILES IDX 14 1 13 2 12 3 11 5 2 6 3 7 8 8 4 9 7 10 9 11 6 12 34 13
REMARK SMILES IDX 33 14 1 15 5 16 10 17 35 19 15 20 16 21 17 22 18 24 19 25
REMARK SMILES IDX 28 26 20 27 32 28 27 29 22 30 21 31 29 32 31 33 26 34 23 35
REMARK SMILES IDX 30 36 24 37 25 38
REMARK H PARENT 12 4 6 18 17 23
ROOT
ATOM      1  C   UNL     1      10.382 -54.980 -22.684  1.00  0.00     0.023 C 
ENDROOT
BRANCH   1   2
ATOM      2  C   UNL     1      11.033 -53.779 -21.996  1.00  0.00     0.113 C 
BRANCH   2   3
ATOM      3  N   UNL     1      11.022 -52.624 -22.877  1.00  0.00    -0.382 N 
ATOM      4  H   UNL     1      10.635 -51.770 -22.456  1.00  0.00     0.160 HD
BRANCH   3   5
ATOM      5  C   UNL     1      12.014 -52.288 -23.796  1.00  0.00     0.087 C 
ATOM      6  C   UNL     1      13.532 -48.915 -25.238  1.00  0.00    -0.032 A 
ATOM      7  C   UNL     1      14.455 -48.571 -26.158  1.00  0.00     0.075 A 
ATOM      8  C   UNL     1      13.261 -50.339 -24.971  1.00  0.00     0.055 A 
ATOM      9  C   UNL     1      15.206 -49.602 -26.912  1.00  0.00     0.248 A 
ATOM     10  C   UNL     1      13.947 -51.262 -25.667  1.00  0.00     0.101 A 
ATOM     11  C   UNL     1      12.264 -50.803 -23.956  1.00  0.00     0.211 C 
ATOM     12  N   UNL     1      14.888 -50.894 -26.604  1.00  0.00    -0.319 N 
ATOM     13  C   UNL     1      13.750 -52.721 -25.480  1.00  0.00     0.205 C 
ATOM     14  C   UNL     1      12.729 -53.154 -24.520  1.00  0.00     0.084 C 
ATOM     15  C   UNL     1      12.786 -47.841 -24.498  1.00  0.00     0.045 C 
ATOM     16  O   UNL     1      16.046 -49.295 -27.745  1.00  0.00    -0.270 OA
ATOM     17  O   UNL     1      11.643 -50.029 -23.227  1.00  0.00    -0.287 OA
ATOM     18  H   UNL     1      15.385 -51.627 -27.103  1.00  0.00     0.170 HD
ATOM     19  O   UNL     1      14.410 -53.541 -26.108  1.00  0.00    -0.288 OA
ENDBRANCH   3   5
ENDBRANCH   2   3
ENDBRANCH   1   2
BRANCH   1  20
ATOM     20  C   UNL     1      11.396 -56.075 -23.023  1.00  0.00     0.023 C 
BRANCH  20  21
ATOM     21  C   UNL     1      10.723 -57.445 -23.115  1.00  0.00     0.113 C 
BRANCH  21  22
ATOM     22  N   UNL     1      11.753 -58.463 -23.365  1.00  0.00    -0.384 N 
ATOM     23  H   UNL     1      12.567 -58.043 -23.809  1.00  0.00     0.160 HD
BRANCH  22  24
ATOM     24  C   UNL     1      11.257 -59.522 -24.182  1.00  0.00     0.049 A 
ATOM     25  C   UNL     1      10.554 -60.576 -23.562  1.00  0.00    -0.003 A 
ATOM     26  C   UNL     1      11.390 -59.497 -25.599  1.00  0.00     0.024 A 
ATOM     27  C   UNL     1      10.048 -61.586 -24.380  1.00  0.00     0.046 A 
ATOM     28  C   UNL     1      10.455 -60.671 -22.057  1.00  0.00     0.039 C 
ATOM     29  C   UNL     1      12.058 -58.478 -26.326  1.00  0.00     0.014 A 
ATOM     30  C   UNL     1      10.815 -60.565 -26.320  1.00  0.00     0.074 A 
ATOM     31  N   UNL     1      10.162 -61.573 -25.729  1.00  0.00    -0.252 NA
ATOM     32  C   UNL     1       9.280 -62.753 -23.814  1.00  0.00     0.056 C 
ATOM     33  C   UNL     1       9.425 -61.687 -21.566  1.00  0.00     0.005 C 
ATOM     34  C   UNL     1      12.149 -58.521 -27.716  1.00  0.00     0.021 A 
ATOM     35  C   UNL     1      10.916 -60.590 -27.703  1.00  0.00     0.049 A 
ATOM     36  C   UNL     1       9.555 -62.993 -22.334  1.00  0.00     0.007 C 
ATOM     37  C   UNL     1      11.575 -59.582 -28.399  1.00  0.00     0.043 A 
ATOM     38  Cl  UNL     1      11.677 -59.649 -30.115  1.00  0.00    -0.084 Cl
ENDBRANCH  22  24
ENDBRANCH  21  22
ENDBRANCH  20  21
ENDBRANCH   1  20
TORSDOF 7
ENDMDL
MODEL 7
REMARK VINA RESULT:   -10.693      2.006      4.140
REMARK INTER + INTRA:         -16.090
REMARK INTER:                 -15.541
REMARK INTRA:                  -0.549
REMARK UNBOUND:                -1.021
REMARK SMILES Cc1cc(=O)[nH]c2c1C(=O)C(NCCCCNc1c3c(nc4cc(Cl)ccc14)CCCC3)=CC2=O
REMARK SMILES IDX 14 1 13 2 12 3 11 5 2 6 3 7 8 8 4 9 7 10 9 11 6 12 34 13
REMARK SMILES IDX 33 14 1 15 5 16 10 17 35 19 15 20 16 21 17 22 18 24 19 25
REMARK SMILES IDX 28 26 20 27 32 28 27 29 22 30 21 31 29 32 31 33 26 34 23 35
REMARK SMILES IDX 30 36 24 37 25 38
REMARK H PARENT 12 4 6 18 17 23
ROOT
ATOM      1  C   UNL     1      10.525 -57.573 -22.473  1.00  0.00     0.023 C 
ENDROOT
BRANCH   1   2
ATOM      2  C   UNL     1      11.497 -56.820 -23.382  1.00  0.00     0.113 C 
BRANCH   2   3
ATOM      3  N   UNL     1      10.886 -55.595 -23.870  1.00  0.00    -0.382 N 
ATOM      4  H   UNL     1       9.952 -55.402 -23.486  1.00  0.00     0.160 HD
BRANCH   3   5
ATOM      5  C   UNL     1      11.549 -54.396 -24.123  1.00  0.00     0.087 C 
ATOM      6  C   UNL     1      11.360 -50.689 -22.715  1.00  0.00    -0.032 A 
ATOM      7  C   UNL     1      11.957 -49.509 -22.979  1.00  0.00     0.075 A 
ATOM      8  C   UNL     1      11.739 -51.888 -23.483  1.00  0.00     0.055 A 
ATOM      9  C   UNL     1      12.993 -49.394 -24.032  1.00  0.00     0.248 A 
ATOM     10  C   UNL     1      12.677 -51.766 -24.438  1.00  0.00     0.101 A 
ATOM     11  C   UNL     1      11.135 -53.236 -23.242  1.00  0.00     0.211 C 
ATOM     12  N   UNL     1      13.279 -50.553 -24.696  1.00  0.00    -0.319 N 
ATOM     13  C   UNL     1      13.130 -52.907 -25.272  1.00  0.00     0.205 C 
ATOM     14  C   UNL     1      12.486 -54.207 -25.057  1.00  0.00     0.084 C 
ATOM     15  C   UNL     1      10.309 -50.765 -21.644  1.00  0.00     0.045 C 
ATOM     16  O   UNL     1      13.540 -48.327 -24.272  1.00  0.00    -0.270 OA
ATOM     17  O   UNL     1      10.322 -53.452 -22.343  1.00  0.00    -0.287 OA
ATOM     18  H   UNL     1      13.986 -50.509 -25.425  1.00  0.00     0.170 HD
ATOM     19  O   UNL     1      14.008 -52.773 -26.117  1.00  0.00    -0.288 OA
ENDBRANCH   3   5
ENDBRANCH   2   3
ENDBRANCH   1   2
BRANCH   1  20
ATOM     20  C   UNL     1       9.690 -58.602 -23.239  1.00  0.00     0.023 C 
BRANCH  20  21
ATOM     21  C   UNL     1       9.852 -60.002 -22.647  1.00  0.00     0.113 C 
BRANCH  21  22
ATOM     22  N   UNL     1      10.804 -60.759 -23.472  1.00  0.00    -0.384 N 
ATOM     23  H   UNL     1      11.657 -60.221 -23.613  1.00  0.00     0.160 HD
BRANCH  22  24
ATOM     24  C   UNL     1      10.243 -61.103 -24.738  1.00  0.00     0.049 A 
ATOM     25  C   UNL     1      10.816 -60.546 -25.900  1.00  0.00    -0.003 A 
ATOM     26  C   UNL     1       9.180 -62.043 -24.853  1.00  0.00     0.024 A 
ATOM     27  C   UNL     1      10.277 -60.919 -27.131  1.00  0.00     0.046 A 
ATOM     28  C   UNL     1      11.897 -59.494 -25.811  1.00  0.00     0.039 C 
ATOM     29  C   UNL     1       8.546 -62.677 -23.754  1.00  0.00     0.014 A 
ATOM     30  C   UNL     1       8.736 -62.357 -26.155  1.00  0.00     0.074 A 
ATOM     31  N   UNL     1       9.270 -61.815 -27.256  1.00  0.00    -0.252 NA
ATOM     32  C   UNL     1      10.821 -60.382 -28.430  1.00  0.00     0.056 C 
ATOM     33  C   UNL     1      12.607 -59.220 -27.137  1.00  0.00     0.005 C 
ATOM     34  C   UNL     1       7.508 -63.589 -23.945  1.00  0.00     0.021 A 
ATOM     35  C   UNL     1       7.702 -63.266 -26.324  1.00  0.00     0.049 A 
ATOM     36  C   UNL     1      11.596 -59.080 -28.265  1.00  0.00     0.007 C 
ATOM     37  C   UNL     1       7.091 -63.878 -25.235  1.00  0.00     0.043 A 
ATOM     38  Cl  UNL     1       5.813 -65.002 -25.488  1.00  0.00    -0.084 Cl
ENDBRANCH  22  24
ENDBRANCH  21  22
ENDBRANCH  20  21
ENDBRANCH   1  20
TORSDOF 7
ENDMDL
MODEL 8
REMARK VINA RESULT:   -10.553      1.839      2.721
REMARK INTER + INTRA:         -15.892
REMARK INTER:                 -16.064
REMARK INTRA:                   0.172
REMARK UNBOUND:                -1.021
REMARK SMILES Cc1cc(=O)[nH]c2c1C(=O)C(NCCCCNc1c3c(nc4cc(Cl)ccc14)CCCC3)=CC2=O
REMARK SMILES IDX 14 1 13 2 12 3 11 5 2 6 3 7 8 8 4 9 7 10 9 11 6 12 34 13
REMARK SMILES IDX 33 14 1 15 5 16 10 17 35 19 15 20 16 21 17 22 18 24 19 25
REMARK SMILES IDX 28 26 20 27 32 28 27 29 22 30 21 31 29 32 31 33 26 34 23 35
REMARK SMILES IDX 30 36 24 37 25 38
REMARK H PARENT 12 4 6 18 17 23
ROOT
ATOM      1  C   UNL     1       9.859 -55.746 -23.357  1.00  0.00     0.023 C 
ENDROOT
BRANCH   1   2
ATOM      2  C   UNL     1      10.722 -55.106 -22.269  1.00  0.00     0.113 C 
BRANCH   2   3
ATOM      3  N   UNL     1      11.453 -53.971 -22.805  1.00  0.00    -0.382 N 
ATOM      4  H   UNL     1      11.872 -54.132 -23.730  1.00  0.00     0.160 HD
BRANCH   3   5
ATOM      5  C   UNL     1      11.091 -52.632 -22.678  1.00  0.00     0.087 C 
ATOM      6  C   UNL     1      12.625 -49.150 -23.814  1.00  0.00    -0.032 A 
ATOM      7  C   UNL     1      12.316 -47.847 -23.660  1.00  0.00     0.075 A 
ATOM      8  C   UNL     1      11.752 -50.183 -23.228  1.00  0.00     0.055 A 
ATOM      9  C   UNL     1      11.108 -47.430 -22.910  1.00  0.00     0.248 A 
ATOM     10  C   UNL     1      10.662 -49.788 -22.547  1.00  0.00     0.101 A 
ATOM     11  C   UNL     1      12.016 -51.649 -23.365  1.00  0.00     0.211 C 
ATOM     12  N   UNL     1      10.359 -48.452 -22.399  1.00  0.00    -0.319 N 
ATOM     13  C   UNL     1       9.719 -50.743 -21.915  1.00  0.00     0.205 C 
ATOM     14  C   UNL     1      10.026 -52.173 -22.014  1.00  0.00     0.084 C 
ATOM     15  C   UNL     1      13.862 -49.535 -24.575  1.00  0.00     0.045 C 
ATOM     16  O   UNL     1      10.822 -46.249 -22.772  1.00  0.00    -0.270 OA
ATOM     17  O   UNL     1      12.950 -52.100 -24.030  1.00  0.00    -0.287 OA
ATOM     18  H   UNL     1       9.523 -48.200 -21.879  1.00  0.00     0.170 HD
ATOM     19  O   UNL     1       8.717 -50.355 -21.323  1.00  0.00    -0.288 OA
ENDBRANCH   3   5
ENDBRANCH   2   3
ENDBRANCH   1   2
BRANCH   1  20
ATOM     20  C   UNL     1       9.679 -57.251 -23.148  1.00  0.00     0.023 C 
BRANCH  20  21
ATOM     21  C   UNL     1      10.857 -57.850 -22.378  1.00  0.00     0.113 C 
BRANCH  21  22
ATOM     22  N   UNL     1      11.864 -58.318 -23.341  1.00  0.00    -0.384 N 
ATOM     23  H   UNL     1      12.163 -57.552 -23.942  1.00  0.00     0.160 HD
BRANCH  22  24
ATOM     24  C   UNL     1      11.366 -59.387 -24.144  1.00  0.00     0.049 A 
ATOM     25  C   UNL     1      10.675 -60.438 -23.507  1.00  0.00    -0.003 A 
ATOM     26  C   UNL     1      11.485 -59.374 -25.563  1.00  0.00     0.024 A 
ATOM     27  C   UNL     1      10.166 -61.458 -24.311  1.00  0.00     0.046 A 
ATOM     28  C   UNL     1      10.591 -60.520 -22.001  1.00  0.00     0.039 C 
ATOM     29  C   UNL     1      12.140 -58.357 -26.305  1.00  0.00     0.014 A 
ATOM     30  C   UNL     1      10.908 -60.452 -26.267  1.00  0.00     0.074 A 
ATOM     31  N   UNL     1      10.267 -61.457 -25.661  1.00  0.00    -0.252 NA
ATOM     32  C   UNL     1       9.411 -62.625 -23.727  1.00  0.00     0.056 C 
ATOM     33  C   UNL     1       9.571 -61.537 -21.490  1.00  0.00     0.005 C 
ATOM     34  C   UNL     1      12.218 -58.413 -27.696  1.00  0.00     0.021 A 
ATOM     35  C   UNL     1      10.996 -60.488 -27.651  1.00  0.00     0.049 A 
ATOM     36  C   UNL     1       9.701 -62.849 -22.247  1.00  0.00     0.007 C 
ATOM     37  C   UNL     1      11.643 -59.484 -28.363  1.00  0.00     0.043 A 
ATOM     38  Cl  UNL     1      11.729 -59.566 -30.079  1.00  0.00    -0.084 Cl
ENDBRANCH  22  24
ENDBRANCH  21  22
ENDBRANCH  20  21
ENDBRANCH   1  20
TORSDOF 7
ENDMDL
MODEL 9
REMARK VINA RESULT:   -10.422      3.364     10.555
REMARK INTER + INTRA:         -15.708
REMARK INTER:                 -15.397
REMARK INTRA:                  -0.310
REMARK UNBOUND:                -1.021
REMARK SMILES Cc1cc(=O)[nH]c2c1C(=O)C(NCCCCNc1c3c(nc4cc(Cl)ccc14)CCCC3)=CC2=O
REMARK SMILES IDX 14 1 13 2 12 3 11 5 2 6 3 7 8 8 4 9 7 10 9 11 6 12 34 13
REMARK SMILES IDX 33 14 1 15 5 16 10 17 35 19 15 20 16 21 17 22 18 24 19 25
REMARK SMILES IDX 28 26 20 27 32 28 27 29 22 30 21 31 29 32 31 33 26 34 23 35
REMARK SMILES IDX 30 36 24 37 25 38
REMARK H PARENT 12 4 6 18 17 23
ROOT
ATOM      1  C   UNL     1      10.974 -54.260 -23.923  1.00  0.00     0.023 C 
ENDROOT
BRANCH   1   2
ATOM      2  C   UNL     1      10.648 -54.773 -22.521  1.00  0.00     0.113 C 
BRANCH   2   3
ATOM      3  N   UNL     1      10.929 -56.195 -22.424  1.00  0.00    -0.382 N 
ATOM      4  H   UNL     1      11.362 -56.485 -21.539  1.00  0.00     0.160 HD
BRANCH   3   5
ATOM      5  C   UNL     1      10.124 -57.222 -22.913  1.00  0.00     0.087 C 
ATOM      6  C   UNL     1      10.720 -60.914 -24.246  1.00  0.00    -0.032 A 
ATOM      7  C   UNL     1       9.964 -61.902 -24.766  1.00  0.00     0.075 A 
ATOM      8  C   UNL     1      10.089 -59.646 -23.841  1.00  0.00     0.055 A 
ATOM      9  C   UNL     1       8.502 -61.736 -24.938  1.00  0.00     0.248 A 
ATOM     10  C   UNL     1       8.762 -59.510 -24.009  1.00  0.00     0.101 A 
ATOM     11  C   UNL     1      10.854 -58.507 -23.244  1.00  0.00     0.211 C 
ATOM     12  N   UNL     1       8.002 -60.529 -24.541  1.00  0.00    -0.319 N 
ATOM     13  C   UNL     1       8.026 -58.276 -23.639  1.00  0.00     0.205 C 
ATOM     14  C   UNL     1       8.803 -57.152 -23.106  1.00  0.00     0.084 C 
ATOM     15  C   UNL     1      12.201 -61.116 -24.092  1.00  0.00     0.045 C 
ATOM     16  O   UNL     1       7.812 -62.631 -25.406  1.00  0.00    -0.270 OA
ATOM     17  O   UNL     1      12.057 -58.571 -22.991  1.00  0.00    -0.287 OA
ATOM     18  H   UNL     1       7.002 -60.383 -24.646  1.00  0.00     0.170 HD
ATOM     19  O   UNL     1       6.811 -58.189 -23.776  1.00  0.00    -0.288 OA
ENDBRANCH   3   5
ENDBRANCH   2   3
ENDBRANCH   1   2
BRANCH   1  20
ATOM     20  C   UNL     1      11.987 -53.113 -23.902  1.00  0.00     0.023 C 
BRANCH  20  21
ATOM     21  C   UNL     1      11.589 -52.038 -22.890  1.00  0.00     0.113 C 
BRANCH  21  22
ATOM     22  N   UNL     1      12.803 -51.362 -22.413  1.00  0.00    -0.384 N 
ATOM     23  H   UNL     1      12.614 -50.865 -21.545  1.00  0.00     0.160 HD
BRANCH  22  24
ATOM     24  C   UNL     1      13.310 -50.448 -23.384  1.00  0.00     0.049 A 
ATOM     25  C   UNL     1      12.639 -49.221 -23.566  1.00  0.00    -0.003 A 
ATOM     26  C   UNL     1      14.507 -50.714 -24.108  1.00  0.00     0.024 A 
ATOM     27  C   UNL     1      13.167 -48.326 -24.496  1.00  0.00     0.046 A 
ATOM     28  C   UNL     1      11.329 -48.935 -22.868  1.00  0.00     0.039 C 
ATOM     29  C   UNL     1      15.271 -51.904 -23.987  1.00  0.00     0.014 A 
ATOM     30  C   UNL     1      14.953 -49.720 -25.003  1.00  0.00     0.074 A 
ATOM     31  N   UNL     1      14.307 -48.563 -25.187  1.00  0.00    -0.252 NA
ATOM     32  C   UNL     1      12.525 -46.988 -24.761  1.00  0.00     0.056 C 
ATOM     33  C   UNL     1      10.896 -47.472 -22.938  1.00  0.00     0.005 C 
ATOM     34  C   UNL     1      16.435 -52.095 -24.730  1.00  0.00     0.021 A 
ATOM     35  C   UNL     1      16.114 -49.929 -25.733  1.00  0.00     0.049 A 
ATOM     36  C   UNL     1      11.057 -46.934 -24.352  1.00  0.00     0.007 C 
ATOM     37  C   UNL     1      16.850 -51.102 -25.603  1.00  0.00     0.043 A 
ATOM     38  Cl  UNL     1      18.285 -51.321 -26.526  1.00  0.00    -0.084 Cl
ENDBRANCH  22  24
ENDBRANCH  21  22
ENDBRANCH  20  21
ENDBRANCH   1  20
TORSDOF 7
ENDMDL
