MODEL 1
REMARK VINA RESULT:    -8.524      0.000      0.000
REMARK INTER + INTRA:          -8.773
REMARK INTER:                  -8.773
REMARK INTRA:                   0.000
REMARK UNBOUND:                 0.000
REMARK SMILES Nc1c2c(nc3ccccc13)CCCC2
REMARK SMILES IDX 1 1 2 4 3 5 11 6 4 7 15 8 10 9 6 10 5 11 12 12 14 13 9 14
REMARK SMILES IDX 7 15 13 16 8 17
REMARK H PARENT 1 2 1 3
ROOT
ATOM      1  N   UNL     1      11.526 -50.332 -21.874  1.00  0.00    -0.398 N 
ATOM      2  H   UNL     1      11.149 -50.772 -21.041  1.00  0.00     0.156 HD
ATOM      3  H   UNL     1      12.298 -49.718 -21.618  1.00  0.00     0.156 HD
ENDROOT
BRANCH   1   4
ATOM      4  C   UNL     1      11.961 -51.274 -22.843  1.00  0.00     0.046 A 
ATOM      5  C   UNL     1      11.497 -52.598 -22.735  1.00  0.00    -0.003 A 
ATOM      6  C   UNL     1      12.657 -50.865 -24.012  1.00  0.00     0.023 A 
ATOM      7  C   UNL     1      11.802 -53.483 -23.769  1.00  0.00     0.046 A 
ATOM      8  C   UNL     1      10.658 -53.032 -21.556  1.00  0.00     0.039 C 
ATOM      9  C   UNL     1      13.099 -49.540 -24.261  1.00  0.00     0.012 A 
ATOM     10  C   UNL     1      12.922 -51.854 -24.982  1.00  0.00     0.073 A 
ATOM     11  N   UNL     1      12.518 -53.124 -24.859  1.00  0.00    -0.252 NA
ATOM     12  C   UNL     1      11.392 -54.932 -23.715  1.00  0.00     0.056 C 
ATOM     13  C   UNL     1      10.542 -54.549 -21.404  1.00  0.00     0.005 C 
ATOM     14  C   UNL     1      13.793 -49.212 -25.426  1.00  0.00     0.001 A 
ATOM     15  C   UNL     1      13.619 -51.503 -26.131  1.00  0.00     0.029 A 
ATOM     16  C   UNL     1      10.245 -55.198 -22.747  1.00  0.00     0.007 C 
ATOM     17  C   UNL     1      14.058 -50.199 -26.363  1.00  0.00     0.002 A 
ENDBRANCH   1   4
TORSDOF 1
ENDMDL
MODEL 2
REMARK VINA RESULT:    -8.479      0.250      4.727
REMARK INTER + INTRA:          -8.727
REMARK INTER:                  -8.727
REMARK INTRA:                   0.000
REMARK UNBOUND:                 0.000
REMARK SMILES Nc1c2c(nc3ccccc13)CCCC2
REMARK SMILES IDX 1 1 2 4 3 5 11 6 4 7 15 8 10 9 6 10 5 11 12 12 14 13 9 14
REMARK SMILES IDX 7 15 13 16 8 17
REMARK H PARENT 1 2 1 3
ROOT
ATOM      1  N   UNL     1      11.777 -50.365 -21.671  1.00  0.00    -0.398 N 
ATOM      2  H   UNL     1      11.825 -50.820 -20.765  1.00  0.00     0.156 HD
ATOM      3  H   UNL     1      12.512 -49.663 -21.742  1.00  0.00     0.156 HD
ENDROOT
BRANCH   1   4
ATOM      4  C   UNL     1      11.884 -51.283 -22.750  1.00  0.00     0.046 A 
ATOM      5  C   UNL     1      12.637 -50.899 -23.874  1.00  0.00    -0.003 A 
ATOM      6  C   UNL     1      11.442 -52.628 -22.623  1.00  0.00     0.023 A 
ATOM      7  C   UNL     1      12.866 -51.856 -24.864  1.00  0.00     0.046 A 
ATOM      8  C   UNL     1      13.214 -49.508 -23.984  1.00  0.00     0.039 C 
ATOM      9  C   UNL     1      10.748 -53.142 -21.498  1.00  0.00     0.012 A 
ATOM     10  C   UNL     1      11.719 -53.500 -23.697  1.00  0.00     0.073 A 
ATOM     11  N   UNL     1      12.398 -53.122 -24.787  1.00  0.00    -0.252 NA
ATOM     12  C   UNL     1      13.616 -51.521 -26.127  1.00  0.00     0.056 C 
ATOM     13  C   UNL     1      13.684 -49.140 -25.391  1.00  0.00     0.005 C 
ATOM     14  C   UNL     1      10.329 -54.472 -21.448  1.00  0.00     0.001 A 
ATOM     15  C   UNL     1      11.288 -54.818 -23.625  1.00  0.00     0.029 A 
ATOM     16  C   UNL     1      14.490 -50.279 -25.998  1.00  0.00     0.007 C 
ATOM     17  C   UNL     1      10.596 -55.313 -22.518  1.00  0.00     0.002 A 
ENDBRANCH   1   4
TORSDOF 1
ENDMDL
MODEL 3
REMARK VINA RESULT:    -8.446      6.092      9.759
REMARK INTER + INTRA:          -8.693
REMARK INTER:                  -8.693
REMARK INTRA:                   0.000
REMARK UNBOUND:                 0.000
REMARK SMILES Nc1c2c(nc3ccccc13)CCCC2
REMARK SMILES IDX 1 1 2 4 3 5 11 6 4 7 15 8 10 9 6 10 5 11 12 12 14 13 9 14
REMARK SMILES IDX 7 15 13 16 8 17
REMARK H PARENT 1 2 1 3
ROOT
ATOM      1  N   UNL     1       7.379 -58.925 -24.198  1.00  0.00    -0.398 N 
ATOM      2  H   UNL     1       6.507 -59.036 -23.691  1.00  0.00     0.156 HD
ATOM      3  H   UNL     1       7.592 -57.935 -24.301  1.00  0.00     0.156 HD
ENDROOT
BRANCH   1   4
ATOM      4  C   UNL     1       8.466 -59.588 -23.568  1.00  0.00     0.046 A 
ATOM      5  C   UNL     1       9.467 -58.799 -22.972  1.00  0.00    -0.003 A 
ATOM      6  C   UNL     1       8.446 -60.990 -23.341  1.00  0.00     0.023 A 
ATOM      7  C   UNL     1      10.451 -59.448 -22.226  1.00  0.00     0.046 A 
ATOM      8  C   UNL     1       9.450 -57.295 -23.103  1.00  0.00     0.039 C 
ATOM      9  C   UNL     1       7.442 -61.868 -23.824  1.00  0.00     0.012 A 
ATOM     10  C   UNL     1       9.504 -61.535 -22.584  1.00  0.00     0.073 A 
ATOM     11  N   UNL     1      10.481 -60.789 -22.053  1.00  0.00    -0.252 NA
ATOM     12  C   UNL     1      11.592 -58.691 -21.595  1.00  0.00     0.056 C 
ATOM     13  C   UNL     1      10.769 -56.624 -22.720  1.00  0.00     0.005 C 
ATOM     14  C   UNL     1       7.494 -63.240 -23.578  1.00  0.00     0.001 A 
ATOM     15  C   UNL     1       9.536 -62.904 -22.356  1.00  0.00     0.029 A 
ATOM     16  C   UNL     1      11.304 -57.204 -21.420  1.00  0.00     0.007 C 
ATOM     17  C   UNL     1       8.549 -63.761 -22.843  1.00  0.00     0.002 A 
ENDBRANCH   1   4
TORSDOF 1
ENDMDL
MODEL 4
REMARK VINA RESULT:    -8.432      0.740      2.574
REMARK INTER + INTRA:          -8.679
REMARK INTER:                  -8.679
REMARK INTRA:                   0.000
REMARK UNBOUND:                 0.000
REMARK SMILES Nc1c2c(nc3ccccc13)CCCC2
REMARK SMILES IDX 1 1 2 4 3 5 11 6 4 7 15 8 10 9 6 10 5 11 12 12 14 13 9 14
REMARK SMILES IDX 7 15 13 16 8 17
REMARK H PARENT 1 2 1 3
ROOT
ATOM      1  N   UNL     1      12.822 -54.466 -25.765  1.00  0.00    -0.398 N 
ATOM      2  H   UNL     1      13.812 -54.445 -25.985  1.00  0.00     0.156 HD
ATOM      3  H   UNL     1      12.585 -55.361 -25.339  1.00  0.00     0.156 HD
ENDROOT
BRANCH   1   4
ATOM      4  C   UNL     1      12.430 -53.406 -24.906  1.00  0.00     0.046 A 
ATOM      5  C   UNL     1      11.736 -53.731 -23.726  1.00  0.00    -0.003 A 
ATOM      6  C   UNL     1      12.907 -52.082 -25.100  1.00  0.00     0.023 A 
ATOM      7  C   UNL     1      11.486 -52.707 -22.812  1.00  0.00     0.046 A 
ATOM      8  C   UNL     1      11.315 -55.153 -23.440  1.00  0.00     0.039 C 
ATOM      9  C   UNL     1      13.684 -51.663 -26.211  1.00  0.00     0.012 A 
ATOM     10  C   UNL     1      12.577 -51.127 -24.115  1.00  0.00     0.073 A 
ATOM     11  N   UNL     1      11.878 -51.428 -23.013  1.00  0.00    -0.252 NA
ATOM     12  C   UNL     1      10.704 -52.950 -21.547  1.00  0.00     0.056 C 
ATOM     13  C   UNL     1      10.279 -55.280 -22.324  1.00  0.00     0.005 C 
ATOM     14  C   UNL     1      14.105 -50.340 -26.347  1.00  0.00     0.001 A 
ATOM     15  C   UNL     1      13.003 -49.816 -24.275  1.00  0.00     0.029 A 
ATOM     16  C   UNL     1      10.669 -54.417 -21.133  1.00  0.00     0.007 C 
ATOM     17  C   UNL     1      13.760 -49.411 -25.376  1.00  0.00     0.002 A 
ENDBRANCH   1   4
TORSDOF 1
ENDMDL
MODEL 5
REMARK VINA RESULT:    -8.432      5.967      8.605
REMARK INTER + INTRA:          -8.679
REMARK INTER:                  -8.679
REMARK INTRA:                   0.000
REMARK UNBOUND:                 0.000
REMARK SMILES Nc1c2c(nc3ccccc13)CCCC2
REMARK SMILES IDX 1 1 2 4 3 5 11 6 4 7 15 8 10 9 6 10 5 11 12 12 14 13 9 14
REMARK SMILES IDX 7 15 13 16 8 17
REMARK H PARENT 1 2 1 3
ROOT
ATOM      1  N   UNL     1       7.222 -58.786 -24.260  1.00  0.00    -0.398 N 
ATOM      2  H   UNL     1       6.465 -58.348 -23.747  1.00  0.00     0.156 HD
ATOM      3  H   UNL     1       7.616 -58.122 -24.925  1.00  0.00     0.156 HD
ENDROOT
BRANCH   1   4
ATOM      4  C   UNL     1       8.247 -59.278 -23.408  1.00  0.00     0.046 A 
ATOM      5  C   UNL     1       8.357 -60.671 -23.240  1.00  0.00    -0.003 A 
ATOM      6  C   UNL     1       9.271 -58.426 -22.915  1.00  0.00     0.023 A 
ATOM      7  C   UNL     1       9.453 -61.157 -22.528  1.00  0.00     0.046 A 
ATOM      8  C   UNL     1       7.343 -61.609 -23.850  1.00  0.00     0.039 C 
ATOM      9  C   UNL     1       9.303 -57.020 -23.097  1.00  0.00     0.012 A 
ATOM     10  C   UNL     1      10.322 -59.032 -22.195  1.00  0.00     0.073 A 
ATOM     11  N   UNL     1      10.404 -60.354 -21.997  1.00  0.00    -0.252 NA
ATOM     12  C   UNL     1       9.627 -62.629 -22.252  1.00  0.00     0.056 C 
ATOM     13  C   UNL     1       7.394 -63.029 -23.287  1.00  0.00     0.005 C 
ATOM     14  C   UNL     1      10.333 -56.240 -22.570  1.00  0.00     0.001 A 
ATOM     15  C   UNL     1      11.333 -58.235 -21.676  1.00  0.00     0.029 A 
ATOM     16  C   UNL     1       8.832 -63.517 -23.204  1.00  0.00     0.007 C 
ATOM     17  C   UNL     1      11.351 -56.851 -21.852  1.00  0.00     0.002 A 
ENDBRANCH   1   4
TORSDOF 1
ENDMDL
MODEL 6
REMARK VINA RESULT:    -8.355      7.584     10.194
REMARK INTER + INTRA:          -8.599
REMARK INTER:                  -8.599
REMARK INTRA:                   0.000
REMARK UNBOUND:                 0.000
REMARK SMILES Nc1c2c(nc3ccccc13)CCCC2
REMARK SMILES IDX 1 1 2 4 3 5 11 6 4 7 15 8 10 9 6 10 5 11 12 12 14 13 9 14
REMARK SMILES IDX 7 15 13 16 8 17
REMARK H PARENT 1 2 1 3
ROOT
ATOM      1  N   UNL     1      11.126 -59.621 -26.579  1.00  0.00    -0.398 N 
ATOM      2  H   UNL     1      11.925 -60.057 -27.027  1.00  0.00     0.156 HD
ATOM      3  H   UNL     1      10.445 -59.345 -27.284  1.00  0.00     0.156 HD
ENDROOT
BRANCH   1   4
ATOM      4  C   UNL     1      10.509 -60.465 -25.618  1.00  0.00     0.046 A 
ATOM      5  C   UNL     1      10.687 -60.161 -24.256  1.00  0.00    -0.003 A 
ATOM      6  C   UNL     1       9.559 -61.450 -26.001  1.00  0.00     0.023 A 
ATOM      7  C   UNL     1       9.959 -60.898 -23.322  1.00  0.00     0.046 A 
ATOM      8  C   UNL     1      11.607 -59.043 -23.825  1.00  0.00     0.039 C 
ATOM      9  C   UNL     1       9.240 -61.779 -27.344  1.00  0.00     0.012 A 
ATOM     10  C   UNL     1       8.895 -62.142 -24.966  1.00  0.00     0.073 A 
ATOM     11  N   UNL     1       9.098 -61.882 -23.668  1.00  0.00    -0.252 NA
ATOM     12  C   UNL     1      10.125 -60.679 -21.840  1.00  0.00     0.056 C 
ATOM     13  C   UNL     1      11.967 -59.075 -22.340  1.00  0.00     0.005 C 
ATOM     14  C   UNL     1       8.307 -62.771 -27.648  1.00  0.00     0.001 A 
ATOM     15  C   UNL     1       7.975 -63.127 -25.294  1.00  0.00     0.029 A 
ATOM     16  C   UNL     1      10.725 -59.320 -21.496  1.00  0.00     0.007 C 
ATOM     17  C   UNL     1       7.675 -63.451 -26.618  1.00  0.00     0.002 A 
ENDBRANCH   1   4
TORSDOF 1
ENDMDL
MODEL 7
REMARK VINA RESULT:    -8.256      0.703      5.356
REMARK INTER + INTRA:          -8.497
REMARK INTER:                  -8.497
REMARK INTRA:                   0.000
REMARK UNBOUND:                 0.000
REMARK SMILES Nc1c2c(nc3ccccc13)CCCC2
REMARK SMILES IDX 1 1 2 4 3 5 11 6 4 7 15 8 10 9 6 10 5 11 12 12 14 13 9 14
REMARK SMILES IDX 7 15 13 16 8 17
REMARK H PARENT 1 2 1 3
ROOT
ATOM      1  N   UNL     1      12.741 -54.215 -25.886  1.00  0.00    -0.398 N 
ATOM      2  H   UNL     1      13.616 -54.722 -25.807  1.00  0.00     0.156 HD
ATOM      3  H   UNL     1      11.965 -54.873 -25.932  1.00  0.00     0.156 HD
ENDROOT
BRANCH   1   4
ATOM      4  C   UNL     1      12.537 -53.307 -24.813  1.00  0.00     0.046 A 
ATOM      5  C   UNL     1      12.963 -51.977 -24.980  1.00  0.00    -0.003 A 
ATOM      6  C   UNL     1      11.733 -53.653 -23.694  1.00  0.00     0.023 A 
ATOM      7  C   UNL     1      12.627 -51.054 -23.989  1.00  0.00     0.046 A 
ATOM      8  C   UNL     1      13.724 -51.555 -26.215  1.00  0.00     0.039 C 
ATOM      9  C   UNL     1      11.182 -54.941 -23.468  1.00  0.00     0.012 A 
ATOM     10  C   UNL     1      11.473 -52.638 -22.749  1.00  0.00     0.073 A 
ATOM     11  N   UNL     1      11.916 -51.382 -22.887  1.00  0.00    -0.252 NA
ATOM     12  C   UNL     1      13.085 -49.620 -24.057  1.00  0.00     0.056 C 
ATOM     13  C   UNL     1      14.416 -50.199 -26.084  1.00  0.00     0.005 C 
ATOM     14  C   UNL     1      10.414 -55.216 -22.337  1.00  0.00     0.001 A 
ATOM     15  C   UNL     1      10.709 -52.938 -21.629  1.00  0.00     0.029 A 
ATOM     16  C   UNL     1      13.475 -49.178 -25.463  1.00  0.00     0.007 C 
ATOM     17  C   UNL     1      10.180 -54.210 -21.410  1.00  0.00     0.002 A 
ENDBRANCH   1   4
TORSDOF 1
ENDMDL
MODEL 8
REMARK VINA RESULT:    -8.196      8.440     10.888
REMARK INTER + INTRA:          -8.436
REMARK INTER:                  -8.436
REMARK INTRA:                   0.000
REMARK UNBOUND:                 0.000
REMARK SMILES Nc1c2c(nc3ccccc13)CCCC2
REMARK SMILES IDX 1 1 2 4 3 5 11 6 4 7 15 8 10 9 6 10 5 11 12 12 14 13 9 14
REMARK SMILES IDX 7 15 13 16 8 17
REMARK H PARENT 1 2 1 3
ROOT
ATOM      1  N   UNL     1      12.180 -60.891 -23.511  1.00  0.00    -0.398 N 
ATOM      2  H   UNL     1      12.401 -61.661 -22.889  1.00  0.00     0.156 HD
ATOM      3  H   UNL     1      12.999 -60.656 -24.070  1.00  0.00     0.156 HD
ENDROOT
BRANCH   1   4
ATOM      4  C   UNL     1      11.081 -61.174 -24.364  1.00  0.00     0.046 A 
ATOM      5  C   UNL     1      11.143 -60.726 -25.696  1.00  0.00    -0.003 A 
ATOM      6  C   UNL     1      10.050 -62.068 -23.969  1.00  0.00     0.023 A 
ATOM      7  C   UNL     1      10.135 -61.134 -26.570  1.00  0.00     0.046 A 
ATOM      8  C   UNL     1      12.289 -59.865 -26.173  1.00  0.00     0.039 C 
ATOM      9  C   UNL     1       9.938 -62.644 -22.677  1.00  0.00     0.012 A 
ATOM     10  C   UNL     1       9.077 -62.397 -24.936  1.00  0.00     0.073 A 
ATOM     11  N   UNL     1       9.112 -61.935 -26.192  1.00  0.00    -0.252 NA
ATOM     12  C   UNL     1      10.089 -60.662 -28.000  1.00  0.00     0.056 C 
ATOM     13  C   UNL     1      12.031 -59.176 -27.512  1.00  0.00     0.005 C 
ATOM     14  C   UNL     1       8.887 -63.504 -22.353  1.00  0.00     0.001 A 
ATOM     15  C   UNL     1       8.039 -63.250 -24.587  1.00  0.00     0.029 A 
ATOM     16  C   UNL     1      11.435 -60.157 -28.510  1.00  0.00     0.007 C 
ATOM     17  C   UNL     1       7.931 -63.805 -23.311  1.00  0.00     0.002 A 
ENDBRANCH   1   4
TORSDOF 1
ENDMDL
MODEL 9
REMARK VINA RESULT:    -7.993      7.699     10.122
REMARK INTER + INTRA:          -8.227
REMARK INTER:                  -8.227
REMARK INTRA:                   0.000
REMARK UNBOUND:                 0.000
REMARK SMILES Nc1c2c(nc3ccccc13)CCCC2
REMARK SMILES IDX 1 1 2 4 3 5 11 6 4 7 15 8 10 9 6 10 5 11 12 12 14 13 9 14
REMARK SMILES IDX 7 15 13 16 8 17
REMARK H PARENT 1 2 1 3
ROOT
ATOM      1  N   UNL     1       8.154 -62.516 -23.028  1.00  0.00    -0.398 N 
ATOM      2  H   UNL     1       8.700 -63.270 -22.624  1.00  0.00     0.156 HD
ATOM      3  H   UNL     1       7.773 -61.933 -22.285  1.00  0.00     0.156 HD
ENDROOT
BRANCH   1   4
ATOM      4  C   UNL     1       8.907 -61.716 -23.928  1.00  0.00     0.046 A 
ATOM      5  C   UNL     1       9.837 -60.809 -23.390  1.00  0.00    -0.003 A 
ATOM      6  C   UNL     1       8.896 -61.968 -25.327  1.00  0.00     0.023 A 
ATOM      7  C   UNL     1      10.680 -60.137 -24.276  1.00  0.00     0.046 A 
ATOM      8  C   UNL     1       9.948 -60.605 -21.898  1.00  0.00     0.039 C 
ATOM      9  C   UNL     1       8.058 -62.918 -25.965  1.00  0.00     0.012 A 
ATOM     10  C   UNL     1       9.783 -61.214 -26.124  1.00  0.00     0.073 A 
ATOM     11  N   UNL     1      10.639 -60.319 -25.615  1.00  0.00    -0.252 NA
ATOM     12  C   UNL     1      11.671 -59.108 -23.795  1.00  0.00     0.056 C 
ATOM     13  C   UNL     1      10.730 -59.353 -21.500  1.00  0.00     0.005 C 
ATOM     14  C   UNL     1       8.088 -63.102 -27.348  1.00  0.00     0.001 A 
ATOM     15  C   UNL     1       9.791 -61.412 -27.498  1.00  0.00     0.029 A 
ATOM     16  C   UNL     1      12.010 -59.243 -22.315  1.00  0.00     0.007 C 
ATOM     17  C   UNL     1       8.956 -62.342 -28.118  1.00  0.00     0.002 A 
ENDBRANCH   1   4
TORSDOF 1
ENDMDL
