MODEL 1
REMARK VINA RESULT:   -10.016      0.000      0.000
REMARK INTER + INTRA:         -15.996
REMARK INTER:                 -15.285
REMARK INTRA:                  -0.710
REMARK UNBOUND:                -0.710
REMARK SMILES O=C(COc1ccc(Cl)cc1[N+](=O)[O-])NCC[N@H+]1CC[N@H+](Cc2ccccc2)CC1
REMARK SMILES IDX 15 1 2 2 1 3 16 5 17 6 18 7 20 8 21 9 19 10 29 11 30 12
REMARK SMILES IDX 22 15 23 16 24 17 28 18 25 19 27 20 26 21 3 22 4 23 5 24
REMARK SMILES IDX 6 25 11 26 7 27 10 28 8 29 9 30 12 31 13 32 14 33
REMARK H PARENT 15 4 21 13 18 14
ROOT
ATOM      1  N   UNL     1      10.651 -54.135 -23.709  1.00  0.00    -0.347 N 
ATOM      2  C   UNL     1      11.748 -54.104 -24.542  1.00  0.00     0.258 C 
ATOM      3  O   UNL     1      12.088 -55.099 -25.187  1.00  0.00    -0.271 OA
ATOM      4  H   UNL     1      10.469 -53.283 -23.183  1.00  0.00     0.163 HD
ENDROOT
BRANCH   1   5
ATOM      5  C   UNL     1      10.059 -55.345 -23.130  1.00  0.00     0.177 C 
BRANCH   5   6
ATOM      6  C   UNL     1      10.938 -56.265 -22.244  1.00  0.00     0.284 C 
BRANCH   6   7
ATOM      7  N   UNL     1      10.907 -57.725 -22.662  1.00  0.00    -0.324 N 
ATOM      8  C   UNL     1      10.711 -60.142 -21.964  1.00  0.00     0.324 C 
ATOM      9  N   UNL     1      11.596 -60.542 -23.145  1.00  0.00    -0.322 N 
ATOM     10  C   UNL     1      11.012 -58.693 -21.498  1.00  0.00     0.324 C 
ATOM     11  C   UNL     1      11.482 -59.548 -24.302  1.00  0.00     0.324 C 
ATOM     12  C   UNL     1      11.806 -58.108 -23.824  1.00  0.00     0.324 C 
ATOM     13  H   UNL     1      12.574 -60.533 -22.826  1.00  0.00     0.348 HD
ATOM     14  H   UNL     1       9.931 -57.835 -23.018  1.00  0.00     0.348 HD
BRANCH   9  15
ATOM     15  C   UNL     1      11.381 -61.992 -23.589  1.00  0.00     0.299 C 
BRANCH  15  16
ATOM     16  C   UNL     1       9.950 -62.432 -23.714  1.00  0.00     0.006 A 
ATOM     17  C   UNL     1       9.352 -63.225 -22.724  1.00  0.00     0.009 A 
ATOM     18  C   UNL     1       9.183 -62.054 -24.830  1.00  0.00     0.009 A 
ATOM     19  C   UNL     1       8.030 -63.653 -22.859  1.00  0.00     0.001 A 
ATOM     20  C   UNL     1       7.861 -62.483 -24.960  1.00  0.00     0.001 A 
ATOM     21  C   UNL     1       7.288 -63.287 -23.978  1.00  0.00     0.000 A 
ENDBRANCH  15  16
ENDBRANCH   9  15
ENDBRANCH   6   7
ENDBRANCH   5   6
ENDBRANCH   1   5
BRANCH   2  22
ATOM     22  C   UNL     1      12.534 -52.791 -24.567  1.00  0.00     0.329 C 
BRANCH  22  23
ATOM     23  O   UNL     1      12.498 -52.282 -23.226  1.00  0.00    -0.477 OA
BRANCH  23  24
ATOM     24  C   UNL     1      11.961 -51.028 -23.140  1.00  0.00     0.197 A 
ATOM     25  C   UNL     1      12.633 -49.950 -23.717  1.00  0.00     0.055 A 
ATOM     26  C   UNL     1      10.815 -50.786 -22.375  1.00  0.00     0.312 A 
ATOM     27  C   UNL     1      12.136 -48.652 -23.548  1.00  0.00     0.025 A 
ATOM     28  C   UNL     1      10.312 -49.495 -22.190  1.00  0.00     0.110 A 
ATOM     29  C   UNL     1      10.984 -48.432 -22.788  1.00  0.00     0.048 A 
ATOM     30  Cl  UNL     1      10.386 -46.834 -22.589  1.00  0.00    -0.084 Cl
BRANCH  26  31
ATOM     31  N   UNL     1      10.097 -51.892 -21.782  1.00  0.00     0.066 N 
ATOM     32  O   UNL     1       8.905 -52.049 -22.101  1.00  0.00    -0.258 OA
ATOM     33  O   UNL     1      10.697 -52.615 -20.976  1.00  0.00    -0.258 OA
ENDBRANCH  26  31
ENDBRANCH  23  24
ENDBRANCH  22  23
ENDBRANCH   2  22
TORSDOF 9
ENDMDL
MODEL 2
REMARK VINA RESULT:    -9.853      4.117     11.127
REMARK INTER + INTRA:         -15.747
REMARK INTER:                 -14.891
REMARK INTRA:                  -0.857
REMARK UNBOUND:                -0.710
REMARK SMILES O=C(COc1ccc(Cl)cc1[N+](=O)[O-])NCC[N@H+]1CC[N@H+](Cc2ccccc2)CC1
REMARK SMILES IDX 15 1 2 2 1 3 16 5 17 6 18 7 20 8 21 9 19 10 29 11 30 12
REMARK SMILES IDX 22 15 23 16 24 17 28 18 25 19 27 20 26 21 3 22 4 23 5 24
REMARK SMILES IDX 6 25 11 26 7 27 10 28 8 29 9 30 12 31 13 32 14 33
REMARK H PARENT 15 4 21 13 18 14
ROOT
ATOM      1  N   UNL     1      11.155 -57.148 -22.994  1.00  0.00    -0.347 N 
ATOM      2  C   UNL     1      11.397 -58.370 -22.405  1.00  0.00     0.258 C 
ATOM      3  O   UNL     1      10.969 -58.631 -21.278  1.00  0.00    -0.271 OA
ATOM      4  H   UNL     1      11.583 -57.001 -23.905  1.00  0.00     0.163 HD
ENDROOT
BRANCH   1   5
ATOM      5  C   UNL     1      10.813 -55.914 -22.278  1.00  0.00     0.177 C 
BRANCH   5   6
ATOM      6  C   UNL     1      10.202 -54.729 -23.069  1.00  0.00     0.284 C 
BRANCH   6   7
ATOM      7  N   UNL     1      10.853 -53.391 -22.761  1.00  0.00    -0.324 N 
ATOM      8  C   UNL     1      10.589 -51.044 -21.871  1.00  0.00     0.324 C 
ATOM      9  N   UNL     1      11.686 -50.572 -22.826  1.00  0.00    -0.322 N 
ATOM     10  C   UNL     1       9.858 -52.295 -22.426  1.00  0.00     0.324 C 
ATOM     11  C   UNL     1      12.672 -51.695 -23.158  1.00  0.00     0.324 C 
ATOM     12  C   UNL     1      11.926 -52.929 -23.731  1.00  0.00     0.324 C 
ATOM     13  H   UNL     1      11.239 -50.284 -23.706  1.00  0.00     0.348 HD
ATOM     14  H   UNL     1      11.352 -53.585 -21.865  1.00  0.00     0.348 HD
BRANCH   9  15
ATOM     15  C   UNL     1      12.385 -49.295 -22.350  1.00  0.00     0.299 C 
BRANCH  15  16
ATOM     16  C   UNL     1      11.800 -48.005 -22.850  1.00  0.00     0.006 A 
ATOM     17  C   UNL     1      11.019 -47.197 -22.012  1.00  0.00     0.009 A 
ATOM     18  C   UNL     1      12.026 -47.585 -24.172  1.00  0.00     0.009 A 
ATOM     19  C   UNL     1      10.454 -46.013 -22.490  1.00  0.00     0.001 A 
ATOM     20  C   UNL     1      11.460 -46.400 -24.646  1.00  0.00     0.001 A 
ATOM     21  C   UNL     1      10.671 -45.618 -23.807  1.00  0.00     0.000 A 
ENDBRANCH  15  16
ENDBRANCH   9  15
ENDBRANCH   6   7
ENDBRANCH   5   6
ENDBRANCH   1   5
BRANCH   2  22
ATOM     22  C   UNL     1      12.267 -59.340 -23.207  1.00  0.00     0.329 C 
BRANCH  22  23
ATOM     23  O   UNL     1      11.476 -59.741 -24.335  1.00  0.00    -0.477 OA
BRANCH  23  24
ATOM     24  C   UNL     1      10.584 -60.734 -24.042  1.00  0.00     0.197 A 
ATOM     25  C   UNL     1      11.002 -61.840 -23.301  1.00  0.00     0.055 A 
ATOM     26  C   UNL     1       9.292 -60.724 -24.580  1.00  0.00     0.312 A 
ATOM     27  C   UNL     1      10.118 -62.903 -23.081  1.00  0.00     0.025 A 
ATOM     28  C   UNL     1       8.401 -61.782 -24.377  1.00  0.00     0.110 A 
ATOM     29  C   UNL     1       8.828 -62.869 -23.619  1.00  0.00     0.048 A 
ATOM     30  Cl  UNL     1       7.755 -64.181 -23.342  1.00  0.00    -0.084 Cl
BRANCH  26  31
ATOM     31  N   UNL     1       8.836 -59.581 -25.339  1.00  0.00     0.066 N 
ATOM     32  O   UNL     1       9.140 -59.524 -26.544  1.00  0.00    -0.258 OA
ATOM     33  O   UNL     1       8.183 -58.711 -24.749  1.00  0.00    -0.258 OA
ENDBRANCH  26  31
ENDBRANCH  23  24
ENDBRANCH  22  23
ENDBRANCH   2  22
TORSDOF 9
ENDMDL
MODEL 3
REMARK VINA RESULT:    -9.792      2.010      3.275
REMARK INTER + INTRA:         -15.654
REMARK INTER:                 -15.081
REMARK INTRA:                  -0.573
REMARK UNBOUND:                -0.710
REMARK SMILES O=C(COc1ccc(Cl)cc1[N+](=O)[O-])NCC[N@H+]1CC[N@H+](Cc2ccccc2)CC1
REMARK SMILES IDX 15 1 2 2 1 3 16 5 17 6 18 7 20 8 21 9 19 10 29 11 30 12
REMARK SMILES IDX 22 15 23 16 24 17 28 18 25 19 27 20 26 21 3 22 4 23 5 24
REMARK SMILES IDX 6 25 11 26 7 27 10 28 8 29 9 30 12 31 13 32 14 33
REMARK H PARENT 15 4 21 13 18 14
ROOT
ATOM      1  N   UNL     1      11.004 -53.677 -22.468  1.00  0.00    -0.347 N 
ATOM      2  C   UNL     1      10.318 -52.487 -22.370  1.00  0.00     0.258 C 
ATOM      3  O   UNL     1       9.132 -52.459 -22.031  1.00  0.00    -0.271 OA
ATOM      4  H   UNL     1      11.965 -53.611 -22.797  1.00  0.00     0.163 HD
ENDROOT
BRANCH   1   5
ATOM      5  C   UNL     1      10.391 -54.998 -22.648  1.00  0.00     0.177 C 
BRANCH   5   6
ATOM      6  C   UNL     1      11.016 -56.222 -21.931  1.00  0.00     0.284 C 
BRANCH   6   7
ATOM      7  N   UNL     1      10.851 -57.525 -22.696  1.00  0.00    -0.324 N 
ATOM      8  C   UNL     1      11.814 -59.159 -24.361  1.00  0.00     0.324 C 
ATOM      9  N   UNL     1      10.397 -59.530 -24.797  1.00  0.00    -0.322 N 
ATOM     10  C   UNL     1      11.872 -57.711 -23.804  1.00  0.00     0.324 C 
ATOM     11  C   UNL     1       9.384 -59.325 -23.669  1.00  0.00     0.324 C 
ATOM     12  C   UNL     1       9.440 -57.869 -23.137  1.00  0.00     0.324 C 
ATOM     13  H   UNL     1      10.128 -58.907 -25.570  1.00  0.00     0.348 HD
ATOM     14  H   UNL     1      11.100 -58.240 -21.977  1.00  0.00     0.348 HD
BRANCH   9  15
ATOM     15  C   UNL     1      10.310 -60.927 -25.422  1.00  0.00     0.299 C 
BRANCH  15  16
ATOM     16  C   UNL     1       9.642 -61.978 -24.581  1.00  0.00     0.006 A 
ATOM     17  C   UNL     1       8.400 -62.514 -24.953  1.00  0.00     0.009 A 
ATOM     18  C   UNL     1      10.252 -62.444 -23.404  1.00  0.00     0.009 A 
ATOM     19  C   UNL     1       7.771 -63.469 -24.154  1.00  0.00     0.001 A 
ATOM     20  C   UNL     1       9.620 -63.401 -22.609  1.00  0.00     0.001 A 
ATOM     21  C   UNL     1       8.379 -63.909 -22.981  1.00  0.00     0.000 A 
ENDBRANCH  15  16
ENDBRANCH   9  15
ENDBRANCH   6   7
ENDBRANCH   5   6
ENDBRANCH   1   5
BRANCH   2  22
ATOM     22  C   UNL     1      11.098 -51.229 -22.760  1.00  0.00     0.329 C 
BRANCH  22  23
ATOM     23  O   UNL     1      12.412 -51.676 -23.126  1.00  0.00    -0.477 OA
BRANCH  23  24
ATOM     24  C   UNL     1      12.994 -50.904 -24.092  1.00  0.00     0.197 A 
ATOM     25  C   UNL     1      12.970 -49.514 -23.972  1.00  0.00     0.055 A 
ATOM     26  C   UNL     1      13.501 -51.477 -25.263  1.00  0.00     0.312 A 
ATOM     27  C   UNL     1      13.480 -48.720 -25.005  1.00  0.00     0.025 A 
ATOM     28  C   UNL     1      14.005 -50.697 -26.308  1.00  0.00     0.110 A 
ATOM     29  C   UNL     1      13.992 -49.312 -26.163  1.00  0.00     0.048 A 
ATOM     30  Cl  UNL     1      14.613 -48.323 -27.423  1.00  0.00    -0.084 Cl
BRANCH  26  31
ATOM     31  N   UNL     1      13.547 -52.916 -25.400  1.00  0.00     0.066 N 
ATOM     32  O   UNL     1      14.617 -53.431 -25.773  1.00  0.00    -0.258 OA
ATOM     33  O   UNL     1      12.519 -53.560 -25.158  1.00  0.00    -0.258 OA
ENDBRANCH  26  31
ENDBRANCH  23  24
ENDBRANCH  22  23
ENDBRANCH   2  22
TORSDOF 9
ENDMDL
MODEL 4
REMARK VINA RESULT:    -9.673      2.173      3.043
REMARK INTER + INTRA:         -15.473
REMARK INTER:                 -14.744
REMARK INTRA:                  -0.729
REMARK UNBOUND:                -0.710
REMARK SMILES O=C(COc1ccc(Cl)cc1[N+](=O)[O-])NCC[N@H+]1CC[N@H+](Cc2ccccc2)CC1
REMARK SMILES IDX 15 1 2 2 1 3 16 5 17 6 18 7 20 8 21 9 19 10 29 11 30 12
REMARK SMILES IDX 22 15 23 16 24 17 28 18 25 19 27 20 26 21 3 22 4 23 5 24
REMARK SMILES IDX 6 25 11 26 7 27 10 28 8 29 9 30 12 31 13 32 14 33
REMARK H PARENT 15 4 21 13 18 14
ROOT
ATOM      1  N   UNL     1      10.925 -53.622 -21.506  1.00  0.00    -0.347 N 
ATOM      2  C   UNL     1      10.041 -52.695 -22.012  1.00  0.00     0.258 C 
ATOM      3  O   UNL     1       8.884 -53.009 -22.302  1.00  0.00    -0.271 OA
ATOM      4  H   UNL     1      11.871 -53.287 -21.336  1.00  0.00     0.163 HD
ENDROOT
BRANCH   1   5
ATOM      5  C   UNL     1      10.816 -55.076 -21.667  1.00  0.00     0.177 C 
BRANCH   5   6
ATOM      6  C   UNL     1      10.948 -55.690 -23.084  1.00  0.00     0.284 C 
BRANCH   6   7
ATOM      7  N   UNL     1      11.004 -57.208 -23.087  1.00  0.00    -0.324 N 
ATOM      8  C   UNL     1      12.180 -59.299 -23.873  1.00  0.00     0.324 C 
ATOM      9  N   UNL     1      10.843 -60.040 -23.859  1.00  0.00    -0.322 N 
ATOM     10  C   UNL     1      11.979 -57.778 -24.102  1.00  0.00     0.324 C 
ATOM     11  C   UNL     1       9.873 -59.444 -22.837  1.00  0.00     0.324 C 
ATOM     12  C   UNL     1       9.667 -57.928 -23.093  1.00  0.00     0.324 C 
ATOM     13  H   UNL     1      10.413 -59.938 -24.788  1.00  0.00     0.348 HD
ATOM     14  H   UNL     1      11.430 -57.419 -22.157  1.00  0.00     0.348 HD
BRANCH   9  15
ATOM     15  C   UNL     1      11.001 -61.557 -23.708  1.00  0.00     0.299 C 
BRANCH  15  16
ATOM     16  C   UNL     1       9.748 -62.366 -23.893  1.00  0.00     0.006 A 
ATOM     17  C   UNL     1       9.249 -63.166 -22.855  1.00  0.00     0.009 A 
ATOM     18  C   UNL     1       9.053 -62.334 -25.113  1.00  0.00     0.009 A 
ATOM     19  C   UNL     1       8.101 -63.937 -23.041  1.00  0.00     0.001 A 
ATOM     20  C   UNL     1       7.903 -63.105 -25.295  1.00  0.00     0.001 A 
ATOM     21  C   UNL     1       7.432 -63.910 -24.261  1.00  0.00     0.000 A 
ENDBRANCH  15  16
ENDBRANCH   9  15
ENDBRANCH   6   7
ENDBRANCH   5   6
ENDBRANCH   1   5
BRANCH   2  22
ATOM     22  C   UNL     1      10.600 -51.289 -22.241  1.00  0.00     0.329 C 
BRANCH  22  23
ATOM     23  O   UNL     1      12.025 -51.438 -22.316  1.00  0.00    -0.477 OA
BRANCH  23  24
ATOM     24  C   UNL     1      12.542 -51.073 -23.528  1.00  0.00     0.197 A 
ATOM     25  C   UNL     1      12.851 -52.054 -24.470  1.00  0.00     0.055 A 
ATOM     26  C   UNL     1      12.886 -49.743 -23.793  1.00  0.00     0.312 A 
ATOM     27  C   UNL     1      13.467 -51.692 -25.673  1.00  0.00     0.025 A 
ATOM     28  C   UNL     1      13.511 -49.366 -24.985  1.00  0.00     0.110 A 
ATOM     29  C   UNL     1      13.794 -50.356 -25.923  1.00  0.00     0.048 A 
ATOM     30  Cl  UNL     1      14.552 -49.927 -27.403  1.00  0.00    -0.084 Cl
BRANCH  26  31
ATOM     31  N   UNL     1      12.561 -48.709 -22.835  1.00  0.00     0.066 N 
ATOM     32  O   UNL     1      13.361 -48.508 -21.903  1.00  0.00    -0.258 OA
ATOM     33  O   UNL     1      11.500 -48.091 -22.979  1.00  0.00    -0.258 OA
ENDBRANCH  26  31
ENDBRANCH  23  24
ENDBRANCH  22  23
ENDBRANCH   2  22
TORSDOF 9
ENDMDL
MODEL 5
REMARK VINA RESULT:    -9.531      4.025     11.668
REMARK INTER + INTRA:         -15.257
REMARK INTER:                 -14.747
REMARK INTRA:                  -0.510
REMARK UNBOUND:                -0.710
REMARK SMILES O=C(COc1ccc(Cl)cc1[N+](=O)[O-])NCC[N@H+]1CC[N@H+](Cc2ccccc2)CC1
REMARK SMILES IDX 15 1 2 2 1 3 16 5 17 6 18 7 20 8 21 9 19 10 29 11 30 12
REMARK SMILES IDX 22 15 23 16 24 17 28 18 25 19 27 20 26 21 3 22 4 23 5 24
REMARK SMILES IDX 6 25 11 26 7 27 10 28 8 29 9 30 12 31 13 32 14 33
REMARK H PARENT 15 4 21 13 18 14
ROOT
ATOM      1  N   UNL     1      11.045 -55.399 -22.151  1.00  0.00    -0.347 N 
ATOM      2  C   UNL     1      11.365 -56.649 -22.634  1.00  0.00     0.258 C 
ATOM      3  O   UNL     1      11.615 -56.827 -23.829  1.00  0.00    -0.271 OA
ATOM      4  H   UNL     1      10.810 -55.352 -21.162  1.00  0.00     0.163 HD
ENDROOT
BRANCH   1   5
ATOM      5  C   UNL     1      10.524 -54.287 -22.953  1.00  0.00     0.177 C 
BRANCH   5   6
ATOM      6  C   UNL     1      10.007 -53.016 -22.232  1.00  0.00     0.284 C 
BRANCH   6   7
ATOM      7  N   UNL     1      10.600 -51.726 -22.772  1.00  0.00    -0.324 N 
ATOM      8  C   UNL     1      12.551 -50.575 -23.885  1.00  0.00     0.324 C 
ATOM      9  N   UNL     1      12.201 -49.287 -23.138  1.00  0.00    -0.322 N 
ATOM     10  C   UNL     1      12.078 -51.828 -23.101  1.00  0.00     0.324 C 
ATOM     11  C   UNL     1      10.710 -49.210 -22.807  1.00  0.00     0.324 C 
ATOM     12  C   UNL     1      10.258 -50.460 -22.006  1.00  0.00     0.324 C 
ATOM     13  H   UNL     1      12.716 -49.287 -22.247  1.00  0.00     0.348 HD
ATOM     14  H   UNL     1      10.124 -51.629 -23.696  1.00  0.00     0.348 HD
BRANCH   9  15
ATOM     15  C   UNL     1      12.716 -48.028 -23.843  1.00  0.00     0.299 C 
BRANCH  15  16
ATOM     16  C   UNL     1      12.144 -46.727 -23.356  1.00  0.00     0.006 A 
ATOM     17  C   UNL     1      11.118 -46.083 -24.063  1.00  0.00     0.009 A 
ATOM     18  C   UNL     1      12.628 -46.132 -22.178  1.00  0.00     0.009 A 
ATOM     19  C   UNL     1      10.610 -44.861 -23.621  1.00  0.00     0.001 A 
ATOM     20  C   UNL     1      12.115 -44.910 -21.739  1.00  0.00     0.001 A 
ATOM     21  C   UNL     1      11.111 -44.273 -22.463  1.00  0.00     0.000 A 
ENDBRANCH  15  16
ENDBRANCH   9  15
ENDBRANCH   6   7
ENDBRANCH   5   6
ENDBRANCH   1   5
BRANCH   2  22
ATOM     22  C   UNL     1      11.331 -57.791 -21.615  1.00  0.00     0.329 C 
BRANCH  22  23
ATOM     23  O   UNL     1      12.046 -58.879 -22.217  1.00  0.00    -0.477 OA
BRANCH  23  24
ATOM     24  C   UNL     1      11.277 -59.993 -22.402  1.00  0.00     0.197 A 
ATOM     25  C   UNL     1      10.272 -60.299 -21.483  1.00  0.00     0.055 A 
ATOM     26  C   UNL     1      11.561 -60.903 -23.427  1.00  0.00     0.312 A 
ATOM     27  C   UNL     1       9.546 -61.487 -21.618  1.00  0.00     0.025 A 
ATOM     28  C   UNL     1      10.851 -62.098 -23.570  1.00  0.00     0.110 A 
ATOM     29  C   UNL     1       9.838 -62.378 -22.655  1.00  0.00     0.048 A 
ATOM     30  Cl  UNL     1       8.940 -63.834 -22.807  1.00  0.00    -0.084 Cl
BRANCH  26  31
ATOM     31  N   UNL     1      12.588 -60.597 -24.398  1.00  0.00     0.066 N 
ATOM     32  O   UNL     1      12.229 -60.303 -25.552  1.00  0.00    -0.258 OA
ATOM     33  O   UNL     1      13.770 -60.660 -24.038  1.00  0.00    -0.258 OA
ENDBRANCH  26  31
ENDBRANCH  23  24
ENDBRANCH  22  23
ENDBRANCH   2  22
TORSDOF 9
ENDMDL
MODEL 6
REMARK VINA RESULT:    -9.091      4.174     11.737
REMARK INTER + INTRA:         -14.585
REMARK INTER:                 -13.928
REMARK INTRA:                  -0.657
REMARK UNBOUND:                -0.710
REMARK SMILES O=C(COc1ccc(Cl)cc1[N+](=O)[O-])NCC[N@H+]1CC[N@H+](Cc2ccccc2)CC1
REMARK SMILES IDX 15 1 2 2 1 3 16 5 17 6 18 7 20 8 21 9 19 10 29 11 30 12
REMARK SMILES IDX 22 15 23 16 24 17 28 18 25 19 27 20 26 21 3 22 4 23 5 24
REMARK SMILES IDX 6 25 11 26 7 27 10 28 8 29 9 30 12 31 13 32 14 33
REMARK H PARENT 15 4 21 13 18 14
ROOT
ATOM      1  N   UNL     1      11.106 -55.108 -22.260  1.00  0.00    -0.347 N 
ATOM      2  C   UNL     1      11.350 -56.355 -22.789  1.00  0.00     0.258 C 
ATOM      3  O   UNL     1      11.736 -56.490 -23.954  1.00  0.00    -0.271 OA
ATOM      4  H   UNL     1      10.749 -55.092 -21.307  1.00  0.00     0.163 HD
ENDROOT
BRANCH   1   5
ATOM      5  C   UNL     1      10.818 -53.897 -23.036  1.00  0.00     0.177 C 
BRANCH   5   6
ATOM      6  C   UNL     1       9.911 -52.802 -22.417  1.00  0.00     0.284 C 
BRANCH   6   7
ATOM      7  N   UNL     1      10.430 -51.390 -22.629  1.00  0.00    -0.324 N 
ATOM      8  C   UNL     1      12.423 -49.864 -22.886  1.00  0.00     0.324 C 
ATOM      9  N   UNL     1      11.622 -48.730 -22.247  1.00  0.00    -0.322 N 
ATOM     10  C   UNL     1      11.924 -51.251 -22.401  1.00  0.00     0.324 C 
ATOM     11  C   UNL     1      10.119 -48.896 -22.480  1.00  0.00     0.324 C 
ATOM     12  C   UNL     1       9.632 -50.278 -21.971  1.00  0.00     0.324 C 
ATOM     13  H   UNL     1      11.782 -48.761 -21.231  1.00  0.00     0.348 HD
ATOM     14  H   UNL     1      10.300 -51.256 -23.656  1.00  0.00     0.348 HD
BRANCH   9  15
ATOM     15  C   UNL     1      12.131 -47.340 -22.643  1.00  0.00     0.299 C 
BRANCH  15  16
ATOM     16  C   UNL     1      13.366 -46.870 -21.928  1.00  0.00     0.006 A 
ATOM     17  C   UNL     1      14.151 -45.834 -22.455  1.00  0.00     0.009 A 
ATOM     18  C   UNL     1      13.757 -47.462 -20.715  1.00  0.00     0.009 A 
ATOM     19  C   UNL     1      15.313 -45.420 -21.801  1.00  0.00     0.001 A 
ATOM     20  C   UNL     1      14.918 -47.043 -20.064  1.00  0.00     0.001 A 
ATOM     21  C   UNL     1      15.698 -46.027 -20.609  1.00  0.00     0.000 A 
ENDBRANCH  15  16
ENDBRANCH   9  15
ENDBRANCH   6   7
ENDBRANCH   5   6
ENDBRANCH   1   5
BRANCH   2  22
ATOM     22  C   UNL     1      11.060 -57.544 -21.870  1.00  0.00     0.329 C 
BRANCH  22  23
ATOM     23  O   UNL     1      11.883 -58.620 -22.342  1.00  0.00    -0.477 OA
BRANCH  23  24
ATOM     24  C   UNL     1      11.209 -59.804 -22.456  1.00  0.00     0.197 A 
ATOM     25  C   UNL     1      10.196 -60.111 -21.547  1.00  0.00     0.055 A 
ATOM     26  C   UNL     1      11.603 -60.770 -23.388  1.00  0.00     0.312 A 
ATOM     27  C   UNL     1       9.570 -61.361 -21.603  1.00  0.00     0.025 A 
ATOM     28  C   UNL     1      10.994 -62.026 -23.450  1.00  0.00     0.110 A 
ATOM     29  C   UNL     1       9.971 -62.309 -22.548  1.00  0.00     0.048 A 
ATOM     30  Cl  UNL     1       9.194 -63.840 -22.603  1.00  0.00    -0.084 Cl
BRANCH  26  31
ATOM     31  N   UNL     1      12.641 -60.465 -24.348  1.00  0.00     0.066 N 
ATOM     32  O   UNL     1      12.298 -59.990 -25.445  1.00  0.00    -0.258 OA
ATOM     33  O   UNL     1      13.814 -60.707 -24.037  1.00  0.00    -0.258 OA
ENDBRANCH  26  31
ENDBRANCH  23  24
ENDBRANCH  22  23
ENDBRANCH   2  22
TORSDOF 9
ENDMDL
MODEL 7
REMARK VINA RESULT:    -9.004      4.560     11.449
REMARK INTER + INTRA:         -14.452
REMARK INTER:                 -13.915
REMARK INTRA:                  -0.537
REMARK UNBOUND:                -0.710
REMARK SMILES O=C(COc1ccc(Cl)cc1[N+](=O)[O-])NCC[N@H+]1CC[N@H+](Cc2ccccc2)CC1
REMARK SMILES IDX 15 1 2 2 1 3 16 5 17 6 18 7 20 8 21 9 19 10 29 11 30 12
REMARK SMILES IDX 22 15 23 16 24 17 28 18 25 19 27 20 26 21 3 22 4 23 5 24
REMARK SMILES IDX 6 25 11 26 7 27 10 28 8 29 9 30 12 31 13 32 14 33
REMARK H PARENT 15 4 21 13 18 14
ROOT
ATOM      1  N   UNL     1      10.959 -57.283 -22.761  1.00  0.00    -0.347 N 
ATOM      2  C   UNL     1       9.813 -57.964 -23.109  1.00  0.00     0.258 C 
ATOM      3  O   UNL     1       8.813 -57.365 -23.515  1.00  0.00    -0.271 OA
ATOM      4  H   UNL     1      11.719 -57.851 -22.395  1.00  0.00     0.163 HD
ENDROOT
BRANCH   1   5
ATOM      5  C   UNL     1      11.024 -55.866 -22.386  1.00  0.00     0.177 C 
BRANCH   5   6
ATOM      6  C   UNL     1      10.853 -54.787 -23.485  1.00  0.00     0.284 C 
BRANCH   6   7
ATOM      7  N   UNL     1      11.385 -53.421 -23.085  1.00  0.00    -0.324 N 
ATOM      8  C   UNL     1      11.003 -51.265 -21.831  1.00  0.00     0.324 C 
ATOM      9  N   UNL     1      11.861 -50.529 -22.860  1.00  0.00    -0.322 N 
ATOM     10  C   UNL     1      10.339 -52.525 -22.447  1.00  0.00     0.324 C 
ATOM     11  C   UNL     1      12.900 -51.452 -23.498  1.00  0.00     0.324 C 
ATOM     12  C   UNL     1      12.219 -52.696 -24.127  1.00  0.00     0.324 C 
ATOM     13  H   UNL     1      11.241 -50.196 -23.611  1.00  0.00     0.348 HD
ATOM     14  H   UNL     1      12.047 -53.655 -22.313  1.00  0.00     0.348 HD
BRANCH   9  15
ATOM     15  C   UNL     1      12.476 -49.237 -22.312  1.00  0.00     0.299 C 
BRANCH  15  16
ATOM     16  C   UNL     1      11.969 -47.961 -22.924  1.00  0.00     0.006 A 
ATOM     17  C   UNL     1      12.562 -47.433 -24.080  1.00  0.00     0.009 A 
ATOM     18  C   UNL     1      10.887 -47.274 -22.347  1.00  0.00     0.009 A 
ATOM     19  C   UNL     1      12.105 -46.234 -24.629  1.00  0.00     0.001 A 
ATOM     20  C   UNL     1      10.433 -46.076 -22.900  1.00  0.00     0.001 A 
ATOM     21  C   UNL     1      11.045 -45.554 -24.036  1.00  0.00     0.000 A 
ENDBRANCH  15  16
ENDBRANCH   9  15
ENDBRANCH   6   7
ENDBRANCH   5   6
ENDBRANCH   1   5
BRANCH   2  22
ATOM     22  C   UNL     1       9.845 -59.480 -22.904  1.00  0.00     0.329 C 
BRANCH  22  23
ATOM     23  O   UNL     1       8.613 -59.978 -23.445  1.00  0.00    -0.477 OA
BRANCH  23  24
ATOM     24  C   UNL     1       8.786 -60.744 -24.564  1.00  0.00     0.197 A 
ATOM     25  C   UNL     1       9.405 -60.193 -25.687  1.00  0.00     0.055 A 
ATOM     26  C   UNL     1       8.239 -62.029 -24.649  1.00  0.00     0.312 A 
ATOM     27  C   UNL     1       9.498 -60.943 -26.865  1.00  0.00     0.025 A 
ATOM     28  C   UNL     1       8.316 -62.786 -25.822  1.00  0.00     0.110 A 
ATOM     29  C   UNL     1       8.954 -62.229 -26.927  1.00  0.00     0.048 A 
ATOM     30  Cl  UNL     1       9.074 -63.136 -28.381  1.00  0.00    -0.084 Cl
BRANCH  26  31
ATOM     31  N   UNL     1       7.607 -62.622 -23.492  1.00  0.00     0.066 N 
ATOM     32  O   UNL     1       8.300 -63.351 -22.761  1.00  0.00    -0.258 OA
ATOM     33  O   UNL     1       6.408 -62.388 -23.297  1.00  0.00    -0.258 OA
ENDBRANCH  26  31
ENDBRANCH  23  24
ENDBRANCH  22  23
ENDBRANCH   2  22
TORSDOF 9
ENDMDL
MODEL 8
REMARK VINA RESULT:    -8.953      4.633     10.682
REMARK INTER + INTRA:         -14.373
REMARK INTER:                 -13.751
REMARK INTRA:                  -0.622
REMARK UNBOUND:                -0.710
REMARK SMILES O=C(COc1ccc(Cl)cc1[N+](=O)[O-])NCC[N@H+]1CC[N@H+](Cc2ccccc2)CC1
REMARK SMILES IDX 15 1 2 2 1 3 16 5 17 6 18 7 20 8 21 9 19 10 29 11 30 12
REMARK SMILES IDX 22 15 23 16 24 17 28 18 25 19 27 20 26 21 3 22 4 23 5 24
REMARK SMILES IDX 6 25 11 26 7 27 10 28 8 29 9 30 12 31 13 32 14 33
REMARK H PARENT 15 4 21 13 18 14
ROOT
ATOM      1  N   UNL     1       9.071 -58.469 -23.390  1.00  0.00    -0.347 N 
ATOM      2  C   UNL     1       7.797 -58.961 -23.569  1.00  0.00     0.258 C 
ATOM      3  O   UNL     1       6.871 -58.224 -23.917  1.00  0.00    -0.271 OA
ATOM      4  H   UNL     1       9.763 -59.138 -23.060  1.00  0.00     0.163 HD
ENDROOT
BRANCH   1   5
ATOM      5  C   UNL     1       9.411 -57.066 -23.130  1.00  0.00     0.177 C 
BRANCH   5   6
ATOM      6  C   UNL     1      10.719 -56.736 -22.368  1.00  0.00     0.284 C 
BRANCH   6   7
ATOM      7  N   UNL     1      11.174 -55.296 -22.532  1.00  0.00    -0.324 N 
ATOM      8  C   UNL     1      11.151 -52.935 -21.641  1.00  0.00     0.324 C 
ATOM      9  N   UNL     1      11.272 -52.408 -23.071  1.00  0.00    -0.322 N 
ATOM     10  C   UNL     1      10.461 -54.325 -21.609  1.00  0.00     0.324 C 
ATOM     11  C   UNL     1      11.983 -53.406 -23.986  1.00  0.00     0.324 C 
ATOM     12  C   UNL     1      11.270 -54.783 -23.958  1.00  0.00     0.324 C 
ATOM     13  H   UNL     1      10.321 -52.273 -23.442  1.00  0.00     0.348 HD
ATOM     14  H   UNL     1      12.157 -55.330 -22.182  1.00  0.00     0.348 HD
BRANCH   9  15
ATOM     15  C   UNL     1      11.881 -51.004 -23.141  1.00  0.00     0.299 C 
BRANCH  15  16
ATOM     16  C   UNL     1      13.201 -50.900 -23.852  1.00  0.00     0.006 A 
ATOM     17  C   UNL     1      14.404 -51.146 -23.174  1.00  0.00     0.009 A 
ATOM     18  C   UNL     1      13.253 -50.554 -25.213  1.00  0.00     0.009 A 
ATOM     19  C   UNL     1      15.628 -51.021 -23.832  1.00  0.00     0.001 A 
ATOM     20  C   UNL     1      14.480 -50.431 -25.867  1.00  0.00     0.001 A 
ATOM     21  C   UNL     1      15.666 -50.659 -25.175  1.00  0.00     0.000 A 
ENDBRANCH  15  16
ENDBRANCH   9  15
ENDBRANCH   6   7
ENDBRANCH   5   6
ENDBRANCH   1   5
BRANCH   2  22
ATOM     22  C   UNL     1       7.601 -60.447 -23.256  1.00  0.00     0.329 C 
BRANCH  22  23
ATOM     23  O   UNL     1       8.755 -61.117 -23.782  1.00  0.00    -0.477 OA
BRANCH  23  24
ATOM     24  C   UNL     1       8.521 -61.735 -24.979  1.00  0.00     0.197 A 
ATOM     25  C   UNL     1       7.624 -62.801 -25.041  1.00  0.00     0.055 A 
ATOM     26  C   UNL     1       9.260 -61.401 -26.119  1.00  0.00     0.312 A 
ATOM     27  C   UNL     1       7.453 -63.496 -26.243  1.00  0.00     0.025 A 
ATOM     28  C   UNL     1       9.109 -62.091 -27.324  1.00  0.00     0.110 A 
ATOM     29  C   UNL     1       8.194 -63.140 -27.374  1.00  0.00     0.048 A 
ATOM     30  Cl  UNL     1       7.976 -64.004 -28.842  1.00  0.00    -0.084 Cl
BRANCH  26  31
ATOM     31  N   UNL     1      10.185 -60.289 -26.078  1.00  0.00     0.066 N 
ATOM     32  O   UNL     1      11.105 -60.329 -25.241  1.00  0.00    -0.258 OA
ATOM     33  O   UNL     1      10.006 -59.351 -26.864  1.00  0.00    -0.258 OA
ENDBRANCH  26  31
ENDBRANCH  23  24
ENDBRANCH  22  23
ENDBRANCH   2  22
TORSDOF 9
ENDMDL
MODEL 9
REMARK VINA RESULT:    -8.597      4.122     10.849
REMARK INTER + INTRA:         -13.831
REMARK INTER:                 -13.081
REMARK INTRA:                  -0.749
REMARK UNBOUND:                -0.710
REMARK SMILES O=C(COc1ccc(Cl)cc1[N+](=O)[O-])NCC[N@H+]1CC[N@H+](Cc2ccccc2)CC1
REMARK SMILES IDX 15 1 2 2 1 3 16 5 17 6 18 7 20 8 21 9 19 10 29 11 30 12
REMARK SMILES IDX 22 15 23 16 24 17 28 18 25 19 27 20 26 21 3 22 4 23 5 24
REMARK SMILES IDX 6 25 11 26 7 27 10 28 8 29 9 30 12 31 13 32 14 33
REMARK H PARENT 15 4 21 13 18 14
ROOT
ATOM      1  N   UNL     1      10.711 -54.742 -22.358  1.00  0.00    -0.347 N 
ATOM      2  C   UNL     1      11.222 -55.669 -23.239  1.00  0.00     0.258 C 
ATOM      3  O   UNL     1      11.503 -55.359 -24.400  1.00  0.00    -0.271 OA
ATOM      4  H   UNL     1      10.467 -55.094 -21.435  1.00  0.00     0.163 HD
ENDROOT
BRANCH   1   5
ATOM      5  C   UNL     1      10.028 -53.500 -22.733  1.00  0.00     0.177 C 
BRANCH   5   6
ATOM      6  C   UNL     1      10.206 -52.243 -21.843  1.00  0.00     0.284 C 
BRANCH   6   7
ATOM      7  N   UNL     1      11.297 -51.303 -22.328  1.00  0.00    -0.324 N 
ATOM      8  C   UNL     1      12.048 -48.925 -22.716  1.00  0.00     0.324 C 
ATOM      9  N   UNL     1      12.893 -49.398 -23.899  1.00  0.00    -0.322 N 
ATOM     10  C   UNL     1      10.836 -49.864 -22.477  1.00  0.00     0.324 C 
ATOM     11  C   UNL     1      13.338 -50.853 -23.733  1.00  0.00     0.324 C 
ATOM     12  C   UNL     1      12.113 -51.781 -23.516  1.00  0.00     0.324 C 
ATOM     13  H   UNL     1      12.311 -49.348 -24.745  1.00  0.00     0.348 HD
ATOM     14  H   UNL     1      11.959 -51.292 -21.521  1.00  0.00     0.348 HD
BRANCH   9  15
ATOM     15  C   UNL     1      14.060 -48.457 -24.215  1.00  0.00     0.299 C 
BRANCH  15  16
ATOM     16  C   UNL     1      14.918 -48.851 -25.384  1.00  0.00     0.006 A 
ATOM     17  C   UNL     1      14.399 -48.859 -26.686  1.00  0.00     0.009 A 
ATOM     18  C   UNL     1      16.261 -49.218 -25.190  1.00  0.00     0.009 A 
ATOM     19  C   UNL     1      15.193 -49.253 -27.765  1.00  0.00     0.001 A 
ATOM     20  C   UNL     1      17.052 -49.609 -26.272  1.00  0.00     0.001 A 
ATOM     21  C   UNL     1      16.516 -49.632 -27.557  1.00  0.00     0.000 A 
ENDBRANCH  15  16
ENDBRANCH   9  15
ENDBRANCH   6   7
ENDBRANCH   5   6
ENDBRANCH   1   5
BRANCH   2  22
ATOM     22  C   UNL     1      11.361 -57.097 -22.706  1.00  0.00     0.329 C 
BRANCH  22  23
ATOM     23  O   UNL     1      11.297 -57.955 -23.854  1.00  0.00    -0.477 OA
BRANCH  23  24
ATOM     24  C   UNL     1      10.852 -59.214 -23.562  1.00  0.00     0.197 A 
ATOM     25  C   UNL     1      10.576 -59.558 -22.238  1.00  0.00     0.055 A 
ATOM     26  C   UNL     1      10.789 -60.204 -24.549  1.00  0.00     0.312 A 
ATOM     27  C   UNL     1      10.212 -60.872 -21.924  1.00  0.00     0.025 A 
ATOM     28  C   UNL     1      10.436 -61.523 -24.250  1.00  0.00     0.110 A 
ATOM     29  C   UNL     1      10.145 -61.844 -22.927  1.00  0.00     0.048 A 
ATOM     30  Cl  UNL     1       9.698 -63.453 -22.525  1.00  0.00    -0.084 Cl
BRANCH  26  31
ATOM     31  N   UNL     1      11.058 -59.863 -25.929  1.00  0.00     0.066 N 
ATOM     32  O   UNL     1      10.107 -59.465 -26.625  1.00  0.00    -0.258 OA
ATOM     33  O   UNL     1      12.212 -60.001 -26.351  1.00  0.00    -0.258 OA
ENDBRANCH  26  31
ENDBRANCH  23  24
ENDBRANCH  22  23
ENDBRANCH   2  22
TORSDOF 9
ENDMDL
