MODEL 1
REMARK VINA RESULT:   -12.689      0.000      0.000
REMARK INTER + INTRA:         -17.683
REMARK INTER:                 -17.139
REMARK INTRA:                  -0.544
REMARK UNBOUND:                -0.544
REMARK SMILES COc1ccc2c(c1)CC[C@H](Cc1cc[n+](Cc3ccccc3C)cc1C(C)=O)C2=O
REMARK SMILES IDX 13 1 14 2 15 3 16 4 25 5 26 6 12 7 11 8 3 9 4 10 8 11 5 12
REMARK SMILES IDX 7 13 6 14 9 15 30 16 10 17 31 18 2 19 1 20 27 21 28 22 29 23
REMARK SMILES IDX 17 24 18 25 19 26 23 27 20 28 22 29 21 30 24 31
REMARK H PARENT
ROOT
ATOM      1  C   UNL     1      10.048 -57.488 -23.071  1.00  0.00    -0.025 A 
ATOM      2  C   UNL     1      11.378 -57.932 -23.016  1.00  0.00     0.075 A 
ATOM      3  C   UNL     1      11.709 -59.257 -23.283  1.00  0.00     0.308 A 
ATOM      4  N   UNL     1      10.747 -60.146 -23.615  1.00  0.00    -0.200 N 
ATOM      5  C   UNL     1       9.457 -59.751 -23.717  1.00  0.00     0.320 A 
ATOM      6  C   UNL     1       9.089 -58.422 -23.480  1.00  0.00     0.084 A 
ENDROOT
BRANCH   1   7
ATOM      7  C   UNL     1       9.750 -56.065 -22.634  1.00  0.00     0.048 C 
BRANCH   7   8
ATOM      8  C   UNL     1      10.844 -55.000 -22.889  1.00  0.00     0.066 C 
ATOM      9  C   UNL     1      12.666 -50.151 -23.280  1.00  0.00     0.119 A 
ATOM     10  C   UNL     1      11.925 -50.185 -22.097  1.00  0.00     0.047 A 
ATOM     11  C   UNL     1      12.743 -51.298 -24.072  1.00  0.00     0.050 A 
ATOM     12  C   UNL     1      11.272 -51.353 -21.700  1.00  0.00     0.016 A 
ATOM     13  C   UNL     1      12.077 -52.478 -23.695  1.00  0.00    -0.033 A 
ATOM     14  C   UNL     1      11.351 -52.500 -22.494  1.00  0.00     0.021 A 
ATOM     15  C   UNL     1      12.197 -53.703 -24.561  1.00  0.00     0.037 C 
ATOM     16  C   UNL     1      10.653 -53.738 -22.052  1.00  0.00     0.166 C 
ATOM     17  C   UNL     1      11.008 -54.640 -24.365  1.00  0.00     0.017 C 
ATOM     18  O   UNL     1       9.985 -53.728 -21.022  1.00  0.00    -0.294 OA
BRANCH   9  19
ATOM     19  O   UNL     1      13.256 -48.948 -23.544  1.00  0.00    -0.497 OA
ATOM     20  C   UNL     1      12.892 -48.295 -24.755  1.00  0.00     0.278 C 
ENDBRANCH   9  19
ENDBRANCH   7   8
ENDBRANCH   1   7
BRANCH   6  21
ATOM     21  C   UNL     1       7.648 -58.154 -23.648  1.00  0.00     0.166 C 
ATOM     22  C   UNL     1       6.674 -58.624 -22.606  1.00  0.00     0.094 C 
ATOM     23  O   UNL     1       7.317 -57.483 -24.622  1.00  0.00    -0.294 OA
ENDBRANCH   6  21
BRANCH   4  24
ATOM     24  C   UNL     1      11.109 -61.570 -23.848  1.00  0.00     0.393 C 
BRANCH  24  25
ATOM     25  C   UNL     1       9.889 -62.457 -23.782  1.00  0.00     0.020 A 
ATOM     26  C   UNL     1       9.605 -63.129 -22.576  1.00  0.00     0.010 A 
ATOM     27  C   UNL     1       9.028 -62.642 -24.887  1.00  0.00    -0.042 A 
ATOM     28  C   UNL     1       8.481 -63.947 -22.458  1.00  0.00     0.001 A 
ATOM     29  C   UNL     1       7.900 -63.468 -24.746  1.00  0.00     0.004 A 
ATOM     30  C   UNL     1       7.628 -64.112 -23.540  1.00  0.00     0.000 A 
ATOM     31  C   UNL     1       9.275 -62.001 -26.228  1.00  0.00     0.045 C 
ENDBRANCH  24  25
ENDBRANCH   4  24
TORSDOF 6
ENDMDL
MODEL 2
REMARK VINA RESULT:   -11.344      2.829      8.371
REMARK INTER + INTRA:         -15.867
REMARK INTER:                 -15.973
REMARK INTRA:                   0.105
REMARK UNBOUND:                -0.544
REMARK SMILES COc1ccc2c(c1)CC[C@H](Cc1cc[n+](Cc3ccccc3C)cc1C(C)=O)C2=O
REMARK SMILES IDX 13 1 14 2 15 3 16 4 25 5 26 6 12 7 11 8 3 9 4 10 8 11 5 12
REMARK SMILES IDX 7 13 6 14 9 15 30 16 10 17 31 18 2 19 1 20 27 21 28 22 29 23
REMARK SMILES IDX 17 24 18 25 19 26 23 27 20 28 22 29 21 30 24 31
REMARK H PARENT
ROOT
ATOM      1  C   UNL     1      10.202 -58.531 -22.488  1.00  0.00    -0.025 A 
ATOM      2  C   UNL     1      11.238 -57.800 -21.887  1.00  0.00     0.075 A 
ATOM      3  C   UNL     1      11.206 -56.409 -21.839  1.00  0.00     0.308 A 
ATOM      4  N   UNL     1      10.161 -55.733 -22.365  1.00  0.00    -0.200 N 
ATOM      5  C   UNL     1       9.125 -56.400 -22.919  1.00  0.00     0.320 A 
ATOM      6  C   UNL     1       9.108 -57.799 -22.964  1.00  0.00     0.084 A 
ENDROOT
BRANCH   1   7
ATOM      7  C   UNL     1      10.372 -60.034 -22.624  1.00  0.00     0.048 C 
BRANCH   7   8
ATOM      8  C   UNL     1      10.597 -60.596 -24.048  1.00  0.00     0.066 C 
ATOM      9  C   UNL     1      11.276 -60.216 -29.185  1.00  0.00     0.119 A 
ATOM     10  C   UNL     1      12.132 -59.271 -28.617  1.00  0.00     0.047 A 
ATOM     11  C   UNL     1      10.457 -60.984 -28.355  1.00  0.00     0.050 A 
ATOM     12  C   UNL     1      12.180 -59.095 -27.233  1.00  0.00     0.016 A 
ATOM     13  C   UNL     1      10.481 -60.807 -26.960  1.00  0.00    -0.033 A 
ATOM     14  C   UNL     1      11.360 -59.865 -26.404  1.00  0.00     0.021 A 
ATOM     15  C   UNL     1       9.601 -61.666 -26.091  1.00  0.00     0.037 C 
ATOM     16  C   UNL     1      11.430 -59.668 -24.930  1.00  0.00     0.166 C 
ATOM     17  C   UNL     1       9.300 -60.984 -24.759  1.00  0.00     0.017 C 
ATOM     18  O   UNL     1      12.170 -58.808 -24.462  1.00  0.00    -0.294 OA
BRANCH   9  19
ATOM     19  O   UNL     1      11.335 -60.287 -30.548  1.00  0.00    -0.497 OA
ATOM     20  C   UNL     1      12.101 -59.293 -31.219  1.00  0.00     0.278 C 
ENDBRANCH   9  19
ENDBRANCH   7   8
ENDBRANCH   1   7
BRANCH   6  21
ATOM     21  C   UNL     1       7.899 -58.371 -23.586  1.00  0.00     0.166 C 
ATOM     22  C   UNL     1       6.851 -59.019 -22.727  1.00  0.00     0.094 C 
ATOM     23  O   UNL     1       7.774 -58.223 -24.799  1.00  0.00    -0.294 OA
ENDBRANCH   6  21
BRANCH   4  24
ATOM     24  C   UNL     1      10.167 -54.245 -22.352  1.00  0.00     0.393 C 
BRANCH  24  25
ATOM     25  C   UNL     1      11.190 -53.699 -23.318  1.00  0.00     0.020 A 
ATOM     26  C   UNL     1      11.587 -54.500 -24.408  1.00  0.00     0.010 A 
ATOM     27  C   UNL     1      11.769 -52.419 -23.164  1.00  0.00    -0.042 A 
ATOM     28  C   UNL     1      12.516 -54.036 -25.339  1.00  0.00     0.001 A 
ATOM     29  C   UNL     1      12.701 -51.970 -24.115  1.00  0.00     0.004 A 
ATOM     30  C   UNL     1      13.069 -52.771 -25.194  1.00  0.00     0.000 A 
ATOM     31  C   UNL     1      11.440 -51.511 -22.008  1.00  0.00     0.045 C 
ENDBRANCH  24  25
ENDBRANCH   4  24
TORSDOF 6
ENDMDL
MODEL 3
REMARK VINA RESULT:   -11.122      1.497      2.129
REMARK INTER + INTRA:         -15.567
REMARK INTER:                 -15.103
REMARK INTRA:                  -0.464
REMARK UNBOUND:                -0.544
REMARK SMILES COc1ccc2c(c1)CC[C@H](Cc1cc[n+](Cc3ccccc3C)cc1C(C)=O)C2=O
REMARK SMILES IDX 13 1 14 2 15 3 16 4 25 5 26 6 12 7 11 8 3 9 4 10 8 11 5 12
REMARK SMILES IDX 7 13 6 14 9 15 30 16 10 17 31 18 2 19 1 20 27 21 28 22 29 23
REMARK SMILES IDX 17 24 18 25 19 26 23 27 20 28 22 29 21 30 24 31
REMARK H PARENT
ROOT
ATOM      1  C   UNL     1       9.508 -57.724 -23.105  1.00  0.00    -0.025 A 
ATOM      2  C   UNL     1       8.461 -57.924 -24.017  1.00  0.00     0.075 A 
ATOM      3  C   UNL     1       8.442 -59.029 -24.864  1.00  0.00     0.308 A 
ATOM      4  N   UNL     1       9.436 -59.943 -24.813  1.00  0.00    -0.200 N 
ATOM      5  C   UNL     1      10.444 -59.808 -23.923  1.00  0.00     0.320 A 
ATOM      6  C   UNL     1      10.485 -58.724 -23.038  1.00  0.00     0.084 A 
ENDROOT
BRANCH   1   7
ATOM      7  C   UNL     1       9.530 -56.429 -22.313  1.00  0.00     0.048 C 
BRANCH   7   8
ATOM      8  C   UNL     1      10.623 -55.395 -22.675  1.00  0.00     0.066 C 
ATOM      9  C   UNL     1      12.485 -50.598 -23.392  1.00  0.00     0.119 A 
ATOM     10  C   UNL     1      11.808 -50.565 -22.171  1.00  0.00     0.047 A 
ATOM     11  C   UNL     1      12.504 -51.782 -24.132  1.00  0.00     0.050 A 
ATOM     12  C   UNL     1      11.162 -51.703 -21.686  1.00  0.00     0.016 A 
ATOM     13  C   UNL     1      11.844 -52.932 -23.665  1.00  0.00    -0.033 A 
ATOM     14  C   UNL     1      11.183 -52.887 -22.428  1.00  0.00     0.021 A 
ATOM     15  C   UNL     1      11.901 -54.198 -24.477  1.00  0.00     0.037 C 
ATOM     16  C   UNL     1      10.494 -54.092 -21.890  1.00  0.00     0.166 C 
ATOM     17  C   UNL     1      10.712 -55.106 -24.174  1.00  0.00     0.017 C 
ATOM     18  O   UNL     1       9.881 -54.023 -20.828  1.00  0.00    -0.294 OA
BRANCH   9  19
ATOM     19  O   UNL     1      13.076 -49.418 -23.743  1.00  0.00    -0.497 OA
ATOM     20  C   UNL     1      13.427 -49.248 -25.112  1.00  0.00     0.278 C 
ENDBRANCH   9  19
ENDBRANCH   7   8
ENDBRANCH   1   7
BRANCH   6  21
ATOM     21  C   UNL     1      11.641 -58.734 -22.121  1.00  0.00     0.166 C 
ATOM     22  C   UNL     1      11.460 -58.329 -20.686  1.00  0.00     0.094 C 
ATOM     23  O   UNL     1      12.705 -59.148 -22.572  1.00  0.00    -0.294 OA
ENDBRANCH   6  21
BRANCH   4  24
ATOM     24  C   UNL     1       9.428 -61.091 -25.760  1.00  0.00     0.393 C 
BRANCH  24  25
ATOM     25  C   UNL     1       8.591 -62.228 -25.226  1.00  0.00     0.020 A 
ATOM     26  C   UNL     1       8.484 -62.393 -23.829  1.00  0.00     0.010 A 
ATOM     27  C   UNL     1       7.917 -63.135 -26.074  1.00  0.00    -0.042 A 
ATOM     28  C   UNL     1       7.710 -63.416 -23.284  1.00  0.00     0.001 A 
ATOM     29  C   UNL     1       7.139 -64.158 -25.504  1.00  0.00     0.004 A 
ATOM     30  C   UNL     1       7.035 -64.294 -24.121  1.00  0.00     0.000 A 
ATOM     31  C   UNL     1       8.007 -63.064 -27.576  1.00  0.00     0.045 C 
ENDBRANCH  24  25
ENDBRANCH   4  24
TORSDOF 6
ENDMDL
MODEL 4
REMARK VINA RESULT:   -11.061      2.586     10.192
REMARK INTER + INTRA:         -15.485
REMARK INTER:                 -15.820
REMARK INTRA:                   0.336
REMARK UNBOUND:                -0.544
REMARK SMILES COc1ccc2c(c1)CC[C@H](Cc1cc[n+](Cc3ccccc3C)cc1C(C)=O)C2=O
REMARK SMILES IDX 13 1 14 2 15 3 16 4 25 5 26 6 12 7 11 8 3 9 4 10 8 11 5 12
REMARK SMILES IDX 7 13 6 14 9 15 30 16 10 17 31 18 2 19 1 20 27 21 28 22 29 23
REMARK SMILES IDX 17 24 18 25 19 26 23 27 20 28 22 29 21 30 24 31
REMARK H PARENT
ROOT
ATOM      1  C   UNL     1      11.149 -55.332 -22.695  1.00  0.00    -0.025 A 
ATOM      2  C   UNL     1      10.488 -54.845 -21.557  1.00  0.00     0.075 A 
ATOM      3  C   UNL     1      10.301 -53.480 -21.360  1.00  0.00     0.308 A 
ATOM      4  N   UNL     1      10.747 -52.592 -22.275  1.00  0.00    -0.200 N 
ATOM      5  C   UNL     1      11.356 -53.020 -23.403  1.00  0.00     0.320 A 
ATOM      6  C   UNL     1      11.540 -54.386 -23.650  1.00  0.00     0.084 A 
ENDROOT
BRANCH   1   7
ATOM      7  C   UNL     1      11.436 -56.821 -22.774  1.00  0.00     0.048 C 
BRANCH   7   8
ATOM      8  C   UNL     1      10.224 -57.781 -22.707  1.00  0.00     0.066 C 
ATOM      9  C   UNL     1       7.401 -61.878 -24.204  1.00  0.00     0.119 A 
ATOM     10  C   UNL     1       8.717 -62.335 -24.110  1.00  0.00     0.047 A 
ATOM     11  C   UNL     1       7.123 -60.535 -23.938  1.00  0.00     0.050 A 
ATOM     12  C   UNL     1       9.748 -61.468 -23.748  1.00  0.00     0.016 A 
ATOM     13  C   UNL     1       8.154 -59.644 -23.588  1.00  0.00    -0.033 A 
ATOM     14  C   UNL     1       9.468 -60.125 -23.481  1.00  0.00     0.021 A 
ATOM     15  C   UNL     1       7.818 -58.208 -23.288  1.00  0.00     0.037 C 
ATOM     16  C   UNL     1      10.579 -59.216 -23.090  1.00  0.00     0.166 C 
ATOM     17  C   UNL     1       9.021 -57.297 -23.517  1.00  0.00     0.017 C 
ATOM     18  O   UNL     1      11.731 -59.642 -23.046  1.00  0.00    -0.294 OA
BRANCH   9  19
ATOM     19  O   UNL     1       6.493 -62.833 -24.562  1.00  0.00    -0.497 OA
ATOM     20  C   UNL     1       6.938 -63.855 -25.447  1.00  0.00     0.278 C 
ENDBRANCH   9  19
ENDBRANCH   7   8
ENDBRANCH   1   7
BRANCH   6  21
ATOM     21  C   UNL     1      12.205 -54.686 -24.932  1.00  0.00     0.166 C 
ATOM     22  C   UNL     1      12.918 -53.593 -25.677  1.00  0.00     0.094 C 
ATOM     23  O   UNL     1      12.201 -55.857 -25.301  1.00  0.00    -0.294 OA
ENDBRANCH   6  21
BRANCH   4  24
ATOM     24  C   UNL     1      10.586 -51.134 -22.025  1.00  0.00     0.393 C 
BRANCH  24  25
ATOM     25  C   UNL     1      11.705 -50.348 -22.663  1.00  0.00     0.020 A 
ATOM     26  C   UNL     1      12.941 -50.989 -22.887  1.00  0.00     0.010 A 
ATOM     27  C   UNL     1      11.561 -48.993 -23.037  1.00  0.00    -0.042 A 
ATOM     28  C   UNL     1      14.002 -50.313 -23.488  1.00  0.00     0.001 A 
ATOM     29  C   UNL     1      12.642 -48.331 -23.645  1.00  0.00     0.004 A 
ATOM     30  C   UNL     1      13.850 -48.988 -23.871  1.00  0.00     0.000 A 
ATOM     31  C   UNL     1      10.294 -48.214 -22.798  1.00  0.00     0.045 C 
ENDBRANCH  24  25
ENDBRANCH   4  24
TORSDOF 6
ENDMDL
MODEL 5
REMARK VINA RESULT:   -10.885      1.426      2.354
REMARK INTER + INTRA:         -15.247
REMARK INTER:                 -15.987
REMARK INTRA:                   0.741
REMARK UNBOUND:                -0.544
REMARK SMILES COc1ccc2c(c1)CC[C@H](Cc1cc[n+](Cc3ccccc3C)cc1C(C)=O)C2=O
REMARK SMILES IDX 13 1 14 2 15 3 16 4 25 5 26 6 12 7 11 8 3 9 4 10 8 11 5 12
REMARK SMILES IDX 7 13 6 14 9 15 30 16 10 17 31 18 2 19 1 20 27 21 28 22 29 23
REMARK SMILES IDX 17 24 18 25 19 26 23 27 20 28 22 29 21 30 24 31
REMARK H PARENT
ROOT
ATOM      1  C   UNL     1      10.562 -57.939 -22.696  1.00  0.00    -0.025 A 
ATOM      2  C   UNL     1      11.776 -58.640 -22.767  1.00  0.00     0.075 A 
ATOM      3  C   UNL     1      11.881 -59.834 -23.475  1.00  0.00     0.308 A 
ATOM      4  N   UNL     1      10.807 -60.338 -24.122  1.00  0.00    -0.200 N 
ATOM      5  C   UNL     1       9.629 -59.676 -24.111  1.00  0.00     0.320 A 
ATOM      6  C   UNL     1       9.491 -58.460 -23.431  1.00  0.00     0.084 A 
ENDROOT
BRANCH   1   7
ATOM      7  C   UNL     1      10.491 -56.720 -21.795  1.00  0.00     0.048 C 
BRANCH   7   8
ATOM      8  C   UNL     1      10.569 -55.331 -22.473  1.00  0.00     0.066 C 
ATOM      9  C   UNL     1      12.933 -51.520 -25.096  1.00  0.00     0.119 A 
ATOM     10  C   UNL     1      13.234 -52.698 -25.781  1.00  0.00     0.047 A 
ATOM     11  C   UNL     1      12.161 -51.583 -23.934  1.00  0.00     0.050 A 
ATOM     12  C   UNL     1      12.765 -53.929 -25.321  1.00  0.00     0.016 A 
ATOM     13  C   UNL     1      11.694 -52.817 -23.447  1.00  0.00    -0.033 A 
ATOM     14  C   UNL     1      11.991 -53.990 -24.158  1.00  0.00     0.021 A 
ATOM     15  C   UNL     1      10.847 -52.849 -22.203  1.00  0.00     0.037 C 
ATOM     16  C   UNL     1      11.494 -55.311 -23.686  1.00  0.00     0.166 C 
ATOM     17  C   UNL     1      10.934 -54.204 -21.506  1.00  0.00     0.017 C 
ATOM     18  O   UNL     1      11.802 -56.333 -24.295  1.00  0.00    -0.294 OA
BRANCH   9  19
ATOM     19  O   UNL     1      13.450 -50.388 -25.659  1.00  0.00    -0.497 OA
ATOM     20  C   UNL     1      14.852 -50.365 -25.904  1.00  0.00     0.278 C 
ENDBRANCH   9  19
ENDBRANCH   7   8
ENDBRANCH   1   7
BRANCH   6  21
ATOM     21  C   UNL     1       8.147 -57.860 -23.531  1.00  0.00     0.166 C 
ATOM     22  C   UNL     1       6.948 -58.628 -23.052  1.00  0.00     0.094 C 
ATOM     23  O   UNL     1       8.082 -56.707 -23.948  1.00  0.00    -0.294 OA
ENDBRANCH   6  21
BRANCH   4  24
ATOM     24  C   UNL     1      10.921 -61.642 -24.831  1.00  0.00     0.393 C 
BRANCH  24  25
ATOM     25  C   UNL     1       9.604 -62.379 -24.825  1.00  0.00     0.020 A 
ATOM     26  C   UNL     1       8.839 -62.406 -26.009  1.00  0.00     0.010 A 
ATOM     27  C   UNL     1       9.108 -63.034 -23.676  1.00  0.00    -0.042 A 
ATOM     28  C   UNL     1       7.623 -63.087 -26.062  1.00  0.00     0.001 A 
ATOM     29  C   UNL     1       7.882 -63.716 -23.751  1.00  0.00     0.004 A 
ATOM     30  C   UNL     1       7.148 -63.744 -24.936  1.00  0.00     0.000 A 
ATOM     31  C   UNL     1       9.834 -63.021 -22.355  1.00  0.00     0.045 C 
ENDBRANCH  24  25
ENDBRANCH   4  24
TORSDOF 6
ENDMDL
MODEL 6
REMARK VINA RESULT:   -10.547      2.949      5.761
REMARK INTER + INTRA:         -14.790
REMARK INTER:                 -14.486
REMARK INTRA:                  -0.304
REMARK UNBOUND:                -0.544
REMARK SMILES COc1ccc2c(c1)CC[C@H](Cc1cc[n+](Cc3ccccc3C)cc1C(C)=O)C2=O
REMARK SMILES IDX 13 1 14 2 15 3 16 4 25 5 26 6 12 7 11 8 3 9 4 10 8 11 5 12
REMARK SMILES IDX 7 13 6 14 9 15 30 16 10 17 31 18 2 19 1 20 27 21 28 22 29 23
REMARK SMILES IDX 17 24 18 25 19 26 23 27 20 28 22 29 21 30 24 31
REMARK H PARENT
ROOT
ATOM      1  C   UNL     1      11.959 -52.740 -23.206  1.00  0.00    -0.025 A 
ATOM      2  C   UNL     1      11.085 -52.941 -22.127  1.00  0.00     0.075 A 
ATOM      3  C   UNL     1      10.197 -54.013 -22.107  1.00  0.00     0.308 A 
ATOM      4  N   UNL     1      10.170 -54.894 -23.131  1.00  0.00    -0.200 N 
ATOM      5  C   UNL     1      11.021 -54.758 -24.173  1.00  0.00     0.320 A 
ATOM      6  C   UNL     1      11.945 -53.708 -24.217  1.00  0.00     0.084 A 
ENDROOT
BRANCH   1   7
ATOM      7  C   UNL     1      12.799 -51.475 -23.221  1.00  0.00     0.048 C 
BRANCH   7   8
ATOM      8  C   UNL     1      12.080 -50.150 -23.572  1.00  0.00     0.066 C 
ATOM      9  C   UNL     1      11.827 -45.022 -24.365  1.00  0.00     0.119 A 
ATOM     10  C   UNL     1      12.957 -45.459 -25.057  1.00  0.00     0.047 A 
ATOM     11  C   UNL     1      11.072 -45.944 -23.636  1.00  0.00     0.050 A 
ATOM     12  C   UNL     1      13.331 -46.803 -25.033  1.00  0.00     0.016 A 
ATOM     13  C   UNL     1      11.445 -47.299 -23.587  1.00  0.00    -0.033 A 
ATOM     14  C   UNL     1      12.574 -47.724 -24.303  1.00  0.00     0.021 A 
ATOM     15  C   UNL     1      10.599 -48.271 -22.809  1.00  0.00     0.037 C 
ATOM     16  C   UNL     1      12.985 -49.155 -24.294  1.00  0.00     0.166 C 
ATOM     17  C   UNL     1      11.411 -49.486 -22.369  1.00  0.00     0.017 C 
ATOM     18  O   UNL     1      14.002 -49.503 -24.888  1.00  0.00    -0.294 OA
BRANCH   9  19
ATOM     19  O   UNL     1      11.573 -43.685 -24.480  1.00  0.00    -0.497 OA
ATOM     20  C   UNL     1      12.415 -42.798 -23.751  1.00  0.00     0.278 C 
ENDBRANCH   9  19
ENDBRANCH   7   8
ENDBRANCH   1   7
BRANCH   6  21
ATOM     21  C   UNL     1      12.810 -53.713 -25.412  1.00  0.00     0.166 C 
ATOM     22  C   UNL     1      13.116 -55.009 -26.108  1.00  0.00     0.094 C 
ATOM     23  O   UNL     1      13.190 -52.622 -25.829  1.00  0.00    -0.294 OA
ENDBRANCH   6  21
BRANCH   4  24
ATOM     24  C   UNL     1       9.180 -56.004 -23.119  1.00  0.00     0.393 C 
BRANCH  24  25
ATOM     25  C   UNL     1       9.833 -57.308 -22.728  1.00  0.00     0.020 A 
ATOM     26  C   UNL     1      11.013 -57.269 -21.957  1.00  0.00     0.010 A 
ATOM     27  C   UNL     1       9.310 -58.563 -23.112  1.00  0.00    -0.042 A 
ATOM     28  C   UNL     1      11.647 -58.444 -21.555  1.00  0.00     0.001 A 
ATOM     29  C   UNL     1       9.962 -59.735 -22.694  1.00  0.00     0.004 A 
ATOM     30  C   UNL     1      11.119 -59.675 -21.919  1.00  0.00     0.000 A 
ATOM     31  C   UNL     1       8.080 -58.702 -23.971  1.00  0.00     0.045 C 
ENDBRANCH  24  25
ENDBRANCH   4  24
TORSDOF 6
ENDMDL
MODEL 7
REMARK VINA RESULT:   -10.463      3.102      6.298
REMARK INTER + INTRA:         -14.677
REMARK INTER:                 -13.836
REMARK INTRA:                  -0.841
REMARK UNBOUND:                -0.544
REMARK SMILES COc1ccc2c(c1)CC[C@H](Cc1cc[n+](Cc3ccccc3C)cc1C(C)=O)C2=O
REMARK SMILES IDX 13 1 14 2 15 3 16 4 25 5 26 6 12 7 11 8 3 9 4 10 8 11 5 12
REMARK SMILES IDX 7 13 6 14 9 15 30 16 10 17 31 18 2 19 1 20 27 21 28 22 29 23
REMARK SMILES IDX 17 24 18 25 19 26 23 27 20 28 22 29 21 30 24 31
REMARK H PARENT
ROOT
ATOM      1  C   UNL     1      12.212 -52.592 -23.606  1.00  0.00    -0.025 A 
ATOM      2  C   UNL     1      12.201 -53.747 -24.403  1.00  0.00     0.075 A 
ATOM      3  C   UNL     1      11.199 -54.704 -24.274  1.00  0.00     0.308 A 
ATOM      4  N   UNL     1      10.202 -54.530 -23.379  1.00  0.00    -0.200 N 
ATOM      5  C   UNL     1      10.154 -53.414 -22.617  1.00  0.00     0.320 A 
ATOM      6  C   UNL     1      11.130 -52.418 -22.736  1.00  0.00     0.084 A 
ENDROOT
BRANCH   1   7
ATOM      7  C   UNL     1      13.409 -51.664 -23.707  1.00  0.00     0.048 C 
BRANCH   7   8
ATOM      8  C   UNL     1      13.294 -50.461 -24.674  1.00  0.00     0.066 C 
ATOM      9  C   UNL     1      15.065 -47.135 -28.250  1.00  0.00     0.119 A 
ATOM     10  C   UNL     1      15.446 -48.404 -28.688  1.00  0.00     0.047 A 
ATOM     11  C   UNL     1      14.379 -47.006 -27.041  1.00  0.00     0.050 A 
ATOM     12  C   UNL     1      15.142 -49.538 -27.934  1.00  0.00     0.016 A 
ATOM     13  C   UNL     1      14.079 -48.137 -26.261  1.00  0.00    -0.033 A 
ATOM     14  C   UNL     1      14.455 -49.407 -26.724  1.00  0.00     0.021 A 
ATOM     15  C   UNL     1      13.321 -47.966 -24.972  1.00  0.00     0.037 C 
ATOM     16  C   UNL     1      14.134 -50.629 -25.937  1.00  0.00     0.166 C 
ATOM     17  C   UNL     1      13.597 -49.117 -24.008  1.00  0.00     0.017 C 
ATOM     18  O   UNL     1      14.510 -51.728 -26.334  1.00  0.00    -0.294 OA
BRANCH   9  19
ATOM     19  O   UNL     1      15.421 -46.115 -29.087  1.00  0.00    -0.497 OA
ATOM     20  C   UNL     1      16.595 -46.297 -29.871  1.00  0.00     0.278 C 
ENDBRANCH   9  19
ENDBRANCH   7   8
ENDBRANCH   1   7
BRANCH   6  21
ATOM     21  C   UNL     1      10.923 -51.259 -21.846  1.00  0.00     0.166 C 
ATOM     22  C   UNL     1       9.750 -50.347 -22.067  1.00  0.00     0.094 C 
ATOM     23  O   UNL     1      11.701 -51.134 -20.904  1.00  0.00    -0.294 OA
ENDBRANCH   6  21
BRANCH   4  24
ATOM     24  C   UNL     1       9.167 -55.586 -23.217  1.00  0.00     0.393 C 
BRANCH  24  25
ATOM     25  C   UNL     1       9.787 -56.889 -22.772  1.00  0.00     0.020 A 
ATOM     26  C   UNL     1      10.966 -56.849 -21.999  1.00  0.00     0.010 A 
ATOM     27  C   UNL     1       9.233 -58.144 -23.109  1.00  0.00    -0.042 A 
ATOM     28  C   UNL     1      11.569 -58.022 -21.550  1.00  0.00     0.001 A 
ATOM     29  C   UNL     1       9.856 -59.315 -22.643  1.00  0.00     0.004 A 
ATOM     30  C   UNL     1      11.012 -59.253 -21.868  1.00  0.00     0.000 A 
ATOM     31  C   UNL     1       8.002 -58.287 -23.966  1.00  0.00     0.045 C 
ENDBRANCH  24  25
ENDBRANCH   4  24
TORSDOF 6
ENDMDL
MODEL 8
REMARK VINA RESULT:   -10.170      1.854      2.896
REMARK INTER + INTRA:         -14.281
REMARK INTER:                 -13.979
REMARK INTRA:                  -0.302
REMARK UNBOUND:                -0.544
REMARK SMILES COc1ccc2c(c1)CC[C@H](Cc1cc[n+](Cc3ccccc3C)cc1C(C)=O)C2=O
REMARK SMILES IDX 13 1 14 2 15 3 16 4 25 5 26 6 12 7 11 8 3 9 4 10 8 11 5 12
REMARK SMILES IDX 7 13 6 14 9 15 30 16 10 17 31 18 2 19 1 20 27 21 28 22 29 23
REMARK SMILES IDX 17 24 18 25 19 26 23 27 20 28 22 29 21 30 24 31
REMARK H PARENT
ROOT
ATOM      1  C   UNL     1      10.137 -57.149 -23.042  1.00  0.00    -0.025 A 
ATOM      2  C   UNL     1       8.871 -56.730 -23.476  1.00  0.00     0.075 A 
ATOM      3  C   UNL     1       7.808 -57.623 -23.571  1.00  0.00     0.308 A 
ATOM      4  N   UNL     1       7.976 -58.921 -23.234  1.00  0.00    -0.200 N 
ATOM      5  C   UNL     1       9.170 -59.359 -22.776  1.00  0.00     0.320 A 
ATOM      6  C   UNL     1      10.256 -58.485 -22.642  1.00  0.00     0.084 A 
ENDROOT
BRANCH   1   7
ATOM      7  C   UNL     1      11.279 -56.150 -23.095  1.00  0.00     0.048 C 
BRANCH   7   8
ATOM      8  C   UNL     1      10.915 -54.650 -22.981  1.00  0.00     0.066 C 
ATOM      9  C   UNL     1      11.966 -49.562 -22.919  1.00  0.00     0.119 A 
ATOM     10  C   UNL     1      12.645 -50.079 -24.024  1.00  0.00     0.047 A 
ATOM     11  C   UNL     1      11.234 -50.426 -22.102  1.00  0.00     0.050 A 
ATOM     12  C   UNL     1      12.592 -51.441 -24.320  1.00  0.00     0.016 A 
ATOM     13  C   UNL     1      11.184 -51.805 -22.376  1.00  0.00    -0.033 A 
ATOM     14  C   UNL     1      11.858 -52.304 -23.501  1.00  0.00     0.021 A 
ATOM     15  C   UNL     1      10.369 -52.706 -21.487  1.00  0.00     0.037 C 
ATOM     16  C   UNL     1      11.807 -53.753 -23.835  1.00  0.00     0.166 C 
ATOM     17  C   UNL     1      10.877 -54.144 -21.538  1.00  0.00     0.017 C 
ATOM     18  O   UNL     1      12.441 -54.182 -24.796  1.00  0.00    -0.294 OA
BRANCH   9  19
ATOM     19  O   UNL     1      12.099 -48.213 -22.751  1.00  0.00    -0.497 OA
ATOM     20  C   UNL     1      10.914 -47.428 -22.824  1.00  0.00     0.278 C 
ENDBRANCH   9  19
ENDBRANCH   7   8
ENDBRANCH   1   7
BRANCH   6  21
ATOM     21  C   UNL     1      11.480 -59.117 -22.114  1.00  0.00     0.166 C 
ATOM     22  C   UNL     1      12.413 -59.835 -23.047  1.00  0.00     0.094 C 
ATOM     23  O   UNL     1      11.715 -58.962 -20.918  1.00  0.00    -0.294 OA
ENDBRANCH   6  21
BRANCH   4  24
ATOM     24  C   UNL     1       6.844 -59.874 -23.390  1.00  0.00     0.393 C 
BRANCH  24  25
ATOM     25  C   UNL     1       7.337 -61.232 -23.831  1.00  0.00     0.020 A 
ATOM     26  C   UNL     1       6.986 -62.361 -23.063  1.00  0.00     0.010 A 
ATOM     27  C   UNL     1       8.141 -61.409 -24.979  1.00  0.00    -0.042 A 
ATOM     28  C   UNL     1       7.401 -63.639 -23.435  1.00  0.00     0.001 A 
ATOM     29  C   UNL     1       8.545 -62.706 -25.339  1.00  0.00     0.004 A 
ATOM     30  C   UNL     1       8.175 -63.811 -24.574  1.00  0.00     0.000 A 
ATOM     31  C   UNL     1       8.601 -60.258 -25.836  1.00  0.00     0.045 C 
ENDBRANCH  24  25
ENDBRANCH   4  24
TORSDOF 6
ENDMDL
MODEL 9
REMARK VINA RESULT:    -9.943      4.444     13.074
REMARK INTER + INTRA:         -13.974
REMARK INTER:                 -12.713
REMARK INTRA:                  -1.261
REMARK UNBOUND:                -0.544
REMARK SMILES COc1ccc2c(c1)CC[C@H](Cc1cc[n+](Cc3ccccc3C)cc1C(C)=O)C2=O
REMARK SMILES IDX 13 1 14 2 15 3 16 4 25 5 26 6 12 7 11 8 3 9 4 10 8 11 5 12
REMARK SMILES IDX 7 13 6 14 9 15 30 16 10 17 31 18 2 19 1 20 27 21 28 22 29 23
REMARK SMILES IDX 17 24 18 25 19 26 23 27 20 28 22 29 21 30 24 31
REMARK H PARENT
ROOT
ATOM      1  C   UNL     1      12.427 -48.043 -23.327  1.00  0.00    -0.025 A 
ATOM      2  C   UNL     1      11.233 -47.690 -22.680  1.00  0.00     0.075 A 
ATOM      3  C   UNL     1      10.647 -46.442 -22.876  1.00  0.00     0.308 A 
ATOM      4  N   UNL     1      11.219 -45.545 -23.708  1.00  0.00    -0.200 N 
ATOM      5  C   UNL     1      12.349 -45.858 -24.380  1.00  0.00     0.320 A 
ATOM      6  C   UNL     1      12.954 -47.111 -24.230  1.00  0.00     0.084 A 
ENDROOT
BRANCH   1   7
ATOM      7  C   UNL     1      13.076 -49.365 -22.960  1.00  0.00     0.048 C 
BRANCH   7   8
ATOM      8  C   UNL     1      12.413 -50.655 -23.500  1.00  0.00     0.066 C 
ATOM      9  C   UNL     1      10.818 -55.590 -23.187  1.00  0.00     0.119 A 
ATOM     10  C   UNL     1      10.396 -54.977 -22.005  1.00  0.00     0.047 A 
ATOM     11  C   UNL     1      11.543 -54.848 -24.121  1.00  0.00     0.050 A 
ATOM     12  C   UNL     1      10.687 -53.636 -21.756  1.00  0.00     0.016 A 
ATOM     13  C   UNL     1      11.859 -53.499 -23.877  1.00  0.00    -0.033 A 
ATOM     14  C   UNL     1      11.413 -52.894 -22.693  1.00  0.00     0.021 A 
ATOM     15  C   UNL     1      12.626 -52.721 -24.914  1.00  0.00     0.037 C 
ATOM     16  C   UNL     1      11.708 -51.462 -22.412  1.00  0.00     0.166 C 
ATOM     17  C   UNL     1      13.374 -51.548 -24.286  1.00  0.00     0.017 C 
ATOM     18  O   UNL     1      11.351 -50.961 -21.350  1.00  0.00    -0.294 OA
BRANCH   9  19
ATOM     19  O   UNL     1      10.460 -56.903 -23.303  1.00  0.00    -0.497 OA
ATOM     20  C   UNL     1      11.447 -57.877 -22.982  1.00  0.00     0.278 C 
ENDBRANCH   9  19
ENDBRANCH   7   8
ENDBRANCH   1   7
BRANCH   6  21
ATOM     21  C   UNL     1      14.170 -47.299 -25.044  1.00  0.00     0.166 C 
ATOM     22  C   UNL     1      14.202 -48.363 -26.104  1.00  0.00     0.094 C 
ATOM     23  O   UNL     1      15.092 -46.511 -24.856  1.00  0.00    -0.294 OA
ENDBRANCH   6  21
BRANCH   4  24
ATOM     24  C   UNL     1      10.609 -44.197 -23.866  1.00  0.00     0.393 C 
BRANCH  24  25
ATOM     25  C   UNL     1      11.563 -43.115 -23.420  1.00  0.00     0.020 A 
ATOM     26  C   UNL     1      11.931 -43.055 -22.060  1.00  0.00     0.010 A 
ATOM     27  C   UNL     1      12.095 -42.159 -24.314  1.00  0.00    -0.042 A 
ATOM     28  C   UNL     1      12.822 -42.087 -21.600  1.00  0.00     0.001 A 
ATOM     29  C   UNL     1      12.993 -41.193 -23.830  1.00  0.00     0.004 A 
ATOM     30  C   UNL     1      13.355 -41.160 -22.485  1.00  0.00     0.000 A 
ATOM     31  C   UNL     1      11.726 -42.118 -25.775  1.00  0.00     0.045 C 
ENDBRANCH  24  25
ENDBRANCH   4  24
TORSDOF 6
ENDMDL
