MODEL 1
REMARK VINA RESULT:   -12.896      0.000      0.000
REMARK INTER + INTRA:         -17.625
REMARK INTER:                 -17.043
REMARK INTRA:                  -0.582
REMARK UNBOUND:                -0.582
REMARK SMILES O=C1C(NCCNc2c3c(nc4cc(Cl)ccc24)CCCC3)=CC(=O)c2c(O)cccc21
REMARK SMILES IDX 5 1 4 2 3 4 2 5 32 6 23 7 31 8 26 9 24 10 30 11 27 12 29 13
REMARK SMILES IDX 1 14 25 15 28 16 6 18 7 19 8 21 9 22 18 23 10 24 22 25 17 26
REMARK SMILES IDX 12 27 11 28 19 29 21 30 16 31 13 32 20 33 14 34 15 35
REMARK H PARENT 4 3 28 17 7 20
ROOT
ATOM      1  C   UNL     1      11.704 -58.271 -22.541  1.00  0.00     0.134 C 
ENDROOT
BRANCH   1   2
ATOM      2  N   UNL     1      10.914 -57.246 -23.219  1.00  0.00    -0.380 N 
ATOM      3  H   UNL     1      10.596 -57.563 -24.139  1.00  0.00     0.160 HD
BRANCH   2   4
ATOM      4  C   UNL     1      11.062 -55.869 -23.093  1.00  0.00     0.087 C 
ATOM      5  C   UNL     1      11.739 -55.067 -24.177  1.00  0.00     0.209 C 
ATOM      6  C   UNL     1      11.957 -53.621 -23.954  1.00  0.00     0.039 A 
ATOM      7  C   UNL     1      10.612 -55.215 -22.017  1.00  0.00     0.082 C 
ATOM      8  C   UNL     1      12.660 -52.897 -24.934  1.00  0.00     0.013 A 
ATOM      9  C   UNL     1      11.482 -52.977 -22.811  1.00  0.00     0.075 A 
ATOM     10  C   UNL     1      10.736 -53.761 -21.803  1.00  0.00     0.192 C 
ATOM     11  C   UNL     1      12.892 -51.533 -24.774  1.00  0.00     0.005 A 
ATOM     12  C   UNL     1      11.723 -51.600 -22.660  1.00  0.00     0.127 A 
ATOM     13  C   UNL     1      12.424 -50.884 -23.635  1.00  0.00     0.047 A 
ATOM     14  O   UNL     1      12.107 -55.571 -25.235  1.00  0.00    -0.287 OA
ATOM     15  O   UNL     1      10.215 -53.282 -20.804  1.00  0.00    -0.289 OA
BRANCH  12  16
ATOM     16  O   UNL     1      11.286 -50.929 -21.554  1.00  0.00    -0.507 OA
ATOM     17  H   UNL     1      11.537 -51.400 -20.744  1.00  0.00     0.293 HD
ENDBRANCH  12  16
ENDBRANCH   2   4
ENDBRANCH   1   2
BRANCH   1  18
ATOM     18  C   UNL     1      10.884 -59.575 -22.433  1.00  0.00     0.134 C 
BRANCH  18  19
ATOM     19  N   UNL     1      11.584 -60.672 -23.148  1.00  0.00    -0.382 N 
ATOM     20  H   UNL     1      11.757 -61.442 -22.506  1.00  0.00     0.160 HD
BRANCH  19  21
ATOM     21  C   UNL     1      10.834 -61.120 -24.277  1.00  0.00     0.049 A 
ATOM     22  C   UNL     1       9.768 -62.032 -24.119  1.00  0.00    -0.003 A 
ATOM     23  C   UNL     1      11.099 -60.563 -25.558  1.00  0.00     0.024 A 
ATOM     24  C   UNL     1       8.994 -62.320 -25.247  1.00  0.00     0.046 A 
ATOM     25  C   UNL     1       9.416 -62.627 -22.775  1.00  0.00     0.039 C 
ATOM     26  C   UNL     1      12.164 -59.667 -25.819  1.00  0.00     0.014 A 
ATOM     27  C   UNL     1      10.262 -60.946 -26.625  1.00  0.00     0.074 A 
ATOM     28  N   UNL     1       9.241 -61.796 -26.472  1.00  0.00    -0.252 NA
ATOM     29  C   UNL     1       7.838 -63.285 -25.194  1.00  0.00     0.056 C 
ATOM     30  C   UNL     1       8.441 -63.803 -22.839  1.00  0.00     0.005 C 
ATOM     31  C   UNL     1      12.381 -59.155 -27.096  1.00  0.00     0.021 A 
ATOM     32  C   UNL     1      10.493 -60.426 -27.890  1.00  0.00     0.049 A 
ATOM     33  C   UNL     1       7.294 -63.495 -23.788  1.00  0.00     0.007 C 
ATOM     34  C   UNL     1      11.538 -59.538 -28.129  1.00  0.00     0.043 A 
ATOM     35  Cl  UNL     1      11.791 -58.917 -29.714  1.00  0.00    -0.084 Cl
ENDBRANCH  19  21
ENDBRANCH  18  19
ENDBRANCH   1  18
TORSDOF 6
ENDMDL
MODEL 2
REMARK VINA RESULT:   -12.279      1.959      3.767
REMARK INTER + INTRA:         -16.810
REMARK INTER:                 -16.568
REMARK INTRA:                  -0.242
REMARK UNBOUND:                -0.582
REMARK SMILES O=C1C(NCCNc2c3c(nc4cc(Cl)ccc24)CCCC3)=CC(=O)c2c(O)cccc21
REMARK SMILES IDX 5 1 4 2 3 4 2 5 32 6 23 7 31 8 26 9 24 10 30 11 27 12 29 13
REMARK SMILES IDX 1 14 25 15 28 16 6 18 7 19 8 21 9 22 18 23 10 24 22 25 17 26
REMARK SMILES IDX 12 27 11 28 19 29 21 30 16 31 13 32 20 33 14 34 15 35
REMARK H PARENT 4 3 28 17 7 20
ROOT
ATOM      1  C   UNL     1      10.844 -57.626 -23.057  1.00  0.00     0.134 C 
ENDROOT
BRANCH   1   2
ATOM      2  N   UNL     1      10.217 -56.396 -23.534  1.00  0.00    -0.380 N 
ATOM      3  H   UNL     1       9.724 -56.543 -24.419  1.00  0.00     0.160 HD
BRANCH   2   4
ATOM      4  C   UNL     1      10.675 -55.099 -23.328  1.00  0.00     0.087 C 
ATOM      5  C   UNL     1      11.515 -54.407 -24.372  1.00  0.00     0.209 C 
ATOM      6  C   UNL     1      12.058 -53.065 -24.066  1.00  0.00     0.039 A 
ATOM      7  C   UNL     1      10.388 -54.428 -22.207  1.00  0.00     0.082 C 
ATOM      8  C   UNL     1      12.905 -52.460 -25.011  1.00  0.00     0.013 A 
ATOM      9  C   UNL     1      11.744 -52.401 -22.879  1.00  0.00     0.075 A 
ATOM     10  C   UNL     1      10.841 -53.057 -21.908  1.00  0.00     0.192 C 
ATOM     11  C   UNL     1      13.442 -51.197 -24.773  1.00  0.00     0.005 A 
ATOM     12  C   UNL     1      12.293 -51.128 -22.649  1.00  0.00     0.127 A 
ATOM     13  C   UNL     1      13.137 -50.530 -23.590  1.00  0.00     0.047 A 
ATOM     14  O   UNL     1      11.756 -54.914 -25.464  1.00  0.00    -0.287 OA
ATOM     15  O   UNL     1      10.445 -52.535 -20.874  1.00  0.00    -0.289 OA
BRANCH  12  16
ATOM     16  O   UNL     1      12.023 -50.445 -21.498  1.00  0.00    -0.507 OA
ATOM     17  H   UNL     1      11.438 -50.960 -20.921  1.00  0.00     0.293 HD
ENDBRANCH  12  16
ENDBRANCH   2   4
ENDBRANCH   1   2
BRANCH   1  18
ATOM     18  C   UNL     1      12.108 -57.925 -23.891  1.00  0.00     0.134 C 
BRANCH  18  19
ATOM     19  N   UNL     1      12.372 -59.386 -23.901  1.00  0.00    -0.382 N 
ATOM     20  H   UNL     1      12.329 -59.747 -22.950  1.00  0.00     0.160 HD
BRANCH  19  21
ATOM     21  C   UNL     1      11.448 -60.078 -24.741  1.00  0.00     0.049 A 
ATOM     22  C   UNL     1      11.443 -59.867 -26.136  1.00  0.00    -0.003 A 
ATOM     23  C   UNL     1      10.595 -61.065 -24.175  1.00  0.00     0.024 A 
ATOM     24  C   UNL     1      10.605 -60.678 -26.908  1.00  0.00     0.046 A 
ATOM     25  C   UNL     1      12.355 -58.858 -26.797  1.00  0.00     0.039 C 
ATOM     26  C   UNL     1      10.509 -61.326 -22.786  1.00  0.00     0.014 A 
ATOM     27  C   UNL     1       9.780 -61.807 -25.053  1.00  0.00     0.074 A 
ATOM     28  N   UNL     1       9.788 -61.619 -26.377  1.00  0.00    -0.252 NA
ATOM     29  C   UNL     1      10.514 -60.533 -28.405  1.00  0.00     0.056 C 
ATOM     30  C   UNL     1      12.010 -58.554 -28.255  1.00  0.00     0.005 C 
ATOM     31  C   UNL     1       9.651 -62.303 -22.285  1.00  0.00     0.021 A 
ATOM     32  C   UNL     1       8.931 -62.776 -24.537  1.00  0.00     0.049 A 
ATOM     33  C   UNL     1      11.723 -59.838 -29.016  1.00  0.00     0.007 C 
ATOM     34  C   UNL     1       8.864 -63.027 -23.170  1.00  0.00     0.043 A 
ATOM     35  Cl  UNL     1       7.798 -64.237 -22.570  1.00  0.00    -0.084 Cl
ENDBRANCH  19  21
ENDBRANCH  18  19
ENDBRANCH   1  18
TORSDOF 6
ENDMDL
MODEL 3
REMARK VINA RESULT:   -11.846      1.067      2.022
REMARK INTER + INTRA:         -16.238
REMARK INTER:                 -15.748
REMARK INTRA:                  -0.490
REMARK UNBOUND:                -0.582
REMARK SMILES O=C1C(NCCNc2c3c(nc4cc(Cl)ccc24)CCCC3)=CC(=O)c2c(O)cccc21
REMARK SMILES IDX 5 1 4 2 3 4 2 5 32 6 23 7 31 8 26 9 24 10 30 11 27 12 29 13
REMARK SMILES IDX 1 14 25 15 28 16 6 18 7 19 8 21 9 22 18 23 10 24 22 25 17 26
REMARK SMILES IDX 12 27 11 28 19 29 21 30 16 31 13 32 20 33 14 34 15 35
REMARK H PARENT 4 3 28 17 7 20
ROOT
ATOM      1  C   UNL     1      11.159 -57.589 -22.352  1.00  0.00     0.134 C 
ENDROOT
BRANCH   1   2
ATOM      2  N   UNL     1      10.765 -56.639 -23.390  1.00  0.00    -0.380 N 
ATOM      3  H   UNL     1      10.528 -57.114 -24.265  1.00  0.00     0.160 HD
BRANCH   2   4
ATOM      4  C   UNL     1      11.227 -55.336 -23.539  1.00  0.00     0.087 C 
ATOM      5  C   UNL     1      10.976 -54.305 -22.466  1.00  0.00     0.209 C 
ATOM      6  C   UNL     1      11.405 -52.911 -22.713  1.00  0.00     0.039 A 
ATOM      7  C   UNL     1      11.904 -54.957 -24.628  1.00  0.00     0.082 C 
ATOM      8  C   UNL     1      11.097 -51.941 -21.743  1.00  0.00     0.013 A 
ATOM      9  C   UNL     1      12.100 -52.552 -23.869  1.00  0.00     0.075 A 
ATOM     10  C   UNL     1      12.420 -53.596 -24.867  1.00  0.00     0.192 C 
ATOM     11  C   UNL     1      11.477 -50.613 -21.925  1.00  0.00     0.005 A 
ATOM     12  C   UNL     1      12.478 -51.209 -24.042  1.00  0.00     0.127 A 
ATOM     13  C   UNL     1      12.168 -50.247 -23.076  1.00  0.00     0.047 A 
ATOM     14  O   UNL     1      10.438 -54.585 -21.398  1.00  0.00    -0.287 OA
ATOM     15  O   UNL     1      13.086 -53.403 -25.876  1.00  0.00    -0.289 OA
BRANCH  12  16
ATOM     16  O   UNL     1      13.150 -50.809 -25.161  1.00  0.00    -0.507 OA
ATOM     17  H   UNL     1      14.011 -50.428 -24.928  1.00  0.00     0.293 HD
ENDBRANCH  12  16
ENDBRANCH   2   4
ENDBRANCH   1   2
BRANCH   1  18
ATOM     18  C   UNL     1      10.371 -58.906 -22.524  1.00  0.00     0.134 C 
BRANCH  18  19
ATOM     19  N   UNL     1      11.274 -59.972 -23.026  1.00  0.00    -0.382 N 
ATOM     20  H   UNL     1      11.502 -60.611 -22.267  1.00  0.00     0.160 HD
BRANCH  19  21
ATOM     21  C   UNL     1      10.688 -60.681 -24.117  1.00  0.00     0.049 A 
ATOM     22  C   UNL     1       9.746 -61.707 -23.889  1.00  0.00    -0.003 A 
ATOM     23  C   UNL     1      10.981 -60.279 -25.450  1.00  0.00     0.024 A 
ATOM     24  C   UNL     1       9.115 -62.263 -25.007  1.00  0.00     0.046 A 
ATOM     25  C   UNL     1       9.367 -62.151 -22.495  1.00  0.00     0.039 C 
ATOM     26  C   UNL     1      11.933 -59.283 -25.777  1.00  0.00     0.014 A 
ATOM     27  C   UNL     1      10.296 -60.927 -26.496  1.00  0.00     0.074 A 
ATOM     28  N   UNL     1       9.389 -61.887 -26.279  1.00  0.00    -0.252 NA
ATOM     29  C   UNL     1       8.100 -63.369 -24.880  1.00  0.00     0.056 C 
ATOM     30  C   UNL     1       8.570 -63.454 -22.440  1.00  0.00     0.005 C 
ATOM     31  C   UNL     1      12.184 -58.930 -27.102  1.00  0.00     0.021 A 
ATOM     32  C   UNL     1      10.558 -60.564 -27.809  1.00  0.00     0.049 A 
ATOM     33  C   UNL     1       7.474 -63.455 -23.494  1.00  0.00     0.007 C 
ATOM     34  C   UNL     1      11.490 -59.576 -28.114  1.00  0.00     0.043 A 
ATOM     35  Cl  UNL     1      11.787 -59.155 -29.756  1.00  0.00    -0.084 Cl
ENDBRANCH  19  21
ENDBRANCH  18  19
ENDBRANCH   1  18
TORSDOF 6
ENDMDL
MODEL 4
REMARK VINA RESULT:   -11.225      5.222     10.903
REMARK INTER + INTRA:         -15.417
REMARK INTER:                 -14.895
REMARK INTRA:                  -0.521
REMARK UNBOUND:                -0.582
REMARK SMILES O=C1C(NCCNc2c3c(nc4cc(Cl)ccc24)CCCC3)=CC(=O)c2c(O)cccc21
REMARK SMILES IDX 5 1 4 2 3 4 2 5 32 6 23 7 31 8 26 9 24 10 30 11 27 12 29 13
REMARK SMILES IDX 1 14 25 15 28 16 6 18 7 19 8 21 9 22 18 23 10 24 22 25 17 26
REMARK SMILES IDX 12 27 11 28 19 29 21 30 16 31 13 32 20 33 14 34 15 35
REMARK H PARENT 4 3 28 17 7 20
ROOT
ATOM      1  C   UNL     1       9.537 -51.223 -22.005  1.00  0.00     0.134 C 
ENDROOT
BRANCH   1   2
ATOM      2  N   UNL     1      10.740 -52.034 -21.828  1.00  0.00    -0.380 N 
ATOM      3  H   UNL     1      11.578 -51.452 -21.750  1.00  0.00     0.160 HD
BRANCH   2   4
ATOM      4  C   UNL     1      10.959 -53.311 -22.333  1.00  0.00     0.087 C 
ATOM      5  C   UNL     1      10.819 -54.523 -21.445  1.00  0.00     0.209 C 
ATOM      6  C   UNL     1      11.155 -55.851 -22.004  1.00  0.00     0.039 A 
ATOM      7  C   UNL     1      11.298 -53.506 -23.612  1.00  0.00     0.082 C 
ATOM      8  C   UNL     1      11.099 -56.965 -21.147  1.00  0.00     0.013 A 
ATOM      9  C   UNL     1      11.516 -56.012 -23.343  1.00  0.00     0.075 A 
ATOM     10  C   UNL     1      11.556 -54.823 -24.223  1.00  0.00     0.192 C 
ATOM     11  C   UNL     1      11.405 -58.238 -21.623  1.00  0.00     0.005 A 
ATOM     12  C   UNL     1      11.824 -57.301 -23.811  1.00  0.00     0.127 A 
ATOM     13  C   UNL     1      11.769 -58.406 -22.956  1.00  0.00     0.047 A 
ATOM     14  O   UNL     1      10.431 -54.444 -20.282  1.00  0.00    -0.287 OA
ATOM     15  O   UNL     1      11.788 -54.864 -25.424  1.00  0.00    -0.289 OA
BRANCH  12  16
ATOM     16  O   UNL     1      12.192 -57.506 -25.109  1.00  0.00    -0.507 OA
ATOM     17  H   UNL     1      11.471 -57.917 -25.611  1.00  0.00     0.293 HD
ENDBRANCH  12  16
ENDBRANCH   2   4
ENDBRANCH   1   2
BRANCH   1  18
ATOM     18  C   UNL     1       9.933 -49.780 -22.383  1.00  0.00     0.134 C 
BRANCH  18  19
ATOM     19  N   UNL     1      11.374 -49.562 -22.101  1.00  0.00    -0.382 N 
ATOM     20  H   UNL     1      11.847 -50.460 -22.024  1.00  0.00     0.160 HD
BRANCH  19  21
ATOM     21  C   UNL     1      11.988 -48.759 -23.109  1.00  0.00     0.049 A 
ATOM     22  C   UNL     1      12.809 -49.343 -24.096  1.00  0.00    -0.003 A 
ATOM     23  C   UNL     1      11.684 -47.371 -23.177  1.00  0.00     0.024 A 
ATOM     24  C   UNL     1      13.264 -48.516 -25.128  1.00  0.00     0.046 A 
ATOM     25  C   UNL     1      13.135 -50.819 -24.096  1.00  0.00     0.039 C 
ATOM     26  C   UNL     1      10.896 -46.692 -22.216  1.00  0.00     0.014 A 
ATOM     27  C   UNL     1      12.218 -46.636 -24.254  1.00  0.00     0.074 A 
ATOM     28  N   UNL     1      12.982 -47.193 -25.200  1.00  0.00    -0.252 NA
ATOM     29  C   UNL     1      14.153 -49.033 -26.230  1.00  0.00     0.056 C 
ATOM     30  C   UNL     1      14.261 -51.219 -25.050  1.00  0.00     0.005 C 
ATOM     31  C   UNL     1      10.634 -45.328 -22.330  1.00  0.00     0.021 A 
ATOM     32  C   UNL     1      11.946 -45.279 -24.351  1.00  0.00     0.049 A 
ATOM     33  C   UNL     1      14.081 -50.544 -26.401  1.00  0.00     0.007 C 
ATOM     34  C   UNL     1      11.163 -44.627 -23.404  1.00  0.00     0.043 A 
ATOM     35  Cl  UNL     1      10.850 -42.942 -23.561  1.00  0.00    -0.084 Cl
ENDBRANCH  19  21
ENDBRANCH  18  19
ENDBRANCH   1  18
TORSDOF 6
ENDMDL
MODEL 5
REMARK VINA RESULT:   -10.550      5.866      9.610
REMARK INTER + INTRA:         -14.524
REMARK INTER:                 -13.879
REMARK INTRA:                  -0.645
REMARK UNBOUND:                -0.582
REMARK SMILES O=C1C(NCCNc2c3c(nc4cc(Cl)ccc24)CCCC3)=CC(=O)c2c(O)cccc21
REMARK SMILES IDX 5 1 4 2 3 4 2 5 32 6 23 7 31 8 26 9 24 10 30 11 27 12 29 13
REMARK SMILES IDX 1 14 25 15 28 16 6 18 7 19 8 21 9 22 18 23 10 24 22 25 17 26
REMARK SMILES IDX 12 27 11 28 19 29 21 30 16 31 13 32 20 33 14 34 15 35
REMARK H PARENT 4 3 28 17 7 20
ROOT
ATOM      1  C   UNL     1      10.259 -48.592 -22.873  1.00  0.00     0.134 C 
ENDROOT
BRANCH   1   2
ATOM      2  N   UNL     1      10.175 -47.422 -22.002  1.00  0.00    -0.380 N 
ATOM      3  H   UNL     1       9.213 -47.247 -21.699  1.00  0.00     0.160 HD
BRANCH   2   4
ATOM      4  C   UNL     1      10.988 -46.295 -22.048  1.00  0.00     0.087 C 
ATOM      5  C   UNL     1      12.424 -46.364 -21.592  1.00  0.00     0.209 C 
ATOM      6  C   UNL     1      13.220 -45.118 -21.572  1.00  0.00     0.039 A 
ATOM      7  C   UNL     1      10.528 -45.121 -22.496  1.00  0.00     0.082 C 
ATOM      8  C   UNL     1      14.533 -45.176 -21.070  1.00  0.00     0.013 A 
ATOM      9  C   UNL     1      12.700 -43.909 -22.038  1.00  0.00     0.075 A 
ATOM     10  C   UNL     1      11.320 -43.880 -22.570  1.00  0.00     0.192 C 
ATOM     11  C   UNL     1      15.325 -44.031 -21.029  1.00  0.00     0.005 A 
ATOM     12  C   UNL     1      13.509 -42.760 -21.990  1.00  0.00     0.127 A 
ATOM     13  C   UNL     1      14.813 -42.822 -21.489  1.00  0.00     0.047 A 
ATOM     14  O   UNL     1      12.954 -47.417 -21.246  1.00  0.00    -0.287 OA
ATOM     15  O   UNL     1      10.795 -42.892 -23.068  1.00  0.00    -0.289 OA
BRANCH  12  16
ATOM     16  O   UNL     1      13.040 -41.554 -22.425  1.00  0.00    -0.507 OA
ATOM     17  H   UNL     1      13.361 -41.361 -23.319  1.00  0.00     0.293 HD
ENDBRANCH  12  16
ENDBRANCH   2   4
ENDBRANCH   1   2
BRANCH   1  18
ATOM     18  C   UNL     1      10.268 -49.878 -22.019  1.00  0.00     0.134 C 
BRANCH  18  19
ATOM     19  N   UNL     1      11.663 -50.356 -21.842  1.00  0.00    -0.382 N 
ATOM     20  H   UNL     1      11.767 -50.768 -20.917  1.00  0.00     0.160 HD
BRANCH  19  21
ATOM     21  C   UNL     1      12.025 -51.296 -22.853  1.00  0.00     0.049 A 
ATOM     22  C   UNL     1      11.603 -52.640 -22.772  1.00  0.00    -0.003 A 
ATOM     23  C   UNL     1      12.731 -50.847 -24.003  1.00  0.00     0.024 A 
ATOM     24  C   UNL     1      11.880 -53.469 -23.864  1.00  0.00     0.046 A 
ATOM     25  C   UNL     1      10.818 -53.164 -21.592  1.00  0.00     0.039 C 
ATOM     26  C   UNL     1      13.220 -49.528 -24.159  1.00  0.00     0.014 A 
ATOM     27  C   UNL     1      12.969 -51.781 -25.031  1.00  0.00     0.074 A 
ATOM     28  N   UNL     1      12.554 -53.051 -24.963  1.00  0.00    -0.252 NA
ATOM     29  C   UNL     1      11.484 -54.923 -23.882  1.00  0.00     0.056 C 
ATOM     30  C   UNL     1      10.705 -54.687 -21.533  1.00  0.00     0.005 C 
ATOM     31  C   UNL     1      13.910 -49.143 -25.306  1.00  0.00     0.021 A 
ATOM     32  C   UNL     1      13.659 -51.381 -26.167  1.00  0.00     0.049 A 
ATOM     33  C   UNL     1      10.365 -55.252 -22.902  1.00  0.00     0.007 C 
ATOM     34  C   UNL     1      14.125 -50.077 -26.309  1.00  0.00     0.043 A 
ATOM     35  Cl  UNL     1      14.976 -49.621 -27.733  1.00  0.00    -0.084 Cl
ENDBRANCH  19  21
ENDBRANCH  18  19
ENDBRANCH   1  18
TORSDOF 6
ENDMDL
MODEL 6
REMARK VINA RESULT:   -10.428      2.085      4.225
REMARK INTER + INTRA:         -14.363
REMARK INTER:                 -15.101
REMARK INTRA:                   0.739
REMARK UNBOUND:                -0.582
REMARK SMILES O=C1C(NCCNc2c3c(nc4cc(Cl)ccc24)CCCC3)=CC(=O)c2c(O)cccc21
REMARK SMILES IDX 5 1 4 2 3 4 2 5 32 6 23 7 31 8 26 9 24 10 30 11 27 12 29 13
REMARK SMILES IDX 1 14 25 15 28 16 6 18 7 19 8 21 9 22 18 23 10 24 22 25 17 26
REMARK SMILES IDX 12 27 11 28 19 29 21 30 16 31 13 32 20 33 14 34 15 35
REMARK H PARENT 4 3 28 17 7 20
ROOT
ATOM      1  C   UNL     1      11.290 -57.510 -22.005  1.00  0.00     0.134 C 
ENDROOT
BRANCH   1   2
ATOM      2  N   UNL     1      10.628 -56.505 -22.834  1.00  0.00    -0.380 N 
ATOM      3  H   UNL     1      10.043 -56.938 -23.553  1.00  0.00     0.160 HD
BRANCH   2   4
ATOM      4  C   UNL     1      11.119 -55.245 -23.159  1.00  0.00     0.087 C 
ATOM      5  C   UNL     1      10.932 -54.082 -22.216  1.00  0.00     0.209 C 
ATOM      6  C   UNL     1      11.387 -52.742 -22.648  1.00  0.00     0.039 A 
ATOM      7  C   UNL     1      11.768 -55.024 -24.307  1.00  0.00     0.082 C 
ATOM      8  C   UNL     1      11.138 -51.650 -21.799  1.00  0.00     0.013 A 
ATOM      9  C   UNL     1      12.052 -52.551 -23.861  1.00  0.00     0.075 A 
ATOM     10  C   UNL     1      12.310 -53.720 -24.730  1.00  0.00     0.192 C 
ATOM     11  C   UNL     1      11.546 -50.368 -22.157  1.00  0.00     0.005 A 
ATOM     12  C   UNL     1      12.458 -51.252 -24.213  1.00  0.00     0.127 A 
ATOM     13  C   UNL     1      12.207 -50.168 -23.366  1.00  0.00     0.047 A 
ATOM     14  O   UNL     1      10.423 -54.211 -21.106  1.00  0.00    -0.287 OA
ATOM     15  O   UNL     1      12.946 -53.674 -25.775  1.00  0.00    -0.289 OA
BRANCH  12  16
ATOM     16  O   UNL     1      13.102 -51.014 -25.393  1.00  0.00    -0.507 OA
ATOM     17  H   UNL     1      12.867 -51.684 -26.054  1.00  0.00     0.293 HD
ENDBRANCH  12  16
ENDBRANCH   2   4
ENDBRANCH   1   2
BRANCH   1  18
ATOM     18  C   UNL     1      11.121 -58.905 -22.642  1.00  0.00     0.134 C 
BRANCH  18  19
ATOM     19  N   UNL     1      11.798 -58.942 -23.963  1.00  0.00    -0.382 N 
ATOM     20  H   UNL     1      12.756 -59.266 -23.847  1.00  0.00     0.160 HD
BRANCH  19  21
ATOM     21  C   UNL     1      11.096 -59.775 -24.885  1.00  0.00     0.049 A 
ATOM     22  C   UNL     1      11.274 -59.621 -26.277  1.00  0.00    -0.003 A 
ATOM     23  C   UNL     1      10.291 -60.839 -24.393  1.00  0.00     0.024 A 
ATOM     24  C   UNL     1      10.661 -60.560 -27.113  1.00  0.00     0.046 A 
ATOM     25  C   UNL     1      12.149 -58.533 -26.857  1.00  0.00     0.039 C 
ATOM     26  C   UNL     1      10.030 -61.054 -23.018  1.00  0.00     0.014 A 
ATOM     27  C   UNL     1       9.707 -61.709 -25.334  1.00  0.00     0.074 A 
ATOM     28  N   UNL     1       9.890 -61.574 -26.652  1.00  0.00    -0.252 NA
ATOM     29  C   UNL     1      10.777 -60.485 -28.614  1.00  0.00     0.056 C 
ATOM     30  C   UNL     1      11.991 -58.330 -28.364  1.00  0.00     0.005 C 
ATOM     31  C   UNL     1       9.228 -62.109 -22.590  1.00  0.00     0.021 A 
ATOM     32  C   UNL     1       8.911 -62.756 -24.891  1.00  0.00     0.049 A 
ATOM     33  C   UNL     1      11.973 -59.669 -29.084  1.00  0.00     0.007 C 
ATOM     34  C   UNL     1       8.672 -62.959 -23.535  1.00  0.00     0.043 A 
ATOM     35  Cl  UNL     1       7.678 -64.269 -23.026  1.00  0.00    -0.084 Cl
ENDBRANCH  19  21
ENDBRANCH  18  19
ENDBRANCH   1  18
TORSDOF 6
ENDMDL
MODEL 7
REMARK VINA RESULT:   -10.362      4.610     10.910
REMARK INTER + INTRA:         -14.276
REMARK INTER:                 -13.628
REMARK INTRA:                  -0.648
REMARK UNBOUND:                -0.582
REMARK SMILES O=C1C(NCCNc2c3c(nc4cc(Cl)ccc24)CCCC3)=CC(=O)c2c(O)cccc21
REMARK SMILES IDX 5 1 4 2 3 4 2 5 32 6 23 7 31 8 26 9 24 10 30 11 27 12 29 13
REMARK SMILES IDX 1 14 25 15 28 16 6 18 7 19 8 21 9 22 18 23 10 24 22 25 17 26
REMARK SMILES IDX 12 27 11 28 19 29 21 30 16 31 13 32 20 33 14 34 15 35
REMARK H PARENT 4 3 28 17 7 20
ROOT
ATOM      1  C   UNL     1      11.569 -51.192 -21.414  1.00  0.00     0.134 C 
ENDROOT
BRANCH   1   2
ATOM      2  N   UNL     1      10.739 -51.972 -22.330  1.00  0.00    -0.380 N 
ATOM      3  H   UNL     1       9.749 -51.731 -22.237  1.00  0.00     0.160 HD
BRANCH   2   4
ATOM      4  C   UNL     1      10.989 -53.265 -22.775  1.00  0.00     0.087 C 
ATOM      5  C   UNL     1      10.752 -54.448 -21.869  1.00  0.00     0.209 C 
ATOM      6  C   UNL     1      11.122 -55.796 -22.355  1.00  0.00     0.039 A 
ATOM      7  C   UNL     1      11.442 -53.502 -24.011  1.00  0.00     0.082 C 
ATOM      8  C   UNL     1      10.972 -56.883 -21.476  1.00  0.00     0.013 A 
ATOM      9  C   UNL     1      11.603 -56.000 -23.650  1.00  0.00     0.075 A 
ATOM     10  C   UNL     1      11.739 -54.839 -24.556  1.00  0.00     0.192 C 
ATOM     11  C   UNL     1      11.305 -58.172 -21.884  1.00  0.00     0.005 A 
ATOM     12  C   UNL     1      11.937 -57.306 -24.050  1.00  0.00     0.127 A 
ATOM     13  C   UNL     1      11.789 -58.384 -23.172  1.00  0.00     0.047 A 
ATOM     14  O   UNL     1      10.258 -54.331 -20.750  1.00  0.00    -0.287 OA
ATOM     15  O   UNL     1      12.081 -54.918 -25.729  1.00  0.00    -0.289 OA
BRANCH  12  16
ATOM     16  O   UNL     1      12.421 -57.554 -25.301  1.00  0.00    -0.507 OA
ATOM     17  H   UNL     1      13.350 -57.282 -25.371  1.00  0.00     0.293 HD
ENDBRANCH  12  16
ENDBRANCH   2   4
ENDBRANCH   1   2
BRANCH   1  18
ATOM     18  C   UNL     1      12.376 -50.142 -22.207  1.00  0.00     0.134 C 
BRANCH  18  19
ATOM     19  N   UNL     1      11.596 -49.695 -23.390  1.00  0.00    -0.382 N 
ATOM     20  H   UNL     1      10.644 -49.474 -23.107  1.00  0.00     0.160 HD
BRANCH  19  21
ATOM     21  C   UNL     1      12.205 -48.569 -24.021  1.00  0.00     0.049 A 
ATOM     22  C   UNL     1      11.931 -47.258 -23.578  1.00  0.00    -0.003 A 
ATOM     23  C   UNL     1      13.175 -48.780 -25.040  1.00  0.00     0.024 A 
ATOM     24  C   UNL     1      12.666 -46.216 -24.153  1.00  0.00     0.046 A 
ATOM     25  C   UNL     1      10.939 -46.977 -22.473  1.00  0.00     0.039 C 
ATOM     26  C   UNL     1      13.493 -50.054 -25.570  1.00  0.00     0.014 A 
ATOM     27  C   UNL     1      13.836 -47.649 -25.558  1.00  0.00     0.074 A 
ATOM     28  N   UNL     1      13.590 -46.407 -25.126  1.00  0.00    -0.252 NA
ATOM     29  C   UNL     1      12.450 -44.778 -23.761  1.00  0.00     0.056 C 
ATOM     30  C   UNL     1      10.552 -45.505 -22.329  1.00  0.00     0.005 C 
ATOM     31  C   UNL     1      14.449 -50.202 -26.572  1.00  0.00     0.021 A 
ATOM     32  C   UNL     1      14.786 -47.815 -26.556  1.00  0.00     0.049 A 
ATOM     33  C   UNL     1      11.786 -44.619 -22.400  1.00  0.00     0.007 C 
ATOM     34  C   UNL     1      15.094 -49.075 -27.060  1.00  0.00     0.043 A 
ATOM     35  Cl  UNL     1      16.278 -49.238 -28.299  1.00  0.00    -0.084 Cl
ENDBRANCH  19  21
ENDBRANCH  18  19
ENDBRANCH   1  18
TORSDOF 6
ENDMDL
