MODEL 1
REMARK VINA RESULT:   -12.020      0.000      0.000
REMARK INTER + INTRA:         -16.083
REMARK INTER:                 -15.533
REMARK INTRA:                  -0.550
REMARK UNBOUND:                -0.550
REMARK SMILES Cc1ccc2onc(CC[C@H]3CC[N@H+](Cc4ccccc4)CC3)c2c1
REMARK SMILES IDX 10 1 11 2 13 3 14 4 12 5 22 6 23 7 15 9 16 10 17 11 21 12
REMARK SMILES IDX 18 13 20 14 19 15 9 16 8 17 7 18 24 19 6 20 25 21 5 22 2 23
REMARK SMILES IDX 4 24 3 25 1 26
REMARK H PARENT 14 8
ROOT
ATOM      1  C   UNL     1      11.069 -56.311 -21.634  1.00  0.00     0.010 C 
ENDROOT
BRANCH   1   2
ATOM      2  C   UNL     1      11.518 -57.700 -22.148  1.00  0.00     0.000 C 
ATOM      3  C   UNL     1      10.999 -60.189 -21.978  1.00  0.00     0.262 C 
ATOM      4  N   UNL     1      10.868 -60.238 -23.479  1.00  0.00    -0.331 N 
ATOM      5  C   UNL     1      10.657 -58.789 -21.486  1.00  0.00     0.065 C 
ATOM      6  C   UNL     1      11.781 -59.249 -24.150  1.00  0.00     0.262 C 
ATOM      7  C   UNL     1      11.460 -57.842 -23.673  1.00  0.00     0.065 C 
ATOM      8  H   UNL     1       9.902 -59.974 -23.710  1.00  0.00     0.348 HD
BRANCH   4   9
ATOM      9  C   UNL     1      11.061 -61.632 -24.039  1.00  0.00     0.299 C 
BRANCH   9  10
ATOM     10  C   UNL     1       9.770 -62.389 -24.195  1.00  0.00     0.006 A 
ATOM     11  C   UNL     1       9.023 -62.286 -25.380  1.00  0.00     0.009 A 
ATOM     12  C   UNL     1       9.284 -63.194 -23.153  1.00  0.00     0.009 A 
ATOM     13  C   UNL     1       7.813 -62.968 -25.513  1.00  0.00     0.001 A 
ATOM     14  C   UNL     1       8.073 -63.874 -23.292  1.00  0.00     0.001 A 
ATOM     15  C   UNL     1       7.339 -63.758 -24.470  1.00  0.00     0.000 A 
ENDBRANCH   9  10
ENDBRANCH   4   9
ENDBRANCH   1   2
BRANCH   1  16
ATOM     16  C   UNL     1      10.528 -55.351 -22.704  1.00  0.00     0.061 C 
BRANCH  16  17
ATOM     17  C   UNL     1      10.778 -53.914 -22.386  1.00  0.00     0.091 A 
ATOM     18  N   UNL     1      10.271 -53.367 -21.273  1.00  0.00    -0.084 NA
ATOM     19  C   UNL     1      11.528 -52.968 -23.135  1.00  0.00     0.045 A 
ATOM     20  O   UNL     1      10.684 -52.044 -21.280  1.00  0.00    -0.356 OA
ATOM     21  C   UNL     1      12.263 -52.946 -24.334  1.00  0.00     0.017 A 
ATOM     22  C   UNL     1      11.430 -51.807 -22.391  1.00  0.00     0.167 A 
ATOM     23  C   UNL     1      12.884 -51.744 -24.726  1.00  0.00    -0.050 A 
ATOM     24  C   UNL     1      12.014 -50.595 -22.746  1.00  0.00     0.051 A 
ATOM     25  C   UNL     1      12.744 -50.588 -23.941  1.00  0.00     0.007 A 
ATOM     26  C   UNL     1      13.642 -51.681 -26.023  1.00  0.00     0.044 C 
ENDBRANCH  16  17
ENDBRANCH   1  16
TORSDOF 5
ENDMDL
MODEL 2
REMARK VINA RESULT:   -11.369      1.650      2.330
REMARK INTER + INTRA:         -15.242
REMARK INTER:                 -14.820
REMARK INTRA:                  -0.421
REMARK UNBOUND:                -0.550
REMARK SMILES Cc1ccc2onc(CC[C@H]3CC[N@H+](Cc4ccccc4)CC3)c2c1
REMARK SMILES IDX 10 1 11 2 13 3 14 4 12 5 22 6 23 7 15 9 16 10 17 11 21 12
REMARK SMILES IDX 18 13 20 14 19 15 9 16 8 17 7 18 24 19 6 20 25 21 5 22 2 23
REMARK SMILES IDX 4 24 3 25 1 26
REMARK H PARENT 14 8
ROOT
ATOM      1  C   UNL     1      11.008 -56.271 -22.004  1.00  0.00     0.010 C 
ENDROOT
BRANCH   1   2
ATOM      2  C   UNL     1      10.936 -57.760 -22.417  1.00  0.00     0.000 C 
ATOM      3  C   UNL     1       9.509 -59.444 -23.689  1.00  0.00     0.262 C 
ATOM      4  N   UNL     1      10.713 -59.794 -24.526  1.00  0.00    -0.331 N 
ATOM      5  C   UNL     1       9.634 -58.009 -23.198  1.00  0.00     0.065 C 
ATOM      6  C   UNL     1      11.992 -59.657 -23.747  1.00  0.00     0.262 C 
ATOM      7  C   UNL     1      12.139 -58.230 -23.242  1.00  0.00     0.065 C 
ATOM      8  H   UNL     1      10.750 -59.123 -25.304  1.00  0.00     0.348 HD
BRANCH   4   9
ATOM      9  C   UNL     1      10.604 -61.163 -25.167  1.00  0.00     0.299 C 
BRANCH   9  10
ATOM     10  C   UNL     1       9.681 -62.090 -24.424  1.00  0.00     0.006 A 
ATOM     11  C   UNL     1      10.068 -62.644 -23.193  1.00  0.00     0.009 A 
ATOM     12  C   UNL     1       8.428 -62.429 -24.958  1.00  0.00     0.009 A 
ATOM     13  C   UNL     1       9.221 -63.523 -22.517  1.00  0.00     0.001 A 
ATOM     14  C   UNL     1       7.585 -63.310 -24.278  1.00  0.00     0.001 A 
ATOM     15  C   UNL     1       7.983 -63.857 -23.061  1.00  0.00     0.000 A 
ENDBRANCH   9  10
ENDBRANCH   4   9
ENDBRANCH   1   2
BRANCH   1  16
ATOM     16  C   UNL     1      10.313 -55.284 -22.954  1.00  0.00     0.061 C 
BRANCH  16  17
ATOM     17  C   UNL     1      11.262 -54.575 -23.863  1.00  0.00     0.091 A 
ATOM     18  N   UNL     1      11.793 -55.209 -24.917  1.00  0.00    -0.084 NA
ATOM     19  C   UNL     1      11.721 -53.234 -23.778  1.00  0.00     0.045 A 
ATOM     20  O   UNL     1      12.615 -54.283 -25.540  1.00  0.00    -0.356 OA
ATOM     21  C   UNL     1      11.530 -52.127 -22.932  1.00  0.00     0.017 A 
ATOM     22  C   UNL     1      12.573 -53.108 -24.858  1.00  0.00     0.167 A 
ATOM     23  C   UNL     1      12.204 -50.925 -23.224  1.00  0.00    -0.050 A 
ATOM     24  C   UNL     1      13.270 -51.947 -25.178  1.00  0.00     0.051 A 
ATOM     25  C   UNL     1      13.070 -50.852 -24.328  1.00  0.00     0.007 A 
ATOM     26  C   UNL     1      12.049 -49.738 -22.315  1.00  0.00     0.044 C 
ENDBRANCH  16  17
ENDBRANCH   1  16
TORSDOF 5
ENDMDL
MODEL 3
REMARK VINA RESULT:   -11.299      1.405      2.053
REMARK INTER + INTRA:         -15.152
REMARK INTER:                 -14.527
REMARK INTRA:                  -0.625
REMARK UNBOUND:                -0.550
REMARK SMILES Cc1ccc2onc(CC[C@H]3CC[N@H+](Cc4ccccc4)CC3)c2c1
REMARK SMILES IDX 10 1 11 2 13 3 14 4 12 5 22 6 23 7 15 9 16 10 17 11 21 12
REMARK SMILES IDX 18 13 20 14 19 15 9 16 8 17 7 18 24 19 6 20 25 21 5 22 2 23
REMARK SMILES IDX 4 24 3 25 1 26
REMARK H PARENT 14 8
ROOT
ATOM      1  C   UNL     1      11.348 -57.134 -21.814  1.00  0.00     0.010 C 
ENDROOT
BRANCH   1   2
ATOM      2  C   UNL     1      10.628 -58.493 -21.986  1.00  0.00     0.000 C 
ATOM      3  C   UNL     1       8.631 -59.601 -23.115  1.00  0.00     0.262 C 
ATOM      4  N   UNL     1       9.573 -60.594 -23.749  1.00  0.00    -0.331 N 
ATOM      5  C   UNL     1       9.373 -58.298 -22.852  1.00  0.00     0.065 C 
ATOM      6  C   UNL     1      10.758 -60.877 -22.868  1.00  0.00     0.262 C 
ATOM      7  C   UNL     1      11.515 -59.589 -22.589  1.00  0.00     0.065 C 
ATOM      8  H   UNL     1       9.925 -60.169 -24.616  1.00  0.00     0.348 HD
BRANCH   4   9
ATOM      9  C   UNL     1       8.880 -61.875 -24.167  1.00  0.00     0.299 C 
BRANCH   9  10
ATOM     10  C   UNL     1       8.873 -62.082 -25.657  1.00  0.00     0.006 A 
ATOM     11  C   UNL     1       9.661 -61.274 -26.492  1.00  0.00     0.009 A 
ATOM     12  C   UNL     1       8.064 -63.072 -26.236  1.00  0.00     0.009 A 
ATOM     13  C   UNL     1       9.635 -61.451 -27.876  1.00  0.00     0.001 A 
ATOM     14  C   UNL     1       8.040 -63.244 -27.622  1.00  0.00     0.001 A 
ATOM     15  C   UNL     1       8.823 -62.432 -28.439  1.00  0.00     0.000 A 
ENDBRANCH   9  10
ENDBRANCH   4   9
ENDBRANCH   1   2
BRANCH   1  16
ATOM     16  C   UNL     1      11.095 -56.105 -22.926  1.00  0.00     0.061 C 
BRANCH  16  17
ATOM     17  C   UNL     1      10.904 -54.717 -22.410  1.00  0.00     0.091 A 
ATOM     18  N   UNL     1      10.171 -54.496 -21.311  1.00  0.00    -0.084 NA
ATOM     19  C   UNL     1      11.420 -53.505 -22.942  1.00  0.00     0.045 A 
ATOM     20  O   UNL     1      10.195 -53.126 -21.108  1.00  0.00    -0.356 OA
ATOM     21  C   UNL     1      12.219 -53.110 -24.030  1.00  0.00     0.017 A 
ATOM     22  C   UNL     1      10.938 -52.536 -22.082  1.00  0.00     0.167 A 
ATOM     23  C   UNL     1      12.510 -51.742 -24.196  1.00  0.00    -0.050 A 
ATOM     24  C   UNL     1      11.187 -51.173 -22.215  1.00  0.00     0.051 A 
ATOM     25  C   UNL     1      11.985 -50.795 -23.302  1.00  0.00     0.007 A 
ATOM     26  C   UNL     1      13.328 -51.287 -25.372  1.00  0.00     0.044 C 
ENDBRANCH  16  17
ENDBRANCH   1  16
TORSDOF 5
ENDMDL
MODEL 4
REMARK VINA RESULT:   -11.081      3.112      8.557
REMARK INTER + INTRA:         -14.870
REMARK INTER:                 -14.039
REMARK INTRA:                  -0.831
REMARK UNBOUND:                -0.550
REMARK SMILES Cc1ccc2onc(CC[C@H]3CC[N@H+](Cc4ccccc4)CC3)c2c1
REMARK SMILES IDX 10 1 11 2 13 3 14 4 12 5 22 6 23 7 15 9 16 10 17 11 21 12
REMARK SMILES IDX 18 13 20 14 19 15 9 16 8 17 7 18 24 19 6 20 25 21 5 22 2 23
REMARK SMILES IDX 4 24 3 25 1 26
REMARK H PARENT 14 8
ROOT
ATOM      1  C   UNL     1      10.620 -60.479 -22.081  1.00  0.00     0.010 C 
ENDROOT
BRANCH   1   2
ATOM      2  C   UNL     1      10.242 -58.981 -21.988  1.00  0.00     0.000 C 
ATOM      3  C   UNL     1      11.244 -56.641 -21.888  1.00  0.00     0.262 C 
ATOM      4  N   UNL     1      10.404 -56.258 -23.081  1.00  0.00    -0.331 N 
ATOM      5  C   UNL     1      11.526 -58.136 -21.928  1.00  0.00     0.065 C 
ATOM      6  C   UNL     1       9.096 -57.000 -23.101  1.00  0.00     0.262 C 
ATOM      7  C   UNL     1       9.351 -58.498 -23.138  1.00  0.00     0.065 C 
ATOM      8  H   UNL     1      10.928 -56.529 -23.922  1.00  0.00     0.348 HD
BRANCH   4   9
ATOM      9  C   UNL     1      10.190 -54.762 -23.191  1.00  0.00     0.299 C 
BRANCH   9  10
ATOM     10  C   UNL     1      11.282 -54.065 -23.955  1.00  0.00     0.006 A 
ATOM     11  C   UNL     1      11.891 -54.689 -25.056  1.00  0.00     0.009 A 
ATOM     12  C   UNL     1      11.721 -52.789 -23.569  1.00  0.00     0.009 A 
ATOM     13  C   UNL     1      12.921 -54.051 -25.749  1.00  0.00     0.001 A 
ATOM     14  C   UNL     1      12.752 -52.156 -24.265  1.00  0.00     0.001 A 
ATOM     15  C   UNL     1      13.352 -52.788 -25.351  1.00  0.00     0.000 A 
ENDBRANCH   9  10
ENDBRANCH   4   9
ENDBRANCH   1   2
BRANCH   1  16
ATOM     16  C   UNL     1      11.374 -60.896 -23.352  1.00  0.00     0.061 C 
BRANCH  16  17
ATOM     17  C   UNL     1      10.478 -61.437 -24.417  1.00  0.00     0.091 A 
ATOM     18  N   UNL     1       9.506 -62.306 -24.109  1.00  0.00    -0.084 NA
ATOM     19  C   UNL     1      10.497 -61.151 -25.808  1.00  0.00     0.045 A 
ATOM     20  O   UNL     1       8.872 -62.604 -25.304  1.00  0.00    -0.356 OA
ATOM     21  C   UNL     1      11.250 -60.356 -26.690  1.00  0.00     0.017 A 
ATOM     22  C   UNL     1       9.465 -61.917 -26.316  1.00  0.00     0.167 A 
ATOM     23  C   UNL     1      10.916 -60.358 -28.059  1.00  0.00    -0.050 A 
ATOM     24  C   UNL     1       9.108 -61.962 -27.660  1.00  0.00     0.051 A 
ATOM     25  C   UNL     1       9.865 -61.165 -28.527  1.00  0.00     0.007 A 
ATOM     26  C   UNL     1      11.728 -59.549 -29.031  1.00  0.00     0.044 C 
ENDBRANCH  16  17
ENDBRANCH   1  16
TORSDOF 5
ENDMDL
MODEL 5
REMARK VINA RESULT:   -10.403      2.837     10.659
REMARK INTER + INTRA:         -13.994
REMARK INTER:                 -13.438
REMARK INTRA:                  -0.556
REMARK UNBOUND:                -0.550
REMARK SMILES Cc1ccc2onc(CC[C@H]3CC[N@H+](Cc4ccccc4)CC3)c2c1
REMARK SMILES IDX 10 1 11 2 13 3 14 4 12 5 22 6 23 7 15 9 16 10 17 11 21 12
REMARK SMILES IDX 18 13 20 14 19 15 9 16 8 17 7 18 24 19 6 20 25 21 5 22 2 23
REMARK SMILES IDX 4 24 3 25 1 26
REMARK H PARENT 14 8
ROOT
ATOM      1  C   UNL     1      10.369 -54.338 -23.250  1.00  0.00     0.010 C 
ENDROOT
BRANCH   1   2
ATOM      2  C   UNL     1      11.225 -53.174 -22.697  1.00  0.00     0.000 C 
ATOM      3  C   UNL     1      12.927 -51.406 -23.381  1.00  0.00     0.262 C 
ATOM      4  N   UNL     1      12.024 -50.348 -22.801  1.00  0.00    -0.331 N 
ATOM      5  C   UNL     1      12.089 -52.596 -23.830  1.00  0.00     0.065 C 
ATOM      6  C   UNL     1      11.245 -50.866 -21.623  1.00  0.00     0.262 C 
ATOM      7  C   UNL     1      10.400 -52.058 -22.046  1.00  0.00     0.065 C 
ATOM      8  H   UNL     1      11.348 -50.090 -23.531  1.00  0.00     0.348 HD
BRANCH   4   9
ATOM      9  C   UNL     1      12.764 -49.073 -22.452  1.00  0.00     0.299 C 
BRANCH   9  10
ATOM     10  C   UNL     1      12.030 -47.830 -22.878  1.00  0.00     0.006 A 
ATOM     11  C   UNL     1      11.700 -47.625 -24.227  1.00  0.00     0.009 A 
ATOM     12  C   UNL     1      11.680 -46.850 -21.936  1.00  0.00     0.009 A 
ATOM     13  C   UNL     1      11.041 -46.460 -24.624  1.00  0.00     0.001 A 
ATOM     14  C   UNL     1      11.022 -45.687 -22.339  1.00  0.00     0.001 A 
ATOM     15  C   UNL     1      10.706 -45.492 -23.681  1.00  0.00     0.000 A 
ENDBRANCH   9  10
ENDBRANCH   4   9
ENDBRANCH   1   2
BRANCH   1  16
ATOM     16  C   UNL     1      10.431 -55.647 -22.448  1.00  0.00     0.061 C 
BRANCH  16  17
ATOM     17  C   UNL     1      11.077 -56.766 -23.196  1.00  0.00     0.091 A 
ATOM     18  N   UNL     1      11.867 -56.511 -24.248  1.00  0.00    -0.084 NA
ATOM     19  C   UNL     1      10.978 -58.160 -22.946  1.00  0.00     0.045 A 
ATOM     20  O   UNL     1      12.297 -57.746 -24.705  1.00  0.00    -0.356 OA
ATOM     21  C   UNL     1      10.326 -59.003 -22.028  1.00  0.00     0.017 A 
ATOM     22  C   UNL     1      11.765 -58.728 -23.931  1.00  0.00     0.167 A 
ATOM     23  C   UNL     1      10.511 -60.395 -22.136  1.00  0.00    -0.050 A 
ATOM     24  C   UNL     1      11.965 -60.096 -24.085  1.00  0.00     0.051 A 
ATOM     25  C   UNL     1      11.311 -60.924 -23.163  1.00  0.00     0.007 A 
ATOM     26  C   UNL     1       9.796 -61.322 -21.193  1.00  0.00     0.044 C 
ENDBRANCH  16  17
ENDBRANCH   1  16
TORSDOF 5
ENDMDL
MODEL 6
REMARK VINA RESULT:   -10.304      2.793      9.176
REMARK INTER + INTRA:         -13.866
REMARK INTER:                 -13.636
REMARK INTRA:                  -0.230
REMARK UNBOUND:                -0.550
REMARK SMILES Cc1ccc2onc(CC[C@H]3CC[N@H+](Cc4ccccc4)CC3)c2c1
REMARK SMILES IDX 10 1 11 2 13 3 14 4 12 5 22 6 23 7 15 9 16 10 17 11 21 12
REMARK SMILES IDX 18 13 20 14 19 15 9 16 8 17 7 18 24 19 6 20 25 21 5 22 2 23
REMARK SMILES IDX 4 24 3 25 1 26
REMARK H PARENT 14 8
ROOT
ATOM      1  C   UNL     1      11.426 -58.530 -21.626  1.00  0.00     0.010 C 
ENDROOT
BRANCH   1   2
ATOM      2  C   UNL     1      10.876 -57.137 -22.015  1.00  0.00     0.000 C 
ATOM      3  C   UNL     1      10.830 -54.698 -21.278  1.00  0.00     0.262 C 
ATOM      4  N   UNL     1      11.362 -54.305 -22.632  1.00  0.00    -0.331 N 
ATOM      5  C   UNL     1      11.288 -56.112 -20.945  1.00  0.00     0.065 C 
ATOM      6  C   UNL     1      10.884 -55.239 -23.710  1.00  0.00     0.262 C 
ATOM      7  C   UNL     1      11.328 -56.659 -23.399  1.00  0.00     0.065 C 
ATOM      8  H   UNL     1      12.387 -54.378 -22.590  1.00  0.00     0.348 HD
BRANCH   4   9
ATOM      9  C   UNL     1      11.064 -52.862 -22.983  1.00  0.00     0.299 C 
BRANCH   9  10
ATOM     10  C   UNL     1      12.068 -52.267 -23.933  1.00  0.00     0.006 A 
ATOM     11  C   UNL     1      12.676 -53.063 -24.917  1.00  0.00     0.009 A 
ATOM     12  C   UNL     1      12.425 -50.913 -23.838  1.00  0.00     0.009 A 
ATOM     13  C   UNL     1      13.625 -52.515 -25.781  1.00  0.00     0.001 A 
ATOM     14  C   UNL     1      13.376 -50.370 -24.704  1.00  0.00     0.001 A 
ATOM     15  C   UNL     1      13.976 -51.172 -25.672  1.00  0.00     0.000 A 
ENDBRANCH   9  10
ENDBRANCH   4   9
ENDBRANCH   1   2
BRANCH   1  16
ATOM     16  C   UNL     1      11.907 -59.403 -22.796  1.00  0.00     0.061 C 
BRANCH  16  17
ATOM     17  C   UNL     1      10.966 -60.513 -23.127  1.00  0.00     0.091 A 
ATOM     18  N   UNL     1      11.434 -61.730 -23.435  1.00  0.00    -0.084 NA
ATOM     19  C   UNL     1       9.547 -60.476 -23.169  1.00  0.00     0.045 A 
ATOM     20  O   UNL     1      10.318 -62.512 -23.686  1.00  0.00    -0.356 OA
ATOM     21  C   UNL     1       8.530 -59.529 -22.955  1.00  0.00     0.017 A 
ATOM     22  C   UNL     1       9.194 -61.763 -23.529  1.00  0.00     0.167 A 
ATOM     23  C   UNL     1       7.188 -59.929 -23.103  1.00  0.00    -0.050 A 
ATOM     24  C   UNL     1       7.885 -62.201 -23.700  1.00  0.00     0.051 A 
ATOM     25  C   UNL     1       6.882 -61.247 -23.483  1.00  0.00     0.007 A 
ATOM     26  C   UNL     1       6.082 -58.928 -22.919  1.00  0.00     0.044 C 
ENDBRANCH  16  17
ENDBRANCH   1  16
TORSDOF 5
ENDMDL
MODEL 7
REMARK VINA RESULT:    -9.872      2.422      3.910
REMARK INTER + INTRA:         -13.308
REMARK INTER:                 -12.394
REMARK INTRA:                  -0.914
REMARK UNBOUND:                -0.550
REMARK SMILES Cc1ccc2onc(CC[C@H]3CC[N@H+](Cc4ccccc4)CC3)c2c1
REMARK SMILES IDX 10 1 11 2 13 3 14 4 12 5 22 6 23 7 15 9 16 10 17 11 21 12
REMARK SMILES IDX 18 13 20 14 19 15 9 16 8 17 7 18 24 19 6 20 25 21 5 22 2 23
REMARK SMILES IDX 4 24 3 25 1 26
REMARK H PARENT 14 8
ROOT
ATOM      1  C   UNL     1      10.242 -52.140 -22.196  1.00  0.00     0.010 C 
ENDROOT
BRANCH   1   2
ATOM      2  C   UNL     1      10.999 -53.467 -22.442  1.00  0.00     0.000 C 
ATOM      3  C   UNL     1      11.042 -55.928 -21.784  1.00  0.00     0.262 C 
ATOM      4  N   UNL     1      10.957 -56.294 -23.245  1.00  0.00    -0.331 N 
ATOM      5  C   UNL     1      10.387 -54.572 -21.564  1.00  0.00     0.065 C 
ATOM      6  C   UNL     1      11.641 -55.275 -24.114  1.00  0.00     0.262 C 
ATOM      7  C   UNL     1      11.006 -53.909 -23.910  1.00  0.00     0.065 C 
ATOM      8  H   UNL     1       9.961 -56.301 -23.499  1.00  0.00     0.348 HD
BRANCH   4   9
ATOM      9  C   UNL     1      11.467 -57.692 -23.530  1.00  0.00     0.299 C 
BRANCH   9  10
ATOM     10  C   UNL     1      10.553 -58.769 -23.014  1.00  0.00     0.006 A 
ATOM     11  C   UNL     1      11.030 -59.740 -22.119  1.00  0.00     0.009 A 
ATOM     12  C   UNL     1       9.214 -58.831 -23.433  1.00  0.00     0.009 A 
ATOM     13  C   UNL     1      10.188 -60.754 -21.660  1.00  0.00     0.001 A 
ATOM     14  C   UNL     1       8.376 -59.848 -22.972  1.00  0.00     0.001 A 
ATOM     15  C   UNL     1       8.864 -60.808 -22.089  1.00  0.00     0.000 A 
ENDBRANCH   9  10
ENDBRANCH   4   9
ENDBRANCH   1   2
BRANCH   1  16
ATOM     16  C   UNL     1      11.087 -50.989 -21.630  1.00  0.00     0.061 C 
BRANCH  16  17
ATOM     17  C   UNL     1      11.619 -50.076 -22.685  1.00  0.00     0.091 A 
ATOM     18  N   UNL     1      11.117 -48.843 -22.831  1.00  0.00    -0.084 NA
ATOM     19  C   UNL     1      12.653 -50.331 -23.625  1.00  0.00     0.045 A 
ATOM     20  O   UNL     1      11.819 -48.270 -23.879  1.00  0.00    -0.356 OA
ATOM     21  C   UNL     1      13.516 -51.392 -23.951  1.00  0.00     0.017 A 
ATOM     22  C   UNL     1      12.732 -49.158 -24.353  1.00  0.00     0.167 A 
ATOM     23  C   UNL     1      14.440 -51.217 -25.000  1.00  0.00    -0.050 A 
ATOM     24  C   UNL     1      13.618 -48.945 -25.404  1.00  0.00     0.051 A 
ATOM     25  C   UNL     1      14.472 -50.009 -25.718  1.00  0.00     0.007 A 
ATOM     26  C   UNL     1      15.348 -52.348 -25.397  1.00  0.00     0.044 C 
ENDBRANCH  16  17
ENDBRANCH   1  16
TORSDOF 5
ENDMDL
MODEL 8
REMARK VINA RESULT:    -9.831      3.295     10.655
REMARK INTER + INTRA:         -13.255
REMARK INTER:                 -12.777
REMARK INTRA:                  -0.478
REMARK UNBOUND:                -0.550
REMARK SMILES Cc1ccc2onc(CC[C@H]3CC[N@H+](Cc4ccccc4)CC3)c2c1
REMARK SMILES IDX 10 1 11 2 13 3 14 4 12 5 22 6 23 7 15 9 16 10 17 11 21 12
REMARK SMILES IDX 18 13 20 14 19 15 9 16 8 17 7 18 24 19 6 20 25 21 5 22 2 23
REMARK SMILES IDX 4 24 3 25 1 26
REMARK H PARENT 14 8
ROOT
ATOM      1  C   UNL     1      10.609 -54.561 -23.533  1.00  0.00     0.010 C 
ENDROOT
BRANCH   1   2
ATOM      2  C   UNL     1      11.403 -53.392 -22.902  1.00  0.00     0.000 C 
ATOM      3  C   UNL     1      12.919 -51.427 -23.477  1.00  0.00     0.262 C 
ATOM      4  N   UNL     1      11.972 -50.514 -22.741  1.00  0.00    -0.331 N 
ATOM      5  C   UNL     1      12.151 -52.630 -24.008  1.00  0.00     0.065 C 
ATOM      6  C   UNL     1      11.307 -51.214 -21.588  1.00  0.00     0.262 C 
ATOM      7  C   UNL     1      10.534 -52.422 -22.093  1.00  0.00     0.065 C 
ATOM      8  H   UNL     1      11.236 -50.239 -23.404  1.00  0.00     0.348 HD
BRANCH   4   9
ATOM      9  C   UNL     1      12.629 -49.224 -22.295  1.00  0.00     0.299 C 
BRANCH   9  10
ATOM     10  C   UNL     1      11.934 -47.996 -22.818  1.00  0.00     0.006 A 
ATOM     11  C   UNL     1      11.940 -47.706 -24.192  1.00  0.00     0.009 A 
ATOM     12  C   UNL     1      11.286 -47.114 -21.939  1.00  0.00     0.009 A 
ATOM     13  C   UNL     1      11.316 -46.554 -24.673  1.00  0.00     0.001 A 
ATOM     14  C   UNL     1      10.664 -45.963 -22.426  1.00  0.00     0.001 A 
ATOM     15  C   UNL     1      10.682 -45.683 -23.790  1.00  0.00     0.000 A 
ENDBRANCH   9  10
ENDBRANCH   4   9
ENDBRANCH   1   2
BRANCH   1  16
ATOM     16  C   UNL     1      10.121 -55.638 -22.552  1.00  0.00     0.061 C 
BRANCH  16  17
ATOM     17  C   UNL     1      10.056 -57.000 -23.159  1.00  0.00     0.091 A 
ATOM     18  N   UNL     1      11.146 -57.550 -23.711  1.00  0.00    -0.084 NA
ATOM     19  C   UNL     1       8.935 -57.869 -23.247  1.00  0.00     0.045 A 
ATOM     20  O   UNL     1      10.750 -58.795 -24.173  1.00  0.00    -0.356 OA
ATOM     21  C   UNL     1       7.581 -57.852 -22.868  1.00  0.00     0.017 A 
ATOM     22  C   UNL     1       9.432 -58.982 -23.898  1.00  0.00     0.167 A 
ATOM     23  C   UNL     1       6.783 -58.976 -23.153  1.00  0.00    -0.050 A 
ATOM     24  C   UNL     1       8.679 -60.109 -24.213  1.00  0.00     0.051 A 
ATOM     25  C   UNL     1       7.333 -60.079 -23.829  1.00  0.00     0.007 A 
ATOM     26  C   UNL     1       5.323 -58.970 -22.795  1.00  0.00     0.044 C 
ENDBRANCH  16  17
ENDBRANCH   1  16
TORSDOF 5
ENDMDL
MODEL 9
REMARK VINA RESULT:    -9.783      2.196      9.819
REMARK INTER + INTRA:         -13.193
REMARK INTER:                 -12.705
REMARK INTRA:                  -0.488
REMARK UNBOUND:                -0.550
REMARK SMILES Cc1ccc2onc(CC[C@H]3CC[N@H+](Cc4ccccc4)CC3)c2c1
REMARK SMILES IDX 10 1 11 2 13 3 14 4 12 5 22 6 23 7 15 9 16 10 17 11 21 12
REMARK SMILES IDX 18 13 20 14 19 15 9 16 8 17 7 18 24 19 6 20 25 21 5 22 2 23
REMARK SMILES IDX 4 24 3 25 1 26
REMARK H PARENT 14 8
ROOT
ATOM      1  C   UNL     1      11.654 -57.836 -22.542  1.00  0.00     0.010 C 
ENDROOT
BRANCH   1   2
ATOM      2  C   UNL     1      10.826 -56.534 -22.423  1.00  0.00     0.000 C 
ATOM      3  C   UNL     1      10.524 -54.448 -20.991  1.00  0.00     0.262 C 
ATOM      4  N   UNL     1      10.733 -53.604 -22.222  1.00  0.00    -0.331 N 
ATOM      5  C   UNL     1      11.256 -55.773 -21.156  1.00  0.00     0.065 C 
ATOM      6  C   UNL     1      10.224 -54.289 -23.460  1.00  0.00     0.262 C 
ATOM      7  C   UNL     1      10.939 -55.618 -23.647  1.00  0.00     0.065 C 
ATOM      8  H   UNL     1      11.746 -53.473 -22.334  1.00  0.00     0.348 HD
BRANCH   4   9
ATOM      9  C   UNL     1      10.149 -52.212 -22.084  1.00  0.00     0.299 C 
BRANCH   9  10
ATOM     10  C   UNL     1      11.024 -51.144 -22.682  1.00  0.00     0.006 A 
ATOM     11  C   UNL     1      12.179 -51.490 -23.401  1.00  0.00     0.009 A 
ATOM     12  C   UNL     1      10.708 -49.787 -22.514  1.00  0.00     0.009 A 
ATOM     13  C   UNL     1      13.003 -50.497 -23.933  1.00  0.00     0.001 A 
ATOM     14  C   UNL     1      11.536 -48.798 -23.048  1.00  0.00     0.001 A 
ATOM     15  C   UNL     1      12.683 -49.154 -23.754  1.00  0.00     0.000 A 
ENDBRANCH   9  10
ENDBRANCH   4   9
ENDBRANCH   1   2
BRANCH   1  16
ATOM     16  C   UNL     1      10.844 -59.141 -22.524  1.00  0.00     0.061 C 
BRANCH  16  17
ATOM     17  C   UNL     1      10.547 -59.668 -23.888  1.00  0.00     0.091 A 
ATOM     18  N   UNL     1      11.012 -59.037 -24.975  1.00  0.00    -0.084 NA
ATOM     19  C   UNL     1       9.793 -60.820 -24.239  1.00  0.00     0.045 A 
ATOM     20  O   UNL     1      10.563 -59.773 -26.060  1.00  0.00    -0.356 OA
ATOM     21  C   UNL     1       9.087 -61.836 -23.572  1.00  0.00     0.017 A 
ATOM     22  C   UNL     1       9.836 -60.833 -25.621  1.00  0.00     0.167 A 
ATOM     23  C   UNL     1       8.458 -62.839 -24.335  1.00  0.00    -0.050 A 
ATOM     24  C   UNL     1       9.219 -61.794 -26.416  1.00  0.00     0.051 A 
ATOM     25  C   UNL     1       8.520 -62.801 -25.739  1.00  0.00     0.007 A 
ATOM     26  C   UNL     1       7.663 -63.915 -23.651  1.00  0.00     0.044 C 
ENDBRANCH  16  17
ENDBRANCH   1  16
TORSDOF 5
ENDMDL
