MODEL 1
REMARK VINA RESULT:    -5.716      0.000      0.000
REMARK INTER + INTRA:          -5.883
REMARK INTER:                  -5.883
REMARK INTRA:                   0.000
REMARK UNBOUND:                 0.000
REMARK SMILES Cc1ccc(O)cc1
REMARK SMILES IDX 1 1 2 2 3 3 4 4 5 5 7 6 8 7 6 8
REMARK H PARENT 6 9
ROOT
ATOM      1  C   UNL     1      11.489 -58.165 -20.545  1.00  0.00     0.044 C 
ATOM      2  C   UNL     1      11.143 -59.296 -21.469  1.00  0.00    -0.051 A 
ATOM      3  C   UNL     1      10.135 -60.208 -21.127  1.00  0.00     0.007 A 
ATOM      4  C   UNL     1       9.832 -61.280 -21.970  1.00  0.00     0.046 A 
ATOM      5  C   UNL     1      10.548 -61.443 -23.152  1.00  0.00     0.115 A 
ATOM      6  C   UNL     1      11.560 -60.557 -23.500  1.00  0.00     0.046 A 
ATOM      7  C   UNL     1      11.861 -59.486 -22.656  1.00  0.00     0.007 A 
ENDROOT
BRANCH   5   8
ATOM      8  O   UNL     1      10.287 -62.475 -24.004  1.00  0.00    -0.508 OA
ATOM      9  H   UNL     1      11.120 -62.940 -24.187  1.00  0.00     0.293 HD
ENDBRANCH   5   8
TORSDOF 1
ENDMDL
MODEL 2
REMARK VINA RESULT:    -5.693      0.031      1.709
REMARK INTER + INTRA:          -5.859
REMARK INTER:                  -5.859
REMARK INTRA:                   0.000
REMARK UNBOUND:                 0.000
REMARK SMILES Cc1ccc(O)cc1
REMARK SMILES IDX 1 1 2 2 3 3 4 4 5 5 7 6 8 7 6 8
REMARK H PARENT 6 9
ROOT
ATOM      1  C   UNL     1      11.452 -58.145 -20.550  1.00  0.00     0.044 C 
ATOM      2  C   UNL     1      11.159 -59.309 -21.450  1.00  0.00    -0.051 A 
ATOM      3  C   UNL     1      11.867 -59.476 -22.648  1.00  0.00     0.007 A 
ATOM      4  C   UNL     1      11.576 -60.541 -23.502  1.00  0.00     0.046 A 
ATOM      5  C   UNL     1      10.565 -61.435 -23.161  1.00  0.00     0.115 A 
ATOM      6  C   UNL     1       9.844 -61.277 -21.984  1.00  0.00     0.046 A 
ATOM      7  C   UNL     1      10.137 -60.212 -21.131  1.00  0.00     0.007 A 
ENDROOT
BRANCH   5   8
ATOM      8  O   UNL     1      10.246 -62.488 -23.965  1.00  0.00    -0.508 OA
ATOM      9  H   UNL     1      10.198 -62.171 -24.882  1.00  0.00     0.293 HD
ENDBRANCH   5   8
TORSDOF 1
ENDMDL
MODEL 3
REMARK VINA RESULT:    -5.682      3.230      4.367
REMARK INTER + INTRA:          -5.848
REMARK INTER:                  -5.848
REMARK INTRA:                   0.000
REMARK UNBOUND:                 0.000
REMARK SMILES Cc1ccc(O)cc1
REMARK SMILES IDX 1 1 2 2 3 3 4 4 5 5 7 6 8 7 6 8
REMARK H PARENT 6 9
ROOT
ATOM      1  C   UNL     1      11.018 -61.912 -23.507  1.00  0.00     0.044 C 
ATOM      2  C   UNL     1       9.700 -62.453 -23.979  1.00  0.00    -0.051 A 
ATOM      3  C   UNL     1       8.943 -63.296 -23.153  1.00  0.00     0.007 A 
ATOM      4  C   UNL     1       7.731 -63.826 -23.601  1.00  0.00     0.046 A 
ATOM      5  C   UNL     1       7.282 -63.520 -24.882  1.00  0.00     0.115 A 
ATOM      6  C   UNL     1       8.027 -62.698 -25.719  1.00  0.00     0.046 A 
ATOM      7  C   UNL     1       9.238 -62.169 -25.269  1.00  0.00     0.007 A 
ENDROOT
BRANCH   5   8
ATOM      8  O   UNL     1       6.106 -64.016 -25.361  1.00  0.00    -0.508 OA
ATOM      9  H   UNL     1       5.388 -63.723 -24.776  1.00  0.00     0.293 HD
ENDBRANCH   5   8
TORSDOF 1
ENDMDL
MODEL 4
REMARK VINA RESULT:    -5.628      2.725      3.772
REMARK INTER + INTRA:          -5.792
REMARK INTER:                  -5.792
REMARK INTRA:                   0.000
REMARK UNBOUND:                 0.000
REMARK SMILES Cc1ccc(O)cc1
REMARK SMILES IDX 1 1 2 2 3 3 4 4 5 5 7 6 8 7 6 8
REMARK H PARENT 6 9
ROOT
ATOM      1  C   UNL     1      11.832 -61.076 -23.883  1.00  0.00     0.044 C 
ATOM      2  C   UNL     1      10.612 -61.949 -23.864  1.00  0.00    -0.051 A 
ATOM      3  C   UNL     1       9.724 -61.952 -24.948  1.00  0.00     0.007 A 
ATOM      4  C   UNL     1       8.572 -62.740 -24.920  1.00  0.00     0.046 A 
ATOM      5  C   UNL     1       8.303 -63.520 -23.799  1.00  0.00     0.115 A 
ATOM      6  C   UNL     1       9.166 -63.518 -22.709  1.00  0.00     0.046 A 
ATOM      7  C   UNL     1      10.317 -62.730 -22.739  1.00  0.00     0.007 A 
ENDROOT
BRANCH   5   8
ATOM      8  O   UNL     1       7.191 -64.303 -23.727  1.00  0.00    -0.508 OA
ATOM      9  H   UNL     1       7.458 -65.190 -23.434  1.00  0.00     0.293 HD
ENDBRANCH   5   8
TORSDOF 1
ENDMDL
MODEL 5
REMARK VINA RESULT:    -5.457      1.880      3.466
REMARK INTER + INTRA:          -5.616
REMARK INTER:                  -5.616
REMARK INTRA:                   0.000
REMARK UNBOUND:                 0.000
REMARK SMILES Cc1ccc(O)cc1
REMARK SMILES IDX 1 1 2 2 3 3 4 4 5 5 7 6 8 7 6 8
REMARK H PARENT 6 9
ROOT
ATOM      1  C   UNL     1       9.323 -63.327 -22.317  1.00  0.00     0.044 C 
ATOM      2  C   UNL     1      10.087 -62.067 -22.601  1.00  0.00    -0.051 A 
ATOM      3  C   UNL     1      10.996 -62.013 -23.667  1.00  0.00     0.007 A 
ATOM      4  C   UNL     1      11.731 -60.852 -23.914  1.00  0.00     0.046 A 
ATOM      5  C   UNL     1      11.562 -59.746 -23.087  1.00  0.00     0.115 A 
ATOM      6  C   UNL     1      10.675 -59.786 -22.018  1.00  0.00     0.046 A 
ATOM      7  C   UNL     1       9.942 -60.948 -21.772  1.00  0.00     0.007 A 
ENDROOT
BRANCH   5   8
ATOM      8  O   UNL     1      12.259 -58.592 -23.291  1.00  0.00    -0.508 OA
ATOM      9  H   UNL     1      11.712 -57.846 -22.993  1.00  0.00     0.293 HD
ENDBRANCH   5   8
TORSDOF 1
ENDMDL
MODEL 6
REMARK VINA RESULT:    -5.406      2.823      4.221
REMARK INTER + INTRA:          -5.564
REMARK INTER:                  -5.564
REMARK INTRA:                   0.000
REMARK UNBOUND:                 0.000
REMARK SMILES Cc1ccc(O)cc1
REMARK SMILES IDX 1 1 2 2 3 3 4 4 5 5 7 6 8 7 6 8
REMARK H PARENT 6 9
ROOT
ATOM      1  C   UNL     1       7.254 -63.443 -24.853  1.00  0.00     0.044 C 
ATOM      2  C   UNL     1       8.594 -62.847 -24.537  1.00  0.00    -0.051 A 
ATOM      3  C   UNL     1       9.246 -63.162 -23.337  1.00  0.00     0.007 A 
ATOM      4  C   UNL     1      10.479 -62.584 -23.026  1.00  0.00     0.046 A 
ATOM      5  C   UNL     1      11.055 -61.682 -23.915  1.00  0.00     0.115 A 
ATOM      6  C   UNL     1      10.416 -61.347 -25.102  1.00  0.00     0.046 A 
ATOM      7  C   UNL     1       9.184 -61.926 -25.412  1.00  0.00     0.007 A 
ENDROOT
BRANCH   5   8
ATOM      8  O   UNL     1      12.256 -61.093 -23.651  1.00  0.00    -0.508 OA
ATOM      9  H   UNL     1      12.593 -61.445 -22.811  1.00  0.00     0.293 HD
ENDBRANCH   5   8
TORSDOF 1
ENDMDL
MODEL 7
REMARK VINA RESULT:    -5.337      5.092      6.162
REMARK INTER + INTRA:          -5.493
REMARK INTER:                  -5.493
REMARK INTRA:                   0.000
REMARK UNBOUND:                 0.000
REMARK SMILES Cc1ccc(O)cc1
REMARK SMILES IDX 1 1 2 2 3 3 4 4 5 5 7 6 8 7 6 8
REMARK H PARENT 6 9
ROOT
ATOM      1  C   UNL     1      11.031 -51.570 -21.635  1.00  0.00     0.044 C 
ATOM      2  C   UNL     1      11.044 -52.971 -22.173  1.00  0.00    -0.051 A 
ATOM      3  C   UNL     1      10.727 -54.053 -21.341  1.00  0.00     0.007 A 
ATOM      4  C   UNL     1      10.769 -55.361 -21.830  1.00  0.00     0.046 A 
ATOM      5  C   UNL     1      11.138 -55.585 -23.153  1.00  0.00     0.115 A 
ATOM      6  C   UNL     1      11.469 -54.524 -23.988  1.00  0.00     0.046 A 
ATOM      7  C   UNL     1      11.427 -53.218 -23.497  1.00  0.00     0.007 A 
ENDROOT
BRANCH   5   8
ATOM      8  O   UNL     1      11.193 -56.843 -23.672  1.00  0.00    -0.508 OA
ATOM      9  H   UNL     1      11.845 -57.356 -23.165  1.00  0.00     0.293 HD
ENDBRANCH   5   8
TORSDOF 1
ENDMDL
MODEL 8
REMARK VINA RESULT:    -5.318      2.109      2.599
REMARK INTER + INTRA:          -5.473
REMARK INTER:                  -5.473
REMARK INTRA:                   0.000
REMARK UNBOUND:                 0.000
REMARK SMILES Cc1ccc(O)cc1
REMARK SMILES IDX 1 1 2 2 3 3 4 4 5 5 7 6 8 7 6 8
REMARK H PARENT 6 9
ROOT
ATOM      1  C   UNL     1      11.064 -55.728 -22.488  1.00  0.00     0.044 C 
ATOM      2  C   UNL     1      10.713 -57.177 -22.323  1.00  0.00    -0.051 A 
ATOM      3  C   UNL     1       9.688 -57.751 -23.088  1.00  0.00     0.007 A 
ATOM      4  C   UNL     1       9.337 -59.091 -22.915  1.00  0.00     0.046 A 
ATOM      5  C   UNL     1      10.009 -59.857 -21.966  1.00  0.00     0.115 A 
ATOM      6  C   UNL     1      11.018 -59.301 -21.190  1.00  0.00     0.046 A 
ATOM      7  C   UNL     1      11.367 -57.961 -21.364  1.00  0.00     0.007 A 
ENDROOT
BRANCH   5   8
ATOM      8  O   UNL     1       9.700 -61.168 -21.763  1.00  0.00    -0.508 OA
ATOM      9  H   UNL     1       9.673 -61.615 -22.625  1.00  0.00     0.293 HD
ENDBRANCH   5   8
TORSDOF 1
ENDMDL
MODEL 9
REMARK VINA RESULT:    -5.293      2.800      3.958
REMARK INTER + INTRA:          -5.447
REMARK INTER:                  -5.447
REMARK INTRA:                   0.000
REMARK UNBOUND:                 0.000
REMARK SMILES Cc1ccc(O)cc1
REMARK SMILES IDX 1 1 2 2 3 3 4 4 5 5 7 6 8 7 6 8
REMARK H PARENT 6 9
ROOT
ATOM      1  C   UNL     1       8.615 -63.804 -22.807  1.00  0.00     0.044 C 
ATOM      2  C   UNL     1       9.404 -62.820 -23.621  1.00  0.00    -0.051 A 
ATOM      3  C   UNL     1       8.955 -62.428 -24.890  1.00  0.00     0.007 A 
ATOM      4  C   UNL     1       9.702 -61.537 -25.663  1.00  0.00     0.046 A 
ATOM      5  C   UNL     1      10.906 -61.045 -25.167  1.00  0.00     0.115 A 
ATOM      6  C   UNL     1      11.372 -61.434 -23.918  1.00  0.00     0.046 A 
ATOM      7  C   UNL     1      10.624 -62.325 -23.147  1.00  0.00     0.007 A 
ENDROOT
BRANCH   5   8
ATOM      8  O   UNL     1      11.668 -60.174 -25.887  1.00  0.00    -0.508 OA
ATOM      9  H   UNL     1      11.108 -59.429 -26.160  1.00  0.00     0.293 HD
ENDBRANCH   5   8
TORSDOF 1
ENDMDL
