MODEL 1
REMARK VINA RESULT:   -11.857      0.000      0.000
REMARK INTER + INTRA:         -17.578
REMARK INTER:                 -16.709
REMARK INTRA:                  -0.870
REMARK UNBOUND:                -0.870
REMARK SMILES O=C(Nc1cncc(OC[C@H]2CC[N@@H+](Cc3ccccc3)CC2)c1)c1cc[nH]c2nccc1-2
REMARK SMILES IDX 9 1 8 2 4 3 5 4 24 5 6 6 7 7 3 8 2 9 1 10 25 12 28 13 27 14
REMARK SMILES IDX 29 15 26 16 30 17 33 18 31 19 32 20 10 22 11 23 12 24 23 25
REMARK SMILES IDX 13 26 22 27 14 28 15 30 16 31 17 32 21 33 18 34 20 35 19 36
REMARK H PARENT 3 11 28 21 14 29
ROOT
ATOM      1  O   UNL     1      11.413 -56.259 -22.890  1.00  0.00    -0.492 OA
ENDROOT
BRANCH   1   2
ATOM      2  C   UNL     1      11.114 -57.475 -22.333  1.00  0.00     0.139 A 
ATOM      3  C   UNL     1      10.129 -59.663 -22.709  1.00  0.00     0.063 A 
ATOM      4  C   UNL     1      10.431 -59.959 -21.385  1.00  0.00     0.137 A 
ATOM      5  C   UNL     1      10.488 -58.394 -23.177  1.00  0.00     0.075 A 
ATOM      6  N   UNL     1      11.043 -59.092 -20.540  1.00  0.00    -0.259 NA
ATOM      7  C   UNL     1      11.368 -57.878 -21.028  1.00  0.00     0.157 A 
BRANCH   3   8
ATOM      8  N   UNL     1       9.471 -60.535 -23.601  1.00  0.00    -0.320 N 
ATOM      9  C   UNL     1       9.885 -61.801 -23.968  1.00  0.00     0.256 C 
ATOM     10  O   UNL     1      10.940 -62.344 -23.666  1.00  0.00    -0.269 OA
ATOM     11  H   UNL     1       8.614 -60.200 -24.021  1.00  0.00     0.170 HD
BRANCH   9  12
ATOM     12  C   UNL     1       8.919 -62.484 -24.873  1.00  0.00     0.052 A 
ATOM     13  N   UNL     1       7.090 -63.849 -26.495  1.00  0.00    -0.346 N 
ATOM     14  C   UNL     1       7.011 -63.977 -25.126  1.00  0.00     0.085 A 
ATOM     15  C   UNL     1       8.018 -63.019 -27.062  1.00  0.00     0.138 A 
ATOM     16  C   UNL     1       7.869 -63.339 -24.308  1.00  0.00     0.032 A 
ATOM     17  N   UNL     1       8.222 -62.743 -28.324  1.00  0.00    -0.239 NA
ATOM     18  C   UNL     1       8.990 -62.286 -26.199  1.00  0.00     0.032 A 
ATOM     19  C   UNL     1       9.273 -61.836 -28.327  1.00  0.00     0.114 A 
ATOM     20  C   UNL     1       9.774 -61.529 -27.120  1.00  0.00     0.033 A 
ATOM     21  H   UNL     1       6.396 -64.287 -27.086  1.00  0.00     0.167 HD
ENDBRANCH   9  12
ENDBRANCH   3   8
ENDBRANCH   1   2
BRANCH   1  22
ATOM     22  C   UNL     1      10.914 -55.115 -22.202  1.00  0.00     0.233 C 
BRANCH  22  23
ATOM     23  C   UNL     1      10.379 -54.070 -23.200  1.00  0.00     0.038 C 
ATOM     24  C   UNL     1      11.486 -53.466 -24.079  1.00  0.00     0.069 C 
ATOM     25  C   UNL     1       9.561 -52.962 -22.522  1.00  0.00     0.069 C 
ATOM     26  C   UNL     1      12.302 -52.366 -23.410  1.00  0.00     0.262 C 
ATOM     27  C   UNL     1      10.400 -51.876 -21.860  1.00  0.00     0.262 C 
ATOM     28  N   UNL     1      11.375 -51.309 -22.859  1.00  0.00    -0.331 N 
ATOM     29  H   UNL     1      10.837 -50.939 -23.653  1.00  0.00     0.348 HD
BRANCH  28  30
ATOM     30  C   UNL     1      12.122 -50.122 -22.279  1.00  0.00     0.299 C 
BRANCH  30  31
ATOM     31  C   UNL     1      11.922 -48.854 -23.062  1.00  0.00     0.006 A 
ATOM     32  C   UNL     1      12.794 -48.518 -24.109  1.00  0.00     0.009 A 
ATOM     33  C   UNL     1      10.848 -47.996 -22.769  1.00  0.00     0.009 A 
ATOM     34  C   UNL     1      12.589 -47.357 -24.854  1.00  0.00     0.001 A 
ATOM     35  C   UNL     1      10.647 -46.836 -23.518  1.00  0.00     0.001 A 
ATOM     36  C   UNL     1      11.514 -46.519 -24.561  1.00  0.00     0.000 A 
ENDBRANCH  30  31
ENDBRANCH  28  30
ENDBRANCH  22  23
ENDBRANCH   1  22
TORSDOF 7
ENDMDL
MODEL 2
REMARK VINA RESULT:   -11.450      3.149     11.124
REMARK INTER + INTRA:         -17.006
REMARK INTER:                 -16.702
REMARK INTRA:                  -0.304
REMARK UNBOUND:                -0.870
REMARK SMILES O=C(Nc1cncc(OC[C@H]2CC[N@@H+](Cc3ccccc3)CC2)c1)c1cc[nH]c2nccc1-2
REMARK SMILES IDX 9 1 8 2 4 3 5 4 24 5 6 6 7 7 3 8 2 9 1 10 25 12 28 13 27 14
REMARK SMILES IDX 29 15 26 16 30 17 33 18 31 19 32 20 10 22 11 23 12 24 23 25
REMARK SMILES IDX 13 26 22 27 14 28 15 30 16 31 17 32 21 33 18 34 20 35 19 36
REMARK H PARENT 3 11 28 21 14 29
ROOT
ATOM      1  O   UNL     1       9.819 -55.790 -23.611  1.00  0.00    -0.492 OA
ENDROOT
BRANCH   1   2
ATOM      2  C   UNL     1      10.270 -54.627 -23.046  1.00  0.00     0.139 A 
ATOM      3  C   UNL     1      11.802 -52.754 -23.265  1.00  0.00     0.063 A 
ATOM      4  C   UNL     1      11.299 -52.280 -22.060  1.00  0.00     0.137 A 
ATOM      5  C   UNL     1      11.263 -53.949 -23.756  1.00  0.00     0.075 A 
ATOM      6  N   UNL     1      10.332 -52.910 -21.348  1.00  0.00    -0.259 NA
ATOM      7  C   UNL     1       9.841 -54.061 -21.852  1.00  0.00     0.157 A 
BRANCH   3   8
ATOM      8  N   UNL     1      12.824 -52.135 -24.013  1.00  0.00    -0.320 N 
ATOM      9  C   UNL     1      13.419 -52.629 -25.159  1.00  0.00     0.256 C 
ATOM     10  O   UNL     1      13.237 -53.729 -25.663  1.00  0.00    -0.269 OA
ATOM     11  H   UNL     1      13.164 -51.243 -23.676  1.00  0.00     0.170 HD
BRANCH   9  12
ATOM     12  C   UNL     1      14.415 -51.689 -25.742  1.00  0.00     0.052 A 
ATOM     13  N   UNL     1      16.215 -49.899 -26.925  1.00  0.00    -0.346 N 
ATOM     14  C   UNL     1      14.861 -49.723 -27.112  1.00  0.00     0.085 A 
ATOM     15  C   UNL     1      16.681 -50.904 -26.124  1.00  0.00     0.138 A 
ATOM     16  C   UNL     1      13.960 -50.560 -26.562  1.00  0.00     0.032 A 
ATOM     17  N   UNL     1      17.913 -51.204 -25.801  1.00  0.00    -0.239 NA
ATOM     18  C   UNL     1      15.723 -51.856 -25.487  1.00  0.00     0.032 A 
ATOM     19  C   UNL     1      17.804 -52.301 -24.956  1.00  0.00     0.114 A 
ATOM     20  C   UNL     1      16.554 -52.738 -24.734  1.00  0.00     0.033 A 
ATOM     21  H   UNL     1      16.869 -49.222 -27.295  1.00  0.00     0.167 HD
ENDBRANCH   9  12
ENDBRANCH   3   8
ENDBRANCH   1   2
BRANCH   1  22
ATOM     22  C   UNL     1       9.806 -56.935 -22.761  1.00  0.00     0.233 C 
BRANCH  22  23
ATOM     23  C   UNL     1      11.240 -57.432 -22.495  1.00  0.00     0.038 C 
ATOM     24  C   UNL     1      11.998 -57.781 -23.786  1.00  0.00     0.069 C 
ATOM     25  C   UNL     1      11.290 -58.605 -21.505  1.00  0.00     0.069 C 
ATOM     26  C   UNL     1      11.663 -59.148 -24.372  1.00  0.00     0.262 C 
ATOM     27  C   UNL     1      10.951 -59.959 -22.115  1.00  0.00     0.262 C 
ATOM     28  N   UNL     1      11.831 -60.210 -23.312  1.00  0.00    -0.331 N 
ATOM     29  H   UNL     1      12.809 -60.170 -23.000  1.00  0.00     0.348 HD
BRANCH  28  30
ATOM     30  C   UNL     1      11.627 -61.613 -23.853  1.00  0.00     0.299 C 
BRANCH  30  31
ATOM     31  C   UNL     1      10.210 -62.101 -23.720  1.00  0.00     0.006 A 
ATOM     32  C   UNL     1       9.207 -61.620 -24.575  1.00  0.00     0.009 A 
ATOM     33  C   UNL     1       9.875 -63.060 -22.750  1.00  0.00     0.009 A 
ATOM     34  C   UNL     1       7.901 -62.096 -24.470  1.00  0.00     0.001 A 
ATOM     35  C   UNL     1       8.566 -63.535 -22.650  1.00  0.00     0.001 A 
ATOM     36  C   UNL     1       7.582 -63.056 -23.511  1.00  0.00     0.000 A 
ENDBRANCH  30  31
ENDBRANCH  28  30
ENDBRANCH  22  23
ENDBRANCH   1  22
TORSDOF 7
ENDMDL
MODEL 3
REMARK VINA RESULT:   -11.013      2.301     12.480
REMARK INTER + INTRA:         -16.389
REMARK INTER:                 -16.319
REMARK INTRA:                  -0.070
REMARK UNBOUND:                -0.870
REMARK SMILES O=C(Nc1cncc(OC[C@H]2CC[N@@H+](Cc3ccccc3)CC2)c1)c1cc[nH]c2nccc1-2
REMARK SMILES IDX 9 1 8 2 4 3 5 4 24 5 6 6 7 7 3 8 2 9 1 10 25 12 28 13 27 14
REMARK SMILES IDX 29 15 26 16 30 17 33 18 31 19 32 20 10 22 11 23 12 24 23 25
REMARK SMILES IDX 13 26 22 27 14 28 15 30 16 31 17 32 21 33 18 34 20 35 19 36
REMARK H PARENT 3 11 28 21 14 29
ROOT
ATOM      1  O   UNL     1      10.886 -55.369 -23.835  1.00  0.00    -0.492 OA
ENDROOT
BRANCH   1   2
ATOM      2  C   UNL     1      10.888 -54.361 -22.906  1.00  0.00     0.139 A 
ATOM      3  C   UNL     1      11.312 -52.002 -22.511  1.00  0.00     0.063 A 
ATOM      4  C   UNL     1      10.959 -52.224 -21.185  1.00  0.00     0.137 A 
ATOM      5  C   UNL     1      11.266 -53.102 -23.376  1.00  0.00     0.075 A 
ATOM      6  N   UNL     1      10.582 -53.432 -20.698  1.00  0.00    -0.259 NA
ATOM      7  C   UNL     1      10.555 -54.467 -21.562  1.00  0.00     0.157 A 
BRANCH   3   8
ATOM      8  N   UNL     1      11.733 -50.765 -23.039  1.00  0.00    -0.320 N 
ATOM      9  C   UNL     1      11.107 -49.544 -22.869  1.00  0.00     0.256 C 
ATOM     10  O   UNL     1      10.031 -49.341 -22.323  1.00  0.00    -0.269 OA
ATOM     11  H   UNL     1      12.572 -50.767 -23.604  1.00  0.00     0.170 HD
BRANCH   9  12
ATOM     12  C   UNL     1      11.855 -48.420 -23.498  1.00  0.00     0.052 A 
ATOM     13  N   UNL     1      13.351 -46.378 -24.695  1.00  0.00    -0.346 N 
ATOM     14  C   UNL     1      13.612 -47.690 -25.021  1.00  0.00     0.085 A 
ATOM     15  C   UNL     1      12.333 -46.065 -23.836  1.00  0.00     0.138 A 
ATOM     16  C   UNL     1      12.917 -48.704 -24.470  1.00  0.00     0.032 A 
ATOM     17  N   UNL     1      11.916 -44.890 -23.438  1.00  0.00    -0.239 NA
ATOM     18  C   UNL     1      11.530 -47.152 -23.202  1.00  0.00     0.032 A 
ATOM     19  C   UNL     1      10.852 -45.158 -22.587  1.00  0.00     0.114 A 
ATOM     20  C   UNL     1      10.576 -46.459 -22.399  1.00  0.00     0.033 A 
ATOM     21  H   UNL     1      13.843 -45.631 -25.168  1.00  0.00     0.167 HD
ENDBRANCH   9  12
ENDBRANCH   3   8
ENDBRANCH   1   2
BRANCH   1  22
ATOM     22  C   UNL     1      11.641 -56.531 -23.499  1.00  0.00     0.233 C 
BRANCH  22  23
ATOM     23  C   UNL     1      10.837 -57.449 -22.558  1.00  0.00     0.038 C 
ATOM     24  C   UNL     1      11.701 -58.542 -21.910  1.00  0.00     0.069 C 
ATOM     25  C   UNL     1       9.604 -58.064 -23.236  1.00  0.00     0.069 C 
ATOM     26  C   UNL     1      11.978 -59.747 -22.802  1.00  0.00     0.262 C 
ATOM     27  C   UNL     1       9.907 -59.266 -24.122  1.00  0.00     0.262 C 
ATOM     28  N   UNL     1      10.676 -60.295 -23.334  1.00  0.00    -0.331 N 
ATOM     29  H   UNL     1      10.107 -60.560 -22.520  1.00  0.00     0.348 HD
BRANCH  28  30
ATOM     30  C   UNL     1      10.863 -61.569 -24.137  1.00  0.00     0.299 C 
BRANCH  30  31
ATOM     31  C   UNL     1       9.590 -62.352 -24.315  1.00  0.00     0.006 A 
ATOM     32  C   UNL     1       8.913 -62.341 -25.544  1.00  0.00     0.009 A 
ATOM     33  C   UNL     1       9.072 -63.120 -23.259  1.00  0.00     0.009 A 
ATOM     34  C   UNL     1       7.750 -63.092 -25.716  1.00  0.00     0.001 A 
ATOM     35  C   UNL     1       7.909 -63.870 -23.437  1.00  0.00     0.001 A 
ATOM     36  C   UNL     1       7.252 -63.859 -24.665  1.00  0.00     0.000 A 
ENDBRANCH  30  31
ENDBRANCH  28  30
ENDBRANCH  22  23
ENDBRANCH   1  22
TORSDOF 7
ENDMDL
MODEL 4
REMARK VINA RESULT:   -10.983      2.926     11.861
REMARK INTER + INTRA:         -16.347
REMARK INTER:                 -15.299
REMARK INTRA:                  -1.048
REMARK UNBOUND:                -0.870
REMARK SMILES O=C(Nc1cncc(OC[C@H]2CC[N@@H+](Cc3ccccc3)CC2)c1)c1cc[nH]c2nccc1-2
REMARK SMILES IDX 9 1 8 2 4 3 5 4 24 5 6 6 7 7 3 8 2 9 1 10 25 12 28 13 27 14
REMARK SMILES IDX 29 15 26 16 30 17 33 18 31 19 32 20 10 22 11 23 12 24 23 25
REMARK SMILES IDX 13 26 22 27 14 28 15 30 16 31 17 32 21 33 18 34 20 35 19 36
REMARK H PARENT 3 11 28 21 14 29
ROOT
ATOM      1  O   UNL     1      10.387 -55.373 -23.734  1.00  0.00    -0.492 OA
ENDROOT
BRANCH   1   2
ATOM      2  C   UNL     1      10.442 -54.130 -23.161  1.00  0.00     0.139 A 
ATOM      3  C   UNL     1      11.835 -52.192 -22.708  1.00  0.00     0.063 A 
ATOM      4  C   UNL     1      10.739 -51.631 -22.063  1.00  0.00     0.137 A 
ATOM      5  C   UNL     1      11.665 -53.464 -23.266  1.00  0.00     0.075 A 
ATOM      6  N   UNL     1       9.536 -52.247 -21.948  1.00  0.00    -0.259 NA
ATOM      7  C   UNL     1       9.414 -53.474 -22.495  1.00  0.00     0.157 A 
BRANCH   3   8
ATOM      8  N   UNL     1      13.102 -51.586 -22.820  1.00  0.00    -0.320 N 
ATOM      9  C   UNL     1      13.549 -50.799 -23.866  1.00  0.00     0.256 C 
ATOM     10  O   UNL     1      12.963 -50.578 -24.917  1.00  0.00    -0.269 OA
ATOM     11  H   UNL     1      13.757 -51.746 -22.065  1.00  0.00     0.170 HD
BRANCH   9  12
ATOM     12  C   UNL     1      14.914 -50.253 -23.635  1.00  0.00     0.052 A 
ATOM     13  N   UNL     1      17.438 -49.121 -23.197  1.00  0.00    -0.346 N 
ATOM     14  C   UNL     1      16.315 -48.480 -22.724  1.00  0.00     0.085 A 
ATOM     15  C   UNL     1      17.333 -50.330 -23.828  1.00  0.00     0.138 A 
ATOM     16  C   UNL     1      15.082 -48.988 -22.911  1.00  0.00     0.032 A 
ATOM     17  N   UNL     1      18.275 -51.099 -24.310  1.00  0.00    -0.239 NA
ATOM     18  C   UNL     1      15.989 -50.938 -24.057  1.00  0.00     0.032 A 
ATOM     19  C   UNL     1      17.609 -52.203 -24.824  1.00  0.00     0.114 A 
ATOM     20  C   UNL     1      16.271 -52.172 -24.716  1.00  0.00     0.033 A 
ATOM     21  H   UNL     1      18.357 -48.753 -22.990  1.00  0.00     0.167 HD
ENDBRANCH   9  12
ENDBRANCH   3   8
ENDBRANCH   1   2
BRANCH   1  22
ATOM     22  C   UNL     1      11.297 -56.341 -23.216  1.00  0.00     0.233 C 
BRANCH  22  23
ATOM     23  C   UNL     1      10.561 -57.352 -22.315  1.00  0.00     0.038 C 
ATOM     24  C   UNL     1      11.500 -58.414 -21.722  1.00  0.00     0.069 C 
ATOM     25  C   UNL     1       9.367 -58.015 -23.017  1.00  0.00     0.069 C 
ATOM     26  C   UNL     1      11.849 -59.557 -22.669  1.00  0.00     0.262 C 
ATOM     27  C   UNL     1       9.743 -59.153 -23.958  1.00  0.00     0.262 C 
ATOM     28  N   UNL     1      10.582 -60.165 -23.221  1.00  0.00    -0.331 N 
ATOM     29  H   UNL     1      10.037 -60.503 -22.418  1.00  0.00     0.348 HD
BRANCH  28  30
ATOM     30  C   UNL     1      10.847 -61.385 -24.083  1.00  0.00     0.299 C 
BRANCH  30  31
ATOM     31  C   UNL     1       9.636 -62.260 -24.261  1.00  0.00     0.006 A 
ATOM     32  C   UNL     1       9.162 -63.044 -23.198  1.00  0.00     0.009 A 
ATOM     33  C   UNL     1       8.953 -62.293 -25.488  1.00  0.00     0.009 A 
ATOM     34  C   UNL     1       8.022 -63.832 -23.355  1.00  0.00     0.001 A 
ATOM     35  C   UNL     1       7.812 -63.082 -25.639  1.00  0.00     0.001 A 
ATOM     36  C   UNL     1       7.346 -63.847 -24.574  1.00  0.00     0.000 A 
ENDBRANCH  30  31
ENDBRANCH  28  30
ENDBRANCH  22  23
ENDBRANCH   1  22
TORSDOF 7
ENDMDL
MODEL 5
REMARK VINA RESULT:   -10.444      2.551     12.698
REMARK INTER + INTRA:         -15.587
REMARK INTER:                 -15.075
REMARK INTRA:                  -0.512
REMARK UNBOUND:                -0.870
REMARK SMILES O=C(Nc1cncc(OC[C@H]2CC[N@@H+](Cc3ccccc3)CC2)c1)c1cc[nH]c2nccc1-2
REMARK SMILES IDX 9 1 8 2 4 3 5 4 24 5 6 6 7 7 3 8 2 9 1 10 25 12 28 13 27 14
REMARK SMILES IDX 29 15 26 16 30 17 33 18 31 19 32 20 10 22 11 23 12 24 23 25
REMARK SMILES IDX 13 26 22 27 14 28 15 30 16 31 17 32 21 33 18 34 20 35 19 36
REMARK H PARENT 3 11 28 21 14 29
ROOT
ATOM      1  O   UNL     1      11.037 -54.708 -22.971  1.00  0.00    -0.492 OA
ENDROOT
BRANCH   1   2
ATOM      2  C   UNL     1      11.710 -53.764 -23.701  1.00  0.00     0.139 A 
ATOM      3  C   UNL     1      12.421 -51.444 -23.806  1.00  0.00     0.063 A 
ATOM      4  C   UNL     1      13.010 -51.743 -25.029  1.00  0.00     0.137 A 
ATOM      5  C   UNL     1      11.766 -52.487 -23.141  1.00  0.00     0.075 A 
ATOM      6  N   UNL     1      12.979 -52.973 -25.598  1.00  0.00    -0.259 NA
ATOM      7  C   UNL     1      12.335 -53.950 -24.928  1.00  0.00     0.157 A 
BRANCH   3   8
ATOM      8  N   UNL     1      12.415 -50.169 -23.204  1.00  0.00    -0.320 N 
ATOM      9  C   UNL     1      13.521 -49.397 -22.902  1.00  0.00     0.256 C 
ATOM     10  O   UNL     1      14.694 -49.726 -23.009  1.00  0.00    -0.269 OA
ATOM     11  H   UNL     1      11.513 -49.780 -22.960  1.00  0.00     0.170 HD
BRANCH   9  12
ATOM     12  C   UNL     1      13.160 -48.068 -22.337  1.00  0.00     0.052 A 
ATOM     13  N   UNL     1      12.503 -45.608 -21.171  1.00  0.00    -0.346 N 
ATOM     14  C   UNL     1      13.413 -46.434 -20.548  1.00  0.00     0.085 A 
ATOM     15  C   UNL     1      11.963 -45.956 -22.378  1.00  0.00     0.138 A 
ATOM     16  C   UNL     1      13.758 -47.625 -21.073  1.00  0.00     0.032 A 
ATOM     17  N   UNL     1      11.121 -45.296 -23.131  1.00  0.00    -0.239 NA
ATOM     18  C   UNL     1      12.316 -47.265 -23.005  1.00  0.00     0.032 A 
ATOM     19  C   UNL     1      10.925 -46.105 -24.243  1.00  0.00     0.114 A 
ATOM     20  C   UNL     1      11.588 -47.273 -24.232  1.00  0.00     0.033 A 
ATOM     21  H   UNL     1      12.307 -44.692 -20.790  1.00  0.00     0.167 HD
ENDBRANCH   9  12
ENDBRANCH   3   8
ENDBRANCH   1   2
BRANCH   1  22
ATOM     22  C   UNL     1      11.191 -56.059 -23.401  1.00  0.00     0.233 C 
BRANCH  22  23
ATOM     23  C   UNL     1      10.460 -57.021 -22.444  1.00  0.00     0.038 C 
ATOM     24  C   UNL     1      11.414 -57.993 -21.733  1.00  0.00     0.069 C 
ATOM     25  C   UNL     1       9.318 -57.786 -23.128  1.00  0.00     0.069 C 
ATOM     26  C   UNL     1      11.840 -59.195 -22.570  1.00  0.00     0.262 C 
ATOM     27  C   UNL     1       9.769 -58.981 -23.958  1.00  0.00     0.262 C 
ATOM     28  N   UNL     1      10.617 -59.895 -23.112  1.00  0.00    -0.331 N 
ATOM     29  H   UNL     1      10.055 -60.188 -22.302  1.00  0.00     0.348 HD
BRANCH  28  30
ATOM     30  C   UNL     1      10.957 -61.170 -23.860  1.00  0.00     0.299 C 
BRANCH  30  31
ATOM     31  C   UNL     1       9.817 -62.149 -23.916  1.00  0.00     0.006 A 
ATOM     32  C   UNL     1       9.516 -62.957 -22.809  1.00  0.00     0.009 A 
ATOM     33  C   UNL     1       9.024 -62.256 -25.071  1.00  0.00     0.009 A 
ATOM     34  C   UNL     1       8.439 -63.842 -22.851  1.00  0.00     0.001 A 
ATOM     35  C   UNL     1       7.947 -63.142 -25.108  1.00  0.00     0.001 A 
ATOM     36  C   UNL     1       7.653 -63.931 -23.999  1.00  0.00     0.000 A 
ENDBRANCH  30  31
ENDBRANCH  28  30
ENDBRANCH  22  23
ENDBRANCH   1  22
TORSDOF 7
ENDMDL
MODEL 6
REMARK VINA RESULT:   -10.362      3.805     12.552
REMARK INTER + INTRA:         -15.472
REMARK INTER:                 -14.634
REMARK INTRA:                  -0.838
REMARK UNBOUND:                -0.870
REMARK SMILES O=C(Nc1cncc(OC[C@H]2CC[N@@H+](Cc3ccccc3)CC2)c1)c1cc[nH]c2nccc1-2
REMARK SMILES IDX 9 1 8 2 4 3 5 4 24 5 6 6 7 7 3 8 2 9 1 10 25 12 28 13 27 14
REMARK SMILES IDX 29 15 26 16 30 17 33 18 31 19 32 20 10 22 11 23 12 24 23 25
REMARK SMILES IDX 13 26 22 27 14 28 15 30 16 31 17 32 21 33 18 34 20 35 19 36
REMARK H PARENT 3 11 28 21 14 29
ROOT
ATOM      1  O   UNL     1      12.350 -53.399 -24.462  1.00  0.00    -0.492 OA
ENDROOT
BRANCH   1   2
ATOM      2  C   UNL     1      13.248 -52.490 -24.956  1.00  0.00     0.139 A 
ATOM      3  C   UNL     1      13.709 -50.137 -25.345  1.00  0.00     0.063 A 
ATOM      4  C   UNL     1      14.920 -50.529 -25.904  1.00  0.00     0.137 A 
ATOM      5  C   UNL     1      12.871 -51.149 -24.863  1.00  0.00     0.075 A 
ATOM      6  N   UNL     1      15.319 -51.821 -26.005  1.00  0.00    -0.259 NA
ATOM      7  C   UNL     1      14.481 -52.767 -25.533  1.00  0.00     0.157 A 
BRANCH   3   8
ATOM      8  N   UNL     1      13.258 -48.805 -25.251  1.00  0.00    -0.320 N 
ATOM      9  C   UNL     1      13.586 -47.893 -24.265  1.00  0.00     0.256 C 
ATOM     10  O   UNL     1      14.238 -48.112 -23.253  1.00  0.00    -0.269 OA
ATOM     11  H   UNL     1      12.624 -48.482 -25.971  1.00  0.00     0.170 HD
BRANCH   9  12
ATOM     12  C   UNL     1      12.995 -46.548 -24.504  1.00  0.00     0.052 A 
ATOM     13  N   UNL     1      11.986 -43.982 -24.995  1.00  0.00    -0.346 N 
ATOM     14  C   UNL     1      13.018 -44.465 -25.769  1.00  0.00     0.085 A 
ATOM     15  C   UNL     1      11.417 -44.766 -24.029  1.00  0.00     0.138 A 
ATOM     16  C   UNL     1      13.534 -45.693 -25.568  1.00  0.00     0.032 A 
ATOM     17  N   UNL     1      10.417 -44.499 -23.228  1.00  0.00    -0.239 NA
ATOM     18  C   UNL     1      11.949 -46.136 -23.770  1.00  0.00     0.032 A 
ATOM     19  C   UNL     1      10.253 -45.649 -22.467  1.00  0.00     0.114 A 
ATOM     20  C   UNL     1      11.117 -46.643 -22.727  1.00  0.00     0.033 A 
ATOM     21  H   UNL     1      11.573 -43.083 -25.205  1.00  0.00     0.167 HD
ENDBRANCH   9  12
ENDBRANCH   3   8
ENDBRANCH   1   2
BRANCH   1  22
ATOM     22  C   UNL     1      11.609 -52.986 -23.316  1.00  0.00     0.233 C 
BRANCH  22  23
ATOM     23  C   UNL     1      10.380 -53.892 -23.108  1.00  0.00     0.038 C 
ATOM     24  C   UNL     1      10.112 -54.203 -21.627  1.00  0.00     0.069 C 
ATOM     25  C   UNL     1      10.449 -55.188 -23.930  1.00  0.00     0.069 C 
ATOM     26  C   UNL     1      10.988 -55.305 -21.040  1.00  0.00     0.262 C 
ATOM     27  C   UNL     1      11.330 -56.272 -23.322  1.00  0.00     0.262 C 
ATOM     28  N   UNL     1      10.898 -56.540 -21.903  1.00  0.00    -0.331 N 
ATOM     29  H   UNL     1       9.910 -56.823 -21.921  1.00  0.00     0.348 HD
BRANCH  28  30
ATOM     30  C   UNL     1      11.653 -57.719 -21.317  1.00  0.00     0.299 C 
BRANCH  30  31
ATOM     31  C   UNL     1      11.290 -59.033 -21.954  1.00  0.00     0.006 A 
ATOM     32  C   UNL     1      12.029 -59.527 -23.039  1.00  0.00     0.009 A 
ATOM     33  C   UNL     1      10.217 -59.793 -21.459  1.00  0.00     0.009 A 
ATOM     34  C   UNL     1      11.710 -60.760 -23.609  1.00  0.00     0.001 A 
ATOM     35  C   UNL     1       9.903 -61.026 -22.031  1.00  0.00     0.001 A 
ATOM     36  C   UNL     1      10.650 -61.510 -23.101  1.00  0.00     0.000 A 
ENDBRANCH  30  31
ENDBRANCH  28  30
ENDBRANCH  22  23
ENDBRANCH   1  22
TORSDOF 7
ENDMDL
MODEL 7
REMARK VINA RESULT:   -10.356      3.749      5.721
REMARK INTER + INTRA:         -15.464
REMARK INTER:                 -14.566
REMARK INTRA:                  -0.898
REMARK UNBOUND:                -0.870
REMARK SMILES O=C(Nc1cncc(OC[C@H]2CC[N@@H+](Cc3ccccc3)CC2)c1)c1cc[nH]c2nccc1-2
REMARK SMILES IDX 9 1 8 2 4 3 5 4 24 5 6 6 7 7 3 8 2 9 1 10 25 12 28 13 27 14
REMARK SMILES IDX 29 15 26 16 30 17 33 18 31 19 32 20 10 22 11 23 12 24 23 25
REMARK SMILES IDX 13 26 22 27 14 28 15 30 16 31 17 32 21 33 18 34 20 35 19 36
REMARK H PARENT 3 11 28 21 14 29
ROOT
ATOM      1  O   UNL     1      12.222 -51.641 -23.829  1.00  0.00    -0.492 OA
ENDROOT
BRANCH   1   2
ATOM      2  C   UNL     1      11.454 -52.520 -23.112  1.00  0.00     0.139 A 
ATOM      3  C   UNL     1      10.709 -54.823 -22.906  1.00  0.00     0.063 A 
ATOM      4  C   UNL     1       9.966 -54.420 -21.802  1.00  0.00     0.137 A 
ATOM      5  C   UNL     1      11.465 -53.843 -23.559  1.00  0.00     0.075 A 
ATOM      6  N   UNL     1       9.938 -53.146 -21.338  1.00  0.00    -0.259 NA
ATOM      7  C   UNL     1      10.677 -52.230 -21.998  1.00  0.00     0.157 A 
BRANCH   3   8
ATOM      8  N   UNL     1      10.736 -56.133 -23.425  1.00  0.00    -0.320 N 
ATOM      9  C   UNL     1      11.015 -57.290 -22.722  1.00  0.00     0.256 C 
ATOM     10  O   UNL     1      11.385 -57.369 -21.559  1.00  0.00    -0.269 OA
ATOM     11  H   UNL     1      10.540 -56.241 -24.412  1.00  0.00     0.170 HD
BRANCH   9  12
ATOM     12  C   UNL     1      10.886 -58.517 -23.556  1.00  0.00     0.052 A 
ATOM     13  N   UNL     1      10.738 -60.792 -25.182  1.00  0.00    -0.346 N 
ATOM     14  C   UNL     1      11.961 -60.206 -24.944  1.00  0.00     0.085 A 
ATOM     15  C   UNL     1       9.607 -60.304 -24.587  1.00  0.00     0.138 A 
ATOM     16  C   UNL     1      12.080 -59.112 -24.169  1.00  0.00     0.032 A 
ATOM     17  N   UNL     1       8.376 -60.740 -24.662  1.00  0.00    -0.239 NA
ATOM     18  C   UNL     1       9.685 -59.095 -23.715  1.00  0.00     0.032 A 
ATOM     19  C   UNL     1       7.642 -59.883 -23.853  1.00  0.00     0.114 A 
ATOM     20  C   UNL     1       8.343 -58.895 -23.273  1.00  0.00     0.033 A 
ATOM     21  H   UNL     1      10.681 -61.649 -25.716  1.00  0.00     0.167 HD
ENDBRANCH   9  12
ENDBRANCH   3   8
ENDBRANCH   1   2
BRANCH   1  22
ATOM     22  C   UNL     1      13.634 -51.778 -23.680  1.00  0.00     0.233 C 
BRANCH  22  23
ATOM     23  C   UNL     1      14.269 -52.311 -24.978  1.00  0.00     0.038 C 
ATOM     24  C   UNL     1      15.797 -52.147 -25.006  1.00  0.00     0.069 C 
ATOM     25  C   UNL     1      13.637 -51.708 -26.241  1.00  0.00     0.069 C 
ATOM     26  C   UNL     1      16.281 -50.749 -25.377  1.00  0.00     0.262 C 
ATOM     27  C   UNL     1      14.137 -50.312 -26.590  1.00  0.00     0.262 C 
ATOM     28  N   UNL     1      15.641 -50.318 -26.675  1.00  0.00    -0.331 N 
ATOM     29  H   UNL     1      15.915 -51.006 -27.387  1.00  0.00     0.348 HD
BRANCH  28  30
ATOM     30  C   UNL     1      16.165 -48.982 -27.168  1.00  0.00     0.299 C 
BRANCH  30  31
ATOM     31  C   UNL     1      16.101 -48.835 -28.664  1.00  0.00     0.006 A 
ATOM     32  C   UNL     1      17.070 -49.437 -29.481  1.00  0.00     0.009 A 
ATOM     33  C   UNL     1      15.060 -48.108 -29.265  1.00  0.00     0.009 A 
ATOM     34  C   UNL     1      16.992 -49.325 -30.869  1.00  0.00     0.001 A 
ATOM     35  C   UNL     1      14.986 -48.000 -30.655  1.00  0.00     0.001 A 
ATOM     36  C   UNL     1      15.948 -48.611 -31.455  1.00  0.00     0.000 A 
ENDBRANCH  30  31
ENDBRANCH  28  30
ENDBRANCH  22  23
ENDBRANCH   1  22
TORSDOF 7
ENDMDL
MODEL 8
REMARK VINA RESULT:   -10.202      2.525      4.506
REMARK INTER + INTRA:         -15.247
REMARK INTER:                 -14.845
REMARK INTRA:                  -0.402
REMARK UNBOUND:                -0.870
REMARK SMILES O=C(Nc1cncc(OC[C@H]2CC[N@@H+](Cc3ccccc3)CC2)c1)c1cc[nH]c2nccc1-2
REMARK SMILES IDX 9 1 8 2 4 3 5 4 24 5 6 6 7 7 3 8 2 9 1 10 25 12 28 13 27 14
REMARK SMILES IDX 29 15 26 16 30 17 33 18 31 19 32 20 10 22 11 23 12 24 23 25
REMARK SMILES IDX 13 26 22 27 14 28 15 30 16 31 17 32 21 33 18 34 20 35 19 36
REMARK H PARENT 3 11 28 21 14 29
ROOT
ATOM      1  O   UNL     1      12.456 -51.993 -24.304  1.00  0.00    -0.492 OA
ENDROOT
BRANCH   1   2
ATOM      2  C   UNL     1      11.691 -52.636 -23.366  1.00  0.00     0.139 A 
ATOM      3  C   UNL     1      10.508 -54.683 -22.805  1.00  0.00     0.063 A 
ATOM      4  C   UNL     1      10.147 -54.074 -21.609  1.00  0.00     0.137 A 
ATOM      5  C   UNL     1      11.299 -53.937 -23.688  1.00  0.00     0.075 A 
ATOM      6  N   UNL     1      10.515 -52.816 -21.264  1.00  0.00    -0.259 NA
ATOM      7  C   UNL     1      11.273 -52.128 -22.142  1.00  0.00     0.157 A 
BRANCH   3   8
ATOM      8  N   UNL     1      10.119 -55.978 -23.202  1.00  0.00    -0.320 N 
ATOM      9  C   UNL     1      10.460 -57.165 -22.581  1.00  0.00     0.256 C 
ATOM     10  O   UNL     1      11.237 -57.306 -21.646  1.00  0.00    -0.269 OA
ATOM     11  H   UNL     1       9.538 -56.051 -24.027  1.00  0.00     0.170 HD
BRANCH   9  12
ATOM     12  C   UNL     1       9.820 -58.351 -23.213  1.00  0.00     0.052 A 
ATOM     13  N   UNL     1       8.518 -60.556 -24.347  1.00  0.00    -0.346 N 
ATOM     14  C   UNL     1       7.786 -59.447 -23.987  1.00  0.00     0.085 A 
ATOM     15  C   UNL     1       9.879 -60.566 -24.206  1.00  0.00     0.138 A 
ATOM     16  C   UNL     1       8.370 -58.365 -23.438  1.00  0.00     0.032 A 
ATOM     17  N   UNL     1      10.739 -61.500 -24.520  1.00  0.00    -0.239 NA
ATOM     18  C   UNL     1      10.575 -59.389 -23.607  1.00  0.00     0.032 A 
ATOM     19  C   UNL     1      11.978 -60.976 -24.177  1.00  0.00     0.114 A 
ATOM     20  C   UNL     1      11.956 -59.749 -23.633  1.00  0.00     0.033 A 
ATOM     21  H   UNL     1       8.067 -61.332 -24.814  1.00  0.00     0.167 HD
ENDBRANCH   9  12
ENDBRANCH   3   8
ENDBRANCH   1   2
BRANCH   1  22
ATOM     22  C   UNL     1      13.205 -52.831 -25.181  1.00  0.00     0.233 C 
BRANCH  22  23
ATOM     23  C   UNL     1      14.429 -52.079 -25.737  1.00  0.00     0.038 C 
ATOM     24  C   UNL     1      15.486 -51.784 -24.661  1.00  0.00     0.069 C 
ATOM     25  C   UNL     1      14.049 -50.796 -26.489  1.00  0.00     0.069 C 
ATOM     26  C   UNL     1      15.179 -50.576 -23.782  1.00  0.00     0.262 C 
ATOM     27  C   UNL     1      13.747 -49.605 -25.589  1.00  0.00     0.262 C 
ATOM     28  N   UNL     1      14.903 -49.372 -24.650  1.00  0.00    -0.331 N 
ATOM     29  H   UNL     1      15.744 -49.213 -25.218  1.00  0.00     0.348 HD
BRANCH  28  30
ATOM     30  C   UNL     1      14.703 -48.103 -23.843  1.00  0.00     0.299 C 
BRANCH  30  31
ATOM     31  C   UNL     1      13.258 -47.709 -23.704  1.00  0.00     0.006 A 
ATOM     32  C   UNL     1      12.398 -48.438 -22.868  1.00  0.00     0.009 A 
ATOM     33  C   UNL     1      12.753 -46.594 -24.394  1.00  0.00     0.009 A 
ATOM     34  C   UNL     1      11.066 -48.053 -22.716  1.00  0.00     0.001 A 
ATOM     35  C   UNL     1      11.420 -46.212 -24.237  1.00  0.00     0.001 A 
ATOM     36  C   UNL     1      10.580 -46.938 -23.397  1.00  0.00     0.000 A 
ENDBRANCH  30  31
ENDBRANCH  28  30
ENDBRANCH  22  23
ENDBRANCH   1  22
TORSDOF 7
ENDMDL
MODEL 9
REMARK VINA RESULT:   -10.027      2.380      4.390
REMARK INTER + INTRA:         -15.000
REMARK INTER:                 -14.551
REMARK INTRA:                  -0.449
REMARK UNBOUND:                -0.870
REMARK SMILES O=C(Nc1cncc(OC[C@H]2CC[N@@H+](Cc3ccccc3)CC2)c1)c1cc[nH]c2nccc1-2
REMARK SMILES IDX 9 1 8 2 4 3 5 4 24 5 6 6 7 7 3 8 2 9 1 10 25 12 28 13 27 14
REMARK SMILES IDX 29 15 26 16 30 17 33 18 31 19 32 20 10 22 11 23 12 24 23 25
REMARK SMILES IDX 13 26 22 27 14 28 15 30 16 31 17 32 21 33 18 34 20 35 19 36
REMARK H PARENT 3 11 28 21 14 29
ROOT
ATOM      1  O   UNL     1      12.357 -52.968 -24.303  1.00  0.00    -0.492 OA
ENDROOT
BRANCH   1   2
ATOM      2  C   UNL     1      11.441 -53.524 -23.448  1.00  0.00     0.139 A 
ATOM      3  C   UNL     1      10.069 -55.471 -22.971  1.00  0.00     0.063 A 
ATOM      4  C   UNL     1       9.600 -54.791 -21.853  1.00  0.00     0.137 A 
ATOM      5  C   UNL     1      11.010 -54.812 -23.771  1.00  0.00     0.075 A 
ATOM      6  N   UNL     1      10.002 -53.543 -21.508  1.00  0.00    -0.259 NA
ATOM      7  C   UNL     1      10.906 -52.940 -22.307  1.00  0.00     0.157 A 
BRANCH   3   8
ATOM      8  N   UNL     1       9.650 -56.757 -23.368  1.00  0.00    -0.320 N 
ATOM      9  C   UNL     1      10.012 -57.956 -22.785  1.00  0.00     0.256 C 
ATOM     10  O   UNL     1      10.834 -58.118 -21.893  1.00  0.00    -0.269 OA
ATOM     11  H   UNL     1       9.027 -56.812 -24.164  1.00  0.00     0.170 HD
BRANCH   9  12
ATOM     12  C   UNL     1       9.331 -59.127 -23.402  1.00  0.00     0.052 A 
ATOM     13  N   UNL     1       8.139 -61.339 -24.637  1.00  0.00    -0.346 N 
ATOM     14  C   UNL     1       9.510 -61.216 -24.644  1.00  0.00     0.085 A 
ATOM     15  C   UNL     1       7.362 -60.421 -23.986  1.00  0.00     0.138 A 
ATOM     16  C   UNL     1      10.126 -60.169 -24.063  1.00  0.00     0.032 A 
ATOM     17  N   UNL     1       6.062 -60.388 -23.840  1.00  0.00    -0.239 NA
ATOM     18  C   UNL     1       7.996 -59.244 -23.321  1.00  0.00     0.032 A 
ATOM     19  C   UNL     1       5.816 -59.250 -23.084  1.00  0.00     0.114 A 
ATOM     20  C   UNL     1       6.900 -58.532 -22.751  1.00  0.00     0.033 A 
ATOM     21  H   UNL     1       7.702 -62.166 -25.025  1.00  0.00     0.167 HD
ENDBRANCH   9  12
ENDBRANCH   3   8
ENDBRANCH   1   2
BRANCH   1  22
ATOM     22  C   UNL     1      12.548 -51.560 -24.185  1.00  0.00     0.233 C 
BRANCH  22  23
ATOM     23  C   UNL     1      13.969 -51.166 -24.634  1.00  0.00     0.038 C 
ATOM     24  C   UNL     1      14.785 -50.502 -23.513  1.00  0.00     0.069 C 
ATOM     25  C   UNL     1      13.973 -50.292 -25.897  1.00  0.00     0.069 C 
ATOM     26  C   UNL     1      14.476 -49.026 -23.290  1.00  0.00     0.262 C 
ATOM     27  C   UNL     1      13.662 -48.822 -25.647  1.00  0.00     0.262 C 
ATOM     28  N   UNL     1      14.595 -48.278 -24.596  1.00  0.00    -0.331 N 
ATOM     29  H   UNL     1      15.559 -48.409 -24.930  1.00  0.00     0.348 HD
BRANCH  28  30
ATOM     30  C   UNL     1      14.416 -46.781 -24.431  1.00  0.00     0.299 C 
BRANCH  30  31
ATOM     31  C   UNL     1      13.129 -46.408 -23.746  1.00  0.00     0.006 A 
ATOM     32  C   UNL     1      11.980 -46.120 -24.498  1.00  0.00     0.009 A 
ATOM     33  C   UNL     1      13.054 -46.361 -22.344  1.00  0.00     0.009 A 
ATOM     34  C   UNL     1      10.780 -45.804 -23.861  1.00  0.00     0.001 A 
ATOM     35  C   UNL     1      11.851 -46.047 -21.712  1.00  0.00     0.001 A 
ATOM     36  C   UNL     1      10.715 -45.772 -22.469  1.00  0.00     0.000 A 
ENDBRANCH  30  31
ENDBRANCH  28  30
ENDBRANCH  22  23
ENDBRANCH   1  22
TORSDOF 7
ENDMDL
