MODEL 1
REMARK VINA RESULT:   -11.674      0.000      0.000
REMARK INTER + INTRA:         -16.682
REMARK INTER:                 -15.768
REMARK INTRA:                  -0.914
REMARK UNBOUND:                -0.914
REMARK SMILES O=C(NCCCNc1c2c(nc3ccccc13)CCCC2)c1ccc(F)cc1
REMARK SMILES IDX 4 1 3 2 2 3 1 4 22 6 23 7 28 8 24 9 27 10 25 11 26 12 5 13
REMARK SMILES IDX 6 14 7 15 8 17 9 18 17 19 10 20 21 21 16 22 12 23 11 24
REMARK SMILES IDX 18 25 20 26 15 27 13 28 19 29 14 30
REMARK H PARENT 3 5 7 16
ROOT
ATOM      1  C   UNL     1      10.067 -58.004 -22.930  1.00  0.00     0.118 C 
ENDROOT
BRANCH   1   2
ATOM      2  N   UNL     1      10.790 -56.841 -23.467  1.00  0.00    -0.352 N 
ATOM      3  C   UNL     1      10.597 -55.491 -23.146  1.00  0.00     0.251 C 
ATOM      4  O   UNL     1       9.693 -55.210 -22.287  1.00  0.00    -0.269 OA
ATOM      5  H   UNL     1      11.544 -56.999 -24.176  1.00  0.00     0.163 HD
BRANCH   3   6
ATOM      6  C   UNL     1      11.353 -54.408 -23.725  1.00  0.00     0.040 A 
ATOM      7  C   UNL     1      12.075 -54.464 -24.878  1.00  0.00     0.017 A 
ATOM      8  C   UNL     1      11.395 -53.166 -23.105  1.00  0.00     0.017 A 
ATOM      9  C   UNL     1      12.800 -53.435 -25.434  1.00  0.00     0.040 A 
ATOM     10  C   UNL     1      12.100 -52.086 -23.604  1.00  0.00     0.040 A 
ATOM     11  C   UNL     1      12.810 -52.207 -24.774  1.00  0.00     0.123 A 
ATOM     12  F   UNL     1      13.499 -51.169 -25.272  1.00  0.00    -0.207 F 
ENDBRANCH   3   6
ENDBRANCH   1   2
BRANCH   1  13
ATOM     13  C   UNL     1      10.987 -58.741 -21.993  1.00  0.00     0.042 C 
BRANCH  13  14
ATOM     14  C   UNL     1      12.153 -59.327 -22.714  1.00  0.00     0.115 C 
BRANCH  14  15
ATOM     15  N   UNL     1      11.932 -60.495 -23.497  1.00  0.00    -0.384 N 
ATOM     16  H   UNL     1      12.461 -61.393 -23.336  1.00  0.00     0.160 HD
BRANCH  15  17
ATOM     17  C   UNL     1      11.094 -60.840 -24.571  1.00  0.00     0.049 A 
ATOM     18  C   UNL     1      11.034 -60.455 -25.900  1.00  0.00    -0.003 A 
ATOM     19  C   UNL     1      10.141 -61.787 -24.160  1.00  0.00     0.024 A 
ATOM     20  C   UNL     1      10.095 -61.001 -26.712  1.00  0.00     0.046 A 
ATOM     21  C   UNL     1      12.029 -59.519 -26.308  1.00  0.00     0.039 C 
ATOM     22  C   UNL     1      10.035 -62.293 -22.881  1.00  0.00     0.012 A 
ATOM     23  C   UNL     1       9.183 -62.318 -25.037  1.00  0.00     0.073 A 
ATOM     24  N   UNL     1       9.153 -61.918 -26.351  1.00  0.00    -0.252 NA
ATOM     25  C   UNL     1      10.240 -60.789 -28.122  1.00  0.00     0.056 C 
ATOM     26  C   UNL     1      11.814 -58.964 -27.725  1.00  0.00     0.005 C 
ATOM     27  C   UNL     1       9.125 -63.216 -22.423  1.00  0.00     0.001 A 
ATOM     28  C   UNL     1       8.241 -63.245 -24.649  1.00  0.00     0.029 A 
ATOM     29  C   UNL     1      11.552 -60.161 -28.619  1.00  0.00     0.007 C 
ATOM     30  C   UNL     1       8.220 -63.688 -23.345  1.00  0.00     0.002 A 
ENDBRANCH  15  17
ENDBRANCH  14  15
ENDBRANCH  13  14
ENDBRANCH   1  13
TORSDOF 6
ENDMDL
MODEL 2
REMARK VINA RESULT:   -11.449      1.271      3.771
REMARK INTER + INTRA:         -16.378
REMARK INTER:                 -15.535
REMARK INTRA:                  -0.844
REMARK UNBOUND:                -0.914
REMARK SMILES O=C(NCCCNc1c2c(nc3ccccc13)CCCC2)c1ccc(F)cc1
REMARK SMILES IDX 4 1 3 2 2 3 1 4 22 6 23 7 28 8 24 9 27 10 25 11 26 12 5 13
REMARK SMILES IDX 6 14 7 15 8 17 9 18 17 19 10 20 21 21 16 22 12 23 11 24
REMARK SMILES IDX 18 25 20 26 15 27 13 28 19 29 14 30
REMARK H PARENT 3 5 7 16
ROOT
ATOM      1  C   UNL     1       9.771 -58.336 -23.053  1.00  0.00     0.118 C 
ENDROOT
BRANCH   1   2
ATOM      2  N   UNL     1       9.969 -56.922 -22.699  1.00  0.00    -0.352 N 
ATOM      3  C   UNL     1      10.918 -56.034 -23.222  1.00  0.00     0.251 C 
ATOM      4  O   UNL     1      11.718 -56.481 -24.114  1.00  0.00    -0.269 OA
ATOM      5  H   UNL     1       9.348 -56.491 -21.974  1.00  0.00     0.163 HD
BRANCH   3   6
ATOM      6  C   UNL     1      11.045 -54.657 -22.815  1.00  0.00     0.040 A 
ATOM      7  C   UNL     1      10.677 -54.143 -21.609  1.00  0.00     0.017 A 
ATOM      8  C   UNL     1      11.581 -53.711 -23.680  1.00  0.00     0.017 A 
ATOM      9  C   UNL     1      10.794 -52.829 -21.215  1.00  0.00     0.040 A 
ATOM     10  C   UNL     1      11.730 -52.375 -23.355  1.00  0.00     0.040 A 
ATOM     11  C   UNL     1      11.339 -51.919 -22.119  1.00  0.00     0.123 A 
ATOM     12  F   UNL     1      11.477 -50.625 -21.788  1.00  0.00    -0.207 F 
ENDBRANCH   3   6
ENDBRANCH   1   2
BRANCH   1  13
ATOM     13  C   UNL     1      10.465 -59.183 -22.019  1.00  0.00     0.042 C 
BRANCH  13  14
ATOM     14  C   UNL     1      11.762 -59.716 -22.524  1.00  0.00     0.115 C 
BRANCH  14  15
ATOM     15  N   UNL     1      11.722 -60.790 -23.456  1.00  0.00    -0.384 N 
ATOM     16  H   UNL     1      12.543 -61.432 -23.617  1.00  0.00     0.160 HD
BRANCH  15  17
ATOM     17  C   UNL     1      10.767 -61.313 -24.346  1.00  0.00     0.049 A 
ATOM     18  C   UNL     1       9.711 -62.196 -24.204  1.00  0.00    -0.003 A 
ATOM     19  C   UNL     1      10.962 -60.786 -25.634  1.00  0.00     0.024 A 
ATOM     20  C   UNL     1       8.937 -62.491 -25.279  1.00  0.00     0.046 A 
ATOM     21  C   UNL     1       9.507 -62.695 -22.884  1.00  0.00     0.039 C 
ATOM     22  C   UNL     1      11.959 -59.896 -25.978  1.00  0.00     0.012 A 
ATOM     23  C   UNL     1      10.140 -61.128 -26.717  1.00  0.00     0.073 A 
ATOM     24  N   UNL     1       9.096 -62.004 -26.542  1.00  0.00    -0.252 NA
ATOM     25  C   UNL     1       7.706 -63.182 -25.034  1.00  0.00     0.056 C 
ATOM     26  C   UNL     1       8.461 -63.817 -22.800  1.00  0.00     0.005 C 
ATOM     27  C   UNL     1      12.197 -59.351 -27.217  1.00  0.00     0.001 A 
ATOM     28  C   UNL     1      10.318 -60.622 -27.986  1.00  0.00     0.029 A 
ATOM     29  C   UNL     1       7.249 -63.334 -23.575  1.00  0.00     0.007 C 
ATOM     30  C   UNL     1      11.346 -59.737 -28.226  1.00  0.00     0.002 A 
ENDBRANCH  15  17
ENDBRANCH  14  15
ENDBRANCH  13  14
ENDBRANCH   1  13
TORSDOF 6
ENDMDL
MODEL 3
REMARK VINA RESULT:   -11.404      1.151      1.572
REMARK INTER + INTRA:         -16.318
REMARK INTER:                 -15.463
REMARK INTRA:                  -0.855
REMARK UNBOUND:                -0.914
REMARK SMILES O=C(NCCCNc1c2c(nc3ccccc13)CCCC2)c1ccc(F)cc1
REMARK SMILES IDX 4 1 3 2 2 3 1 4 22 6 23 7 28 8 24 9 27 10 25 11 26 12 5 13
REMARK SMILES IDX 6 14 7 15 8 17 9 18 17 19 10 20 21 21 16 22 12 23 11 24
REMARK SMILES IDX 18 25 20 26 15 27 13 28 19 29 14 30
REMARK H PARENT 3 5 7 16
ROOT
ATOM      1  C   UNL     1      10.110 -57.901 -23.021  1.00  0.00     0.118 C 
ENDROOT
BRANCH   1   2
ATOM      2  N   UNL     1      10.183 -56.455 -22.757  1.00  0.00    -0.352 N 
ATOM      3  C   UNL     1      10.968 -55.504 -23.422  1.00  0.00     0.251 C 
ATOM      4  O   UNL     1      11.718 -55.914 -24.373  1.00  0.00    -0.269 OA
ATOM      5  H   UNL     1       9.595 -56.051 -21.991  1.00  0.00     0.163 HD
BRANCH   3   6
ATOM      6  C   UNL     1      10.981 -54.099 -23.096  1.00  0.00     0.040 A 
ATOM      7  C   UNL     1      10.134 -53.471 -22.234  1.00  0.00     0.017 A 
ATOM      8  C   UNL     1      11.913 -53.248 -23.677  1.00  0.00     0.017 A 
ATOM      9  C   UNL     1      10.141 -52.130 -21.921  1.00  0.00     0.040 A 
ATOM     10  C   UNL     1      11.980 -51.893 -23.410  1.00  0.00     0.040 A 
ATOM     11  C   UNL     1      11.096 -51.318 -22.530  1.00  0.00     0.123 A 
ATOM     12  F   UNL     1      11.149 -50.004 -22.260  1.00  0.00    -0.207 F 
ENDBRANCH   3   6
ENDBRANCH   1   2
BRANCH   1  13
ATOM     13  C   UNL     1      11.032 -58.603 -22.060  1.00  0.00     0.042 C 
BRANCH  13  14
ATOM     14  C   UNL     1      12.197 -59.215 -22.762  1.00  0.00     0.115 C 
BRANCH  14  15
ATOM     15  N   UNL     1      11.972 -60.407 -23.508  1.00  0.00    -0.384 N 
ATOM     16  H   UNL     1      12.494 -61.303 -23.315  1.00  0.00     0.160 HD
BRANCH  15  17
ATOM     17  C   UNL     1      11.137 -60.782 -24.574  1.00  0.00     0.049 A 
ATOM     18  C   UNL     1      11.069 -60.421 -25.909  1.00  0.00    -0.003 A 
ATOM     19  C   UNL     1      10.198 -61.735 -24.144  1.00  0.00     0.024 A 
ATOM     20  C   UNL     1      10.137 -60.995 -26.710  1.00  0.00     0.046 A 
ATOM     21  C   UNL     1      12.051 -59.479 -26.335  1.00  0.00     0.039 C 
ATOM     22  C   UNL     1      10.101 -62.220 -22.856  1.00  0.00     0.012 A 
ATOM     23  C   UNL     1       9.246 -62.294 -25.010  1.00  0.00     0.073 A 
ATOM     24  N   UNL     1       9.208 -61.918 -26.330  1.00  0.00    -0.252 NA
ATOM     25  C   UNL     1      10.276 -60.804 -28.124  1.00  0.00     0.056 C 
ATOM     26  C   UNL     1      11.826 -58.952 -27.761  1.00  0.00     0.005 C 
ATOM     27  C   UNL     1       9.205 -63.148 -22.381  1.00  0.00     0.001 A 
ATOM     28  C   UNL     1       8.317 -63.228 -24.604  1.00  0.00     0.029 A 
ATOM     29  C   UNL     1      11.579 -60.168 -28.634  1.00  0.00     0.007 C 
ATOM     30  C   UNL     1       8.304 -63.648 -23.293  1.00  0.00     0.002 A 
ENDBRANCH  15  17
ENDBRANCH  14  15
ENDBRANCH  13  14
ENDBRANCH   1  13
TORSDOF 6
ENDMDL
MODEL 4
REMARK VINA RESULT:   -10.784      4.304     10.662
REMARK INTER + INTRA:         -15.480
REMARK INTER:                 -14.913
REMARK INTRA:                  -0.567
REMARK UNBOUND:                -0.914
REMARK SMILES O=C(NCCCNc1c2c(nc3ccccc13)CCCC2)c1ccc(F)cc1
REMARK SMILES IDX 4 1 3 2 2 3 1 4 22 6 23 7 28 8 24 9 27 10 25 11 26 12 5 13
REMARK SMILES IDX 6 14 7 15 8 17 9 18 17 19 10 20 21 21 16 22 12 23 11 24
REMARK SMILES IDX 18 25 20 26 15 27 13 28 19 29 14 30
REMARK H PARENT 3 5 7 16
ROOT
ATOM      1  C   UNL     1      10.338 -53.283 -22.858  1.00  0.00     0.118 C 
ENDROOT
BRANCH   1   2
ATOM      2  N   UNL     1      10.198 -54.689 -22.445  1.00  0.00    -0.352 N 
ATOM      3  C   UNL     1      10.754 -55.820 -23.058  1.00  0.00     0.251 C 
ATOM      4  O   UNL     1      11.472 -55.636 -24.099  1.00  0.00    -0.269 OA
ATOM      5  H   UNL     1       9.622 -54.911 -21.600  1.00  0.00     0.163 HD
BRANCH   3   6
ATOM      6  C   UNL     1      10.563 -57.168 -22.586  1.00  0.00     0.040 A 
ATOM      7  C   UNL     1       9.701 -58.084 -23.109  1.00  0.00     0.017 A 
ATOM      8  C   UNL     1      11.288 -57.646 -21.502  1.00  0.00     0.017 A 
ATOM      9  C   UNL     1       9.513 -59.372 -22.661  1.00  0.00     0.040 A 
ATOM     10  C   UNL     1      11.154 -58.927 -20.997  1.00  0.00     0.040 A 
ATOM     11  C   UNL     1      10.266 -59.805 -21.570  1.00  0.00     0.123 A 
ATOM     12  F   UNL     1      10.124 -61.051 -21.093  1.00  0.00    -0.207 F 
ENDBRANCH   3   6
ENDBRANCH   1   2
BRANCH   1  13
ATOM     13  C   UNL     1      10.645 -52.461 -21.635  1.00  0.00     0.042 C 
BRANCH  13  14
ATOM     14  C   UNL     1      10.256 -51.033 -21.819  1.00  0.00     0.115 C 
BRANCH  14  15
ATOM     15  N   UNL     1      11.296 -50.079 -22.002  1.00  0.00    -0.384 N 
ATOM     16  H   UNL     1      11.775 -49.600 -21.194  1.00  0.00     0.160 HD
BRANCH  15  17
ATOM     17  C   UNL     1      11.959 -49.516 -23.107  1.00  0.00     0.049 A 
ATOM     18  C   UNL     1      12.840 -50.017 -24.049  1.00  0.00    -0.003 A 
ATOM     19  C   UNL     1      11.610 -48.162 -23.246  1.00  0.00     0.024 A 
ATOM     20  C   UNL     1      13.300 -49.204 -25.033  1.00  0.00     0.046 A 
ATOM     21  C   UNL     1      13.158 -51.400 -23.912  1.00  0.00     0.039 C 
ATOM     22  C   UNL     1      10.752 -47.480 -22.409  1.00  0.00     0.012 A 
ATOM     23  C   UNL     1      12.119 -47.358 -24.278  1.00  0.00     0.073 A 
ATOM     24  N   UNL     1      12.988 -47.887 -25.200  1.00  0.00    -0.252 NA
ATOM     25  C   UNL     1      13.982 -49.821 -26.133  1.00  0.00     0.056 C 
ATOM     26  C   UNL     1      14.283 -51.874 -24.845  1.00  0.00     0.005 C 
ATOM     27  C   UNL     1      10.376 -46.160 -22.497  1.00  0.00     0.001 A 
ATOM     28  C   UNL     1      11.788 -46.030 -24.428  1.00  0.00     0.029 A 
ATOM     29  C   UNL     1      13.942 -51.354 -26.228  1.00  0.00     0.007 C 
ATOM     30  C   UNL     1      10.919 -45.441 -23.536  1.00  0.00     0.002 A 
ENDBRANCH  15  17
ENDBRANCH  14  15
ENDBRANCH  13  14
ENDBRANCH   1  13
TORSDOF 6
ENDMDL
MODEL 5
REMARK VINA RESULT:   -10.353      4.402     10.804
REMARK INTER + INTRA:         -14.898
REMARK INTER:                 -14.288
REMARK INTRA:                  -0.610
REMARK UNBOUND:                -0.914
REMARK SMILES O=C(NCCCNc1c2c(nc3ccccc13)CCCC2)c1ccc(F)cc1
REMARK SMILES IDX 4 1 3 2 2 3 1 4 22 6 23 7 28 8 24 9 27 10 25 11 26 12 5 13
REMARK SMILES IDX 6 14 7 15 8 17 9 18 17 19 10 20 21 21 16 22 12 23 11 24
REMARK SMILES IDX 18 25 20 26 15 27 13 28 19 29 14 30
REMARK H PARENT 3 5 7 16
ROOT
ATOM      1  C   UNL     1       9.814 -53.051 -22.719  1.00  0.00     0.118 C 
ENDROOT
BRANCH   1   2
ATOM      2  N   UNL     1       9.850 -54.471 -22.334  1.00  0.00    -0.352 N 
ATOM      3  C   UNL     1      10.541 -55.512 -22.970  1.00  0.00     0.251 C 
ATOM      4  O   UNL     1      11.227 -55.219 -24.008  1.00  0.00    -0.269 OA
ATOM      5  H   UNL     1       9.309 -54.780 -21.494  1.00  0.00     0.163 HD
BRANCH   3   6
ATOM      6  C   UNL     1      10.520 -56.883 -22.526  1.00  0.00     0.040 A 
ATOM      7  C   UNL     1      11.322 -57.425 -21.568  1.00  0.00     0.017 A 
ATOM      8  C   UNL     1       9.628 -57.791 -23.081  1.00  0.00     0.017 A 
ATOM      9  C   UNL     1      11.307 -58.734 -21.141  1.00  0.00     0.040 A 
ATOM     10  C   UNL     1       9.555 -59.119 -22.702  1.00  0.00     0.040 A 
ATOM     11  C   UNL     1      10.393 -59.606 -21.728  1.00  0.00     0.123 A 
ATOM     12  F   UNL     1      10.335 -60.893 -21.350  1.00  0.00    -0.207 F 
ENDBRANCH   3   6
ENDBRANCH   1   2
BRANCH   1  13
ATOM     13  C   UNL     1      10.473 -52.250 -21.628  1.00  0.00     0.042 C 
BRANCH  13  14
ATOM     14  C   UNL     1      10.311 -50.784 -21.845  1.00  0.00     0.115 C 
BRANCH  14  15
ATOM     15  N   UNL     1      11.480 -50.017 -22.110  1.00  0.00    -0.384 N 
ATOM     16  H   UNL     1      12.321 -50.028 -21.474  1.00  0.00     0.160 HD
BRANCH  15  17
ATOM     17  C   UNL     1      11.890 -49.128 -23.119  1.00  0.00     0.049 A 
ATOM     18  C   UNL     1      11.681 -47.779 -23.348  1.00  0.00    -0.003 A 
ATOM     19  C   UNL     1      12.691 -49.797 -24.061  1.00  0.00     0.024 A 
ATOM     20  C   UNL     1      12.247 -47.189 -24.430  1.00  0.00     0.046 A 
ATOM     21  C   UNL     1      10.895 -47.109 -22.364  1.00  0.00     0.039 C 
ATOM     22  C   UNL     1      13.012 -51.137 -24.011  1.00  0.00     0.012 A 
ATOM     23  C   UNL     1      13.248 -49.143 -25.170  1.00  0.00     0.073 A 
ATOM     24  N   UNL     1      13.025 -47.802 -25.366  1.00  0.00    -0.252 NA
ATOM     25  C   UNL     1      12.235 -45.756 -24.480  1.00  0.00     0.056 C 
ATOM     26  C   UNL     1      10.516 -45.671 -22.748  1.00  0.00     0.005 C 
ATOM     27  C   UNL     1      13.786 -51.842 -24.902  1.00  0.00     0.001 A 
ATOM     28  C   UNL     1      14.033 -49.784 -26.104  1.00  0.00     0.029 A 
ATOM     29  C   UNL     1      11.793 -45.000 -23.217  1.00  0.00     0.007 C 
ATOM     30  C   UNL     1      14.296 -51.129 -25.962  1.00  0.00     0.002 A 
ENDBRANCH  15  17
ENDBRANCH  14  15
ENDBRANCH  13  14
ENDBRANCH   1  13
TORSDOF 6
ENDMDL
MODEL 6
REMARK VINA RESULT:    -9.778      1.615      2.470
REMARK INTER + INTRA:         -14.122
REMARK INTER:                 -13.470
REMARK INTRA:                  -0.652
REMARK UNBOUND:                -0.914
REMARK SMILES O=C(NCCCNc1c2c(nc3ccccc13)CCCC2)c1ccc(F)cc1
REMARK SMILES IDX 4 1 3 2 2 3 1 4 22 6 23 7 28 8 24 9 27 10 25 11 26 12 5 13
REMARK SMILES IDX 6 14 7 15 8 17 9 18 17 19 10 20 21 21 16 22 12 23 11 24
REMARK SMILES IDX 18 25 20 26 15 27 13 28 19 29 14 30
REMARK H PARENT 3 5 7 16
ROOT
ATOM      1  C   UNL     1      11.584 -59.293 -22.687  1.00  0.00     0.118 C 
ENDROOT
BRANCH   1   2
ATOM      2  N   UNL     1      11.659 -57.829 -22.563  1.00  0.00    -0.352 N 
ATOM      3  C   UNL     1      10.685 -56.889 -22.924  1.00  0.00     0.251 C 
ATOM      4  O   UNL     1       9.594 -57.330 -23.423  1.00  0.00    -0.269 OA
ATOM      5  H   UNL     1      12.526 -57.400 -22.162  1.00  0.00     0.163 HD
BRANCH   3   6
ATOM      6  C   UNL     1      10.842 -55.464 -22.770  1.00  0.00     0.040 A 
ATOM      7  C   UNL     1      10.490 -54.735 -21.675  1.00  0.00     0.017 A 
ATOM      8  C   UNL     1      11.395 -54.700 -23.790  1.00  0.00     0.017 A 
ATOM      9  C   UNL     1      10.637 -53.375 -21.522  1.00  0.00     0.040 A 
ATOM     10  C   UNL     1      11.574 -53.331 -23.708  1.00  0.00     0.040 A 
ATOM     11  C   UNL     1      11.198 -52.653 -22.574  1.00  0.00     0.123 A 
ATOM     12  F   UNL     1      11.364 -51.324 -22.479  1.00  0.00    -0.207 F 
ENDBRANCH   3   6
ENDBRANCH   1   2
BRANCH   1  13
ATOM     13  C   UNL     1      12.646 -59.739 -23.656  1.00  0.00     0.042 C 
BRANCH  13  14
ATOM     14  C   UNL     1      12.094 -60.654 -24.697  1.00  0.00     0.115 C 
BRANCH  14  15
ATOM     15  N   UNL     1      10.685 -60.656 -24.900  1.00  0.00    -0.384 N 
ATOM     16  H   UNL     1      10.083 -59.813 -24.704  1.00  0.00     0.160 HD
BRANCH  15  17
ATOM     17  C   UNL     1       9.738 -61.591 -25.352  1.00  0.00     0.049 A 
ATOM     18  C   UNL     1       9.280 -61.959 -26.605  1.00  0.00    -0.003 A 
ATOM     19  C   UNL     1       9.176 -62.280 -24.263  1.00  0.00     0.024 A 
ATOM     20  C   UNL     1       8.349 -62.939 -26.716  1.00  0.00     0.046 A 
ATOM     21  C   UNL     1       9.885 -61.273 -27.700  1.00  0.00     0.039 C 
ATOM     22  C   UNL     1       9.498 -62.058 -22.940  1.00  0.00     0.012 A 
ATOM     23  C   UNL     1       8.208 -63.282 -24.428  1.00  0.00     0.073 A 
ATOM     24  N   UNL     1       7.778 -63.627 -25.686  1.00  0.00    -0.252 NA
ATOM     25  C   UNL     1       8.107 -63.474 -28.024  1.00  0.00     0.056 C 
ATOM     26  C   UNL     1       9.217 -61.558 -29.054  1.00  0.00     0.005 C 
ATOM     27  C   UNL     1       8.981 -62.698 -21.839  1.00  0.00     0.001 A 
ATOM     28  C   UNL     1       7.647 -63.966 -23.372  1.00  0.00     0.029 A 
ATOM     29  C   UNL     1       9.068 -63.064 -29.152  1.00  0.00     0.007 C 
ATOM     30  C   UNL     1       8.038 -63.668 -22.085  1.00  0.00     0.002 A 
ENDBRANCH  15  17
ENDBRANCH  14  15
ENDBRANCH  13  14
ENDBRANCH   1  13
TORSDOF 6
ENDMDL
MODEL 7
REMARK VINA RESULT:    -9.525      6.661      9.972
REMARK INTER + INTRA:         -13.780
REMARK INTER:                 -11.449
REMARK INTRA:                  -2.330
REMARK UNBOUND:                -0.914
REMARK SMILES O=C(NCCCNc1c2c(nc3ccccc13)CCCC2)c1ccc(F)cc1
REMARK SMILES IDX 4 1 3 2 2 3 1 4 22 6 23 7 28 8 24 9 27 10 25 11 26 12 5 13
REMARK SMILES IDX 6 14 7 15 8 17 9 18 17 19 10 20 21 21 16 22 12 23 11 24
REMARK SMILES IDX 18 25 20 26 15 27 13 28 19 29 14 30
REMARK H PARENT 3 5 7 16
ROOT
ATOM      1  C   UNL     1      14.718 -47.395 -21.578  1.00  0.00     0.118 C 
ENDROOT
BRANCH   1   2
ATOM      2  N   UNL     1      15.178 -48.431 -22.516  1.00  0.00    -0.352 N 
ATOM      3  C   UNL     1      16.348 -49.198 -22.437  1.00  0.00     0.251 C 
ATOM      4  O   UNL     1      17.125 -48.991 -21.443  1.00  0.00    -0.269 OA
ATOM      5  H   UNL     1      14.589 -48.651 -23.353  1.00  0.00     0.163 HD
BRANCH   3   6
ATOM      6  C   UNL     1      16.725 -50.196 -23.406  1.00  0.00     0.040 A 
ATOM      7  C   UNL     1      17.480 -49.985 -24.520  1.00  0.00     0.017 A 
ATOM      8  C   UNL     1      16.315 -51.515 -23.257  1.00  0.00     0.017 A 
ATOM      9  C   UNL     1      17.841 -50.934 -25.449  1.00  0.00     0.040 A 
ATOM     10  C   UNL     1      16.639 -52.522 -24.148  1.00  0.00     0.040 A 
ATOM     11  C   UNL     1      17.405 -52.244 -25.254  1.00  0.00     0.123 A 
ATOM     12  F   UNL     1      17.728 -53.210 -26.128  1.00  0.00    -0.207 F 
ENDBRANCH   3   6
ENDBRANCH   1   2
BRANCH   1  13
ATOM     13  C   UNL     1      13.230 -47.235 -21.743  1.00  0.00     0.042 C 
BRANCH  13  14
ATOM     14  C   UNL     1      12.512 -48.526 -21.541  1.00  0.00     0.115 C 
BRANCH  14  15
ATOM     15  N   UNL     1      11.991 -49.183 -22.691  1.00  0.00    -0.384 N 
ATOM     16  H   UNL     1      11.322 -48.714 -23.358  1.00  0.00     0.160 HD
BRANCH  15  17
ATOM     17  C   UNL     1      12.135 -50.455 -23.271  1.00  0.00     0.049 A 
ATOM     18  C   UNL     1      11.697 -51.721 -22.922  1.00  0.00    -0.003 A 
ATOM     19  C   UNL     1      12.877 -50.366 -24.462  1.00  0.00     0.024 A 
ATOM     20  C   UNL     1      11.989 -52.775 -23.725  1.00  0.00     0.046 A 
ATOM     21  C   UNL     1      10.918 -51.788 -21.730  1.00  0.00     0.039 C 
ATOM     22  C   UNL     1      13.401 -49.198 -24.976  1.00  0.00     0.012 A 
ATOM     23  C   UNL     1      13.160 -51.487 -25.255  1.00  0.00     0.073 A 
ATOM     24  N   UNL     1      12.707 -52.729 -24.883  1.00  0.00    -0.252 NA
ATOM     25  C   UNL     1      11.294 -54.004 -23.478  1.00  0.00     0.056 C 
ATOM     26  C   UNL     1      10.619 -53.222 -21.265  1.00  0.00     0.005 C 
ATOM     27  C   UNL     1      14.133 -49.052 -26.131  1.00  0.00     0.001 A 
ATOM     28  C   UNL     1      13.887 -51.417 -26.423  1.00  0.00     0.029 A 
ATOM     29  C   UNL     1      10.122 -53.974 -22.484  1.00  0.00     0.007 C 
ATOM     30  C   UNL     1      14.368 -50.200 -26.852  1.00  0.00     0.002 A 
ENDBRANCH  15  17
ENDBRANCH  14  15
ENDBRANCH  13  14
ENDBRANCH   1  13
TORSDOF 6
ENDMDL
MODEL 8
REMARK VINA RESULT:    -8.826      4.593     11.086
REMARK INTER + INTRA:         -12.836
REMARK INTER:                 -12.085
REMARK INTRA:                  -0.750
REMARK UNBOUND:                -0.914
REMARK SMILES O=C(NCCCNc1c2c(nc3ccccc13)CCCC2)c1ccc(F)cc1
REMARK SMILES IDX 4 1 3 2 2 3 1 4 22 6 23 7 28 8 24 9 27 10 25 11 26 12 5 13
REMARK SMILES IDX 6 14 7 15 8 17 9 18 17 19 10 20 21 21 16 22 12 23 11 24
REMARK SMILES IDX 18 25 20 26 15 27 13 28 19 29 14 30
REMARK H PARENT 3 5 7 16
ROOT
ATOM      1  C   UNL     1      10.802 -52.682 -22.395  1.00  0.00     0.118 C 
ENDROOT
BRANCH   1   2
ATOM      2  N   UNL     1      10.808 -54.113 -22.049  1.00  0.00    -0.352 N 
ATOM      3  C   UNL     1      10.535 -55.198 -22.892  1.00  0.00     0.251 C 
ATOM      4  O   UNL     1      10.244 -54.943 -24.110  1.00  0.00    -0.269 OA
ATOM      5  H   UNL     1      11.038 -54.393 -21.067  1.00  0.00     0.163 HD
BRANCH   3   6
ATOM      6  C   UNL     1      10.561 -56.576 -22.467  1.00  0.00     0.040 A 
ATOM      7  C   UNL     1      11.317 -57.086 -21.456  1.00  0.00     0.017 A 
ATOM      8  C   UNL     1       9.770 -57.525 -23.101  1.00  0.00     0.017 A 
ATOM      9  C   UNL     1      11.348 -58.400 -21.047  1.00  0.00     0.040 A 
ATOM     10  C   UNL     1       9.747 -58.861 -22.746  1.00  0.00     0.040 A 
ATOM     11  C   UNL     1      10.535 -59.315 -21.715  1.00  0.00     0.123 A 
ATOM     12  F   UNL     1      10.524 -60.608 -21.358  1.00  0.00    -0.207 F 
ENDBRANCH   3   6
ENDBRANCH   1   2
BRANCH   1  13
ATOM     13  C   UNL     1      12.188 -52.299 -22.840  1.00  0.00     0.042 C 
BRANCH  13  14
ATOM     14  C   UNL     1      12.189 -51.741 -24.223  1.00  0.00     0.115 C 
BRANCH  14  15
ATOM     15  N   UNL     1      13.116 -50.703 -24.521  1.00  0.00    -0.384 N 
ATOM     16  H   UNL     1      13.353 -50.421 -25.510  1.00  0.00     0.160 HD
BRANCH  15  17
ATOM     17  C   UNL     1      13.914 -49.823 -23.770  1.00  0.00     0.049 A 
ATOM     18  C   UNL     1      15.128 -49.954 -23.118  1.00  0.00    -0.003 A 
ATOM     19  C   UNL     1      13.314 -48.553 -23.709  1.00  0.00     0.024 A 
ATOM     20  C   UNL     1      15.664 -48.882 -22.481  1.00  0.00     0.046 A 
ATOM     21  C   UNL     1      15.737 -51.239 -23.218  1.00  0.00     0.039 C 
ATOM     22  C   UNL     1      12.108 -48.224 -24.291  1.00  0.00     0.012 A 
ATOM     23  C   UNL     1      13.905 -47.477 -23.031  1.00  0.00     0.073 A 
ATOM     24  N   UNL     1      15.113 -47.638 -22.397  1.00  0.00    -0.252 NA
ATOM     25  C   UNL     1      17.031 -48.981 -22.061  1.00  0.00     0.056 C 
ATOM     26  C   UNL     1      16.976 -51.409 -22.323  1.00  0.00     0.005 C 
ATOM     27  C   UNL     1      11.475 -47.003 -24.262  1.00  0.00     0.001 A 
ATOM     28  C   UNL     1      13.330 -46.227 -22.960  1.00  0.00     0.029 A 
ATOM     29  C   UNL     1      17.845 -50.188 -22.556  1.00  0.00     0.007 C 
ATOM     30  C   UNL     1      12.119 -46.000 -23.577  1.00  0.00     0.002 A 
ENDBRANCH  15  17
ENDBRANCH  14  15
ENDBRANCH  13  14
ENDBRANCH   1  13
TORSDOF 6
ENDMDL
MODEL 9
REMARK VINA RESULT:    -8.717      6.485     10.222
REMARK INTER + INTRA:         -12.689
REMARK INTER:                 -11.632
REMARK INTRA:                  -1.056
REMARK UNBOUND:                -0.914
REMARK SMILES O=C(NCCCNc1c2c(nc3ccccc13)CCCC2)c1ccc(F)cc1
REMARK SMILES IDX 4 1 3 2 2 3 1 4 22 6 23 7 28 8 24 9 27 10 25 11 26 12 5 13
REMARK SMILES IDX 6 14 7 15 8 17 9 18 17 19 10 20 21 21 16 22 12 23 11 24
REMARK SMILES IDX 18 25 20 26 15 27 13 28 19 29 14 30
REMARK H PARENT 3 5 7 16
ROOT
ATOM      1  C   UNL     1      16.745 -51.411 -25.087  1.00  0.00     0.118 C 
ENDROOT
BRANCH   1   2
ATOM      2  N   UNL     1      16.352 -50.866 -26.396  1.00  0.00    -0.352 N 
ATOM      3  C   UNL     1      16.804 -49.685 -27.001  1.00  0.00     0.251 C 
ATOM      4  O   UNL     1      17.658 -48.982 -26.361  1.00  0.00    -0.269 OA
ATOM      5  H   UNL     1      15.656 -51.392 -26.974  1.00  0.00     0.163 HD
BRANCH   3   6
ATOM      6  C   UNL     1      16.363 -49.222 -28.293  1.00  0.00     0.040 A 
ATOM      7  C   UNL     1      15.186 -48.589 -28.557  1.00  0.00     0.017 A 
ATOM      8  C   UNL     1      17.158 -49.404 -29.418  1.00  0.00     0.017 A 
ATOM      9  C   UNL     1      14.759 -48.146 -29.788  1.00  0.00     0.040 A 
ATOM     10  C   UNL     1      16.797 -48.985 -30.685  1.00  0.00     0.040 A 
ATOM     11  C   UNL     1      15.594 -48.352 -30.886  1.00  0.00     0.123 A 
ATOM     12  F   UNL     1      15.228 -47.939 -32.109  1.00  0.00    -0.207 F 
ENDBRANCH   3   6
ENDBRANCH   1   2
BRANCH   1  13
ATOM     13  C   UNL     1      15.681 -52.378 -24.641  1.00  0.00     0.042 C 
BRANCH  13  14
ATOM     14  C   UNL     1      14.684 -52.637 -25.718  1.00  0.00     0.115 C 
BRANCH  14  15
ATOM     15  N   UNL     1      13.363 -52.140 -25.536  1.00  0.00    -0.384 N 
ATOM     16  H   UNL     1      12.742 -51.870 -26.345  1.00  0.00     0.160 HD
BRANCH  15  17
ATOM     17  C   UNL     1      12.535 -51.872 -24.433  1.00  0.00     0.049 A 
ATOM     18  C   UNL     1      11.737 -52.661 -23.621  1.00  0.00    -0.003 A 
ATOM     19  C   UNL     1      12.569 -50.502 -24.120  1.00  0.00     0.024 A 
ATOM     20  C   UNL     1      11.058 -52.091 -22.594  1.00  0.00     0.046 A 
ATOM     21  C   UNL     1      11.741 -54.052 -23.932  1.00  0.00     0.039 C 
ATOM     22  C   UNL     1      13.299 -49.556 -24.809  1.00  0.00     0.012 A 
ATOM     23  C   UNL     1      11.842 -49.958 -23.051  1.00  0.00     0.073 A 
ATOM     24  N   UNL     1      11.063 -50.769 -22.262  1.00  0.00    -0.252 NA
ATOM     25  C   UNL     1      10.473 -52.970 -21.624  1.00  0.00     0.056 C 
ATOM     26  C   UNL     1      10.699 -54.865 -23.147  1.00  0.00     0.005 C 
ATOM     27  C   UNL     1      13.368 -48.207 -24.549  1.00  0.00     0.001 A 
ATOM     28  C   UNL     1      11.863 -48.618 -22.732  1.00  0.00     0.029 A 
ATOM     29  C   UNL     1      10.844 -54.459 -21.693  1.00  0.00     0.007 C 
ATOM     30  C   UNL     1      12.626 -47.753 -23.484  1.00  0.00     0.002 A 
ENDBRANCH  15  17
ENDBRANCH  14  15
ENDBRANCH  13  14
ENDBRANCH   1  13
TORSDOF 6
ENDMDL
