MODEL 1
REMARK VINA RESULT:    -9.965      0.000      0.000
REMARK INTER + INTRA:         -16.544
REMARK INTER:                 -15.208
REMARK INTRA:                  -1.336
REMARK UNBOUND:                -1.336
REMARK SMILES COc1cccc(OC)c1[C@@H](C)NS(=O)(=O)NC(=O)OCc1ccccc1
REMARK SMILES IDX 13 1 11 3 12 4 10 5 3 6 4 7 5 8 7 9 6 10 2 11 1 12 8 13 9 14
REMARK SMILES IDX 14 15 15 16 16 17 17 18 18 19 19 21 20 22 21 23 22 24 23 25
REMARK SMILES IDX 27 26 24 27 26 28 25 29
REMARK H PARENT 13 2 17 20
ROOT
ATOM      1  N   UNL     1       9.628 -59.363 -24.819  1.00  0.00    -0.190 NA
ATOM      2  H   UNL     1       9.284 -59.101 -25.749  1.00  0.00     0.143 HD
ENDROOT
BRANCH   1   3
ATOM      3  C   UNL     1       9.802 -60.838 -24.762  1.00  0.00     0.106 C 
ATOM      4  C   UNL     1      11.301 -61.116 -24.600  1.00  0.00     0.031 C 
BRANCH   3   5
ATOM      5  C   UNL     1       9.266 -61.584 -25.976  1.00  0.00     0.054 A 
ATOM      6  C   UNL     1       8.435 -62.704 -25.783  1.00  0.00     0.127 A 
ATOM      7  C   UNL     1       7.960 -63.452 -26.862  1.00  0.00     0.047 A 
ATOM      8  C   UNL     1       8.281 -63.071 -28.159  1.00  0.00     0.008 A 
ATOM      9  C   UNL     1       9.591 -61.213 -27.301  1.00  0.00     0.127 A 
ATOM     10  C   UNL     1       9.090 -61.957 -28.379  1.00  0.00     0.047 A 
BRANCH   6  11
ATOM     11  O   UNL     1       8.148 -63.114 -24.504  1.00  0.00    -0.496 OA
ATOM     12  C   UNL     1       6.841 -62.681 -24.114  1.00  0.00     0.278 C 
ENDBRANCH   6  11
BRANCH   9  13
ATOM     13  O   UNL     1      10.405 -60.115 -27.442  1.00  0.00    -0.496 OA
ATOM     14  C   UNL     1      11.334 -60.117 -28.522  1.00  0.00     0.278 C 
ENDBRANCH   9  13
ENDBRANCH   3   5
ENDBRANCH   1   3
BRANCH   1  15
ATOM     15  S   UNL     1       8.654 -58.655 -23.666  1.00  0.00     0.304 S 
ATOM     16  O   UNL     1       8.415 -59.582 -22.593  1.00  0.00    -0.189 OA
ATOM     17  O   UNL     1       7.562 -58.057 -24.398  1.00  0.00    -0.189 OA
BRANCH  15  18
ATOM     18  N   UNL     1       9.617 -57.418 -23.204  1.00  0.00    -0.205 N 
ATOM     19  C   UNL     1      10.804 -57.492 -22.505  1.00  0.00     0.422 C 
ATOM     20  H   UNL     1       9.219 -56.503 -23.365  1.00  0.00     0.188 HD
ATOM     21  O   UNL     1      11.395 -58.520 -22.218  1.00  0.00    -0.223 OA
BRANCH  19  22
ATOM     22  O   UNL     1      11.245 -56.248 -22.196  1.00  0.00    -0.444 OA
BRANCH  22  23
ATOM     23  C   UNL     1      10.369 -55.206 -22.631  1.00  0.00     0.270 C 
BRANCH  23  24
ATOM     24  C   UNL     1      11.204 -54.169 -23.335  1.00  0.00    -0.011 A 
ATOM     25  C   UNL     1      11.375 -52.894 -22.777  1.00  0.00     0.007 A 
ATOM     26  C   UNL     1      11.855 -54.478 -24.538  1.00  0.00     0.007 A 
ATOM     27  C   UNL     1      12.166 -51.940 -23.422  1.00  0.00     0.000 A 
ATOM     28  C   UNL     1      12.644 -53.523 -25.180  1.00  0.00     0.000 A 
ATOM     29  C   UNL     1      12.797 -52.255 -24.624  1.00  0.00     0.000 A 
ENDBRANCH  23  24
ENDBRANCH  22  23
ENDBRANCH  19  22
ENDBRANCH  15  18
ENDBRANCH   1  15
TORSDOF 9
ENDMDL
MODEL 2
REMARK VINA RESULT:    -9.819      0.544      2.711
REMARK INTER + INTRA:         -16.321
REMARK INTER:                 -15.003
REMARK INTRA:                  -1.318
REMARK UNBOUND:                -1.336
REMARK SMILES COc1cccc(OC)c1[C@@H](C)NS(=O)(=O)NC(=O)OCc1ccccc1
REMARK SMILES IDX 13 1 11 3 12 4 10 5 3 6 4 7 5 8 7 9 6 10 2 11 1 12 8 13 9 14
REMARK SMILES IDX 14 15 15 16 16 17 17 18 18 19 19 21 20 22 21 23 22 24 23 25
REMARK SMILES IDX 27 26 24 27 26 28 25 29
REMARK H PARENT 13 2 17 20
ROOT
ATOM      1  N   UNL     1       9.756 -59.361 -24.789  1.00  0.00    -0.190 NA
ATOM      2  H   UNL     1       9.513 -59.078 -25.744  1.00  0.00     0.143 HD
ENDROOT
BRANCH   1   3
ATOM      3  C   UNL     1       9.952 -60.834 -24.753  1.00  0.00     0.106 C 
ATOM      4  C   UNL     1      11.459 -61.092 -24.644  1.00  0.00     0.031 C 
BRANCH   3   5
ATOM      5  C   UNL     1       9.386 -61.575 -25.957  1.00  0.00     0.054 A 
ATOM      6  C   UNL     1       9.700 -61.123 -27.253  1.00  0.00     0.127 A 
ATOM      7  C   UNL     1       9.164 -61.737 -28.387  1.00  0.00     0.047 A 
ATOM      8  C   UNL     1       8.328 -62.837 -28.245  1.00  0.00     0.008 A 
ATOM      9  C   UNL     1       8.527 -62.691 -25.827  1.00  0.00     0.127 A 
ATOM     10  C   UNL     1       8.013 -63.314 -26.972  1.00  0.00     0.047 A 
BRANCH   6  11
ATOM     11  O   UNL     1      10.490 -60.010 -27.401  1.00  0.00    -0.496 OA
ATOM     12  C   UNL     1      11.352 -60.148 -28.535  1.00  0.00     0.278 C 
ENDBRANCH   6  11
BRANCH   9  13
ATOM     13  O   UNL     1       8.246 -63.096 -24.544  1.00  0.00    -0.496 OA
ATOM     14  C   UNL     1       6.983 -62.731 -24.000  1.00  0.00     0.278 C 
ENDBRANCH   9  13
ENDBRANCH   3   5
ENDBRANCH   1   3
BRANCH   1  15
ATOM     15  S   UNL     1       8.644 -58.704 -23.735  1.00  0.00     0.304 S 
ATOM     16  O   UNL     1       8.394 -59.621 -22.655  1.00  0.00    -0.189 OA
ATOM     17  O   UNL     1       7.569 -58.211 -24.565  1.00  0.00    -0.189 OA
BRANCH  15  18
ATOM     18  N   UNL     1       9.471 -57.385 -23.239  1.00  0.00    -0.205 N 
ATOM     19  C   UNL     1      10.745 -57.340 -22.709  1.00  0.00     0.422 C 
ATOM     20  H   UNL     1       8.924 -56.535 -23.227  1.00  0.00     0.188 HD
ATOM     21  O   UNL     1      11.515 -58.283 -22.636  1.00  0.00    -0.223 OA
BRANCH  19  22
ATOM     22  O   UNL     1      11.038 -56.083 -22.297  1.00  0.00    -0.444 OA
BRANCH  22  23
ATOM     23  C   UNL     1      10.147 -55.090 -22.809  1.00  0.00     0.270 C 
BRANCH  23  24
ATOM     24  C   UNL     1      10.869 -53.769 -22.787  1.00  0.00    -0.011 A 
ATOM     25  C   UNL     1      11.707 -53.398 -23.849  1.00  0.00     0.007 A 
ATOM     26  C   UNL     1      10.682 -52.874 -21.724  1.00  0.00     0.007 A 
ATOM     27  C   UNL     1      12.360 -52.164 -23.837  1.00  0.00     0.000 A 
ATOM     28  C   UNL     1      11.337 -51.641 -21.715  1.00  0.00     0.000 A 
ATOM     29  C   UNL     1      12.176 -51.288 -22.769  1.00  0.00     0.000 A 
ENDBRANCH  23  24
ENDBRANCH  22  23
ENDBRANCH  19  22
ENDBRANCH  15  18
ENDBRANCH   1  15
TORSDOF 9
ENDMDL
MODEL 3
REMARK VINA RESULT:    -9.374      1.767      3.554
REMARK INTER + INTRA:         -15.642
REMARK INTER:                 -14.859
REMARK INTRA:                  -0.784
REMARK UNBOUND:                -1.336
REMARK SMILES COc1cccc(OC)c1[C@@H](C)NS(=O)(=O)NC(=O)OCc1ccccc1
REMARK SMILES IDX 13 1 11 3 12 4 10 5 3 6 4 7 5 8 7 9 6 10 2 11 1 12 8 13 9 14
REMARK SMILES IDX 14 15 15 16 16 17 17 18 18 19 19 21 20 22 21 23 22 24 23 25
REMARK SMILES IDX 27 26 24 27 26 28 25 29
REMARK H PARENT 13 2 17 20
ROOT
ATOM      1  N   UNL     1      12.171 -58.741 -24.050  1.00  0.00    -0.190 NA
ATOM      2  H   UNL     1      11.954 -58.422 -25.001  1.00  0.00     0.143 HD
ENDROOT
BRANCH   1   3
ATOM      3  C   UNL     1      12.164 -60.226 -24.022  1.00  0.00     0.106 C 
ATOM      4  C   UNL     1      13.509 -60.701 -24.582  1.00  0.00     0.031 C 
BRANCH   3   5
ATOM      5  C   UNL     1      11.024 -60.867 -24.803  1.00  0.00     0.054 A 
ATOM      6  C   UNL     1      10.702 -60.371 -26.081  1.00  0.00     0.127 A 
ATOM      7  C   UNL     1       9.633 -60.890 -26.815  1.00  0.00     0.047 A 
ATOM      8  C   UNL     1       8.885 -61.939 -26.294  1.00  0.00     0.008 A 
ATOM      9  C   UNL     1      10.249 -61.929 -24.283  1.00  0.00     0.127 A 
ATOM     10  C   UNL     1       9.192 -62.458 -25.036  1.00  0.00     0.047 A 
BRANCH   6  11
ATOM     11  O   UNL     1      11.408 -59.306 -26.584  1.00  0.00    -0.496 OA
ATOM     12  C   UNL     1      11.664 -59.482 -27.982  1.00  0.00     0.278 C 
ENDBRANCH   6  11
BRANCH   9  13
ATOM     13  O   UNL     1      10.596 -62.379 -23.032  1.00  0.00    -0.496 OA
ATOM     14  C   UNL     1       9.673 -63.225 -22.355  1.00  0.00     0.278 C 
ENDBRANCH   9  13
ENDBRANCH   3   5
ENDBRANCH   1   3
BRANCH   1  15
ATOM     15  S   UNL     1      11.176 -57.943 -22.976  1.00  0.00     0.304 S 
ATOM     16  O   UNL     1      11.695 -58.073 -21.641  1.00  0.00    -0.189 OA
ATOM     17  O   UNL     1       9.834 -58.366 -23.305  1.00  0.00    -0.189 OA
BRANCH  15  18
ATOM     18  N   UNL     1      11.317 -56.416 -23.542  1.00  0.00    -0.205 N 
ATOM     19  C   UNL     1      11.015 -55.243 -22.882  1.00  0.00     0.422 C 
ATOM     20  H   UNL     1      11.549 -56.360 -24.525  1.00  0.00     0.188 HD
ATOM     21  O   UNL     1      10.700 -55.151 -21.706  1.00  0.00    -0.223 OA
BRANCH  19  22
ATOM     22  O   UNL     1      11.140 -54.186 -23.722  1.00  0.00    -0.444 OA
BRANCH  22  23
ATOM     23  C   UNL     1      11.454 -52.961 -23.057  1.00  0.00     0.270 C 
BRANCH  23  24
ATOM     24  C   UNL     1      12.299 -52.135 -23.992  1.00  0.00    -0.011 A 
ATOM     25  C   UNL     1      12.875 -52.716 -25.131  1.00  0.00     0.007 A 
ATOM     26  C   UNL     1      12.487 -50.766 -23.758  1.00  0.00     0.007 A 
ATOM     27  C   UNL     1      13.641 -51.945 -26.007  1.00  0.00     0.000 A 
ATOM     28  C   UNL     1      13.254 -49.998 -24.635  1.00  0.00     0.000 A 
ATOM     29  C   UNL     1      13.832 -50.587 -25.758  1.00  0.00     0.000 A 
ENDBRANCH  23  24
ENDBRANCH  22  23
ENDBRANCH  19  22
ENDBRANCH  15  18
ENDBRANCH   1  15
TORSDOF 9
ENDMDL
MODEL 4
REMARK VINA RESULT:    -9.341      1.771      2.489
REMARK INTER + INTRA:         -15.593
REMARK INTER:                 -14.539
REMARK INTRA:                  -1.054
REMARK UNBOUND:                -1.336
REMARK SMILES COc1cccc(OC)c1[C@@H](C)NS(=O)(=O)NC(=O)OCc1ccccc1
REMARK SMILES IDX 13 1 11 3 12 4 10 5 3 6 4 7 5 8 7 9 6 10 2 11 1 12 8 13 9 14
REMARK SMILES IDX 14 15 15 16 16 17 17 18 18 19 19 21 20 22 21 23 22 24 23 25
REMARK SMILES IDX 27 26 24 27 26 28 25 29
REMARK H PARENT 13 2 17 20
ROOT
ATOM      1  N   UNL     1      11.888 -58.633 -24.235  1.00  0.00    -0.190 NA
ATOM      2  H   UNL     1      11.564 -58.381 -25.174  1.00  0.00     0.143 HD
ENDROOT
BRANCH   1   3
ATOM      3  C   UNL     1      11.914 -60.114 -24.111  1.00  0.00     0.106 C 
ATOM      4  C   UNL     1      13.275 -60.594 -24.627  1.00  0.00     0.031 C 
BRANCH   3   5
ATOM      5  C   UNL     1      10.796 -60.829 -24.858  1.00  0.00     0.054 A 
ATOM      6  C   UNL     1      10.160 -61.930 -24.253  1.00  0.00     0.127 A 
ATOM      7  C   UNL     1       9.165 -62.651 -24.917  1.00  0.00     0.047 A 
ATOM      8  C   UNL     1       8.765 -62.261 -26.190  1.00  0.00     0.008 A 
ATOM      9  C   UNL     1      10.384 -60.449 -26.155  1.00  0.00     0.127 A 
ATOM     10  C   UNL     1       9.368 -61.164 -26.805  1.00  0.00     0.047 A 
BRANCH   6  11
ATOM     11  O   UNL     1      10.579 -62.350 -23.015  1.00  0.00    -0.496 OA
ATOM     12  C   UNL     1       9.534 -62.200 -22.048  1.00  0.00     0.278 C 
ENDBRANCH   6  11
BRANCH   9  13
ATOM     13  O   UNL     1      11.033 -59.370 -26.707  1.00  0.00    -0.496 OA
ATOM     14  C   UNL     1      11.761 -59.584 -27.912  1.00  0.00     0.278 C 
ENDBRANCH   9  13
ENDBRANCH   3   5
ENDBRANCH   1   3
BRANCH   1  15
ATOM     15  S   UNL     1      11.000 -57.779 -23.112  1.00  0.00     0.304 S 
ATOM     16  O   UNL     1      11.513 -58.029 -21.792  1.00  0.00    -0.189 OA
ATOM     17  O   UNL     1       9.617 -58.030 -23.441  1.00  0.00    -0.189 OA
BRANCH  15  18
ATOM     18  N   UNL     1      11.311 -56.253 -23.610  1.00  0.00    -0.205 N 
ATOM     19  C   UNL     1      10.734 -55.085 -23.154  1.00  0.00     0.422 C 
ATOM     20  H   UNL     1      11.915 -56.198 -24.419  1.00  0.00     0.188 HD
ATOM     21  O   UNL     1       9.971 -54.994 -22.206  1.00  0.00    -0.223 OA
BRANCH  19  22
ATOM     22  O   UNL     1      11.153 -54.033 -23.899  1.00  0.00    -0.444 OA
BRANCH  22  23
ATOM     23  C   UNL     1      11.720 -52.974 -23.125  1.00  0.00     0.270 C 
BRANCH  23  24
ATOM     24  C   UNL     1      12.428 -52.042 -24.072  1.00  0.00    -0.011 A 
ATOM     25  C   UNL     1      12.551 -50.678 -23.769  1.00  0.00     0.007 A 
ATOM     26  C   UNL     1      13.012 -52.532 -25.249  1.00  0.00     0.007 A 
ATOM     27  C   UNL     1      13.226 -49.819 -24.639  1.00  0.00     0.000 A 
ATOM     28  C   UNL     1      13.685 -51.671 -26.116  1.00  0.00     0.000 A 
ATOM     29  C   UNL     1      13.790 -50.315 -25.812  1.00  0.00     0.000 A 
ENDBRANCH  23  24
ENDBRANCH  22  23
ENDBRANCH  19  22
ENDBRANCH  15  18
ENDBRANCH   1  15
TORSDOF 9
ENDMDL
MODEL 5
REMARK VINA RESULT:    -9.192      1.442      3.023
REMARK INTER + INTRA:         -15.365
REMARK INTER:                 -14.965
REMARK INTRA:                  -0.400
REMARK UNBOUND:                -1.336
REMARK SMILES COc1cccc(OC)c1[C@@H](C)NS(=O)(=O)NC(=O)OCc1ccccc1
REMARK SMILES IDX 13 1 11 3 12 4 10 5 3 6 4 7 5 8 7 9 6 10 2 11 1 12 8 13 9 14
REMARK SMILES IDX 14 15 15 16 16 17 17 18 18 19 19 21 20 22 21 23 22 24 23 25
REMARK SMILES IDX 27 26 24 27 26 28 25 29
REMARK H PARENT 13 2 17 20
ROOT
ATOM      1  N   UNL     1      10.290 -60.430 -23.388  1.00  0.00    -0.190 NA
ATOM      2  H   UNL     1      10.769 -61.285 -23.689  1.00  0.00     0.143 HD
ENDROOT
BRANCH   1   3
ATOM      3  C   UNL     1       9.470 -59.910 -24.513  1.00  0.00     0.106 C 
ATOM      4  C   UNL     1       8.142 -59.421 -23.925  1.00  0.00     0.031 C 
BRANCH   3   5
ATOM      5  C   UNL     1       9.204 -60.922 -25.620  1.00  0.00     0.054 A 
ATOM      6  C   UNL     1       9.687 -60.665 -26.917  1.00  0.00     0.127 A 
ATOM      7  C   UNL     1       9.427 -61.535 -27.977  1.00  0.00     0.047 A 
ATOM      8  C   UNL     1       8.703 -62.700 -27.750  1.00  0.00     0.008 A 
ATOM      9  C   UNL     1       8.463 -62.106 -25.406  1.00  0.00     0.127 A 
ATOM     10  C   UNL     1       8.225 -62.986 -26.471  1.00  0.00     0.047 A 
BRANCH   6  11
ATOM     11  O   UNL     1      10.366 -59.496 -27.161  1.00  0.00    -0.496 OA
ATOM     12  C   UNL     1      11.407 -59.704 -28.120  1.00  0.00     0.278 C 
ENDBRANCH   6  11
BRANCH   9  13
ATOM     13  O   UNL     1       8.009 -62.316 -24.126  1.00  0.00    -0.496 OA
ATOM     14  C   UNL     1       8.446 -63.492 -23.455  1.00  0.00     0.278 C 
ENDBRANCH   9  13
ENDBRANCH   3   5
ENDBRANCH   1   3
BRANCH   1  15
ATOM     15  S   UNL     1      11.409 -59.398 -22.707  1.00  0.00     0.304 S 
ATOM     16  O   UNL     1      12.730 -59.751 -23.151  1.00  0.00    -0.189 OA
ATOM     17  O   UNL     1      11.078 -59.342 -21.302  1.00  0.00    -0.189 OA
BRANCH  15  18
ATOM     18  N   UNL     1      10.907 -57.979 -23.344  1.00  0.00    -0.205 N 
ATOM     19  C   UNL     1      10.879 -56.744 -22.729  1.00  0.00     0.422 C 
ATOM     20  H   UNL     1      10.472 -58.065 -24.253  1.00  0.00     0.188 HD
ATOM     21  O   UNL     1      11.343 -56.488 -21.630  1.00  0.00    -0.223 OA
BRANCH  19  22
ATOM     22  O   UNL     1      10.277 -55.833 -23.533  1.00  0.00    -0.444 OA
BRANCH  22  23
ATOM     23  C   UNL     1      10.281 -54.508 -23.000  1.00  0.00     0.270 C 
BRANCH  23  24
ATOM     24  C   UNL     1      11.324 -53.716 -23.745  1.00  0.00    -0.011 A 
ATOM     25  C   UNL     1      11.725 -52.455 -23.282  1.00  0.00     0.007 A 
ATOM     26  C   UNL     1      11.938 -54.248 -24.888  1.00  0.00     0.007 A 
ATOM     27  C   UNL     1      12.707 -51.731 -23.963  1.00  0.00     0.000 A 
ATOM     28  C   UNL     1      12.919 -53.523 -25.566  1.00  0.00     0.000 A 
ATOM     29  C   UNL     1      13.301 -52.265 -25.105  1.00  0.00     0.000 A 
ENDBRANCH  23  24
ENDBRANCH  22  23
ENDBRANCH  19  22
ENDBRANCH  15  18
ENDBRANCH   1  15
TORSDOF 9
ENDMDL
MODEL 6
REMARK VINA RESULT:    -9.122      1.569      2.294
REMARK INTER + INTRA:         -15.257
REMARK INTER:                 -14.678
REMARK INTRA:                  -0.579
REMARK UNBOUND:                -1.336
REMARK SMILES COc1cccc(OC)c1[C@@H](C)NS(=O)(=O)NC(=O)OCc1ccccc1
REMARK SMILES IDX 13 1 11 3 12 4 10 5 3 6 4 7 5 8 7 9 6 10 2 11 1 12 8 13 9 14
REMARK SMILES IDX 14 15 15 16 16 17 17 18 18 19 19 21 20 22 21 23 22 24 23 25
REMARK SMILES IDX 27 26 24 27 26 28 25 29
REMARK H PARENT 13 2 17 20
ROOT
ATOM      1  N   UNL     1      10.200 -59.878 -23.168  1.00  0.00    -0.190 NA
ATOM      2  H   UNL     1      10.290 -60.899 -23.142  1.00  0.00     0.143 HD
ENDROOT
BRANCH   1   3
ATOM      3  C   UNL     1       9.429 -59.488 -24.377  1.00  0.00     0.106 C 
ATOM      4  C   UNL     1       8.132 -58.826 -23.900  1.00  0.00     0.031 C 
BRANCH   3   5
ATOM      5  C   UNL     1       9.106 -60.641 -25.318  1.00  0.00     0.054 A 
ATOM      6  C   UNL     1       8.404 -61.756 -24.823  1.00  0.00     0.127 A 
ATOM      7  C   UNL     1       8.128 -62.861 -25.632  1.00  0.00     0.047 A 
ATOM      8  C   UNL     1       8.524 -62.855 -26.964  1.00  0.00     0.008 A 
ATOM      9  C   UNL     1       9.509 -60.652 -26.673  1.00  0.00     0.127 A 
ATOM     10  C   UNL     1       9.208 -61.756 -27.484  1.00  0.00     0.047 A 
BRANCH   6  11
ATOM     11  O   UNL     1       8.048 -61.790 -23.498  1.00  0.00    -0.496 OA
ATOM     12  C   UNL     1       8.401 -63.046 -22.909  1.00  0.00     0.278 C 
ENDBRANCH   6  11
BRANCH   9  13
ATOM     13  O   UNL     1      10.194 -59.545 -27.113  1.00  0.00    -0.496 OA
ATOM     14  C   UNL     1      11.598 -59.672 -27.307  1.00  0.00     0.278 C 
ENDBRANCH   9  13
ENDBRANCH   3   5
ENDBRANCH   1   3
BRANCH   1  15
ATOM     15  S   UNL     1      11.709 -59.200 -22.962  1.00  0.00     0.304 S 
ATOM     16  O   UNL     1      12.688 -59.958 -23.695  1.00  0.00    -0.189 OA
ATOM     17  O   UNL     1      11.842 -58.976 -21.541  1.00  0.00    -0.189 OA
BRANCH  15  18
ATOM     18  N   UNL     1      11.450 -57.730 -23.627  1.00  0.00    -0.205 N 
ATOM     19  C   UNL     1      11.211 -56.540 -22.970  1.00  0.00     0.422 C 
ATOM     20  H   UNL     1      11.350 -57.743 -24.633  1.00  0.00     0.188 HD
ATOM     21  O   UNL     1      11.272 -56.371 -21.763  1.00  0.00    -0.223 OA
BRANCH  19  22
ATOM     22  O   UNL     1      10.915 -55.563 -23.862  1.00  0.00    -0.444 OA
BRANCH  22  23
ATOM     23  C   UNL     1      10.835 -54.261 -23.279  1.00  0.00     0.270 C 
BRANCH  23  24
ATOM     24  C   UNL     1      11.836 -53.381 -23.981  1.00  0.00    -0.011 A 
ATOM     25  C   UNL     1      12.511 -53.840 -25.121  1.00  0.00     0.007 A 
ATOM     26  C   UNL     1      12.075 -52.076 -23.528  1.00  0.00     0.007 A 
ATOM     27  C   UNL     1      13.424 -53.015 -25.781  1.00  0.00     0.000 A 
ATOM     28  C   UNL     1      12.988 -51.254 -24.190  1.00  0.00     0.000 A 
ATOM     29  C   UNL     1      13.663 -51.724 -25.315  1.00  0.00     0.000 A 
ENDBRANCH  23  24
ENDBRANCH  22  23
ENDBRANCH  19  22
ENDBRANCH  15  18
ENDBRANCH   1  15
TORSDOF 9
ENDMDL
MODEL 7
REMARK VINA RESULT:    -8.882      3.521      9.304
REMARK INTER + INTRA:         -14.891
REMARK INTER:                 -14.425
REMARK INTRA:                  -0.466
REMARK UNBOUND:                -1.336
REMARK SMILES COc1cccc(OC)c1[C@@H](C)NS(=O)(=O)NC(=O)OCc1ccccc1
REMARK SMILES IDX 13 1 11 3 12 4 10 5 3 6 4 7 5 8 7 9 6 10 2 11 1 12 8 13 9 14
REMARK SMILES IDX 14 15 15 16 16 17 17 18 18 19 19 21 20 22 21 23 22 24 23 25
REMARK SMILES IDX 27 26 24 27 26 28 25 29
REMARK H PARENT 13 2 17 20
ROOT
ATOM      1  N   UNL     1      11.208 -53.536 -22.659  1.00  0.00    -0.190 NA
ATOM      2  H   UNL     1      12.083 -54.025 -22.873  1.00  0.00     0.143 HD
ENDROOT
BRANCH   1   3
ATOM      3  C   UNL     1      11.494 -52.091 -22.460  1.00  0.00     0.106 C 
ATOM      4  C   UNL     1      10.148 -51.368 -22.353  1.00  0.00     0.031 C 
BRANCH   3   5
ATOM      5  C   UNL     1      12.337 -51.458 -23.559  1.00  0.00     0.054 A 
ATOM      6  C   UNL     1      12.759 -50.122 -23.418  1.00  0.00     0.127 A 
ATOM      7  C   UNL     1      13.489 -49.480 -24.420  1.00  0.00     0.047 A 
ATOM      8  C   UNL     1      13.838 -50.176 -25.571  1.00  0.00     0.008 A 
ATOM      9  C   UNL     1      12.692 -52.150 -24.739  1.00  0.00     0.127 A 
ATOM     10  C   UNL     1      13.444 -51.504 -25.730  1.00  0.00     0.047 A 
BRANCH   6  11
ATOM     11  O   UNL     1      12.382 -49.414 -22.304  1.00  0.00    -0.496 OA
ATOM     12  C   UNL     1      12.828 -48.056 -22.391  1.00  0.00     0.278 C 
ENDBRANCH   6  11
BRANCH   9  13
ATOM     13  O   UNL     1      12.256 -53.450 -24.836  1.00  0.00    -0.496 OA
ATOM     14  C   UNL     1      12.889 -54.289 -25.796  1.00  0.00     0.278 C 
ENDBRANCH   9  13
ENDBRANCH   3   5
ENDBRANCH   1   3
BRANCH   1  15
ATOM     15  S   UNL     1      10.427 -54.345 -21.428  1.00  0.00     0.304 S 
ATOM     16  O   UNL     1       9.016 -54.404 -21.702  1.00  0.00    -0.189 OA
ATOM     17  O   UNL     1      10.931 -53.767 -20.205  1.00  0.00    -0.189 OA
BRANCH  15  18
ATOM     18  N   UNL     1      11.138 -55.811 -21.560  1.00  0.00    -0.205 N 
ATOM     19  C   UNL     1      11.200 -56.618 -22.678  1.00  0.00     0.422 C 
ATOM     20  H   UNL     1      11.463 -56.193 -20.683  1.00  0.00     0.188 HD
ATOM     21  O   UNL     1      10.829 -56.308 -23.798  1.00  0.00    -0.223 OA
BRANCH  19  22
ATOM     22  O   UNL     1      11.758 -57.813 -22.363  1.00  0.00    -0.444 OA
BRANCH  22  23
ATOM     23  C   UNL     1      10.986 -58.578 -21.436  1.00  0.00     0.270 C 
BRANCH  23  24
ATOM     24  C   UNL     1      10.760 -59.939 -22.039  1.00  0.00    -0.011 A 
ATOM     25  C   UNL     1      11.472 -60.340 -23.180  1.00  0.00     0.007 A 
ATOM     26  C   UNL     1       9.865 -60.841 -21.446  1.00  0.00     0.007 A 
ATOM     27  C   UNL     1      11.275 -61.610 -23.726  1.00  0.00     0.000 A 
ATOM     28  C   UNL     1       9.670 -62.109 -21.994  1.00  0.00     0.000 A 
ATOM     29  C   UNL     1      10.374 -62.492 -23.135  1.00  0.00     0.000 A 
ENDBRANCH  23  24
ENDBRANCH  22  23
ENDBRANCH  19  22
ENDBRANCH  15  18
ENDBRANCH   1  15
TORSDOF 9
ENDMDL
MODEL 8
REMARK VINA RESULT:    -8.694      3.609      9.135
REMARK INTER + INTRA:         -14.605
REMARK INTER:                 -14.556
REMARK INTRA:                  -0.050
REMARK UNBOUND:                -1.336
REMARK SMILES COc1cccc(OC)c1[C@@H](C)NS(=O)(=O)NC(=O)OCc1ccccc1
REMARK SMILES IDX 13 1 11 3 12 4 10 5 3 6 4 7 5 8 7 9 6 10 2 11 1 12 8 13 9 14
REMARK SMILES IDX 14 15 15 16 16 17 17 18 18 19 19 21 20 22 21 23 22 24 23 25
REMARK SMILES IDX 27 26 24 27 26 28 25 29
REMARK H PARENT 13 2 17 20
ROOT
ATOM      1  N   UNL     1      10.918 -53.188 -22.889  1.00  0.00    -0.190 NA
ATOM      2  H   UNL     1      11.520 -53.814 -23.434  1.00  0.00     0.143 HD
ENDROOT
BRANCH   1   3
ATOM      3  C   UNL     1      11.621 -51.896 -22.682  1.00  0.00     0.106 C 
ATOM      4  C   UNL     1      10.565 -50.857 -22.290  1.00  0.00     0.031 C 
BRANCH   3   5
ATOM      5  C   UNL     1      12.407 -51.404 -23.890  1.00  0.00     0.054 A 
ATOM      6  C   UNL     1      12.767 -52.322 -24.896  1.00  0.00     0.127 A 
ATOM      7  C   UNL     1      13.531 -51.932 -25.998  1.00  0.00     0.047 A 
ATOM      8  C   UNL     1      13.922 -50.605 -26.129  1.00  0.00     0.008 A 
ATOM      9  C   UNL     1      12.819 -50.060 -24.034  1.00  0.00     0.127 A 
ATOM     10  C   UNL     1      13.567 -49.672 -25.155  1.00  0.00     0.047 A 
BRANCH   6  11
ATOM     11  O   UNL     1      12.422 -53.643 -24.752  1.00  0.00    -0.496 OA
ATOM     12  C   UNL     1      12.787 -54.392 -25.916  1.00  0.00     0.278 C 
ENDBRANCH   6  11
BRANCH   9  13
ATOM     13  O   UNL     1      12.449 -49.200 -23.028  1.00  0.00    -0.496 OA
ATOM     14  C   UNL     1      13.182 -47.987 -22.893  1.00  0.00     0.278 C 
ENDBRANCH   9  13
ENDBRANCH   3   5
ENDBRANCH   1   3
BRANCH   1  15
ATOM     15  S   UNL     1      10.382 -54.001 -21.536  1.00  0.00     0.304 S 
ATOM     16  O   UNL     1       8.953 -54.157 -21.594  1.00  0.00    -0.189 OA
ATOM     17  O   UNL     1      11.021 -53.351 -20.416  1.00  0.00    -0.189 OA
BRANCH  15  18
ATOM     18  N   UNL     1      11.161 -55.424 -21.736  1.00  0.00    -0.205 N 
ATOM     19  C   UNL     1      11.032 -56.314 -22.782  1.00  0.00     0.422 C 
ATOM     20  H   UNL     1      11.709 -55.711 -20.936  1.00  0.00     0.188 HD
ATOM     21  O   UNL     1      10.391 -56.121 -23.802  1.00  0.00    -0.223 OA
BRANCH  19  22
ATOM     22  O   UNL     1      11.744 -57.441 -22.530  1.00  0.00    -0.444 OA
BRANCH  22  23
ATOM     23  C   UNL     1      11.188 -58.247 -21.490  1.00  0.00     0.270 C 
BRANCH  23  24
ATOM     24  C   UNL     1      10.973 -59.630 -22.046  1.00  0.00    -0.011 A 
ATOM     25  C   UNL     1      10.041 -60.497 -21.457  1.00  0.00     0.007 A 
ATOM     26  C   UNL     1      11.671 -60.055 -23.186  1.00  0.00     0.007 A 
ATOM     27  C   UNL     1       9.829 -61.772 -21.987  1.00  0.00     0.000 A 
ATOM     28  C   UNL     1      11.457 -61.329 -23.712  1.00  0.00     0.000 A 
ATOM     29  C   UNL     1      10.538 -62.187 -23.112  1.00  0.00     0.000 A 
ENDBRANCH  23  24
ENDBRANCH  22  23
ENDBRANCH  19  22
ENDBRANCH  15  18
ENDBRANCH   1  15
TORSDOF 9
ENDMDL
MODEL 9
REMARK VINA RESULT:    -8.694      2.244      8.438
REMARK INTER + INTRA:         -14.605
REMARK INTER:                 -14.660
REMARK INTRA:                   0.055
REMARK UNBOUND:                -1.336
REMARK SMILES COc1cccc(OC)c1[C@@H](C)NS(=O)(=O)NC(=O)OCc1ccccc1
REMARK SMILES IDX 13 1 11 3 12 4 10 5 3 6 4 7 5 8 7 9 6 10 2 11 1 12 8 13 9 14
REMARK SMILES IDX 14 15 15 16 16 17 17 18 18 19 19 21 20 22 21 23 22 24 23 25
REMARK SMILES IDX 27 26 24 27 26 28 25 29
REMARK H PARENT 13 2 17 20
ROOT
ATOM      1  N   UNL     1      10.384 -55.081 -23.721  1.00  0.00    -0.190 NA
ATOM      2  H   UNL     1      10.969 -55.294 -24.536  1.00  0.00     0.143 HD
ENDROOT
BRANCH   1   3
ATOM      3  C   UNL     1      10.901 -53.855 -23.059  1.00  0.00     0.106 C 
ATOM      4  C   UNL     1       9.695 -52.964 -22.741  1.00  0.00     0.031 C 
BRANCH   3   5
ATOM      5  C   UNL     1      11.919 -53.075 -23.880  1.00  0.00     0.054 A 
ATOM      6  C   UNL     1      12.291 -51.782 -23.466  1.00  0.00     0.127 A 
ATOM      7  C   UNL     1      13.181 -51.007 -24.212  1.00  0.00     0.047 A 
ATOM      8  C   UNL     1      13.741 -51.526 -25.373  1.00  0.00     0.008 A 
ATOM      9  C   UNL     1      12.490 -53.587 -25.068  1.00  0.00     0.127 A 
ATOM     10  C   UNL     1      13.400 -52.810 -25.798  1.00  0.00     0.047 A 
BRANCH   6  11
ATOM     11  O   UNL     1      11.710 -51.245 -22.344  1.00  0.00    -0.496 OA
ATOM     12  C   UNL     1      11.731 -49.814 -22.397  1.00  0.00     0.278 C 
ENDBRANCH   6  11
BRANCH   9  13
ATOM     13  O   UNL     1      12.096 -54.851 -25.436  1.00  0.00    -0.496 OA
ATOM     14  C   UNL     1      12.906 -55.547 -26.377  1.00  0.00     0.278 C 
ENDBRANCH   9  13
ENDBRANCH   3   5
ENDBRANCH   1   3
BRANCH   1  15
ATOM     15  S   UNL     1      10.237 -56.458 -22.792  1.00  0.00     0.304 S 
ATOM     16  O   UNL     1       8.854 -56.844 -22.709  1.00  0.00    -0.189 OA
ATOM     17  O   UNL     1      11.020 -56.208 -21.604  1.00  0.00    -0.189 OA
BRANCH  15  18
ATOM     18  N   UNL     1      11.112 -57.502 -23.696  1.00  0.00    -0.205 N 
ATOM     19  C   UNL     1      11.879 -58.559 -23.253  1.00  0.00     0.422 C 
ATOM     20  H   UNL     1      11.166 -57.255 -24.675  1.00  0.00     0.188 HD
ATOM     21  O   UNL     1      11.934 -58.963 -22.102  1.00  0.00    -0.223 OA
BRANCH  19  22
ATOM     22  O   UNL     1      12.558 -59.113 -24.288  1.00  0.00    -0.444 OA
BRANCH  22  23
ATOM     23  C   UNL     1      12.751 -60.522 -24.157  1.00  0.00     0.270 C 
BRANCH  23  24
ATOM     24  C   UNL     1      11.420 -61.191 -24.381  1.00  0.00    -0.011 A 
ATOM     25  C   UNL     1      10.698 -60.961 -25.561  1.00  0.00     0.007 A 
ATOM     26  C   UNL     1      10.905 -62.085 -23.431  1.00  0.00     0.007 A 
ATOM     27  C   UNL     1       9.474 -61.598 -25.776  1.00  0.00     0.000 A 
ATOM     28  C   UNL     1       9.681 -62.719 -23.649  1.00  0.00     0.000 A 
ATOM     29  C   UNL     1       8.966 -62.475 -24.819  1.00  0.00     0.000 A 
ENDBRANCH  23  24
ENDBRANCH  22  23
ENDBRANCH  19  22
ENDBRANCH  15  18
ENDBRANCH   1  15
TORSDOF 9
ENDMDL
