MODEL 1
REMARK VINA RESULT:   -12.751      0.000      0.000
REMARK INTER + INTRA:         -17.254
REMARK INTER:                 -16.478
REMARK INTRA:                  -0.776
REMARK UNBOUND:                -0.776
REMARK SMILES O=C1Cc2cc3c(CC[C@H]4CC[N@@H+](Cc5ccccc5)CC4)noc3cc2N1
REMARK SMILES IDX 9 1 10 2 12 3 13 4 11 5 21 6 22 7 14 9 15 10 16 11 20 12
REMARK SMILES IDX 17 13 19 14 18 15 8 16 7 17 6 18 23 19 5 20 25 21 24 22 4 23
REMARK SMILES IDX 26 24 3 25 27 26 2 27 28 28 1 29
REMARK H PARENT 13 8 28 30
ROOT
ATOM      1  C   UNL     1       9.146 -62.042 -22.723  1.00  0.00     0.010 C 
ENDROOT
BRANCH   1   2
ATOM      2  C   UNL     1       9.044 -60.674 -22.002  1.00  0.00     0.000 C 
ATOM      3  C   UNL     1      11.246 -59.336 -22.054  1.00  0.00     0.262 C 
ATOM      4  N   UNL     1      10.490 -58.180 -22.652  1.00  0.00    -0.331 N 
ATOM      5  C   UNL     1      10.301 -60.220 -21.253  1.00  0.00     0.065 C 
ATOM      6  C   UNL     1       9.375 -58.621 -23.556  1.00  0.00     0.262 C 
ATOM      7  C   UNL     1       8.413 -59.542 -22.825  1.00  0.00     0.065 C 
ATOM      8  H   UNL     1      10.081 -57.648 -21.876  1.00  0.00     0.348 HD
BRANCH   4   9
ATOM      9  C   UNL     1      11.413 -57.220 -23.384  1.00  0.00     0.299 C 
BRANCH   9  10
ATOM     10  C   UNL     1      11.221 -55.786 -22.970  1.00  0.00     0.006 A 
ATOM     11  C   UNL     1      10.846 -55.467 -21.654  1.00  0.00     0.009 A 
ATOM     12  C   UNL     1      11.431 -54.745 -23.887  1.00  0.00     0.009 A 
ATOM     13  C   UNL     1      10.693 -54.136 -21.267  1.00  0.00     0.001 A 
ATOM     14  C   UNL     1      11.276 -53.416 -23.495  1.00  0.00     0.001 A 
ATOM     15  C   UNL     1      10.911 -53.112 -22.185  1.00  0.00     0.000 A 
ENDBRANCH   9  10
ENDBRANCH   4   9
ENDBRANCH   1   2
BRANCH   1  16
ATOM     16  C   UNL     1       7.898 -62.710 -23.307  1.00  0.00     0.061 C 
BRANCH  16  17
ATOM     17  C   UNL     1       7.923 -62.912 -24.781  1.00  0.00     0.091 A 
ATOM     18  C   UNL     1       8.714 -62.242 -25.753  1.00  0.00     0.045 A 
ATOM     19  N   UNL     1       7.092 -63.799 -25.347  1.00  0.00    -0.084 NA
ATOM     20  C   UNL     1       9.708 -61.243 -25.754  1.00  0.00     0.020 A 
ATOM     21  C   UNL     1       8.296 -62.799 -26.958  1.00  0.00     0.169 A 
ATOM     22  O   UNL     1       7.334 -63.728 -26.709  1.00  0.00    -0.356 OA
ATOM     23  C   UNL     1      10.217 -60.885 -26.998  1.00  0.00    -0.014 A 
ATOM     24  C   UNL     1       8.788 -62.457 -28.217  1.00  0.00     0.077 A 
ATOM     25  C   UNL     1      11.269 -59.862 -27.329  1.00  0.00     0.138 C 
ATOM     26  C   UNL     1       9.764 -61.479 -28.178  1.00  0.00     0.048 A 
ATOM     27  C   UNL     1      11.352 -59.967 -28.855  1.00  0.00     0.228 C 
ATOM     28  N   UNL     1      10.438 -60.934 -29.258  1.00  0.00    -0.325 N 
ATOM     29  O   UNL     1      12.084 -59.329 -29.590  1.00  0.00    -0.274 OA
ATOM     30  H   UNL     1      10.304 -61.173 -30.230  1.00  0.00     0.169 HD
ENDBRANCH  16  17
ENDBRANCH   1  16
TORSDOF 5
ENDMDL
MODEL 2
REMARK VINA RESULT:   -12.030      3.703      8.747
REMARK INTER + INTRA:         -16.323
REMARK INTER:                 -15.779
REMARK INTRA:                  -0.544
REMARK UNBOUND:                -0.776
REMARK SMILES O=C1Cc2cc3c(CC[C@H]4CC[N@@H+](Cc5ccccc5)CC4)noc3cc2N1
REMARK SMILES IDX 9 1 10 2 12 3 13 4 11 5 21 6 22 7 14 9 15 10 16 11 20 12
REMARK SMILES IDX 17 13 19 14 18 15 8 16 7 17 6 18 23 19 5 20 25 21 24 22 4 23
REMARK SMILES IDX 26 24 3 25 27 26 2 27 28 28 1 29
REMARK H PARENT 13 8 28 30
ROOT
ATOM      1  C   UNL     1      11.348 -56.809 -22.272  1.00  0.00     0.010 C 
ENDROOT
BRANCH   1   2
ATOM      2  C   UNL     1      11.070 -58.312 -22.010  1.00  0.00     0.000 C 
ATOM      3  C   UNL     1       9.517 -59.374 -23.771  1.00  0.00     0.262 C 
ATOM      4  N   UNL     1      10.566 -60.427 -24.011  1.00  0.00    -0.331 N 
ATOM      5  C   UNL     1       9.663 -58.801 -22.369  1.00  0.00     0.065 C 
ATOM      6  C   UNL     1      11.963 -59.900 -23.858  1.00  0.00     0.262 C 
ATOM      7  C   UNL     1      12.165 -59.276 -22.488  1.00  0.00     0.065 C 
ATOM      8  H   UNL     1      10.425 -61.165 -23.311  1.00  0.00     0.348 HD
BRANCH   4   9
ATOM      9  C   UNL     1      10.398 -61.093 -25.366  1.00  0.00     0.299 C 
BRANCH   9  10
ATOM     10  C   UNL     1       9.290 -62.110 -25.391  1.00  0.00     0.006 A 
ATOM     11  C   UNL     1       8.825 -62.688 -24.198  1.00  0.00     0.009 A 
ATOM     12  C   UNL     1       8.690 -62.482 -26.604  1.00  0.00     0.009 A 
ATOM     13  C   UNL     1       7.779 -63.612 -24.221  1.00  0.00     0.001 A 
ATOM     14  C   UNL     1       7.645 -63.405 -26.622  1.00  0.00     0.001 A 
ATOM     15  C   UNL     1       7.189 -63.967 -25.432  1.00  0.00     0.000 A 
ENDBRANCH   9  10
ENDBRANCH   4   9
ENDBRANCH   1   2
BRANCH   1  16
ATOM     16  C   UNL     1      10.194 -55.837 -22.532  1.00  0.00     0.061 C 
BRANCH  16  17
ATOM     17  C   UNL     1      10.533 -54.398 -22.366  1.00  0.00     0.091 A 
ATOM     18  C   UNL     1      11.323 -53.571 -23.210  1.00  0.00     0.045 A 
ATOM     19  N   UNL     1      10.106 -53.733 -21.283  1.00  0.00    -0.084 NA
ATOM     20  C   UNL     1      12.021 -53.717 -24.426  1.00  0.00     0.020 A 
ATOM     21  C   UNL     1      11.338 -52.347 -22.550  1.00  0.00     0.169 A 
ATOM     22  O   UNL     1      10.608 -52.447 -21.407  1.00  0.00    -0.356 OA
ATOM     23  C   UNL     1      12.685 -52.587 -24.892  1.00  0.00    -0.014 A 
ATOM     24  C   UNL     1      11.996 -51.200 -22.995  1.00  0.00     0.077 A 
ATOM     25  C   UNL     1      13.510 -52.424 -26.138  1.00  0.00     0.138 C 
ATOM     26  C   UNL     1      12.664 -51.380 -24.191  1.00  0.00     0.048 A 
ATOM     27  C   UNL     1      13.945 -50.958 -26.048  1.00  0.00     0.228 C 
ATOM     28  N   UNL     1      13.404 -50.433 -24.880  1.00  0.00    -0.325 N 
ATOM     29  O   UNL     1      14.633 -50.352 -26.849  1.00  0.00    -0.274 OA
ATOM     30  H   UNL     1      13.564 -49.476 -24.598  1.00  0.00     0.169 HD
ENDBRANCH  16  17
ENDBRANCH   1  16
TORSDOF 5
ENDMDL
MODEL 3
REMARK VINA RESULT:   -11.514      4.006      9.282
REMARK INTER + INTRA:         -15.656
REMARK INTER:                 -15.093
REMARK INTRA:                  -0.563
REMARK UNBOUND:                -0.776
REMARK SMILES O=C1Cc2cc3c(CC[C@H]4CC[N@@H+](Cc5ccccc5)CC4)noc3cc2N1
REMARK SMILES IDX 9 1 10 2 12 3 13 4 11 5 21 6 22 7 14 9 15 10 16 11 20 12
REMARK SMILES IDX 17 13 19 14 18 15 8 16 7 17 6 18 23 19 5 20 25 21 24 22 4 23
REMARK SMILES IDX 26 24 3 25 27 26 2 27 28 28 1 29
REMARK H PARENT 13 8 28 30
ROOT
ATOM      1  C   UNL     1      11.388 -56.353 -22.676  1.00  0.00     0.010 C 
ENDROOT
BRANCH   1   2
ATOM      2  C   UNL     1      10.562 -57.561 -22.163  1.00  0.00     0.000 C 
ATOM      3  C   UNL     1       9.739 -59.100 -24.058  1.00  0.00     0.262 C 
ATOM      4  N   UNL     1      10.388 -60.261 -23.352  1.00  0.00    -0.331 N 
ATOM      5  C   UNL     1       9.402 -58.003 -23.060  1.00  0.00     0.065 C 
ATOM      6  C   UNL     1      11.647 -59.871 -22.634  1.00  0.00     0.262 C 
ATOM      7  C   UNL     1      11.387 -58.748 -21.645  1.00  0.00     0.065 C 
ATOM      8  H   UNL     1       9.718 -60.609 -22.657  1.00  0.00     0.348 HD
BRANCH   4   9
ATOM      9  C   UNL     1      10.657 -61.419 -24.298  1.00  0.00     0.299 C 
BRANCH   9  10
ATOM     10  C   UNL     1       9.457 -62.302 -24.505  1.00  0.00     0.006 A 
ATOM     11  C   UNL     1       8.945 -63.071 -23.446  1.00  0.00     0.009 A 
ATOM     12  C   UNL     1       8.819 -62.357 -25.754  1.00  0.00     0.009 A 
ATOM     13  C   UNL     1       7.817 -63.869 -23.634  1.00  0.00     0.001 A 
ATOM     14  C   UNL     1       7.691 -63.158 -25.936  1.00  0.00     0.001 A 
ATOM     15  C   UNL     1       7.189 -63.910 -24.877  1.00  0.00     0.000 A 
ENDBRANCH   9  10
ENDBRANCH   4   9
ENDBRANCH   1   2
BRANCH   1  16
ATOM     16  C   UNL     1      10.707 -55.207 -23.429  1.00  0.00     0.061 C 
BRANCH  16  17
ATOM     17  C   UNL     1      11.613 -54.381 -24.271  1.00  0.00     0.091 A 
ATOM     18  C   UNL     1      12.014 -53.031 -24.079  1.00  0.00     0.045 A 
ATOM     19  N   UNL     1      12.131 -54.894 -25.397  1.00  0.00    -0.084 NA
ATOM     20  C   UNL     1      11.785 -52.019 -23.125  1.00  0.00     0.020 A 
ATOM     21  C   UNL     1      12.821 -52.767 -25.181  1.00  0.00     0.169 A 
ATOM     22  O   UNL     1      12.891 -53.881 -25.959  1.00  0.00    -0.356 OA
ATOM     23  C   UNL     1      12.409 -50.799 -23.362  1.00  0.00    -0.014 A 
ATOM     24  C   UNL     1      13.457 -51.554 -25.443  1.00  0.00     0.077 A 
ATOM     25  C   UNL     1      12.359 -49.538 -22.544  1.00  0.00     0.138 C 
ATOM     26  C   UNL     1      13.213 -50.589 -24.484  1.00  0.00     0.048 A 
ATOM     27  C   UNL     1      13.251 -48.592 -23.354  1.00  0.00     0.228 C 
ATOM     28  N   UNL     1      13.701 -49.293 -24.467  1.00  0.00    -0.325 N 
ATOM     29  O   UNL     1      13.525 -47.437 -23.080  1.00  0.00    -0.274 OA
ATOM     30  H   UNL     1      14.302 -48.869 -25.160  1.00  0.00     0.169 HD
ENDBRANCH  16  17
ENDBRANCH   1  16
TORSDOF 5
ENDMDL
MODEL 4
REMARK VINA RESULT:   -11.382      4.511      9.837
REMARK INTER + INTRA:         -15.486
REMARK INTER:                 -15.097
REMARK INTRA:                  -0.388
REMARK UNBOUND:                -0.776
REMARK SMILES O=C1Cc2cc3c(CC[C@H]4CC[N@@H+](Cc5ccccc5)CC4)noc3cc2N1
REMARK SMILES IDX 9 1 10 2 12 3 13 4 11 5 21 6 22 7 14 9 15 10 16 11 20 12
REMARK SMILES IDX 17 13 19 14 18 15 8 16 7 17 6 18 23 19 5 20 25 21 24 22 4 23
REMARK SMILES IDX 26 24 3 25 27 26 2 27 28 28 1 29
REMARK H PARENT 13 8 28 30
ROOT
ATOM      1  C   UNL     1      10.704 -55.948 -23.408  1.00  0.00     0.010 C 
ENDROOT
BRANCH   1   2
ATOM      2  C   UNL     1      10.256 -57.131 -22.511  1.00  0.00     0.000 C 
ATOM      3  C   UNL     1       9.491 -59.189 -23.860  1.00  0.00     0.262 C 
ATOM      4  N   UNL     1      10.484 -60.020 -23.092  1.00  0.00    -0.331 N 
ATOM      5  C   UNL     1       9.090 -57.968 -23.046  1.00  0.00     0.065 C 
ATOM      6  C   UNL     1      11.728 -59.257 -22.738  1.00  0.00     0.262 C 
ATOM      7  C   UNL     1      11.393 -58.000 -21.954  1.00  0.00     0.065 C 
ATOM      8  H   UNL     1      10.029 -60.311 -22.219  1.00  0.00     0.348 HD
BRANCH   4   9
ATOM      9  C   UNL     1      10.841 -61.299 -23.829  1.00  0.00     0.299 C 
BRANCH   9  10
ATOM     10  C   UNL     1       9.674 -62.235 -23.986  1.00  0.00     0.006 A 
ATOM     11  C   UNL     1       9.281 -63.069 -22.926  1.00  0.00     0.009 A 
ATOM     12  C   UNL     1       8.949 -62.276 -25.187  1.00  0.00     0.009 A 
ATOM     13  C   UNL     1       8.182 -63.918 -23.066  1.00  0.00     0.001 A 
ATOM     14  C   UNL     1       7.852 -63.127 -25.321  1.00  0.00     0.001 A 
ATOM     15  C   UNL     1       7.467 -63.944 -24.261  1.00  0.00     0.000 A 
ENDBRANCH   9  10
ENDBRANCH   4   9
ENDBRANCH   1   2
BRANCH   1  16
ATOM     16  C   UNL     1      11.458 -54.758 -22.809  1.00  0.00     0.061 C 
BRANCH  16  17
ATOM     17  C   UNL     1      10.624 -53.557 -22.535  1.00  0.00     0.091 A 
ATOM     18  C   UNL     1      11.000 -52.188 -22.585  1.00  0.00     0.045 A 
ATOM     19  N   UNL     1       9.349 -53.705 -22.147  1.00  0.00    -0.084 NA
ATOM     20  C   UNL     1      12.162 -51.455 -22.897  1.00  0.00     0.020 A 
ATOM     21  C   UNL     1       9.845 -51.515 -22.198  1.00  0.00     0.169 A 
ATOM     22  O   UNL     1       8.864 -52.423 -21.944  1.00  0.00    -0.356 OA
ATOM     23  C   UNL     1      12.060 -50.071 -22.799  1.00  0.00    -0.014 A 
ATOM     24  C   UNL     1       9.716 -50.130 -22.091  1.00  0.00     0.077 A 
ATOM     25  C   UNL     1      13.110 -49.026 -23.058  1.00  0.00     0.138 C 
ATOM     26  C   UNL     1      10.874 -49.446 -22.409  1.00  0.00     0.048 A 
ATOM     27  C   UNL     1      12.352 -47.727 -22.769  1.00  0.00     0.228 C 
ATOM     28  N   UNL     1      11.058 -48.073 -22.397  1.00  0.00    -0.325 N 
ATOM     29  O   UNL     1      12.790 -46.594 -22.851  1.00  0.00    -0.274 OA
ATOM     30  H   UNL     1      10.368 -47.379 -22.147  1.00  0.00     0.169 HD
ENDBRANCH  16  17
ENDBRANCH   1  16
TORSDOF 5
ENDMDL
MODEL 5
REMARK VINA RESULT:   -10.762      2.574      5.402
REMARK INTER + INTRA:         -14.684
REMARK INTER:                 -14.555
REMARK INTRA:                  -0.129
REMARK UNBOUND:                -0.776
REMARK SMILES O=C1Cc2cc3c(CC[C@H]4CC[N@@H+](Cc5ccccc5)CC4)noc3cc2N1
REMARK SMILES IDX 9 1 10 2 12 3 13 4 11 5 21 6 22 7 14 9 15 10 16 11 20 12
REMARK SMILES IDX 17 13 19 14 18 15 8 16 7 17 6 18 23 19 5 20 25 21 24 22 4 23
REMARK SMILES IDX 26 24 3 25 27 26 2 27 28 28 1 29
REMARK H PARENT 13 8 28 30
ROOT
ATOM      1  C   UNL     1      11.363 -56.487 -22.065  1.00  0.00     0.010 C 
ENDROOT
BRANCH   1   2
ATOM      2  C   UNL     1      10.449 -55.368 -22.627  1.00  0.00     0.000 C 
ATOM      3  C   UNL     1      10.892 -53.068 -21.553  1.00  0.00     0.262 C 
ATOM      4  N   UNL     1      11.093 -52.500 -22.933  1.00  0.00    -0.331 N 
ATOM      5  C   UNL     1      10.005 -54.302 -21.620  1.00  0.00     0.065 C 
ATOM      6  C   UNL     1      11.720 -53.483 -23.879  1.00  0.00     0.262 C 
ATOM      7  C   UNL     1      10.902 -54.759 -23.962  1.00  0.00     0.065 C 
ATOM      8  H   UNL     1      10.167 -52.251 -23.299  1.00  0.00     0.348 HD
BRANCH   4   9
ATOM      9  C   UNL     1      11.896 -51.211 -22.902  1.00  0.00     0.299 C 
BRANCH   9  10
ATOM     10  C   UNL     1      13.108 -51.249 -23.792  1.00  0.00     0.006 A 
ATOM     11  C   UNL     1      12.980 -51.067 -25.179  1.00  0.00     0.009 A 
ATOM     12  C   UNL     1      14.386 -51.448 -23.248  1.00  0.00     0.009 A 
ATOM     13  C   UNL     1      14.109 -51.078 -26.000  1.00  0.00     0.001 A 
ATOM     14  C   UNL     1      15.511 -51.457 -24.073  1.00  0.00     0.001 A 
ATOM     15  C   UNL     1      15.372 -51.270 -25.446  1.00  0.00     0.000 A 
ENDBRANCH   9  10
ENDBRANCH   4   9
ENDBRANCH   1   2
BRANCH   1  16
ATOM     16  C   UNL     1      10.930 -57.955 -22.134  1.00  0.00     0.061 C 
BRANCH  16  17
ATOM     17  C   UNL     1      10.998 -58.567 -23.488  1.00  0.00     0.091 A 
ATOM     18  C   UNL     1      10.223 -59.636 -24.016  1.00  0.00     0.045 A 
ATOM     19  N   UNL     1      11.909 -58.135 -24.372  1.00  0.00    -0.084 NA
ATOM     20  C   UNL     1       9.174 -60.461 -23.566  1.00  0.00     0.020 A 
ATOM     21  C   UNL     1      10.739 -59.814 -25.296  1.00  0.00     0.169 A 
ATOM     22  O   UNL     1      11.738 -58.915 -25.504  1.00  0.00    -0.356 OA
ATOM     23  C   UNL     1       8.714 -61.416 -24.467  1.00  0.00    -0.014 A 
ATOM     24  C   UNL     1      10.297 -60.763 -26.218  1.00  0.00     0.077 A 
ATOM     25  C   UNL     1       7.623 -62.436 -24.287  1.00  0.00     0.138 C 
ATOM     26  C   UNL     1       9.265 -61.550 -25.742  1.00  0.00     0.048 A 
ATOM     27  C   UNL     1       7.630 -63.158 -25.638  1.00  0.00     0.228 C 
ATOM     28  N   UNL     1       8.620 -62.573 -26.419  1.00  0.00    -0.325 N 
ATOM     29  O   UNL     1       6.903 -64.074 -25.978  1.00  0.00    -0.274 OA
ATOM     30  H   UNL     1       8.820 -62.890 -27.357  1.00  0.00     0.169 HD
ENDBRANCH  16  17
ENDBRANCH   1  16
TORSDOF 5
ENDMDL
MODEL 6
REMARK VINA RESULT:   -10.544      5.882     11.008
REMARK INTER + INTRA:         -14.402
REMARK INTER:                 -14.026
REMARK INTRA:                  -0.376
REMARK UNBOUND:                -0.776
REMARK SMILES O=C1Cc2cc3c(CC[C@H]4CC[N@@H+](Cc5ccccc5)CC4)noc3cc2N1
REMARK SMILES IDX 9 1 10 2 12 3 13 4 11 5 21 6 22 7 14 9 15 10 16 11 20 12
REMARK SMILES IDX 17 13 19 14 18 15 8 16 7 17 6 18 23 19 5 20 25 21 24 22 4 23
REMARK SMILES IDX 26 24 3 25 27 26 2 27 28 28 1 29
REMARK H PARENT 13 8 28 30
ROOT
ATOM      1  C   UNL     1      11.733 -52.813 -23.428  1.00  0.00     0.010 C 
ENDROOT
BRANCH   1   2
ATOM      2  C   UNL     1      10.616 -53.841 -23.115  1.00  0.00     0.000 C 
ATOM      3  C   UNL     1      11.431 -56.284 -23.221  1.00  0.00     0.262 C 
ATOM      4  N   UNL     1      10.909 -56.483 -21.823  1.00  0.00    -0.331 N 
ATOM      5  C   UNL     1      10.677 -55.152 -23.904  1.00  0.00     0.065 C 
ATOM      6  C   UNL     1      11.035 -55.251 -20.976  1.00  0.00     0.262 C 
ATOM      7  C   UNL     1      10.333 -54.069 -21.623  1.00  0.00     0.065 C 
ATOM      8  H   UNL     1       9.913 -56.718 -21.900  1.00  0.00     0.348 HD
BRANCH   4   9
ATOM      9  C   UNL     1      11.571 -57.666 -21.137  1.00  0.00     0.299 C 
BRANCH   9  10
ATOM     10  C   UNL     1      11.301 -58.975 -21.826  1.00  0.00     0.006 A 
ATOM     11  C   UNL     1      10.236 -59.793 -21.415  1.00  0.00     0.009 A 
ATOM     12  C   UNL     1      12.098 -59.391 -22.904  1.00  0.00     0.009 A 
ATOM     13  C   UNL     1       9.972 -60.994 -22.073  1.00  0.00     0.001 A 
ATOM     14  C   UNL     1      11.830 -60.593 -23.559  1.00  0.00     0.001 A 
ATOM     15  C   UNL     1      10.767 -61.392 -23.145  1.00  0.00     0.000 A 
ENDBRANCH   9  10
ENDBRANCH   4   9
ENDBRANCH   1   2
BRANCH   1  16
ATOM     16  C   UNL     1      12.106 -51.732 -22.410  1.00  0.00     0.061 C 
BRANCH  16  17
ATOM     17  C   UNL     1      11.367 -50.449 -22.555  1.00  0.00     0.091 A 
ATOM     18  C   UNL     1      11.756 -49.278 -23.260  1.00  0.00     0.045 A 
ATOM     19  N   UNL     1      10.188 -50.284 -21.937  1.00  0.00    -0.084 NA
ATOM     20  C   UNL     1      12.852 -48.874 -24.049  1.00  0.00     0.020 A 
ATOM     21  C   UNL     1      10.714 -48.388 -23.022  1.00  0.00     0.169 A 
ATOM     22  O   UNL     1       9.781 -48.994 -22.238  1.00  0.00    -0.356 OA
ATOM     23  C   UNL     1      12.801 -47.577 -24.552  1.00  0.00    -0.014 A 
ATOM     24  C   UNL     1      10.639 -47.085 -23.512  1.00  0.00     0.077 A 
ATOM     25  C   UNL     1      13.803 -46.858 -25.411  1.00  0.00     0.138 C 
ATOM     26  C   UNL     1      11.727 -46.726 -24.284  1.00  0.00     0.048 A 
ATOM     27  C   UNL     1      13.144 -45.488 -25.598  1.00  0.00     0.228 C 
ATOM     28  N   UNL     1      11.940 -45.505 -24.905  1.00  0.00    -0.325 N 
ATOM     29  O   UNL     1      13.583 -44.550 -26.239  1.00  0.00    -0.274 OA
ATOM     30  H   UNL     1      11.327 -44.703 -24.873  1.00  0.00     0.169 HD
ENDBRANCH  16  17
ENDBRANCH   1  16
TORSDOF 5
ENDMDL
MODEL 7
REMARK VINA RESULT:   -10.248      3.574      6.687
REMARK INTER + INTRA:         -14.020
REMARK INTER:                 -13.482
REMARK INTRA:                  -0.538
REMARK UNBOUND:                -0.776
REMARK SMILES O=C1Cc2cc3c(CC[C@H]4CC[N@@H+](Cc5ccccc5)CC4)noc3cc2N1
REMARK SMILES IDX 9 1 10 2 12 3 13 4 11 5 21 6 22 7 14 9 15 10 16 11 20 12
REMARK SMILES IDX 17 13 19 14 18 15 8 16 7 17 6 18 23 19 5 20 25 21 24 22 4 23
REMARK SMILES IDX 26 24 3 25 27 26 2 27 28 28 1 29
REMARK H PARENT 13 8 28 30
ROOT
ATOM      1  C   UNL     1      11.013 -54.998 -22.246  1.00  0.00     0.010 C 
ENDROOT
BRANCH   1   2
ATOM      2  C   UNL     1      10.636 -53.783 -23.132  1.00  0.00     0.000 C 
ATOM      3  C   UNL     1      11.004 -51.521 -21.954  1.00  0.00     0.262 C 
ATOM      4  N   UNL     1      11.860 -51.093 -23.117  1.00  0.00    -0.331 N 
ATOM      5  C   UNL     1      10.017 -52.590 -22.398  1.00  0.00     0.065 C 
ATOM      6  C   UNL     1      12.633 -52.231 -23.717  1.00  0.00     0.262 C 
ATOM      7  C   UNL     1      11.705 -53.354 -24.147  1.00  0.00     0.065 C 
ATOM      8  H   UNL     1      11.232 -50.718 -23.836  1.00  0.00     0.348 HD
BRANCH   4   9
ATOM      9  C   UNL     1      12.798 -49.958 -22.740  1.00  0.00     0.299 C 
BRANCH   9  10
ATOM     10  C   UNL     1      12.448 -48.658 -23.409  1.00  0.00     0.006 A 
ATOM     11  C   UNL     1      13.337 -48.062 -24.320  1.00  0.00     0.009 A 
ATOM     12  C   UNL     1      11.221 -48.028 -23.148  1.00  0.00     0.009 A 
ATOM     13  C   UNL     1      12.999 -46.869 -24.959  1.00  0.00     0.001 A 
ATOM     14  C   UNL     1      10.889 -46.835 -23.789  1.00  0.00     0.001 A 
ATOM     15  C   UNL     1      11.775 -46.258 -24.695  1.00  0.00     0.000 A 
ENDBRANCH   9  10
ENDBRANCH   4   9
ENDBRANCH   1   2
BRANCH   1  16
ATOM     16  C   UNL     1      10.103 -56.229 -22.183  1.00  0.00     0.061 C 
BRANCH  16  17
ATOM     17  C   UNL     1      10.478 -57.336 -23.102  1.00  0.00     0.091 A 
ATOM     18  C   UNL     1       9.725 -58.491 -23.450  1.00  0.00     0.045 A 
ATOM     19  N   UNL     1      11.683 -57.337 -23.690  1.00  0.00    -0.084 NA
ATOM     20  C   UNL     1       8.455 -59.017 -23.143  1.00  0.00     0.020 A 
ATOM     21  C   UNL     1      10.574 -59.192 -24.301  1.00  0.00     0.169 A 
ATOM     22  O   UNL     1      11.735 -58.498 -24.444  1.00  0.00    -0.356 OA
ATOM     23  C   UNL     1       8.133 -60.232 -23.739  1.00  0.00    -0.014 A 
ATOM     24  C   UNL     1      10.277 -60.411 -24.911  1.00  0.00     0.077 A 
ATOM     25  C   UNL     1       6.874 -61.044 -23.609  1.00  0.00     0.138 C 
ATOM     26  C   UNL     1       9.022 -60.893 -24.589  1.00  0.00     0.048 A 
ATOM     27  C   UNL     1       7.171 -62.248 -24.509  1.00  0.00     0.228 C 
ATOM     28  N   UNL     1       8.445 -62.072 -25.035  1.00  0.00    -0.325 N 
ATOM     29  O   UNL     1       6.432 -63.190 -24.733  1.00  0.00    -0.274 OA
ATOM     30  H   UNL     1       8.868 -62.748 -25.655  1.00  0.00     0.169 HD
ENDBRANCH  16  17
ENDBRANCH   1  16
TORSDOF 5
ENDMDL
MODEL 8
REMARK VINA RESULT:   -10.054      6.342     11.706
REMARK INTER + INTRA:         -13.768
REMARK INTER:                 -13.249
REMARK INTRA:                  -0.519
REMARK UNBOUND:                -0.776
REMARK SMILES O=C1Cc2cc3c(CC[C@H]4CC[N@@H+](Cc5ccccc5)CC4)noc3cc2N1
REMARK SMILES IDX 9 1 10 2 12 3 13 4 11 5 21 6 22 7 14 9 15 10 16 11 20 12
REMARK SMILES IDX 17 13 19 14 18 15 8 16 7 17 6 18 23 19 5 20 25 21 24 22 4 23
REMARK SMILES IDX 26 24 3 25 27 26 2 27 28 28 1 29
REMARK H PARENT 13 8 28 30
ROOT
ATOM      1  C   UNL     1      11.645 -52.219 -22.330  1.00  0.00     0.010 C 
ENDROOT
BRANCH   1   2
ATOM      2  C   UNL     1      10.539 -53.285 -22.535  1.00  0.00     0.000 C 
ATOM      3  C   UNL     1      11.365 -55.367 -23.810  1.00  0.00     0.262 C 
ATOM      4  N   UNL     1      10.866 -56.219 -22.674  1.00  0.00    -0.331 N 
ATOM      5  C   UNL     1      10.594 -54.056 -23.858  1.00  0.00     0.065 C 
ATOM      6  C   UNL     1      10.999 -55.543 -21.340  1.00  0.00     0.262 C 
ATOM      7  C   UNL     1      10.281 -54.205 -21.333  1.00  0.00     0.065 C 
ATOM      8  H   UNL     1       9.870 -56.401 -22.843  1.00  0.00     0.348 HD
BRANCH   4   9
ATOM      9  C   UNL     1      11.545 -57.578 -22.647  1.00  0.00     0.299 C 
BRANCH   9  10
ATOM     10  C   UNL     1      10.573 -58.721 -22.545  1.00  0.00     0.006 A 
ATOM     11  C   UNL     1      10.762 -59.737 -21.594  1.00  0.00     0.009 A 
ATOM     12  C   UNL     1       9.452 -58.781 -23.388  1.00  0.00     0.009 A 
ATOM     13  C   UNL     1       9.845 -60.783 -21.485  1.00  0.00     0.001 A 
ATOM     14  C   UNL     1       8.538 -59.829 -23.275  1.00  0.00     0.001 A 
ATOM     15  C   UNL     1       8.733 -60.826 -22.323  1.00  0.00     0.000 A 
ENDBRANCH   9  10
ENDBRANCH   4   9
ENDBRANCH   1   2
BRANCH   1  16
ATOM     16  C   UNL     1      11.283 -50.738 -22.182  1.00  0.00     0.061 C 
BRANCH  16  17
ATOM     17  C   UNL     1      11.936 -49.830 -23.162  1.00  0.00     0.091 A 
ATOM     18  C   UNL     1      11.731 -48.436 -23.350  1.00  0.00     0.045 A 
ATOM     19  N   UNL     1      12.818 -50.322 -24.044  1.00  0.00    -0.084 NA
ATOM     20  C   UNL     1      10.945 -47.427 -22.758  1.00  0.00     0.020 A 
ATOM     21  C   UNL     1      12.564 -48.122 -24.419  1.00  0.00     0.169 A 
ATOM     22  O   UNL     1      13.213 -49.247 -24.824  1.00  0.00    -0.356 OA
ATOM     23  C   UNL     1      11.074 -46.152 -23.299  1.00  0.00    -0.014 A 
ATOM     24  C   UNL     1      12.711 -46.854 -24.981  1.00  0.00     0.077 A 
ATOM     25  C   UNL     1      10.378 -44.880 -22.898  1.00  0.00     0.138 C 
ATOM     26  C   UNL     1      11.930 -45.890 -24.371  1.00  0.00     0.048 A 
ATOM     27  C   UNL     1      10.965 -43.866 -23.884  1.00  0.00     0.228 C 
ATOM     28  N   UNL     1      11.858 -44.547 -24.703  1.00  0.00    -0.325 N 
ATOM     29  O   UNL     1      10.707 -42.677 -23.946  1.00  0.00    -0.274 OA
ATOM     30  H   UNL     1      12.365 -44.085 -25.444  1.00  0.00     0.169 HD
ENDBRANCH  16  17
ENDBRANCH   1  16
TORSDOF 5
ENDMDL
MODEL 9
REMARK VINA RESULT:    -9.985      4.480      7.951
REMARK INTER + INTRA:         -13.680
REMARK INTER:                 -13.224
REMARK INTRA:                  -0.456
REMARK UNBOUND:                -0.776
REMARK SMILES O=C1Cc2cc3c(CC[C@H]4CC[N@@H+](Cc5ccccc5)CC4)noc3cc2N1
REMARK SMILES IDX 9 1 10 2 12 3 13 4 11 5 21 6 22 7 14 9 15 10 16 11 20 12
REMARK SMILES IDX 17 13 19 14 18 15 8 16 7 17 6 18 23 19 5 20 25 21 24 22 4 23
REMARK SMILES IDX 26 24 3 25 27 26 2 27 28 28 1 29
REMARK H PARENT 13 8 28 30
ROOT
ATOM      1  C   UNL     1      10.889 -53.327 -22.896  1.00  0.00     0.010 C 
ENDROOT
BRANCH   1   2
ATOM      2  C   UNL     1      11.827 -52.244 -22.302  1.00  0.00     0.000 C 
ATOM      3  C   UNL     1      12.943 -50.776 -24.102  1.00  0.00     0.262 C 
ATOM      4  N   UNL     1      12.402 -49.560 -23.397  1.00  0.00    -0.331 N 
ATOM      5  C   UNL     1      13.083 -51.930 -23.120  1.00  0.00     0.065 C 
ATOM      6  C   UNL     1      11.065 -49.806 -22.761  1.00  0.00     0.262 C 
ATOM      7  C   UNL     1      11.127 -50.975 -21.794  1.00  0.00     0.065 C 
ATOM      8  H   UNL     1      13.068 -49.315 -22.657  1.00  0.00     0.348 HD
BRANCH   4   9
ATOM      9  C   UNL     1      12.334 -48.356 -24.321  1.00  0.00     0.299 C 
BRANCH   9  10
ATOM     10  C   UNL     1      11.938 -47.090 -23.612  1.00  0.00     0.006 A 
ATOM     11  C   UNL     1      10.964 -46.240 -24.160  1.00  0.00     0.009 A 
ATOM     12  C   UNL     1      12.521 -46.749 -22.382  1.00  0.00     0.009 A 
ATOM     13  C   UNL     1      10.579 -45.079 -23.488  1.00  0.00     0.001 A 
ATOM     14  C   UNL     1      12.134 -45.588 -21.714  1.00  0.00     0.001 A 
ATOM     15  C   UNL     1      11.162 -44.756 -22.265  1.00  0.00     0.000 A 
ENDBRANCH   9  10
ENDBRANCH   4   9
ENDBRANCH   1   2
BRANCH   1  16
ATOM     16  C   UNL     1      10.856 -54.739 -22.304  1.00  0.00     0.061 C 
BRANCH  16  17
ATOM     17  C   UNL     1      11.303 -55.818 -23.225  1.00  0.00     0.091 A 
ATOM     18  C   UNL     1      11.099 -57.220 -23.112  1.00  0.00     0.045 A 
ATOM     19  N   UNL     1      12.032 -55.512 -24.308  1.00  0.00    -0.084 NA
ATOM     20  C   UNL     1      10.450 -58.092 -22.214  1.00  0.00     0.020 A 
ATOM     21  C   UNL     1      11.763 -57.740 -24.218  1.00  0.00     0.169 A 
ATOM     22  O   UNL     1      12.312 -56.718 -24.929  1.00  0.00    -0.356 OA
ATOM     23  C   UNL     1      10.518 -59.448 -22.518  1.00  0.00    -0.014 A 
ATOM     24  C   UNL     1      11.847 -59.093 -24.545  1.00  0.00     0.077 A 
ATOM     25  C   UNL     1       9.940 -60.614 -21.766  1.00  0.00     0.138 C 
ATOM     26  C   UNL     1      11.196 -59.916 -23.645  1.00  0.00     0.048 A 
ATOM     27  C   UNL     1      10.377 -61.803 -22.627  1.00  0.00     0.228 C 
ATOM     28  N   UNL     1      11.104 -61.297 -23.699  1.00  0.00    -0.325 N 
ATOM     29  O   UNL     1      10.134 -62.979 -22.423  1.00  0.00    -0.274 OA
ATOM     30  H   UNL     1      11.508 -61.898 -24.404  1.00  0.00     0.169 HD
ENDBRANCH  16  17
ENDBRANCH   1  16
TORSDOF 5
ENDMDL
