MODEL 1
REMARK VINA RESULT:   -11.938      0.000      0.000
REMARK INTER + INTRA:         -16.922
REMARK INTER:                 -16.125
REMARK INTRA:                  -0.797
REMARK UNBOUND:                -0.797
REMARK SMILES O=C1c2cccc([N+](=O)[O-])c2C(=O)N1CC[C@H]1CC[N@H+](Cc2ccccc2)CC1
REMARK SMILES IDX 16 1 17 2 19 3 20 4 18 5 28 6 29 7 21 9 22 10 23 11 27 12
REMARK SMILES IDX 24 13 26 14 25 15 15 16 14 17 12 18 2 19 11 20 3 21 7 22
REMARK SMILES IDX 4 23 6 24 5 25 13 26 1 27 8 28 9 29 10 30
REMARK H PARENT 20 8
ROOT
ATOM      1  C   UNL     1      11.060 -56.123 -21.909  1.00  0.00     0.026 C 
ENDROOT
BRANCH   1   2
ATOM      2  C   UNL     1      11.519 -57.559 -22.231  1.00  0.00     0.002 C 
ATOM      3  C   UNL     1      11.896 -59.201 -24.130  1.00  0.00     0.262 C 
ATOM      4  N   UNL     1      10.964 -60.164 -23.440  1.00  0.00    -0.331 N 
ATOM      5  C   UNL     1      11.505 -57.779 -23.754  1.00  0.00     0.065 C 
ATOM      6  C   UNL     1      11.045 -60.037 -21.942  1.00  0.00     0.262 C 
ATOM      7  C   UNL     1      10.652 -58.620 -21.534  1.00  0.00     0.065 C 
ATOM      8  H   UNL     1      10.010 -59.894 -23.708  1.00  0.00     0.348 HD
BRANCH   4   9
ATOM      9  C   UNL     1      11.100 -61.593 -23.934  1.00  0.00     0.299 C 
BRANCH   9  10
ATOM     10  C   UNL     1       9.816 -62.365 -24.077  1.00  0.00     0.006 A 
ATOM     11  C   UNL     1       9.351 -63.182 -23.034  1.00  0.00     0.009 A 
ATOM     12  C   UNL     1       9.058 -62.278 -25.256  1.00  0.00     0.009 A 
ATOM     13  C   UNL     1       8.150 -63.880 -23.161  1.00  0.00     0.001 A 
ATOM     14  C   UNL     1       7.856 -62.979 -25.379  1.00  0.00     0.001 A 
ATOM     15  C   UNL     1       7.402 -63.776 -24.331  1.00  0.00     0.000 A 
ENDBRANCH   9  10
ENDBRANCH   4   9
ENDBRANCH   1   2
BRANCH   1  16
ATOM     16  C   UNL     1      10.539 -55.356 -23.129  1.00  0.00     0.129 C 
BRANCH  16  17
ATOM     17  N   UNL     1      11.143 -54.042 -23.223  1.00  0.00    -0.274 N 
ATOM     18  C   UNL     1      12.001 -53.670 -24.221  1.00  0.00     0.268 C 
ATOM     19  C   UNL     1      10.793 -52.983 -22.433  1.00  0.00     0.261 C 
ATOM     20  C   UNL     1      12.322 -52.266 -23.991  1.00  0.00     0.130 A 
ATOM     21  C   UNL     1      11.576 -51.841 -22.906  1.00  0.00     0.060 A 
ATOM     22  C   UNL     1      13.147 -51.385 -24.650  1.00  0.00     0.282 A 
ATOM     23  C   UNL     1      11.618 -50.536 -22.446  1.00  0.00     0.015 A 
ATOM     24  C   UNL     1      13.222 -50.053 -24.223  1.00  0.00     0.086 A 
ATOM     25  C   UNL     1      12.455 -49.635 -23.119  1.00  0.00     0.008 A 
ATOM     26  O   UNL     1      12.391 -54.328 -25.164  1.00  0.00    -0.268 OA
ATOM     27  O   UNL     1       9.973 -52.941 -21.537  1.00  0.00    -0.269 OA
BRANCH  22  28
ATOM     28  N   UNL     1      13.938 -51.828 -25.766  1.00  0.00     0.063 N 
ATOM     29  O   UNL     1      14.938 -52.506 -25.503  1.00  0.00    -0.258 OA
ATOM     30  O   UNL     1      13.574 -51.453 -26.887  1.00  0.00    -0.258 OA
ENDBRANCH  22  28
ENDBRANCH  16  17
ENDBRANCH   1  16
TORSDOF 6
ENDMDL
MODEL 2
REMARK VINA RESULT:   -11.729      1.446      2.516
REMARK INTER + INTRA:         -16.640
REMARK INTER:                 -15.811
REMARK INTRA:                  -0.829
REMARK UNBOUND:                -0.797
REMARK SMILES O=C1c2cccc([N+](=O)[O-])c2C(=O)N1CC[C@H]1CC[N@H+](Cc2ccccc2)CC1
REMARK SMILES IDX 16 1 17 2 19 3 20 4 18 5 28 6 29 7 21 9 22 10 23 11 27 12
REMARK SMILES IDX 24 13 26 14 25 15 15 16 14 17 12 18 2 19 11 20 3 21 7 22
REMARK SMILES IDX 4 23 6 24 5 25 13 26 1 27 8 28 9 29 10 30
REMARK H PARENT 20 8
ROOT
ATOM      1  C   UNL     1      11.123 -56.267 -21.839  1.00  0.00     0.026 C 
ENDROOT
BRANCH   1   2
ATOM      2  C   UNL     1      11.516 -57.741 -22.063  1.00  0.00     0.002 C 
ATOM      3  C   UNL     1      12.099 -59.446 -23.852  1.00  0.00     0.262 C 
ATOM      4  N   UNL     1      10.983 -60.319 -23.337  1.00  0.00    -0.331 N 
ATOM      5  C   UNL     1      11.760 -57.990 -23.561  1.00  0.00     0.065 C 
ATOM      6  C   UNL     1      10.801 -60.169 -21.850  1.00  0.00     0.262 C 
ATOM      7  C   UNL     1      10.455 -58.718 -21.529  1.00  0.00     0.065 C 
ATOM      8  H   UNL     1      10.118 -59.981 -23.776  1.00  0.00     0.348 HD
BRANCH   4   9
ATOM      9  C   UNL     1      11.091 -61.764 -23.790  1.00  0.00     0.299 C 
BRANCH   9  10
ATOM     10  C   UNL     1       9.792 -62.509 -23.930  1.00  0.00     0.006 A 
ATOM     11  C   UNL     1       9.324 -63.333 -22.894  1.00  0.00     0.009 A 
ATOM     12  C   UNL     1       9.022 -62.391 -25.098  1.00  0.00     0.009 A 
ATOM     13  C   UNL     1       8.107 -64.007 -23.018  1.00  0.00     0.001 A 
ATOM     14  C   UNL     1       7.806 -63.066 -25.219  1.00  0.00     0.001 A 
ATOM     15  C   UNL     1       7.348 -63.871 -24.178  1.00  0.00     0.000 A 
ENDBRANCH   9  10
ENDBRANCH   4   9
ENDBRANCH   1   2
BRANCH   1  16
ATOM     16  C   UNL     1      10.365 -55.646 -23.017  1.00  0.00     0.129 C 
BRANCH  16  17
ATOM     17  N   UNL     1      10.978 -54.404 -23.441  1.00  0.00    -0.274 N 
ATOM     18  C   UNL     1      10.897 -53.236 -22.734  1.00  0.00     0.268 C 
ATOM     19  C   UNL     1      11.843 -54.301 -24.495  1.00  0.00     0.261 C 
ATOM     20  C   UNL     1      11.697 -52.255 -23.458  1.00  0.00     0.130 A 
ATOM     21  C   UNL     1      12.285 -52.906 -24.528  1.00  0.00     0.060 A 
ATOM     22  C   UNL     1      11.953 -50.923 -23.235  1.00  0.00     0.282 A 
ATOM     23  C   UNL     1      13.146 -52.265 -25.402  1.00  0.00     0.015 A 
ATOM     24  C   UNL     1      12.819 -50.230 -24.091  1.00  0.00     0.086 A 
ATOM     25  C   UNL     1      13.412 -50.907 -25.174  1.00  0.00     0.008 A 
ATOM     26  O   UNL     1      10.336 -53.032 -21.677  1.00  0.00    -0.268 OA
ATOM     27  O   UNL     1      12.228 -55.171 -25.250  1.00  0.00    -0.269 OA
BRANCH  22  28
ATOM     28  N   UNL     1      11.329 -50.238 -22.136  1.00  0.00     0.063 N 
ATOM     29  O   UNL     1      10.189 -49.802 -22.330  1.00  0.00    -0.258 OA
ATOM     30  O   UNL     1      12.005 -50.106 -21.110  1.00  0.00    -0.258 OA
ENDBRANCH  22  28
ENDBRANCH  16  17
ENDBRANCH   1  16
TORSDOF 6
ENDMDL
MODEL 3
REMARK VINA RESULT:   -11.307      3.335      8.836
REMARK INTER + INTRA:         -16.069
REMARK INTER:                 -15.517
REMARK INTRA:                  -0.552
REMARK UNBOUND:                -0.797
REMARK SMILES O=C1c2cccc([N+](=O)[O-])c2C(=O)N1CC[C@H]1CC[N@H+](Cc2ccccc2)CC1
REMARK SMILES IDX 16 1 17 2 19 3 20 4 18 5 28 6 29 7 21 9 22 10 23 11 27 12
REMARK SMILES IDX 24 13 26 14 25 15 15 16 14 17 12 18 2 19 11 20 3 21 7 22
REMARK SMILES IDX 4 23 6 24 5 25 13 26 1 27 8 28 9 29 10 30
REMARK H PARENT 20 8
ROOT
ATOM      1  C   UNL     1      10.194 -60.045 -22.025  1.00  0.00     0.026 C 
ENDROOT
BRANCH   1   2
ATOM      2  C   UNL     1      10.369 -58.625 -22.598  1.00  0.00     0.002 C 
ATOM      3  C   UNL     1      11.359 -56.338 -22.114  1.00  0.00     0.262 C 
ATOM      4  N   UNL     1       9.992 -55.737 -22.323  1.00  0.00    -0.331 N 
ATOM      5  C   UNL     1      11.200 -57.771 -21.625  1.00  0.00     0.065 C 
ATOM      6  C   UNL     1       9.203 -56.499 -23.355  1.00  0.00     0.262 C 
ATOM      7  C   UNL     1       9.023 -57.941 -22.888  1.00  0.00     0.065 C 
ATOM      8  H   UNL     1       9.488 -55.837 -21.433  1.00  0.00     0.348 HD
BRANCH   4   9
ATOM      9  C   UNL     1      10.022 -54.240 -22.570  1.00  0.00     0.299 C 
BRANCH   9  10
ATOM     10  C   UNL     1      11.122 -53.743 -23.467  1.00  0.00     0.006 A 
ATOM     11  C   UNL     1      11.559 -54.512 -24.557  1.00  0.00     0.009 A 
ATOM     12  C   UNL     1      11.729 -52.498 -23.233  1.00  0.00     0.009 A 
ATOM     13  C   UNL     1      12.566 -54.039 -25.401  1.00  0.00     0.001 A 
ATOM     14  C   UNL     1      12.735 -52.028 -24.079  1.00  0.00     0.001 A 
ATOM     15  C   UNL     1      13.150 -52.797 -25.164  1.00  0.00     0.000 A 
ENDBRANCH   9  10
ENDBRANCH   4   9
ENDBRANCH   1   2
BRANCH   1  16
ATOM     16  C   UNL     1      10.978 -61.118 -22.788  1.00  0.00     0.129 C 
BRANCH  16  17
ATOM     17  N   UNL     1      10.480 -61.271 -24.140  1.00  0.00    -0.274 N 
ATOM     18  C   UNL     1      11.054 -60.682 -25.233  1.00  0.00     0.268 C 
ATOM     19  C   UNL     1       9.496 -62.152 -24.496  1.00  0.00     0.261 C 
ATOM     20  C   UNL     1      10.301 -61.140 -26.395  1.00  0.00     0.130 A 
ATOM     21  C   UNL     1       9.357 -62.047 -25.949  1.00  0.00     0.060 A 
ATOM     22  C   UNL     1      10.407 -60.857 -27.736  1.00  0.00     0.282 A 
ATOM     23  C   UNL     1       8.496 -62.704 -26.812  1.00  0.00     0.015 A 
ATOM     24  C   UNL     1       9.559 -61.497 -28.650  1.00  0.00     0.086 A 
ATOM     25  C   UNL     1       8.605 -62.419 -28.180  1.00  0.00     0.008 A 
ATOM     26  O   UNL     1      12.034 -59.967 -25.276  1.00  0.00    -0.268 OA
ATOM     27  O   UNL     1       8.869 -62.917 -23.790  1.00  0.00    -0.269 OA
BRANCH  22  28
ATOM     28  N   UNL     1      11.374 -59.900 -28.202  1.00  0.00     0.063 N 
ATOM     29  O   UNL     1      12.475 -60.346 -28.544  1.00  0.00    -0.258 OA
ATOM     30  O   UNL     1      11.034 -58.712 -28.177  1.00  0.00    -0.258 OA
ENDBRANCH  22  28
ENDBRANCH  16  17
ENDBRANCH   1  16
TORSDOF 6
ENDMDL
MODEL 4
REMARK VINA RESULT:   -10.525      4.070      9.903
REMARK INTER + INTRA:         -15.014
REMARK INTER:                 -14.951
REMARK INTRA:                  -0.063
REMARK UNBOUND:                -0.797
REMARK SMILES O=C1c2cccc([N+](=O)[O-])c2C(=O)N1CC[C@H]1CC[N@H+](Cc2ccccc2)CC1
REMARK SMILES IDX 16 1 17 2 19 3 20 4 18 5 28 6 29 7 21 9 22 10 23 11 27 12
REMARK SMILES IDX 24 13 26 14 25 15 15 16 14 17 12 18 2 19 11 20 3 21 7 22
REMARK SMILES IDX 4 23 6 24 5 25 13 26 1 27 8 28 9 29 10 30
REMARK H PARENT 20 8
ROOT
ATOM      1  C   UNL     1       9.823 -59.804 -22.094  1.00  0.00     0.026 C 
ENDROOT
BRANCH   1   2
ATOM      2  C   UNL     1      10.191 -58.398 -22.609  1.00  0.00     0.002 C 
ATOM      3  C   UNL     1      11.444 -56.272 -22.015  1.00  0.00     0.262 C 
ATOM      4  N   UNL     1      10.169 -55.497 -22.234  1.00  0.00    -0.331 N 
ATOM      5  C   UNL     1      11.093 -57.690 -21.585  1.00  0.00     0.065 C 
ATOM      6  C   UNL     1       9.322 -56.118 -23.313  1.00  0.00     0.262 C 
ATOM      7  C   UNL     1       8.949 -57.540 -22.906  1.00  0.00     0.065 C 
ATOM      8  H   UNL     1       9.631 -55.563 -21.361  1.00  0.00     0.348 HD
BRANCH   4   9
ATOM      9  C   UNL     1      10.394 -54.008 -22.423  1.00  0.00     0.299 C 
BRANCH   9  10
ATOM     10  C   UNL     1      11.358 -53.620 -23.509  1.00  0.00     0.006 A 
ATOM     11  C   UNL     1      11.744 -54.549 -24.490  1.00  0.00     0.009 A 
ATOM     12  C   UNL     1      11.888 -52.321 -23.566  1.00  0.00     0.009 A 
ATOM     13  C   UNL     1      12.624 -54.180 -25.509  1.00  0.00     0.001 A 
ATOM     14  C   UNL     1      12.767 -51.956 -24.587  1.00  0.00     0.001 A 
ATOM     15  C   UNL     1      13.132 -52.885 -25.559  1.00  0.00     0.000 A 
ENDBRANCH   9  10
ENDBRANCH   4   9
ENDBRANCH   1   2
BRANCH   1  16
ATOM     16  C   UNL     1      10.713 -60.917 -22.656  1.00  0.00     0.129 C 
BRANCH  16  17
ATOM     17  N   UNL     1      10.175 -61.448 -23.892  1.00  0.00    -0.274 N 
ATOM     18  C   UNL     1       9.042 -62.211 -23.962  1.00  0.00     0.268 C 
ATOM     19  C   UNL     1      10.634 -61.106 -25.134  1.00  0.00     0.261 C 
ATOM     20  C   UNL     1       8.808 -62.480 -25.377  1.00  0.00     0.130 A 
ATOM     21  C   UNL     1       9.773 -61.796 -26.095  1.00  0.00     0.060 A 
ATOM     22  C   UNL     1       7.846 -63.210 -26.033  1.00  0.00     0.282 A 
ATOM     23  C   UNL     1       9.812 -61.808 -27.479  1.00  0.00     0.015 A 
ATOM     24  C   UNL     1       7.842 -63.251 -27.433  1.00  0.00     0.086 A 
ATOM     25  C   UNL     1       8.828 -62.548 -28.151  1.00  0.00     0.008 A 
ATOM     26  O   UNL     1       8.313 -62.562 -23.058  1.00  0.00    -0.268 OA
ATOM     27  O   UNL     1      11.542 -60.354 -25.428  1.00  0.00    -0.269 OA
BRANCH  22  28
ATOM     28  N   UNL     1       6.853 -63.937 -25.290  1.00  0.00     0.063 N 
ATOM     29  O   UNL     1       5.901 -63.284 -24.848  1.00  0.00    -0.258 OA
ATOM     30  O   UNL     1       7.063 -65.144 -25.120  1.00  0.00    -0.258 OA
ENDBRANCH  22  28
ENDBRANCH  16  17
ENDBRANCH   1  16
TORSDOF 6
ENDMDL
MODEL 5
REMARK VINA RESULT:   -10.461      1.948      3.146
REMARK INTER + INTRA:         -14.927
REMARK INTER:                 -14.264
REMARK INTRA:                  -0.663
REMARK UNBOUND:                -0.797
REMARK SMILES O=C1c2cccc([N+](=O)[O-])c2C(=O)N1CC[C@H]1CC[N@H+](Cc2ccccc2)CC1
REMARK SMILES IDX 16 1 17 2 19 3 20 4 18 5 28 6 29 7 21 9 22 10 23 11 27 12
REMARK SMILES IDX 24 13 26 14 25 15 15 16 14 17 12 18 2 19 11 20 3 21 7 22
REMARK SMILES IDX 4 23 6 24 5 25 13 26 1 27 8 28 9 29 10 30
REMARK H PARENT 20 8
ROOT
ATOM      1  C   UNL     1       9.094 -56.246 -22.911  1.00  0.00     0.026 C 
ENDROOT
BRANCH   1   2
ATOM      2  C   UNL     1       9.101 -57.667 -23.507  1.00  0.00     0.002 C 
ATOM      3  C   UNL     1       7.703 -59.768 -23.788  1.00  0.00     0.262 C 
ATOM      4  N   UNL     1       8.809 -60.554 -23.132  1.00  0.00    -0.331 N 
ATOM      5  C   UNL     1       7.737 -58.337 -23.268  1.00  0.00     0.065 C 
ATOM      6  C   UNL     1      10.163 -59.974 -23.446  1.00  0.00     0.262 C 
ATOM      7  C   UNL     1      10.228 -58.539 -22.930  1.00  0.00     0.065 C 
ATOM      8  H   UNL     1       8.676 -60.459 -22.118  1.00  0.00     0.348 HD
BRANCH   4   9
ATOM      9  C   UNL     1       8.719 -62.048 -23.384  1.00  0.00     0.299 C 
BRANCH   9  10
ATOM     10  C   UNL     1       8.479 -62.462 -24.810  1.00  0.00     0.006 A 
ATOM     11  C   UNL     1       9.276 -61.951 -25.847  1.00  0.00     0.009 A 
ATOM     12  C   UNL     1       7.456 -63.370 -25.129  1.00  0.00     0.009 A 
ATOM     13  C   UNL     1       9.065 -62.353 -27.167  1.00  0.00     0.001 A 
ATOM     14  C   UNL     1       7.248 -63.770 -26.450  1.00  0.00     0.001 A 
ATOM     15  C   UNL     1       8.055 -63.264 -27.468  1.00  0.00     0.000 A 
ENDBRANCH   9  10
ENDBRANCH   4   9
ENDBRANCH   1   2
BRANCH   1  16
ATOM     16  C   UNL     1      10.431 -55.835 -22.284  1.00  0.00     0.129 C 
BRANCH  16  17
ATOM     17  N   UNL     1      11.009 -54.699 -22.974  1.00  0.00    -0.274 N 
ATOM     18  C   UNL     1      11.010 -53.427 -22.473  1.00  0.00     0.268 C 
ATOM     19  C   UNL     1      11.764 -54.799 -24.109  1.00  0.00     0.261 C 
ATOM     20  C   UNL     1      11.741 -52.604 -23.430  1.00  0.00     0.130 A 
ATOM     21  C   UNL     1      12.213 -53.443 -24.425  1.00  0.00     0.060 A 
ATOM     22  C   UNL     1      12.030 -51.260 -23.465  1.00  0.00     0.282 A 
ATOM     23  C   UNL     1      12.986 -52.981 -25.476  1.00  0.00     0.015 A 
ATOM     24  C   UNL     1      12.811 -50.745 -24.508  1.00  0.00     0.086 A 
ATOM     25  C   UNL     1      13.286 -51.612 -25.511  1.00  0.00     0.008 A 
ATOM     26  O   UNL     1      10.560 -53.032 -21.417  1.00  0.00    -0.268 OA
ATOM     27  O   UNL     1      12.063 -55.795 -24.738  1.00  0.00    -0.269 OA
BRANCH  22  28
ATOM     28  N   UNL     1      11.526 -50.383 -22.444  1.00  0.00     0.063 N 
ATOM     29  O   UNL     1      10.393 -49.920 -22.621  1.00  0.00    -0.258 OA
ATOM     30  O   UNL     1      12.288 -50.133 -21.503  1.00  0.00    -0.258 OA
ENDBRANCH  22  28
ENDBRANCH  16  17
ENDBRANCH   1  16
TORSDOF 6
ENDMDL
MODEL 6
REMARK VINA RESULT:   -10.247      3.404      9.894
REMARK INTER + INTRA:         -14.639
REMARK INTER:                 -14.933
REMARK INTRA:                   0.294
REMARK UNBOUND:                -0.797
REMARK SMILES O=C1c2cccc([N+](=O)[O-])c2C(=O)N1CC[C@H]1CC[N@H+](Cc2ccccc2)CC1
REMARK SMILES IDX 16 1 17 2 19 3 20 4 18 5 28 6 29 7 21 9 22 10 23 11 27 12
REMARK SMILES IDX 24 13 26 14 25 15 15 16 14 17 12 18 2 19 11 20 3 21 7 22
REMARK SMILES IDX 4 23 6 24 5 25 13 26 1 27 8 28 9 29 10 30
REMARK H PARENT 20 8
ROOT
ATOM      1  C   UNL     1      11.070 -58.139 -22.480  1.00  0.00     0.026 C 
ENDROOT
BRANCH   1   2
ATOM      2  C   UNL     1      10.680 -56.654 -22.616  1.00  0.00     0.002 C 
ATOM      3  C   UNL     1      11.042 -54.572 -24.022  1.00  0.00     0.262 C 
ATOM      4  N   UNL     1      11.487 -53.847 -22.777  1.00  0.00    -0.331 N 
ATOM      5  C   UNL     1      11.347 -56.055 -23.866  1.00  0.00     0.065 C 
ATOM      6  C   UNL     1      10.763 -54.348 -21.556  1.00  0.00     0.262 C 
ATOM      7  C   UNL     1      11.054 -55.834 -21.371  1.00  0.00     0.065 C 
ATOM      8  H   UNL     1      12.480 -54.072 -22.644  1.00  0.00     0.348 HD
BRANCH   4   9
ATOM      9  C   UNL     1      11.462 -52.336 -22.918  1.00  0.00     0.299 C 
BRANCH   9  10
ATOM     10  C   UNL     1      12.352 -51.759 -23.985  1.00  0.00     0.006 A 
ATOM     11  C   UNL     1      12.935 -52.588 -24.957  1.00  0.00     0.009 A 
ATOM     12  C   UNL     1      12.613 -50.380 -24.030  1.00  0.00     0.009 A 
ATOM     13  C   UNL     1      13.744 -52.048 -25.958  1.00  0.00     0.001 A 
ATOM     14  C   UNL     1      13.423 -49.843 -25.033  1.00  0.00     0.001 A 
ATOM     15  C   UNL     1      13.984 -50.677 -25.998  1.00  0.00     0.000 A 
ENDBRANCH   9  10
ENDBRANCH   4   9
ENDBRANCH   1   2
BRANCH   1  16
ATOM     16  C   UNL     1      11.842 -58.686 -23.685  1.00  0.00     0.129 C 
BRANCH  16  17
ATOM     17  N   UNL     1      11.074 -59.689 -24.392  1.00  0.00    -0.274 N 
ATOM     18  C   UNL     1      10.216 -60.561 -23.780  1.00  0.00     0.268 C 
ATOM     19  C   UNL     1      10.986 -59.763 -25.755  1.00  0.00     0.261 C 
ATOM     20  C   UNL     1       9.596 -61.348 -24.840  1.00  0.00     0.130 A 
ATOM     21  C   UNL     1      10.057 -60.855 -26.048  1.00  0.00     0.060 A 
ATOM     22  C   UNL     1       8.687 -62.379 -24.816  1.00  0.00     0.282 A 
ATOM     23  C   UNL     1       9.630 -61.360 -27.265  1.00  0.00     0.015 A 
ATOM     24  C   UNL     1       8.223 -62.923 -26.021  1.00  0.00     0.086 A 
ATOM     25  C   UNL     1       8.700 -62.409 -27.242  1.00  0.00     0.008 A 
ATOM     26  O   UNL     1       9.947 -60.650 -22.600  1.00  0.00    -0.268 OA
ATOM     27  O   UNL     1      11.520 -59.061 -26.590  1.00  0.00    -0.269 OA
BRANCH  22  28
ATOM     28  N   UNL     1       8.221 -62.908 -23.563  1.00  0.00     0.063 N 
ATOM     29  O   UNL     1       8.956 -63.725 -22.998  1.00  0.00    -0.258 OA
ATOM     30  O   UNL     1       7.106 -62.532 -23.185  1.00  0.00    -0.258 OA
ENDBRANCH  22  28
ENDBRANCH  16  17
ENDBRANCH   1  16
TORSDOF 6
ENDMDL
MODEL 7
REMARK VINA RESULT:   -10.012      3.135     10.026
REMARK INTER + INTRA:         -14.321
REMARK INTER:                 -14.186
REMARK INTRA:                  -0.135
REMARK UNBOUND:                -0.797
REMARK SMILES O=C1c2cccc([N+](=O)[O-])c2C(=O)N1CC[C@H]1CC[N@H+](Cc2ccccc2)CC1
REMARK SMILES IDX 16 1 17 2 19 3 20 4 18 5 28 6 29 7 21 9 22 10 23 11 27 12
REMARK SMILES IDX 24 13 26 14 25 15 15 16 14 17 12 18 2 19 11 20 3 21 7 22
REMARK SMILES IDX 4 23 6 24 5 25 13 26 1 27 8 28 9 29 10 30
REMARK H PARENT 20 8
ROOT
ATOM      1  C   UNL     1      10.653 -56.208 -22.274  1.00  0.00     0.026 C 
ENDROOT
BRANCH   1   2
ATOM      2  C   UNL     1      10.645 -54.730 -22.711  1.00  0.00     0.002 C 
ATOM      3  C   UNL     1      11.814 -53.037 -24.199  1.00  0.00     0.262 C 
ATOM      4  N   UNL     1      12.052 -52.180 -22.982  1.00  0.00    -0.331 N 
ATOM      5  C   UNL     1      11.737 -54.496 -23.769  1.00  0.00     0.065 C 
ATOM      6  C   UNL     1      10.935 -52.315 -21.981  1.00  0.00     0.262 C 
ATOM      7  C   UNL     1      10.838 -53.768 -21.527  1.00  0.00     0.065 C 
ATOM      8  H   UNL     1      12.900 -52.542 -22.529  1.00  0.00     0.348 HD
BRANCH   4   9
ATOM      9  C   UNL     1      12.393 -50.739 -23.317  1.00  0.00     0.299 C 
BRANCH   9  10
ATOM     10  C   UNL     1      13.563 -50.537 -24.240  1.00  0.00     0.006 A 
ATOM     11  C   UNL     1      14.853 -50.939 -23.859  1.00  0.00     0.009 A 
ATOM     12  C   UNL     1      13.385 -49.946 -25.501  1.00  0.00     0.009 A 
ATOM     13  C   UNL     1      15.934 -50.770 -24.726  1.00  0.00     0.001 A 
ATOM     14  C   UNL     1      14.469 -49.778 -26.366  1.00  0.00     0.001 A 
ATOM     15  C   UNL     1      15.741 -50.193 -25.979  1.00  0.00     0.000 A 
ENDBRANCH   9  10
ENDBRANCH   4   9
ENDBRANCH   1   2
BRANCH   1  16
ATOM     16  C   UNL     1      11.310 -57.147 -23.292  1.00  0.00     0.129 C 
BRANCH  16  17
ATOM     17  N   UNL     1      10.733 -58.475 -23.231  1.00  0.00    -0.274 N 
ATOM     18  C   UNL     1       9.391 -58.725 -23.310  1.00  0.00     0.268 C 
ATOM     19  C   UNL     1      11.468 -59.628 -23.264  1.00  0.00     0.261 C 
ATOM     20  C   UNL     1       9.236 -60.176 -23.280  1.00  0.00     0.130 A 
ATOM     21  C   UNL     1      10.505 -60.729 -23.264  1.00  0.00     0.060 A 
ATOM     22  C   UNL     1       8.128 -60.989 -23.300  1.00  0.00     0.282 A 
ATOM     23  C   UNL     1      10.714 -62.098 -23.273  1.00  0.00     0.015 A 
ATOM     24  C   UNL     1       8.288 -62.380 -23.312  1.00  0.00     0.086 A 
ATOM     25  C   UNL     1       9.585 -62.928 -23.298  1.00  0.00     0.008 A 
ATOM     26  O   UNL     1       8.483 -57.931 -23.444  1.00  0.00    -0.268 OA
ATOM     27  O   UNL     1      12.674 -59.759 -23.324  1.00  0.00    -0.269 OA
BRANCH  22  28
ATOM     28  N   UNL     1       6.809 -60.418 -23.298  1.00  0.00     0.063 N 
ATOM     29  O   UNL     1       6.517 -59.699 -22.336  1.00  0.00    -0.258 OA
ATOM     30  O   UNL     1       6.067 -60.733 -24.236  1.00  0.00    -0.258 OA
ENDBRANCH  22  28
ENDBRANCH  16  17
ENDBRANCH   1  16
TORSDOF 6
ENDMDL
MODEL 8
REMARK VINA RESULT:    -9.919      2.856     10.102
REMARK INTER + INTRA:         -14.195
REMARK INTER:                 -13.523
REMARK INTRA:                  -0.672
REMARK UNBOUND:                -0.797
REMARK SMILES O=C1c2cccc([N+](=O)[O-])c2C(=O)N1CC[C@H]1CC[N@H+](Cc2ccccc2)CC1
REMARK SMILES IDX 16 1 17 2 19 3 20 4 18 5 28 6 29 7 21 9 22 10 23 11 27 12
REMARK SMILES IDX 24 13 26 14 25 15 15 16 14 17 12 18 2 19 11 20 3 21 7 22
REMARK SMILES IDX 4 23 6 24 5 25 13 26 1 27 8 28 9 29 10 30
REMARK H PARENT 20 8
ROOT
ATOM      1  C   UNL     1      10.219 -55.067 -23.511  1.00  0.00     0.026 C 
ENDROOT
BRANCH   1   2
ATOM      2  C   UNL     1      11.044 -53.932 -22.874  1.00  0.00     0.002 C 
ATOM      3  C   UNL     1      10.868 -51.820 -21.475  1.00  0.00     0.262 C 
ATOM      4  N   UNL     1      11.575 -51.071 -22.576  1.00  0.00    -0.331 N 
ATOM      5  C   UNL     1      10.114 -52.996 -22.083  1.00  0.00     0.065 C 
ATOM      6  C   UNL     1      12.570 -51.945 -23.292  1.00  0.00     0.262 C 
ATOM      7  C   UNL     1      11.841 -53.131 -23.917  1.00  0.00     0.065 C 
ATOM      8  H   UNL     1      10.857 -50.814 -23.265  1.00  0.00     0.348 HD
BRANCH   4   9
ATOM      9  C   UNL     1      12.152 -49.741 -22.126  1.00  0.00     0.299 C 
BRANCH   9  10
ATOM     10  C   UNL     1      12.108 -48.628 -23.137  1.00  0.00     0.006 A 
ATOM     11  C   UNL     1      11.053 -47.701 -23.137  1.00  0.00     0.009 A 
ATOM     12  C   UNL     1      13.124 -48.493 -24.097  1.00  0.00     0.009 A 
ATOM     13  C   UNL     1      11.025 -46.657 -24.063  1.00  0.00     0.001 A 
ATOM     14  C   UNL     1      13.093 -47.448 -25.021  1.00  0.00     0.001 A 
ATOM     15  C   UNL     1      12.046 -46.529 -25.001  1.00  0.00     0.000 A 
ENDBRANCH   9  10
ENDBRANCH   4   9
ENDBRANCH   1   2
BRANCH   1  16
ATOM     16  C   UNL     1       9.881 -56.202 -22.539  1.00  0.00     0.129 C 
BRANCH  16  17
ATOM     17  N   UNL     1       9.799 -57.476 -23.224  1.00  0.00    -0.274 N 
ATOM     18  C   UNL     1      10.892 -58.205 -23.605  1.00  0.00     0.268 C 
ATOM     19  C   UNL     1       8.636 -58.170 -23.410  1.00  0.00     0.261 C 
ATOM     20  C   UNL     1      10.384 -59.440 -24.193  1.00  0.00     0.130 A 
ATOM     21  C   UNL     1       9.006 -59.425 -24.064  1.00  0.00     0.060 A 
ATOM     22  C   UNL     1      11.013 -60.520 -24.765  1.00  0.00     0.282 A 
ATOM     23  C   UNL     1       8.212 -60.477 -24.490  1.00  0.00     0.015 A 
ATOM     24  C   UNL     1      10.253 -61.610 -25.210  1.00  0.00     0.086 A 
ATOM     25  C   UNL     1       8.853 -61.581 -25.070  1.00  0.00     0.008 A 
ATOM     26  O   UNL     1      12.066 -57.942 -23.446  1.00  0.00    -0.268 OA
ATOM     27  O   UNL     1       7.508 -57.864 -23.078  1.00  0.00    -0.269 OA
BRANCH  22  28
ATOM     28  N   UNL     1      12.442 -60.530 -24.918  1.00  0.00     0.063 N 
ATOM     29  O   UNL     1      13.103 -60.885 -23.935  1.00  0.00    -0.258 OA
ATOM     30  O   UNL     1      12.885 -60.140 -26.005  1.00  0.00    -0.258 OA
ENDBRANCH  22  28
ENDBRANCH  16  17
ENDBRANCH   1  16
TORSDOF 6
ENDMDL
MODEL 9
REMARK VINA RESULT:    -9.839      2.690      9.401
REMARK INTER + INTRA:         -14.087
REMARK INTER:                 -13.126
REMARK INTRA:                  -0.960
REMARK UNBOUND:                -0.797
REMARK SMILES O=C1c2cccc([N+](=O)[O-])c2C(=O)N1CC[C@H]1CC[N@H+](Cc2ccccc2)CC1
REMARK SMILES IDX 16 1 17 2 19 3 20 4 18 5 28 6 29 7 21 9 22 10 23 11 27 12
REMARK SMILES IDX 24 13 26 14 25 15 15 16 14 17 12 18 2 19 11 20 3 21 7 22
REMARK SMILES IDX 4 23 6 24 5 25 13 26 1 27 8 28 9 29 10 30
REMARK H PARENT 20 8
ROOT
ATOM      1  C   UNL     1      10.202 -55.583 -22.146  1.00  0.00     0.026 C 
ENDROOT
BRANCH   1   2
ATOM      2  C   UNL     1      10.502 -54.238 -22.836  1.00  0.00     0.002 C 
ATOM      3  C   UNL     1      12.087 -53.080 -24.446  1.00  0.00     0.262 C 
ATOM      4  N   UNL     1      12.368 -52.051 -23.380  1.00  0.00    -0.331 N 
ATOM      5  C   UNL     1      11.709 -54.395 -23.777  1.00  0.00     0.065 C 
ATOM      6  C   UNL     1      11.160 -51.806 -22.515  1.00  0.00     0.262 C 
ATOM      7  C   UNL     1      10.760 -53.107 -21.826  1.00  0.00     0.065 C 
ATOM      8  H   UNL     1      13.092 -52.450 -22.770  1.00  0.00     0.348 HD
BRANCH   4   9
ATOM      9  C   UNL     1      12.993 -50.779 -23.921  1.00  0.00     0.299 C 
BRANCH   9  10
ATOM     10  C   UNL     1      14.481 -50.819 -24.141  1.00  0.00     0.006 A 
ATOM     11  C   UNL     1      15.323 -51.470 -23.226  1.00  0.00     0.009 A 
ATOM     12  C   UNL     1      15.054 -50.208 -25.269  1.00  0.00     0.009 A 
ATOM     13  C   UNL     1      16.701 -51.524 -23.444  1.00  0.00     0.001 A 
ATOM     14  C   UNL     1      16.432 -50.264 -25.483  1.00  0.00     0.001 A 
ATOM     15  C   UNL     1      17.254 -50.924 -24.572  1.00  0.00     0.000 A 
ENDBRANCH   9  10
ENDBRANCH   4   9
ENDBRANCH   1   2
BRANCH   1  16
ATOM     16  C   UNL     1      11.427 -56.495 -22.018  1.00  0.00     0.129 C 
BRANCH  16  17
ATOM     17  N   UNL     1      11.150 -57.822 -22.530  1.00  0.00    -0.274 N 
ATOM     18  C   UNL     1      11.290 -58.174 -23.844  1.00  0.00     0.268 C 
ATOM     19  C   UNL     1      10.890 -58.906 -21.739  1.00  0.00     0.261 C 
ATOM     20  C   UNL     1      10.984 -59.598 -23.928  1.00  0.00     0.130 A 
ATOM     21  C   UNL     1      10.751 -60.050 -22.641  1.00  0.00     0.060 A 
ATOM     22  C   UNL     1      10.934 -60.473 -24.987  1.00  0.00     0.282 A 
ATOM     23  C   UNL     1      10.468 -61.376 -22.362  1.00  0.00     0.015 A 
ATOM     24  C   UNL     1      10.654 -61.826 -24.756  1.00  0.00     0.086 A 
ATOM     25  C   UNL     1      10.421 -62.271 -23.441  1.00  0.00     0.008 A 
ATOM     26  O   UNL     1      11.656 -57.486 -24.774  1.00  0.00    -0.268 OA
ATOM     27  O   UNL     1      10.821 -58.964 -20.527  1.00  0.00    -0.269 OA
BRANCH  22  28
ATOM     28  N   UNL     1      11.156 -60.004 -26.327  1.00  0.00     0.063 N 
ATOM     29  O   UNL     1      12.326 -60.007 -26.729  1.00  0.00    -0.258 OA
ATOM     30  O   UNL     1      10.164 -59.597 -26.944  1.00  0.00    -0.258 OA
ENDBRANCH  22  28
ENDBRANCH  16  17
ENDBRANCH   1  16
TORSDOF 6
ENDMDL
