MODEL 1
REMARK VINA RESULT:   -11.295      0.000      0.000
REMARK INTER + INTRA:         -16.035
REMARK INTER:                 -15.587
REMARK INTRA:                  -0.448
REMARK UNBOUND:                -0.448
REMARK SMILES COc1cc2c(cc1OC)C(O)=C(C[C@H]1CC[N@H+](Cc3ccccc3)CC1)C2
REMARK SMILES IDX 14 1 13 2 11 3 6 4 28 5 7 6 5 7 8 8 4 9 3 10 12 11 9 13
REMARK SMILES IDX 10 14 2 15 1 16 15 17 16 18 27 19 17 20 26 21 18 22 19 24
REMARK SMILES IDX 20 25 21 26 25 27 22 28 24 29 23 30
REMARK H PARENT 12 12 18 23
ROOT
ATOM      1  C   UNL     1      10.067 -55.811 -22.372  1.00  0.00     0.039 C 
ENDROOT
BRANCH   1   2
ATOM      2  C   UNL     1      10.818 -54.612 -22.857  1.00  0.00    -0.023 C 
ATOM      3  C   UNL     1      10.954 -53.413 -22.262  1.00  0.00     0.122 C 
ATOM      4  C   UNL     1      11.733 -52.531 -23.112  1.00  0.00     0.024 A 
ATOM      5  C   UNL     1      11.599 -54.654 -24.163  1.00  0.00     0.071 C 
ATOM      6  C   UNL     1      12.086 -51.203 -22.946  1.00  0.00     0.062 A 
ATOM      7  C   UNL     1      12.124 -53.250 -24.245  1.00  0.00    -0.029 A 
ATOM      8  C   UNL     1      12.849 -50.586 -23.945  1.00  0.00     0.161 A 
ATOM      9  C   UNL     1      12.881 -52.664 -25.245  1.00  0.00     0.055 A 
ATOM     10  C   UNL     1      13.250 -51.320 -25.097  1.00  0.00     0.161 A 
BRANCH   3  11
ATOM     11  O   UNL     1      10.467 -52.977 -21.074  1.00  0.00    -0.507 OA
ATOM     12  H   UNL     1      11.154 -53.103 -20.401  1.00  0.00     0.293 HD
ENDBRANCH   3  11
BRANCH   8  13
ATOM     13  O   UNL     1      13.252 -49.274 -23.905  1.00  0.00    -0.493 OA
ATOM     14  C   UNL     1      12.241 -48.276 -23.864  1.00  0.00     0.278 C 
ENDBRANCH   8  13
BRANCH  10  15
ATOM     15  O   UNL     1      13.985 -50.618 -26.022  1.00  0.00    -0.493 OA
ATOM     16  C   UNL     1      15.398 -50.770 -25.992  1.00  0.00     0.278 C 
ENDBRANCH  10  15
ENDBRANCH   1   2
BRANCH   1  17
ATOM     17  C   UNL     1      10.466 -57.163 -23.009  1.00  0.00     0.004 C 
ATOM     18  C   UNL     1       9.260 -58.036 -23.383  1.00  0.00     0.065 C 
ATOM     19  C   UNL     1      11.437 -57.969 -22.130  1.00  0.00     0.065 C 
ATOM     20  C   UNL     1       9.689 -59.339 -24.044  1.00  0.00     0.262 C 
ATOM     21  C   UNL     1      11.856 -59.276 -22.793  1.00  0.00     0.262 C 
ATOM     22  N   UNL     1      10.625 -60.084 -23.128  1.00  0.00    -0.331 N 
ATOM     23  H   UNL     1      10.130 -60.252 -22.241  1.00  0.00     0.348 HD
BRANCH  22  24
ATOM     24  C   UNL     1      10.959 -61.457 -23.677  1.00  0.00     0.299 C 
BRANCH  24  25
ATOM     25  C   UNL     1       9.744 -62.315 -23.907  1.00  0.00     0.006 A 
ATOM     26  C   UNL     1       9.098 -62.315 -25.154  1.00  0.00     0.009 A 
ATOM     27  C   UNL     1       9.227 -63.112 -22.874  1.00  0.00     0.009 A 
ATOM     28  C   UNL     1       7.956 -63.090 -25.357  1.00  0.00     0.001 A 
ATOM     29  C   UNL     1       8.086 -63.886 -23.083  1.00  0.00     0.001 A 
ATOM     30  C   UNL     1       7.449 -63.873 -24.322  1.00  0.00     0.000 A 
ENDBRANCH  24  25
ENDBRANCH  22  24
ENDBRANCH   1  17
TORSDOF 7
ENDMDL
MODEL 2
REMARK VINA RESULT:   -11.011      1.043      2.053
REMARK INTER + INTRA:         -15.643
REMARK INTER:                 -15.456
REMARK INTRA:                  -0.187
REMARK UNBOUND:                -0.448
REMARK SMILES COc1cc2c(cc1OC)C(O)=C(C[C@H]1CC[N@H+](Cc3ccccc3)CC1)C2
REMARK SMILES IDX 14 1 13 2 11 3 6 4 28 5 7 6 5 7 8 8 4 9 3 10 12 11 9 13
REMARK SMILES IDX 10 14 2 15 1 16 15 17 16 18 27 19 17 20 26 21 18 22 19 24
REMARK SMILES IDX 20 25 21 26 25 27 22 28 24 29 23 30
REMARK H PARENT 12 12 18 23
ROOT
ATOM      1  C   UNL     1       9.812 -55.599 -22.356  1.00  0.00     0.039 C 
ENDROOT
BRANCH   1   2
ATOM      2  C   UNL     1      10.571 -54.378 -22.767  1.00  0.00    -0.023 C 
ATOM      3  C   UNL     1      11.370 -54.210 -23.835  1.00  0.00     0.122 C 
ATOM      4  C   UNL     1      11.936 -52.873 -23.817  1.00  0.00     0.024 A 
ATOM      5  C   UNL     1      10.468 -53.087 -21.966  1.00  0.00     0.071 C 
ATOM      6  C   UNL     1      12.841 -52.268 -24.672  1.00  0.00     0.062 A 
ATOM      7  C   UNL     1      11.412 -52.193 -22.714  1.00  0.00    -0.029 A 
ATOM      8  C   UNL     1      13.228 -50.949 -24.408  1.00  0.00     0.161 A 
ATOM      9  C   UNL     1      11.777 -50.886 -22.435  1.00  0.00     0.055 A 
ATOM     10  C   UNL     1      12.692 -50.255 -23.287  1.00  0.00     0.161 A 
BRANCH   3  11
ATOM     11  O   UNL     1      11.689 -55.083 -24.822  1.00  0.00    -0.507 OA
ATOM     12  H   UNL     1      12.400 -54.692 -25.355  1.00  0.00     0.293 HD
ENDBRANCH   3  11
BRANCH   8  13
ATOM     13  O   UNL     1      14.126 -50.243 -25.172  1.00  0.00    -0.493 OA
ATOM     14  C   UNL     1      14.125 -50.479 -26.573  1.00  0.00     0.278 C 
ENDBRANCH   8  13
BRANCH  10  15
ATOM     15  O   UNL     1      13.145 -48.969 -23.111  1.00  0.00    -0.493 OA
ATOM     16  C   UNL     1      12.212 -47.913 -23.288  1.00  0.00     0.278 C 
ENDBRANCH  10  15
ENDBRANCH   1   2
BRANCH   1  17
ATOM     17  C   UNL     1      10.242 -56.923 -23.031  1.00  0.00     0.004 C 
ATOM     18  C   UNL     1       9.084 -57.916 -23.209  1.00  0.00     0.065 C 
ATOM     19  C   UNL     1      11.406 -57.611 -22.299  1.00  0.00     0.065 C 
ATOM     20  C   UNL     1       9.535 -59.189 -23.913  1.00  0.00     0.262 C 
ATOM     21  C   UNL     1      11.847 -58.889 -23.003  1.00  0.00     0.262 C 
ATOM     22  N   UNL     1      10.665 -59.819 -23.140  1.00  0.00    -0.331 N 
ATOM     23  H   UNL     1      10.326 -60.010 -22.188  1.00  0.00     0.348 HD
BRANCH  22  24
ATOM     24  C   UNL     1      11.045 -61.168 -23.719  1.00  0.00     0.299 C 
BRANCH  24  25
ATOM     25  C   UNL     1       9.911 -62.156 -23.713  1.00  0.00     0.006 A 
ATOM     26  C   UNL     1       9.089 -62.303 -24.842  1.00  0.00     0.009 A 
ATOM     27  C   UNL     1       9.645 -62.931 -22.574  1.00  0.00     0.009 A 
ATOM     28  C   UNL     1       8.021 -63.201 -24.826  1.00  0.00     0.001 A 
ATOM     29  C   UNL     1       8.577 -63.827 -22.563  1.00  0.00     0.001 A 
ATOM     30  C   UNL     1       7.764 -63.960 -23.686  1.00  0.00     0.000 A 
ENDBRANCH  24  25
ENDBRANCH  22  24
ENDBRANCH   1  17
TORSDOF 7
ENDMDL
MODEL 3
REMARK VINA RESULT:   -10.151      2.298      3.535
REMARK INTER + INTRA:         -14.457
REMARK INTER:                 -14.133
REMARK INTRA:                  -0.324
REMARK UNBOUND:                -0.448
REMARK SMILES COc1cc2c(cc1OC)C(O)=C(C[C@H]1CC[N@H+](Cc3ccccc3)CC1)C2
REMARK SMILES IDX 14 1 13 2 11 3 6 4 28 5 7 6 5 7 8 8 4 9 3 10 12 11 9 13
REMARK SMILES IDX 10 14 2 15 1 16 15 17 16 18 27 19 17 20 26 21 18 22 19 24
REMARK SMILES IDX 20 25 21 26 25 27 22 28 24 29 23 30
REMARK H PARENT 12 12 18 23
ROOT
ATOM      1  C   UNL     1       9.825 -52.863 -22.125  1.00  0.00     0.039 C 
ENDROOT
BRANCH   1   2
ATOM      2  C   UNL     1      10.447 -51.536 -22.422  1.00  0.00    -0.023 C 
ATOM      3  C   UNL     1       9.943 -50.309 -22.205  1.00  0.00     0.122 C 
ATOM      4  C   UNL     1      10.873 -49.305 -22.689  1.00  0.00     0.024 A 
ATOM      5  C   UNL     1      11.848 -51.444 -23.013  1.00  0.00     0.071 C 
ATOM      6  C   UNL     1      10.769 -47.925 -22.727  1.00  0.00     0.062 A 
ATOM      7  C   UNL     1      12.010 -49.961 -23.173  1.00  0.00    -0.029 A 
ATOM      8  C   UNL     1      11.832 -47.191 -23.266  1.00  0.00     0.161 A 
ATOM      9  C   UNL     1      13.075 -49.256 -23.706  1.00  0.00     0.055 A 
ATOM     10  C   UNL     1      12.990 -47.858 -23.754  1.00  0.00     0.161 A 
BRANCH   3  11
ATOM     11  O   UNL     1       8.758 -49.946 -21.654  1.00  0.00    -0.507 OA
ATOM     12  H   UNL     1       8.073 -50.012 -22.339  1.00  0.00     0.293 HD
ENDBRANCH   3  11
BRANCH   8  13
ATOM     13  O   UNL     1      11.845 -45.821 -23.371  1.00  0.00    -0.493 OA
ATOM     14  C   UNL     1      10.594 -45.159 -23.490  1.00  0.00     0.278 C 
ENDBRANCH   8  13
BRANCH  10  15
ATOM     15  O   UNL     1      13.970 -47.046 -24.272  1.00  0.00    -0.493 OA
ATOM     16  C   UNL     1      14.368 -47.270 -25.618  1.00  0.00     0.278 C 
ENDBRANCH  10  15
ENDBRANCH   1   2
BRANCH   1  17
ATOM     17  C   UNL     1      10.699 -54.104 -22.428  1.00  0.00     0.004 C 
ATOM     18  C   UNL     1      10.500 -54.651 -23.848  1.00  0.00     0.065 C 
ATOM     19  C   UNL     1      10.500 -55.233 -21.404  1.00  0.00     0.065 C 
ATOM     20  C   UNL     1      11.404 -55.845 -24.125  1.00  0.00     0.262 C 
ATOM     21  C   UNL     1      11.401 -56.428 -21.691  1.00  0.00     0.262 C 
ATOM     22  N   UNL     1      11.151 -56.918 -23.098  1.00  0.00    -0.331 N 
ATOM     23  H   UNL     1      10.156 -57.174 -23.150  1.00  0.00     0.348 HD
BRANCH  22  24
ATOM     24  C   UNL     1      11.919 -58.185 -23.421  1.00  0.00     0.299 C 
BRANCH  24  25
ATOM     25  C   UNL     1      11.243 -59.432 -22.919  1.00  0.00     0.006 A 
ATOM     26  C   UNL     1      11.251 -60.606 -23.688  1.00  0.00     0.009 A 
ATOM     27  C   UNL     1      10.579 -59.434 -21.683  1.00  0.00     0.009 A 
ATOM     28  C   UNL     1      10.601 -61.754 -23.233  1.00  0.00     0.001 A 
ATOM     29  C   UNL     1       9.931 -60.584 -21.231  1.00  0.00     0.001 A 
ATOM     30  C   UNL     1       9.940 -61.741 -22.006  1.00  0.00     0.000 A 
ENDBRANCH  24  25
ENDBRANCH  22  24
ENDBRANCH   1  17
TORSDOF 7
ENDMDL
MODEL 4
REMARK VINA RESULT:   -10.074      3.786     10.302
REMARK INTER + INTRA:         -14.350
REMARK INTER:                 -13.580
REMARK INTRA:                  -0.770
REMARK UNBOUND:                -0.448
REMARK SMILES COc1cc2c(cc1OC)C(O)=C(C[C@H]1CC[N@H+](Cc3ccccc3)CC1)C2
REMARK SMILES IDX 14 1 13 2 11 3 6 4 28 5 7 6 5 7 8 8 4 9 3 10 12 11 9 13
REMARK SMILES IDX 10 14 2 15 1 16 15 17 16 18 27 19 17 20 26 21 18 22 19 24
REMARK SMILES IDX 20 25 21 26 25 27 22 28 24 29 23 30
REMARK H PARENT 12 12 18 23
ROOT
ATOM      1  C   UNL     1      11.516 -57.463 -22.091  1.00  0.00     0.039 C 
ENDROOT
BRANCH   1   2
ATOM      2  C   UNL     1      10.917 -58.530 -22.950  1.00  0.00    -0.023 C 
ATOM      3  C   UNL     1      11.409 -59.069 -24.079  1.00  0.00     0.122 C 
ATOM      4  C   UNL     1      10.471 -60.044 -24.605  1.00  0.00     0.024 A 
ATOM      5  C   UNL     1       9.598 -59.190 -22.571  1.00  0.00     0.071 C 
ATOM      6  C   UNL     1      10.520 -60.809 -25.758  1.00  0.00     0.062 A 
ATOM      7  C   UNL     1       9.389 -60.128 -23.723  1.00  0.00    -0.029 A 
ATOM      8  C   UNL     1       9.454 -61.676 -26.028  1.00  0.00     0.161 A 
ATOM      9  C   UNL     1       8.326 -60.981 -23.967  1.00  0.00     0.055 A 
ATOM     10  C   UNL     1       8.355 -61.764 -25.129  1.00  0.00     0.161 A 
BRANCH   3  11
ATOM     11  O   UNL     1      12.571 -58.807 -24.727  1.00  0.00    -0.507 OA
ATOM     12  H   UNL     1      12.418 -58.064 -25.332  1.00  0.00     0.293 HD
ENDBRANCH   3  11
BRANCH   8  13
ATOM     13  O   UNL     1       9.378 -62.477 -27.142  1.00  0.00    -0.493 OA
ATOM     14  C   UNL     1       9.264 -61.837 -28.405  1.00  0.00     0.278 C 
ENDBRANCH   8  13
BRANCH  10  15
ATOM     15  O   UNL     1       7.357 -62.636 -25.493  1.00  0.00    -0.493 OA
ATOM     16  C   UNL     1       7.124 -63.757 -24.653  1.00  0.00     0.278 C 
ENDBRANCH  10  15
ENDBRANCH   1   2
BRANCH   1  17
ATOM     17  C   UNL     1      10.808 -56.088 -22.126  1.00  0.00     0.004 C 
ATOM     18  C   UNL     1      11.112 -55.283 -23.397  1.00  0.00     0.065 C 
ATOM     19  C   UNL     1      11.113 -55.232 -20.886  1.00  0.00     0.065 C 
ATOM     20  C   UNL     1      10.367 -53.954 -23.416  1.00  0.00     0.262 C 
ATOM     21  C   UNL     1      10.372 -53.900 -20.914  1.00  0.00     0.262 C 
ATOM     22  N   UNL     1      10.719 -53.161 -22.185  1.00  0.00    -0.331 N 
ATOM     23  H   UNL     1      11.739 -53.026 -22.179  1.00  0.00     0.348 HD
BRANCH  22  24
ATOM     24  C   UNL     1      10.120 -51.769 -22.234  1.00  0.00     0.299 C 
BRANCH  24  25
ATOM     25  C   UNL     1      11.107 -50.714 -22.655  1.00  0.00     0.006 A 
ATOM     26  C   UNL     1      10.756 -49.355 -22.620  1.00  0.00     0.009 A 
ATOM     27  C   UNL     1      12.387 -51.074 -23.106  1.00  0.00     0.009 A 
ATOM     28  C   UNL     1      11.663 -48.380 -23.036  1.00  0.00     0.001 A 
ATOM     29  C   UNL     1      13.290 -50.095 -23.520  1.00  0.00     0.001 A 
ATOM     30  C   UNL     1      12.928 -48.750 -23.487  1.00  0.00     0.000 A 
ENDBRANCH  24  25
ENDBRANCH  22  24
ENDBRANCH   1  17
TORSDOF 7
ENDMDL
MODEL 5
REMARK VINA RESULT:    -9.586      3.577     10.318
REMARK INTER + INTRA:         -13.677
REMARK INTER:                 -13.132
REMARK INTRA:                  -0.545
REMARK UNBOUND:                -0.448
REMARK SMILES COc1cc2c(cc1OC)C(O)=C(C[C@H]1CC[N@H+](Cc3ccccc3)CC1)C2
REMARK SMILES IDX 14 1 13 2 11 3 6 4 28 5 7 6 5 7 8 8 4 9 3 10 12 11 9 13
REMARK SMILES IDX 10 14 2 15 1 16 15 17 16 18 27 19 17 20 26 21 18 22 19 24
REMARK SMILES IDX 20 25 21 26 25 27 22 28 24 29 23 30
REMARK H PARENT 12 12 18 23
ROOT
ATOM      1  C   UNL     1       9.543 -55.016 -22.391  1.00  0.00     0.039 C 
ENDROOT
BRANCH   1   2
ATOM      2  C   UNL     1       9.958 -56.391 -22.808  1.00  0.00    -0.023 C 
ATOM      3  C   UNL     1       9.178 -57.440 -23.127  1.00  0.00     0.122 C 
ATOM      4  C   UNL     1      10.008 -58.592 -23.429  1.00  0.00     0.024 A 
ATOM      5  C   UNL     1      11.430 -56.751 -22.962  1.00  0.00     0.071 C 
ATOM      6  C   UNL     1       9.658 -59.891 -23.756  1.00  0.00     0.062 A 
ATOM      7  C   UNL     1      11.347 -58.202 -23.335  1.00  0.00    -0.029 A 
ATOM      8  C   UNL     1      10.682 -60.817 -23.992  1.00  0.00     0.161 A 
ATOM      9  C   UNL     1      12.376 -59.099 -23.567  1.00  0.00     0.055 A 
ATOM     10  C   UNL     1      12.045 -60.419 -23.900  1.00  0.00     0.161 A 
BRANCH   3  11
ATOM     11  O   UNL     1       7.826 -57.530 -23.170  1.00  0.00    -0.507 OA
ATOM     12  H   UNL     1       7.490 -56.780 -23.686  1.00  0.00     0.293 HD
ENDBRANCH   3  11
BRANCH   8  13
ATOM     13  O   UNL     1      10.466 -62.136 -24.312  1.00  0.00    -0.493 OA
ATOM     14  C   UNL     1       9.578 -62.876 -23.486  1.00  0.00     0.278 C 
ENDBRANCH   8  13
BRANCH  10  15
ATOM     15  O   UNL     1      12.970 -61.407 -24.139  1.00  0.00    -0.493 OA
ATOM     16  C   UNL     1      14.235 -61.013 -24.651  1.00  0.00     0.278 C 
ENDBRANCH  10  15
ENDBRANCH   1   2
BRANCH   1  17
ATOM     17  C   UNL     1      10.658 -53.944 -22.390  1.00  0.00     0.004 C 
ATOM     18  C   UNL     1      10.302 -52.702 -21.561  1.00  0.00     0.065 C 
ATOM     19  C   UNL     1      11.073 -53.519 -23.808  1.00  0.00     0.065 C 
ATOM     20  C   UNL     1      11.438 -51.686 -21.549  1.00  0.00     0.262 C 
ATOM     21  C   UNL     1      12.203 -52.497 -23.790  1.00  0.00     0.262 C 
ATOM     22  N   UNL     1      11.786 -51.303 -22.964  1.00  0.00    -0.331 N 
ATOM     23  H   UNL     1      10.938 -50.921 -23.404  1.00  0.00     0.348 HD
BRANCH  22  24
ATOM     24  C   UNL     1      12.806 -50.182 -22.998  1.00  0.00     0.299 C 
BRANCH  24  25
ATOM     25  C   UNL     1      12.213 -48.852 -23.375  1.00  0.00     0.006 A 
ATOM     26  C   UNL     1      12.744 -48.112 -24.444  1.00  0.00     0.009 A 
ATOM     27  C   UNL     1      11.133 -48.322 -22.653  1.00  0.00     0.009 A 
ATOM     28  C   UNL     1      12.210 -46.867 -24.775  1.00  0.00     0.001 A 
ATOM     29  C   UNL     1      10.602 -47.077 -22.988  1.00  0.00     0.001 A 
ATOM     30  C   UNL     1      11.141 -46.349 -24.046  1.00  0.00     0.000 A 
ENDBRANCH  24  25
ENDBRANCH  22  24
ENDBRANCH   1  17
TORSDOF 7
ENDMDL
MODEL 6
REMARK VINA RESULT:    -9.509      2.858      5.766
REMARK INTER + INTRA:         -13.570
REMARK INTER:                 -12.842
REMARK INTRA:                  -0.728
REMARK UNBOUND:                -0.448
REMARK SMILES COc1cc2c(cc1OC)C(O)=C(C[C@H]1CC[N@H+](Cc3ccccc3)CC1)C2
REMARK SMILES IDX 14 1 13 2 11 3 6 4 28 5 7 6 5 7 8 8 4 9 3 10 12 11 9 13
REMARK SMILES IDX 10 14 2 15 1 16 15 17 16 18 27 19 17 20 26 21 18 22 19 24
REMARK SMILES IDX 20 25 21 26 25 27 22 28 24 29 23 30
REMARK H PARENT 12 12 18 23
ROOT
ATOM      1  C   UNL     1      13.288 -51.068 -23.406  1.00  0.00     0.039 C 
ENDROOT
BRANCH   1   2
ATOM      2  C   UNL     1      12.951 -49.633 -23.659  1.00  0.00    -0.023 C 
ATOM      3  C   UNL     1      12.032 -48.869 -23.042  1.00  0.00     0.122 C 
ATOM      4  C   UNL     1      12.015 -47.546 -23.641  1.00  0.00     0.024 A 
ATOM      5  C   UNL     1      13.711 -48.823 -24.701  1.00  0.00     0.071 C 
ATOM      6  C   UNL     1      11.213 -46.450 -23.376  1.00  0.00     0.062 A 
ATOM      7  C   UNL     1      13.004 -47.501 -24.628  1.00  0.00    -0.029 A 
ATOM      8  C   UNL     1      11.411 -45.283 -24.125  1.00  0.00     0.161 A 
ATOM      9  C   UNL     1      13.222 -46.358 -25.378  1.00  0.00     0.055 A 
ATOM     10  C   UNL     1      12.420 -45.236 -25.126  1.00  0.00     0.161 A 
BRANCH   3  11
ATOM     11  O   UNL     1      11.185 -49.182 -22.031  1.00  0.00    -0.507 OA
ATOM     12  H   UNL     1      11.249 -48.487 -21.357  1.00  0.00     0.293 HD
ENDBRANCH   3  11
BRANCH   8  13
ATOM     13  O   UNL     1      10.674 -44.134 -23.967  1.00  0.00    -0.493 OA
ATOM     14  C   UNL     1      10.862 -43.391 -22.771  1.00  0.00     0.278 C 
ENDBRANCH   8  13
BRANCH  10  15
ATOM     15  O   UNL     1      12.525 -44.049 -25.810  1.00  0.00    -0.493 OA
ATOM     16  C   UNL     1      13.688 -43.263 -25.591  1.00  0.00     0.278 C 
ENDBRANCH  10  15
ENDBRANCH   1   2
BRANCH   1  17
ATOM     17  C   UNL     1      12.129 -52.077 -23.579  1.00  0.00     0.004 C 
ATOM     18  C   UNL     1      11.481 -52.489 -22.249  1.00  0.00     0.065 C 
ATOM     19  C   UNL     1      12.547 -53.332 -24.362  1.00  0.00     0.065 C 
ATOM     20  C   UNL     1      10.319 -53.450 -22.461  1.00  0.00     0.262 C 
ATOM     21  C   UNL     1      11.382 -54.294 -24.563  1.00  0.00     0.262 C 
ATOM     22  N   UNL     1      10.798 -54.661 -23.220  1.00  0.00    -0.331 N 
ATOM     23  H   UNL     1      11.555 -55.094 -22.675  1.00  0.00     0.348 HD
BRANCH  22  24
ATOM     24  C   UNL     1       9.712 -55.714 -23.322  1.00  0.00     0.299 C 
BRANCH  24  25
ATOM     25  C   UNL     1      10.099 -57.027 -22.698  1.00  0.00     0.006 A 
ATOM     26  C   UNL     1      11.147 -57.090 -21.765  1.00  0.00     0.009 A 
ATOM     27  C   UNL     1       9.433 -58.210 -23.052  1.00  0.00     0.009 A 
ATOM     28  C   UNL     1      11.522 -58.313 -21.207  1.00  0.00     0.001 A 
ATOM     29  C   UNL     1       9.811 -59.429 -22.491  1.00  0.00     0.001 A 
ATOM     30  C   UNL     1      10.857 -59.481 -21.572  1.00  0.00     0.000 A 
ENDBRANCH  24  25
ENDBRANCH  22  24
ENDBRANCH   1  17
TORSDOF 7
ENDMDL
MODEL 7
REMARK VINA RESULT:    -9.435      2.827      5.884
REMARK INTER + INTRA:         -13.468
REMARK INTER:                 -12.739
REMARK INTRA:                  -0.729
REMARK UNBOUND:                -0.448
REMARK SMILES COc1cc2c(cc1OC)C(O)=C(C[C@H]1CC[N@H+](Cc3ccccc3)CC1)C2
REMARK SMILES IDX 14 1 13 2 11 3 6 4 28 5 7 6 5 7 8 8 4 9 3 10 12 11 9 13
REMARK SMILES IDX 10 14 2 15 1 16 15 17 16 18 27 19 17 20 26 21 18 22 19 24
REMARK SMILES IDX 20 25 21 26 25 27 22 28 24 29 23 30
REMARK H PARENT 12 12 18 23
ROOT
ATOM      1  C   UNL     1      13.158 -51.204 -23.289  1.00  0.00     0.039 C 
ENDROOT
BRANCH   1   2
ATOM      2  C   UNL     1      12.845 -49.783 -23.631  1.00  0.00    -0.023 C 
ATOM      3  C   UNL     1      13.466 -48.979 -24.513  1.00  0.00     0.122 C 
ATOM      4  C   UNL     1      12.854 -47.663 -24.490  1.00  0.00     0.024 A 
ATOM      5  C   UNL     1      11.667 -49.064 -22.987  1.00  0.00     0.071 C 
ATOM      6  C   UNL     1      13.179 -46.507 -25.179  1.00  0.00     0.062 A 
ATOM      7  C   UNL     1      11.785 -47.694 -23.589  1.00  0.00    -0.029 A 
ATOM      8  C   UNL     1      12.411 -45.358 -24.954  1.00  0.00     0.161 A 
ATOM      9  C   UNL     1      11.009 -46.572 -23.353  1.00  0.00     0.055 A 
ATOM     10  C   UNL     1      11.321 -45.392 -24.040  1.00  0.00     0.161 A 
BRANCH   3  11
ATOM     11  O   UNL     1      14.518 -49.238 -25.328  1.00  0.00    -0.507 OA
ATOM     12  H   UNL     1      15.313 -48.851 -24.928  1.00  0.00     0.293 HD
ENDBRANCH   3  11
BRANCH   8  13
ATOM     13  O   UNL     1      12.639 -44.149 -25.565  1.00  0.00    -0.493 OA
ATOM     14  C   UNL     1      13.990 -43.749 -25.748  1.00  0.00     0.278 C 
ENDBRANCH   8  13
BRANCH  10  15
ATOM     15  O   UNL     1      10.640 -44.208 -23.883  1.00  0.00    -0.493 OA
ATOM     16  C   UNL     1      10.932 -43.428 -22.732  1.00  0.00     0.278 C 
ENDBRANCH  10  15
ENDBRANCH   1   2
BRANCH   1  17
ATOM     17  C   UNL     1      11.999 -52.213 -23.463  1.00  0.00     0.004 C 
ATOM     18  C   UNL     1      11.378 -52.658 -22.131  1.00  0.00     0.065 C 
ATOM     19  C   UNL     1      12.406 -53.448 -24.283  1.00  0.00     0.065 C 
ATOM     20  C   UNL     1      10.215 -53.618 -22.342  1.00  0.00     0.262 C 
ATOM     21  C   UNL     1      11.240 -54.410 -24.483  1.00  0.00     0.262 C 
ATOM     22  N   UNL     1      10.682 -54.809 -23.138  1.00  0.00    -0.331 N 
ATOM     23  H   UNL     1      11.452 -55.252 -22.618  1.00  0.00     0.348 HD
BRANCH  22  24
ATOM     24  C   UNL     1       9.598 -55.863 -23.243  1.00  0.00     0.299 C 
BRANCH  24  25
ATOM     25  C   UNL     1      10.017 -57.201 -22.696  1.00  0.00     0.006 A 
ATOM     26  C   UNL     1       9.302 -58.362 -23.029  1.00  0.00     0.009 A 
ATOM     27  C   UNL     1      11.117 -57.305 -21.831  1.00  0.00     0.009 A 
ATOM     28  C   UNL     1       9.676 -59.598 -22.500  1.00  0.00     0.001 A 
ATOM     29  C   UNL     1      11.487 -58.543 -21.304  1.00  0.00     0.001 A 
ATOM     30  C   UNL     1      10.766 -59.687 -21.636  1.00  0.00     0.000 A 
ENDBRANCH  24  25
ENDBRANCH  22  24
ENDBRANCH   1  17
TORSDOF 7
ENDMDL
MODEL 8
REMARK VINA RESULT:    -9.309      2.502      4.570
REMARK INTER + INTRA:         -13.295
REMARK INTER:                 -12.983
REMARK INTRA:                  -0.312
REMARK UNBOUND:                -0.448
REMARK SMILES COc1cc2c(cc1OC)C(O)=C(C[C@H]1CC[N@H+](Cc3ccccc3)CC1)C2
REMARK SMILES IDX 14 1 13 2 11 3 6 4 28 5 7 6 5 7 8 8 4 9 3 10 12 11 9 13
REMARK SMILES IDX 10 14 2 15 1 16 15 17 16 18 27 19 17 20 26 21 18 22 19 24
REMARK SMILES IDX 20 25 21 26 25 27 22 28 24 29 23 30
REMARK H PARENT 12 12 18 23
ROOT
ATOM      1  C   UNL     1       9.806 -51.971 -22.093  1.00  0.00     0.039 C 
ENDROOT
BRANCH   1   2
ATOM      2  C   UNL     1      10.543 -50.690 -22.316  1.00  0.00    -0.023 C 
ATOM      3  C   UNL     1      11.868 -50.498 -22.446  1.00  0.00     0.122 C 
ATOM      4  C   UNL     1      12.144 -49.082 -22.604  1.00  0.00     0.024 A 
ATOM      5  C   UNL     1       9.793 -49.373 -22.470  1.00  0.00     0.071 C 
ATOM      6  C   UNL     1      13.348 -48.408 -22.721  1.00  0.00     0.062 A 
ATOM      7  C   UNL     1      10.924 -48.398 -22.620  1.00  0.00    -0.029 A 
ATOM      8  C   UNL     1      13.321 -47.014 -22.856  1.00  0.00     0.161 A 
ATOM      9  C   UNL     1      10.872 -47.021 -22.756  1.00  0.00     0.055 A 
ATOM     10  C   UNL     1      12.079 -46.319 -22.875  1.00  0.00     0.161 A 
BRANCH   3  11
ATOM     11  O   UNL     1      12.878 -51.402 -22.424  1.00  0.00    -0.507 OA
ATOM     12  H   UNL     1      12.778 -51.948 -21.628  1.00  0.00     0.293 HD
ENDBRANCH   3  11
BRANCH   8  13
ATOM     13  O   UNL     1      14.444 -46.231 -22.967  1.00  0.00    -0.493 OA
ATOM     14  C   UNL     1      15.493 -46.448 -22.034  1.00  0.00     0.278 C 
ENDBRANCH   8  13
BRANCH  10  15
ATOM     15  O   UNL     1      12.164 -44.953 -23.000  1.00  0.00    -0.493 OA
ATOM     16  C   UNL     1      11.069 -44.278 -23.603  1.00  0.00     0.278 C 
ENDBRANCH  10  15
ENDBRANCH   1   2
BRANCH   1  17
ATOM     17  C   UNL     1      10.618 -53.268 -22.320  1.00  0.00     0.004 C 
ATOM     18  C   UNL     1      10.558 -53.774 -23.768  1.00  0.00     0.065 C 
ATOM     19  C   UNL     1      10.213 -54.397 -21.359  1.00  0.00     0.065 C 
ATOM     20  C   UNL     1      11.401 -55.028 -23.964  1.00  0.00     0.262 C 
ATOM     21  C   UNL     1      11.054 -55.652 -21.565  1.00  0.00     0.262 C 
ATOM     22  N   UNL     1      10.945 -56.097 -23.004  1.00  0.00    -0.331 N 
ATOM     23  H   UNL     1       9.948 -56.276 -23.184  1.00  0.00     0.348 HD
BRANCH  22  24
ATOM     24  C   UNL     1      11.653 -57.412 -23.265  1.00  0.00     0.299 C 
BRANCH  24  25
ATOM     25  C   UNL     1      10.857 -58.610 -22.825  1.00  0.00     0.006 A 
ATOM     26  C   UNL     1       9.871 -59.157 -23.662  1.00  0.00     0.009 A 
ATOM     27  C   UNL     1      11.076 -59.188 -21.565  1.00  0.00     0.009 A 
ATOM     28  C   UNL     1       9.115 -60.252 -23.242  1.00  0.00     0.001 A 
ATOM     29  C   UNL     1      10.318 -60.284 -21.150  1.00  0.00     0.001 A 
ATOM     30  C   UNL     1       9.338 -60.813 -21.986  1.00  0.00     0.000 A 
ENDBRANCH  24  25
ENDBRANCH  22  24
ENDBRANCH   1  17
TORSDOF 7
ENDMDL
MODEL 9
REMARK VINA RESULT:    -9.276      3.411      9.972
REMARK INTER + INTRA:         -13.249
REMARK INTER:                 -12.626
REMARK INTRA:                  -0.623
REMARK UNBOUND:                -0.448
REMARK SMILES COc1cc2c(cc1OC)C(O)=C(C[C@H]1CC[N@H+](Cc3ccccc3)CC1)C2
REMARK SMILES IDX 14 1 13 2 11 3 6 4 28 5 7 6 5 7 8 8 4 9 3 10 12 11 9 13
REMARK SMILES IDX 10 14 2 15 1 16 15 17 16 18 27 19 17 20 26 21 18 22 19 24
REMARK SMILES IDX 20 25 21 26 25 27 22 28 24 29 23 30
REMARK H PARENT 12 12 18 23
ROOT
ATOM      1  C   UNL     1      10.297 -55.266 -22.131  1.00  0.00     0.039 C 
ENDROOT
BRANCH   1   2
ATOM      2  C   UNL     1      10.081 -56.700 -22.495  1.00  0.00    -0.023 C 
ATOM      3  C   UNL     1      10.707 -57.789 -22.014  1.00  0.00     0.122 C 
ATOM      4  C   UNL     1      10.208 -58.976 -22.684  1.00  0.00     0.024 A 
ATOM      5  C   UNL     1       9.010 -57.099 -23.503  1.00  0.00     0.071 C 
ATOM      6  C   UNL     1      10.582 -60.303 -22.560  1.00  0.00     0.062 A 
ATOM      7  C   UNL     1       9.201 -58.586 -23.572  1.00  0.00    -0.029 A 
ATOM      8  C   UNL     1       9.928 -61.257 -23.350  1.00  0.00     0.161 A 
ATOM      9  C   UNL     1       8.537 -59.510 -24.360  1.00  0.00     0.055 A 
ATOM     10  C   UNL     1       8.901 -60.859 -24.250  1.00  0.00     0.161 A 
BRANCH   3  11
ATOM     11  O   UNL     1      11.679 -57.882 -21.074  1.00  0.00    -0.507 OA
ATOM     12  H   UNL     1      11.966 -56.983 -20.845  1.00  0.00     0.293 HD
ENDBRANCH   3  11
BRANCH   8  13
ATOM     13  O   UNL     1      10.215 -62.600 -23.329  1.00  0.00    -0.493 OA
ATOM     14  C   UNL     1       9.489 -63.413 -22.418  1.00  0.00     0.278 C 
ENDBRANCH   8  13
BRANCH  10  15
ATOM     15  O   UNL     1       8.331 -61.871 -24.986  1.00  0.00    -0.493 OA
ATOM     16  C   UNL     1       8.732 -62.005 -26.343  1.00  0.00     0.278 C 
ENDBRANCH  10  15
ENDBRANCH   1   2
BRANCH   1  17
ATOM     17  C   UNL     1      10.852 -54.358 -23.254  1.00  0.00     0.004 C 
ATOM     18  C   UNL     1      11.800 -55.092 -24.213  1.00  0.00     0.065 C 
ATOM     19  C   UNL     1      11.540 -53.096 -22.711  1.00  0.00     0.065 C 
ATOM     20  C   UNL     1      12.294 -54.180 -25.328  1.00  0.00     0.262 C 
ATOM     21  C   UNL     1      12.040 -52.191 -23.830  1.00  0.00     0.262 C 
ATOM     22  N   UNL     1      12.968 -52.972 -24.729  1.00  0.00    -0.331 N 
ATOM     23  H   UNL     1      13.742 -53.305 -24.138  1.00  0.00     0.348 HD
BRANCH  22  24
ATOM     24  C   UNL     1      13.609 -52.111 -25.799  1.00  0.00     0.299 C 
BRANCH  24  25
ATOM     25  C   UNL     1      15.061 -51.819 -25.534  1.00  0.00     0.006 A 
ATOM     26  C   UNL     1      15.544 -50.501 -25.583  1.00  0.00     0.009 A 
ATOM     27  C   UNL     1      15.958 -52.861 -25.251  1.00  0.00     0.009 A 
ATOM     28  C   UNL     1      16.896 -50.236 -25.362  1.00  0.00     0.001 A 
ATOM     29  C   UNL     1      17.309 -52.590 -25.031  1.00  0.00     0.001 A 
ATOM     30  C   UNL     1      17.777 -51.280 -25.089  1.00  0.00     0.000 A 
ENDBRANCH  24  25
ENDBRANCH  22  24
ENDBRANCH   1  17
TORSDOF 7
ENDMDL
