MODEL 1
REMARK VINA RESULT:   -10.282      0.000      0.000
REMARK INTER + INTRA:         -19.293
REMARK INTER:                 -18.096
REMARK INTRA:                  -1.197
REMARK UNBOUND:                -1.197
REMARK SMILES C#CCN=c1[nH]c(NCCCC[C@H]2CC[N@@H+](Cc3ccccc3)CC2)c(C#N)cc1C#N
REMARK SMILES IDX 9 1 8 2 7 4 6 5 5 6 26 7 30 8 29 9 4 11 3 12 2 13 1 14 27 15
REMARK SMILES IDX 28 16 31 17 32 18 10 19 11 20 12 21 13 22 25 23 14 24 24 25
REMARK SMILES IDX 15 26 16 27 17 29 18 30 19 31 23 32 20 33 22 34 21 35
REMARK H PARENT 8 3 6 10 16 28
ROOT
ATOM      1  C   UNL     1      10.531 -59.648 -21.742  1.00  0.00     0.114 C 
ENDROOT
BRANCH   1   2
ATOM      2  N   UNL     1      11.182 -60.466 -22.751  1.00  0.00    -0.370 N 
ATOM      3  H   UNL     1      11.834 -61.153 -22.371  1.00  0.00     0.162 HD
BRANCH   2   4
ATOM      4  C   UNL     1      10.695 -60.775 -24.014  1.00  0.00     0.123 A 
ATOM      5  N   UNL     1      10.960 -59.940 -25.085  1.00  0.00    -0.325 N 
ATOM      6  C   UNL     1      10.503 -60.121 -26.378  1.00  0.00     0.145 A 
ATOM      7  C   UNL     1       9.955 -61.894 -24.263  1.00  0.00     0.094 A 
ATOM      8  C   UNL     1       9.681 -61.351 -26.655  1.00  0.00     0.096 A 
ATOM      9  C   UNL     1       9.453 -62.168 -25.608  1.00  0.00     0.046 A 
ATOM     10  H   UNL     1      11.434 -59.081 -24.860  1.00  0.00     0.170 HD
BRANCH   6  11
ATOM     11  N   UNL     1      10.720 -59.322 -27.370  1.00  0.00    -0.254 NA
BRANCH  11  12
ATOM     12  C   UNL     1      12.039 -59.207 -27.976  1.00  0.00     0.233 C 
BRANCH  12  13
ATOM     13  C   UNL     1      11.909 -59.459 -29.416  1.00  0.00    -0.083 C 
ATOM     14  C   UNL     1      11.801 -59.672 -30.594  1.00  0.00     0.006 C 
ENDBRANCH  12  13
ENDBRANCH  11  12
ENDBRANCH   6  11
BRANCH   7  15
ATOM     15  C   UNL     1       9.639 -62.830 -23.233  1.00  0.00     0.103 C 
ATOM     16  N   UNL     1       9.356 -63.567 -22.382  1.00  0.00    -0.192 NA
ENDBRANCH   7  15
BRANCH   8  17
ATOM     17  C   UNL     1       9.181 -61.635 -27.953  1.00  0.00     0.103 C 
ATOM     18  N   UNL     1       8.838 -61.896 -29.031  1.00  0.00    -0.192 NA
ENDBRANCH   8  17
ENDBRANCH   2   4
ENDBRANCH   1   2
BRANCH   1  19
ATOM     19  C   UNL     1      11.320 -58.350 -21.550  1.00  0.00     0.021 C 
BRANCH  19  20
ATOM     20  C   UNL     1      10.930 -57.291 -22.581  1.00  0.00     0.002 C 
BRANCH  20  21
ATOM     21  C   UNL     1      11.000 -55.854 -22.044  1.00  0.00     0.004 C 
BRANCH  21  22
ATOM     22  C   UNL     1      10.150 -54.804 -22.795  1.00  0.00    -0.000 C 
ATOM     23  C   UNL     1       9.797 -53.572 -21.948  1.00  0.00     0.065 C 
ATOM     24  C   UNL     1      10.853 -54.354 -24.090  1.00  0.00     0.065 C 
ATOM     25  C   UNL     1      10.993 -52.659 -21.700  1.00  0.00     0.262 C 
ATOM     26  C   UNL     1      12.038 -53.427 -23.840  1.00  0.00     0.262 C 
ATOM     27  N   UNL     1      11.578 -52.244 -23.027  1.00  0.00    -0.331 N 
ATOM     28  H   UNL     1      10.816 -51.807 -23.559  1.00  0.00     0.348 HD
BRANCH  27  29
ATOM     29  C   UNL     1      12.625 -51.150 -22.910  1.00  0.00     0.299 C 
BRANCH  29  30
ATOM     30  C   UNL     1      12.169 -49.763 -23.274  1.00  0.00     0.006 A 
ATOM     31  C   UNL     1      11.023 -49.208 -22.683  1.00  0.00     0.009 A 
ATOM     32  C   UNL     1      12.880 -49.001 -24.216  1.00  0.00     0.009 A 
ATOM     33  C   UNL     1      10.590 -47.929 -23.037  1.00  0.00     0.001 A 
ATOM     34  C   UNL     1      12.444 -47.722 -24.567  1.00  0.00     0.001 A 
ATOM     35  C   UNL     1      11.298 -47.189 -23.980  1.00  0.00     0.000 A 
ENDBRANCH  29  30
ENDBRANCH  27  29
ENDBRANCH  21  22
ENDBRANCH  20  21
ENDBRANCH  19  20
ENDBRANCH   1  19
TORSDOF 13
ENDMDL
MODEL 2
REMARK VINA RESULT:    -9.753      2.601     10.483
REMARK INTER + INTRA:         -18.362
REMARK INTER:                 -17.109
REMARK INTRA:                  -1.253
REMARK UNBOUND:                -1.197
REMARK SMILES C#CCN=c1[nH]c(NCCCC[C@H]2CC[N@@H+](Cc3ccccc3)CC2)c(C#N)cc1C#N
REMARK SMILES IDX 9 1 8 2 7 4 6 5 5 6 26 7 30 8 29 9 4 11 3 12 2 13 1 14 27 15
REMARK SMILES IDX 28 16 31 17 32 18 10 19 11 20 12 21 13 22 25 23 14 24 24 25
REMARK SMILES IDX 15 26 16 27 17 29 18 30 19 31 23 32 20 33 22 34 21 35
REMARK H PARENT 8 3 6 10 16 28
ROOT
ATOM      1  C   UNL     1      10.619 -53.204 -22.235  1.00  0.00     0.114 C 
ENDROOT
BRANCH   1   2
ATOM      2  N   UNL     1      11.694 -53.505 -23.164  1.00  0.00    -0.370 N 
ATOM      3  H   UNL     1      11.688 -54.466 -23.509  1.00  0.00     0.162 HD
BRANCH   2   4
ATOM      4  C   UNL     1      12.363 -52.606 -23.984  1.00  0.00     0.123 A 
ATOM      5  N   UNL     1      12.570 -51.304 -23.563  1.00  0.00    -0.325 N 
ATOM      6  C   UNL     1      13.189 -50.310 -24.300  1.00  0.00     0.145 A 
ATOM      7  C   UNL     1      12.846 -52.950 -25.212  1.00  0.00     0.094 A 
ATOM      8  C   UNL     1      13.718 -50.685 -25.659  1.00  0.00     0.096 A 
ATOM      9  C   UNL     1      13.532 -51.962 -26.043  1.00  0.00     0.046 A 
ATOM     10  H   UNL     1      12.131 -51.052 -22.693  1.00  0.00     0.170 HD
BRANCH   6  11
ATOM     11  N   UNL     1      13.350 -49.085 -23.923  1.00  0.00    -0.254 NA
BRANCH  11  12
ATOM     12  C   UNL     1      12.400 -48.435 -23.031  1.00  0.00     0.233 C 
BRANCH  12  13
ATOM     13  C   UNL     1      11.636 -47.452 -23.806  1.00  0.00    -0.083 C 
ATOM     14  C   UNL     1      11.004 -46.651 -24.441  1.00  0.00     0.006 C 
ENDBRANCH  12  13
ENDBRANCH  11  12
ENDBRANCH   6  11
BRANCH   7  15
ATOM     15  C   UNL     1      12.703 -54.271 -25.733  1.00  0.00     0.103 C 
ATOM     16  N   UNL     1      12.551 -55.348 -26.138  1.00  0.00    -0.192 NA
ENDBRANCH   7  15
BRANCH   8  17
ATOM     17  C   UNL     1      14.385 -49.741 -26.484  1.00  0.00     0.103 C 
ATOM     18  N   UNL     1      14.864 -48.944 -27.179  1.00  0.00    -0.192 NA
ENDBRANCH   8  17
ENDBRANCH   2   4
ENDBRANCH   1   2
BRANCH   1  19
ATOM     19  C   UNL     1       9.832 -54.481 -21.931  1.00  0.00     0.021 C 
BRANCH  19  20
ATOM     20  C   UNL     1       9.828 -55.441 -23.122  1.00  0.00     0.002 C 
BRANCH  20  21
ATOM     21  C   UNL     1       9.902 -56.920 -22.720  1.00  0.00     0.004 C 
BRANCH  21  22
ATOM     22  C   UNL     1      11.308 -57.462 -22.373  1.00  0.00    -0.000 C 
ATOM     23  C   UNL     1      11.291 -58.644 -21.392  1.00  0.00     0.065 C 
ATOM     24  C   UNL     1      12.072 -57.864 -23.649  1.00  0.00     0.065 C 
ATOM     25  C   UNL     1      10.777 -59.933 -22.023  1.00  0.00     0.262 C 
ATOM     26  C   UNL     1      11.566 -59.162 -24.269  1.00  0.00     0.262 C 
ATOM     27  N   UNL     1      11.617 -60.257 -23.234  1.00  0.00    -0.331 N 
ATOM     28  H   UNL     1      12.590 -60.304 -22.910  1.00  0.00     0.348 HD
BRANCH  27  29
ATOM     29  C   UNL     1      11.347 -61.638 -23.804  1.00  0.00     0.299 C 
BRANCH  29  30
ATOM     30  C   UNL     1       9.931 -62.133 -23.689  1.00  0.00     0.006 A 
ATOM     31  C   UNL     1       8.914 -61.582 -24.485  1.00  0.00     0.009 A 
ATOM     32  C   UNL     1       9.600 -63.150 -22.779  1.00  0.00     0.009 A 
ATOM     33  C   UNL     1       7.597 -62.028 -24.362  1.00  0.00     0.001 A 
ATOM     34  C   UNL     1       8.282 -63.593 -22.660  1.00  0.00     0.001 A 
ATOM     35  C   UNL     1       7.281 -63.030 -23.449  1.00  0.00     0.000 A 
ENDBRANCH  29  30
ENDBRANCH  27  29
ENDBRANCH  21  22
ENDBRANCH  20  21
ENDBRANCH  19  20
ENDBRANCH   1  19
TORSDOF 13
ENDMDL
MODEL 3
REMARK VINA RESULT:    -9.383      2.628      4.109
REMARK INTER + INTRA:         -17.711
REMARK INTER:                 -16.792
REMARK INTRA:                  -0.919
REMARK UNBOUND:                -1.197
REMARK SMILES C#CCN=c1[nH]c(NCCCC[C@H]2CC[N@@H+](Cc3ccccc3)CC2)c(C#N)cc1C#N
REMARK SMILES IDX 9 1 8 2 7 4 6 5 5 6 26 7 30 8 29 9 4 11 3 12 2 13 1 14 27 15
REMARK SMILES IDX 28 16 31 17 32 18 10 19 11 20 12 21 13 22 25 23 14 24 24 25
REMARK SMILES IDX 15 26 16 27 17 29 18 30 19 31 23 32 20 33 22 34 21 35
REMARK H PARENT 8 3 6 10 16 28
ROOT
ATOM      1  C   UNL     1      11.412 -57.259 -22.365  1.00  0.00     0.114 C 
ENDROOT
BRANCH   1   2
ATOM      2  N   UNL     1      11.223 -58.024 -23.586  1.00  0.00    -0.370 N 
ATOM      3  H   UNL     1      12.059 -58.094 -24.166  1.00  0.00     0.162 HD
BRANCH   2   4
ATOM      4  C   UNL     1      10.289 -59.029 -23.802  1.00  0.00     0.123 A 
ATOM      5  N   UNL     1       8.936 -58.755 -23.699  1.00  0.00    -0.325 N 
ATOM      6  C   UNL     1       7.916 -59.675 -23.857  1.00  0.00     0.145 A 
ATOM      7  C   UNL     1      10.645 -60.305 -24.126  1.00  0.00     0.094 A 
ATOM      8  C   UNL     1       8.305 -61.086 -24.209  1.00  0.00     0.096 A 
ATOM      9  C   UNL     1       9.624 -61.331 -24.331  1.00  0.00     0.046 A 
ATOM     10  H   UNL     1       8.703 -57.830 -23.377  1.00  0.00     0.170 HD
BRANCH   6  11
ATOM     11  N   UNL     1       6.654 -59.427 -23.725  1.00  0.00    -0.254 NA
BRANCH  11  12
ATOM     12  C   UNL     1       6.103 -58.952 -22.464  1.00  0.00     0.233 C 
BRANCH  12  13
ATOM     13  C   UNL     1       4.663 -58.732 -22.644  1.00  0.00    -0.083 C 
ATOM     14  C   UNL     1       3.484 -58.558 -22.794  1.00  0.00     0.006 C 
ENDBRANCH  12  13
ENDBRANCH  11  12
ENDBRANCH   6  11
BRANCH   7  15
ATOM     15  C   UNL     1      12.011 -60.690 -24.275  1.00  0.00     0.103 C 
ATOM     16  N   UNL     1      13.130 -60.968 -24.412  1.00  0.00    -0.192 NA
ENDBRANCH   7  15
BRANCH   8  17
ATOM     17  C   UNL     1       7.330 -62.098 -24.409  1.00  0.00     0.103 C 
ATOM     18  N   UNL     1       6.495 -62.879 -24.615  1.00  0.00    -0.192 NA
ENDBRANCH   8  17
ENDBRANCH   2   4
ENDBRANCH   1   2
BRANCH   1  19
ATOM     19  C   UNL     1      11.083 -55.788 -22.628  1.00  0.00     0.021 C 
BRANCH  19  20
ATOM     20  C   UNL     1      10.640 -55.069 -21.354  1.00  0.00     0.002 C 
BRANCH  20  21
ATOM     21  C   UNL     1      10.911 -53.558 -21.373  1.00  0.00     0.004 C 
BRANCH  21  22
ATOM     22  C   UNL     1      10.533 -52.815 -22.674  1.00  0.00    -0.000 C 
ATOM     23  C   UNL     1       9.710 -51.538 -22.442  1.00  0.00     0.065 C 
ATOM     24  C   UNL     1      11.791 -52.473 -23.497  1.00  0.00     0.065 C 
ATOM     25  C   UNL     1      10.533 -50.402 -21.845  1.00  0.00     0.262 C 
ATOM     26  C   UNL     1      12.602 -51.325 -22.905  1.00  0.00     0.262 C 
ATOM     27  N   UNL     1      11.710 -50.121 -22.744  1.00  0.00    -0.331 N 
ATOM     28  H   UNL     1      11.325 -49.920 -23.675  1.00  0.00     0.348 HD
BRANCH  27  29
ATOM     29  C   UNL     1      12.465 -48.856 -22.374  1.00  0.00     0.299 C 
BRANCH  29  30
ATOM     30  C   UNL     1      11.860 -47.565 -22.853  1.00  0.00     0.006 A 
ATOM     31  C   UNL     1      11.208 -46.704 -21.956  1.00  0.00     0.009 A 
ATOM     32  C   UNL     1      11.932 -47.200 -24.208  1.00  0.00     0.009 A 
ATOM     33  C   UNL     1      10.629 -45.516 -22.406  1.00  0.00     0.001 A 
ATOM     34  C   UNL     1      11.353 -46.011 -24.653  1.00  0.00     0.001 A 
ATOM     35  C   UNL     1      10.699 -45.172 -23.753  1.00  0.00     0.000 A 
ENDBRANCH  29  30
ENDBRANCH  27  29
ENDBRANCH  21  22
ENDBRANCH  20  21
ENDBRANCH  19  20
ENDBRANCH   1  19
TORSDOF 13
ENDMDL
MODEL 4
REMARK VINA RESULT:    -9.380      2.696     10.660
REMARK INTER + INTRA:         -17.705
REMARK INTER:                 -16.430
REMARK INTRA:                  -1.275
REMARK UNBOUND:                -1.197
REMARK SMILES C#CCN=c1[nH]c(NCCCC[C@H]2CC[N@@H+](Cc3ccccc3)CC2)c(C#N)cc1C#N
REMARK SMILES IDX 9 1 8 2 7 4 6 5 5 6 26 7 30 8 29 9 4 11 3 12 2 13 1 14 27 15
REMARK SMILES IDX 28 16 31 17 32 18 10 19 11 20 12 21 13 22 25 23 14 24 24 25
REMARK SMILES IDX 15 26 16 27 17 29 18 30 19 31 23 32 20 33 22 34 21 35
REMARK H PARENT 8 3 6 10 16 28
ROOT
ATOM      1  C   UNL     1      10.517 -52.636 -22.415  1.00  0.00     0.114 C 
ENDROOT
BRANCH   1   2
ATOM      2  N   UNL     1      11.812 -51.978 -22.409  1.00  0.00    -0.370 N 
ATOM      3  H   UNL     1      12.410 -52.245 -21.625  1.00  0.00     0.162 HD
BRANCH   2   4
ATOM      4  C   UNL     1      12.498 -51.478 -23.508  1.00  0.00     0.123 A 
ATOM      5  N   UNL     1      13.293 -52.316 -24.272  1.00  0.00    -0.325 N 
ATOM      6  C   UNL     1      14.049 -51.931 -25.364  1.00  0.00     0.145 A 
ATOM      7  C   UNL     1      12.421 -50.172 -23.891  1.00  0.00     0.094 A 
ATOM      8  C   UNL     1      13.970 -50.488 -25.785  1.00  0.00     0.096 A 
ATOM      9  C   UNL     1      13.172 -49.691 -25.048  1.00  0.00     0.046 A 
ATOM     10  H   UNL     1      13.400 -53.253 -23.921  1.00  0.00     0.170 HD
BRANCH   6  11
ATOM     11  N   UNL     1      14.819 -52.705 -26.054  1.00  0.00    -0.254 NA
BRANCH  11  12
ATOM     12  C   UNL     1      15.921 -53.427 -25.434  1.00  0.00     0.233 C 
BRANCH  12  13
ATOM     13  C   UNL     1      16.926 -52.450 -25.000  1.00  0.00    -0.083 C 
ATOM     14  C   UNL     1      17.744 -51.646 -24.641  1.00  0.00     0.006 C 
ENDBRANCH  12  13
ENDBRANCH  11  12
ENDBRANCH   6  11
BRANCH   7  15
ATOM     15  C   UNL     1      11.616 -49.229 -23.184  1.00  0.00     0.103 C 
ATOM     16  N   UNL     1      10.972 -48.478 -22.576  1.00  0.00    -0.192 NA
ENDBRANCH   7  15
BRANCH   8  17
ATOM     17  C   UNL     1      14.694 -49.999 -26.904  1.00  0.00     0.103 C 
ATOM     18  N   UNL     1      15.277 -49.533 -27.794  1.00  0.00    -0.192 NA
ENDBRANCH   8  17
ENDBRANCH   2   4
ENDBRANCH   1   2
BRANCH   1  19
ATOM     19  C   UNL     1      10.706 -54.139 -22.196  1.00  0.00     0.021 C 
BRANCH  19  20
ATOM     20  C   UNL     1      11.026 -54.867 -23.502  1.00  0.00     0.002 C 
BRANCH  20  21
ATOM     21  C   UNL     1      11.412 -56.340 -23.307  1.00  0.00     0.004 C 
BRANCH  21  22
ATOM     22  C   UNL     1      10.536 -57.150 -22.325  1.00  0.00    -0.000 C 
ATOM     23  C   UNL     1       9.370 -57.889 -23.000  1.00  0.00     0.065 C 
ATOM     24  C   UNL     1      11.389 -58.155 -21.528  1.00  0.00     0.065 C 
ATOM     25  C   UNL     1       9.825 -59.085 -23.829  1.00  0.00     0.262 C 
ATOM     26  C   UNL     1      11.828 -59.359 -22.356  1.00  0.00     0.262 C 
ATOM     27  N   UNL     1      10.611 -60.023 -22.948  1.00  0.00    -0.331 N 
ATOM     28  H   UNL     1      10.000 -60.263 -22.158  1.00  0.00     0.348 HD
BRANCH  27  29
ATOM     29  C   UNL     1      10.913 -61.358 -23.605  1.00  0.00     0.299 C 
BRANCH  29  30
ATOM     30  C   UNL     1       9.726 -62.247 -23.863  1.00  0.00     0.006 A 
ATOM     31  C   UNL     1       9.086 -62.241 -25.112  1.00  0.00     0.009 A 
ATOM     32  C   UNL     1       9.236 -63.095 -22.857  1.00  0.00     0.009 A 
ATOM     33  C   UNL     1       7.973 -63.051 -25.343  1.00  0.00     0.001 A 
ATOM     34  C   UNL     1       8.123 -63.904 -23.092  1.00  0.00     0.001 A 
ATOM     35  C   UNL     1       7.491 -63.879 -24.333  1.00  0.00     0.000 A 
ENDBRANCH  29  30
ENDBRANCH  27  29
ENDBRANCH  21  22
ENDBRANCH  20  21
ENDBRANCH  19  20
ENDBRANCH   1  19
TORSDOF 13
ENDMDL
MODEL 5
REMARK VINA RESULT:    -9.185      2.584     11.000
REMARK INTER + INTRA:         -17.362
REMARK INTER:                 -16.343
REMARK INTRA:                  -1.020
REMARK UNBOUND:                -1.197
REMARK SMILES C#CCN=c1[nH]c(NCCCC[C@H]2CC[N@@H+](Cc3ccccc3)CC2)c(C#N)cc1C#N
REMARK SMILES IDX 9 1 8 2 7 4 6 5 5 6 26 7 30 8 29 9 4 11 3 12 2 13 1 14 27 15
REMARK SMILES IDX 28 16 31 17 32 18 10 19 11 20 12 21 13 22 25 23 14 24 24 25
REMARK SMILES IDX 15 26 16 27 17 29 18 30 19 31 23 32 20 33 22 34 21 35
REMARK H PARENT 8 3 6 10 16 28
ROOT
ATOM      1  C   UNL     1      11.270 -53.569 -22.806  1.00  0.00     0.114 C 
ENDROOT
BRANCH   1   2
ATOM      2  N   UNL     1      11.432 -52.374 -21.996  1.00  0.00    -0.370 N 
ATOM      3  H   UNL     1      11.509 -52.557 -20.995  1.00  0.00     0.162 HD
BRANCH   2   4
ATOM      4  C   UNL     1      11.977 -51.162 -22.400  1.00  0.00     0.123 A 
ATOM      5  N   UNL     1      13.301 -51.094 -22.800  1.00  0.00    -0.325 N 
ATOM      6  C   UNL     1      13.964 -49.944 -23.188  1.00  0.00     0.145 A 
ATOM      7  C   UNL     1      11.255 -50.005 -22.432  1.00  0.00     0.094 A 
ATOM      8  C   UNL     1      13.171 -48.665 -23.219  1.00  0.00     0.096 A 
ATOM      9  C   UNL     1      11.878 -48.752 -22.853  1.00  0.00     0.046 A 
ATOM     10  H   UNL     1      13.834 -51.940 -22.686  1.00  0.00     0.170 HD
BRANCH   6  11
ATOM     11  N   UNL     1      15.210 -49.874 -23.526  1.00  0.00    -0.254 NA
BRANCH  11  12
ATOM     12  C   UNL     1      15.750 -50.691 -24.603  1.00  0.00     0.233 C 
BRANCH  12  13
ATOM     13  C   UNL     1      14.805 -50.662 -25.724  1.00  0.00    -0.083 C 
ATOM     14  C   UNL     1      14.025 -50.639 -26.638  1.00  0.00     0.006 C 
ENDBRANCH  12  13
ENDBRANCH  11  12
ENDBRANCH   6  11
BRANCH   7  15
ATOM     15  C   UNL     1       9.878 -49.969 -22.058  1.00  0.00     0.103 C 
ATOM     16  N   UNL     1       8.768 -49.921 -21.721  1.00  0.00    -0.192 NA
ENDBRANCH   7  15
BRANCH   8  17
ATOM     17  C   UNL     1      13.758 -47.436 -23.622  1.00  0.00     0.103 C 
ATOM     18  N   UNL     1      14.186 -46.426 -24.003  1.00  0.00    -0.192 NA
ENDBRANCH   8  17
ENDBRANCH   2   4
ENDBRANCH   1   2
BRANCH   1  19
ATOM     19  C   UNL     1      10.504 -54.627 -22.007  1.00  0.00     0.021 C 
BRANCH  19  20
ATOM     20  C   UNL     1       9.594 -55.466 -22.905  1.00  0.00     0.002 C 
BRANCH  20  21
ATOM     21  C   UNL     1       9.827 -56.977 -22.778  1.00  0.00     0.004 C 
BRANCH  21  22
ATOM     22  C   UNL     1      11.275 -57.419 -22.463  1.00  0.00    -0.000 C 
ATOM     23  C   UNL     1      11.364 -58.589 -21.471  1.00  0.00     0.065 C 
ATOM     24  C   UNL     1      12.031 -57.783 -23.756  1.00  0.00     0.065 C 
ATOM     25  C   UNL     1      10.922 -59.916 -22.076  1.00  0.00     0.262 C 
ATOM     26  C   UNL     1      11.598 -59.120 -24.349  1.00  0.00     0.262 C 
ATOM     27  N   UNL     1      11.750 -60.196 -23.305  1.00  0.00    -0.331 N 
ATOM     28  H   UNL     1      12.733 -60.174 -23.007  1.00  0.00     0.348 HD
BRANCH  27  29
ATOM     29  C   UNL     1      11.560 -61.599 -23.854  1.00  0.00     0.299 C 
BRANCH  29  30
ATOM     30  C   UNL     1      10.172 -62.168 -23.740  1.00  0.00     0.006 A 
ATOM     31  C   UNL     1       9.854 -63.081 -22.721  1.00  0.00     0.009 A 
ATOM     32  C   UNL     1       9.170 -61.799 -24.653  1.00  0.00     0.009 A 
ATOM     33  C   UNL     1       8.571 -63.622 -22.628  1.00  0.00     0.001 A 
ATOM     34  C   UNL     1       7.888 -62.343 -24.556  1.00  0.00     0.001 A 
ATOM     35  C   UNL     1       7.591 -63.256 -23.547  1.00  0.00     0.000 A 
ENDBRANCH  29  30
ENDBRANCH  27  29
ENDBRANCH  21  22
ENDBRANCH  20  21
ENDBRANCH  19  20
ENDBRANCH   1  19
TORSDOF 13
ENDMDL
MODEL 6
REMARK VINA RESULT:    -8.999      2.668     11.666
REMARK INTER + INTRA:         -17.036
REMARK INTER:                 -16.005
REMARK INTRA:                  -1.032
REMARK UNBOUND:                -1.197
REMARK SMILES C#CCN=c1[nH]c(NCCCC[C@H]2CC[N@@H+](Cc3ccccc3)CC2)c(C#N)cc1C#N
REMARK SMILES IDX 9 1 8 2 7 4 6 5 5 6 26 7 30 8 29 9 4 11 3 12 2 13 1 14 27 15
REMARK SMILES IDX 28 16 31 17 32 18 10 19 11 20 12 21 13 22 25 23 14 24 24 25
REMARK SMILES IDX 15 26 16 27 17 29 18 30 19 31 23 32 20 33 22 34 21 35
REMARK H PARENT 8 3 6 10 16 28
ROOT
ATOM      1  C   UNL     1      11.190 -52.609 -22.000  1.00  0.00     0.114 C 
ENDROOT
BRANCH   1   2
ATOM      2  N   UNL     1      12.022 -52.238 -23.133  1.00  0.00    -0.370 N 
ATOM      3  H   UNL     1      12.116 -52.970 -23.837  1.00  0.00     0.162 HD
BRANCH   2   4
ATOM      4  C   UNL     1      12.259 -50.954 -23.605  1.00  0.00     0.123 A 
ATOM      5  N   UNL     1      11.594 -49.874 -23.050  1.00  0.00    -0.325 N 
ATOM      6  C   UNL     1      11.718 -48.558 -23.456  1.00  0.00     0.145 A 
ATOM      7  C   UNL     1      13.144 -50.692 -24.609  1.00  0.00     0.094 A 
ATOM      8  C   UNL     1      12.690 -48.267 -24.568  1.00  0.00     0.096 A 
ATOM      9  C   UNL     1      13.349 -49.324 -25.081  1.00  0.00     0.046 A 
ATOM     10  H   UNL     1      10.886 -50.102 -22.371  1.00  0.00     0.170 HD
BRANCH   6  11
ATOM     11  N   UNL     1      11.069 -47.555 -22.962  1.00  0.00    -0.254 NA
BRANCH  11  12
ATOM     12  C   UNL     1      11.665 -46.688 -21.956  1.00  0.00     0.233 C 
BRANCH  12  13
ATOM     13  C   UNL     1      11.312 -45.300 -22.275  1.00  0.00    -0.083 C 
ATOM     14  C   UNL     1      11.016 -44.165 -22.536  1.00  0.00     0.006 C 
ENDBRANCH  12  13
ENDBRANCH  11  12
ENDBRANCH   6  11
BRANCH   7  15
ATOM     15  C   UNL     1      13.896 -51.730 -25.238  1.00  0.00     0.103 C 
ATOM     16  N   UNL     1      14.480 -52.576 -25.777  1.00  0.00    -0.192 NA
ENDBRANCH   7  15
BRANCH   8  17
ATOM     17  C   UNL     1      12.902 -46.946 -25.043  1.00  0.00     0.103 C 
ATOM     18  N   UNL     1      13.104 -45.894 -25.491  1.00  0.00    -0.192 NA
ENDBRANCH   8  17
ENDBRANCH   2   4
ENDBRANCH   1   2
BRANCH   1  19
ATOM     19  C   UNL     1      10.282 -53.776 -22.395  1.00  0.00     0.021 C 
BRANCH  19  20
ATOM     20  C   UNL     1      10.826 -54.534 -23.606  1.00  0.00     0.002 C 
BRANCH  20  21
ATOM     21  C   UNL     1      11.371 -55.928 -23.266  1.00  0.00     0.004 C 
BRANCH  21  22
ATOM     22  C   UNL     1      10.489 -56.798 -22.342  1.00  0.00    -0.000 C 
ATOM     23  C   UNL     1       9.325 -57.490 -23.068  1.00  0.00     0.065 C 
ATOM     24  C   UNL     1      11.337 -57.853 -21.606  1.00  0.00     0.065 C 
ATOM     25  C   UNL     1       9.783 -58.632 -23.969  1.00  0.00     0.262 C 
ATOM     26  C   UNL     1      11.778 -59.003 -22.506  1.00  0.00     0.262 C 
ATOM     27  N   UNL     1      10.564 -59.625 -23.146  1.00  0.00    -0.331 N 
ATOM     28  H   UNL     1       9.948 -59.915 -22.376  1.00  0.00     0.348 HD
BRANCH  27  29
ATOM     29  C   UNL     1      10.867 -60.917 -23.885  1.00  0.00     0.299 C 
BRANCH  29  30
ATOM     30  C   UNL     1       9.810 -61.985 -23.802  1.00  0.00     0.006 A 
ATOM     31  C   UNL     1       8.858 -62.130 -24.823  1.00  0.00     0.009 A 
ATOM     32  C   UNL     1       9.756 -62.853 -22.699  1.00  0.00     0.009 A 
ATOM     33  C   UNL     1       7.866 -63.108 -24.735  1.00  0.00     0.001 A 
ATOM     34  C   UNL     1       8.763 -63.830 -22.615  1.00  0.00     0.001 A 
ATOM     35  C   UNL     1       7.817 -63.955 -23.631  1.00  0.00     0.000 A 
ENDBRANCH  29  30
ENDBRANCH  27  29
ENDBRANCH  21  22
ENDBRANCH  20  21
ENDBRANCH  19  20
ENDBRANCH   1  19
TORSDOF 13
ENDMDL
MODEL 7
REMARK VINA RESULT:    -8.940      1.959      3.398
REMARK INTER + INTRA:         -16.932
REMARK INTER:                 -15.332
REMARK INTRA:                  -1.601
REMARK UNBOUND:                -1.197
REMARK SMILES C#CCN=c1[nH]c(NCCCC[C@H]2CC[N@@H+](Cc3ccccc3)CC2)c(C#N)cc1C#N
REMARK SMILES IDX 9 1 8 2 7 4 6 5 5 6 26 7 30 8 29 9 4 11 3 12 2 13 1 14 27 15
REMARK SMILES IDX 28 16 31 17 32 18 10 19 11 20 12 21 13 22 25 23 14 24 24 25
REMARK SMILES IDX 15 26 16 27 17 29 18 30 19 31 23 32 20 33 22 34 21 35
REMARK H PARENT 8 3 6 10 16 28
ROOT
ATOM      1  C   UNL     1       8.230 -61.172 -22.533  1.00  0.00     0.114 C 
ENDROOT
BRANCH   1   2
ATOM      2  N   UNL     1       7.860 -62.038 -23.640  1.00  0.00    -0.370 N 
ATOM      3  H   UNL     1       6.958 -62.500 -23.523  1.00  0.00     0.162 HD
BRANCH   2   4
ATOM      4  C   UNL     1       8.282 -61.929 -24.959  1.00  0.00     0.123 A 
ATOM      5  N   UNL     1       9.101 -60.882 -25.342  1.00  0.00    -0.325 N 
ATOM      6  C   UNL     1       9.557 -60.647 -26.627  1.00  0.00     0.145 A 
ATOM      7  C   UNL     1       7.929 -62.830 -25.920  1.00  0.00     0.094 A 
ATOM      8  C   UNL     1       9.164 -61.636 -27.692  1.00  0.00     0.096 A 
ATOM      9  C   UNL     1       8.388 -62.664 -27.298  1.00  0.00     0.046 A 
ATOM     10  H   UNL     1       9.278 -60.186 -24.636  1.00  0.00     0.170 HD
BRANCH   6  11
ATOM     11  N   UNL     1      10.292 -59.648 -26.992  1.00  0.00    -0.254 NA
BRANCH  11  12
ATOM     12  C   UNL     1      11.721 -59.803 -27.223  1.00  0.00     0.233 C 
BRANCH  12  13
ATOM     13  C   UNL     1      12.356 -60.174 -25.954  1.00  0.00    -0.083 C 
ATOM     14  C   UNL     1      12.874 -60.472 -24.911  1.00  0.00     0.006 C 
ENDBRANCH  12  13
ENDBRANCH  11  12
ENDBRANCH   6  11
BRANCH   7  15
ATOM     15  C   UNL     1       7.103 -63.956 -25.627  1.00  0.00     0.103 C 
ATOM     16  N   UNL     1       6.455 -64.895 -25.411  1.00  0.00    -0.192 NA
ENDBRANCH   7  15
BRANCH   8  17
ATOM     17  C   UNL     1       9.597 -61.492 -29.036  1.00  0.00     0.103 C 
ATOM     18  N   UNL     1       9.900 -61.323 -30.144  1.00  0.00    -0.192 NA
ENDBRANCH   8  17
ENDBRANCH   2   4
ENDBRANCH   1   2
BRANCH   1  19
ATOM     19  C   UNL     1       9.487 -61.719 -21.853  1.00  0.00     0.021 C 
BRANCH  19  20
ATOM     20  C   UNL     1      10.676 -60.771 -22.012  1.00  0.00     0.002 C 
BRANCH  20  21
ATOM     21  C   UNL     1      10.296 -59.287 -21.920  1.00  0.00     0.004 C 
BRANCH  21  22
ATOM     22  C   UNL     1      10.461 -58.460 -23.215  1.00  0.00    -0.000 C 
ATOM     23  C   UNL     1       9.195 -57.689 -23.623  1.00  0.00     0.065 C 
ATOM     24  C   UNL     1      11.643 -57.480 -23.095  1.00  0.00     0.065 C 
ATOM     25  C   UNL     1       8.905 -56.500 -22.714  1.00  0.00     0.262 C 
ATOM     26  C   UNL     1      11.344 -56.283 -22.198  1.00  0.00     0.262 C 
ATOM     27  N   UNL     1      10.105 -55.587 -22.700  1.00  0.00    -0.331 N 
ATOM     28  H   UNL     1      10.292 -55.335 -23.678  1.00  0.00     0.348 HD
BRANCH  27  29
ATOM     29  C   UNL     1       9.844 -54.256 -22.017  1.00  0.00     0.299 C 
BRANCH  29  30
ATOM     30  C   UNL     1      10.692 -53.102 -22.478  1.00  0.00     0.006 A 
ATOM     31  C   UNL     1      10.601 -51.850 -21.849  1.00  0.00     0.009 A 
ATOM     32  C   UNL     1      11.587 -53.256 -23.550  1.00  0.00     0.009 A 
ATOM     33  C   UNL     1      11.375 -50.776 -22.292  1.00  0.00     0.001 A 
ATOM     34  C   UNL     1      12.359 -52.179 -23.989  1.00  0.00     0.001 A 
ATOM     35  C   UNL     1      12.250 -50.940 -23.362  1.00  0.00     0.000 A 
ENDBRANCH  29  30
ENDBRANCH  27  29
ENDBRANCH  21  22
ENDBRANCH  20  21
ENDBRANCH  19  20
ENDBRANCH   1  19
TORSDOF 13
ENDMDL
MODEL 8
REMARK VINA RESULT:    -8.604      1.981      4.003
REMARK INTER + INTRA:         -16.340
REMARK INTER:                 -15.414
REMARK INTRA:                  -0.926
REMARK UNBOUND:                -1.197
REMARK SMILES C#CCN=c1[nH]c(NCCCC[C@H]2CC[N@@H+](Cc3ccccc3)CC2)c(C#N)cc1C#N
REMARK SMILES IDX 9 1 8 2 7 4 6 5 5 6 26 7 30 8 29 9 4 11 3 12 2 13 1 14 27 15
REMARK SMILES IDX 28 16 31 17 32 18 10 19 11 20 12 21 13 22 25 23 14 24 24 25
REMARK SMILES IDX 15 26 16 27 17 29 18 30 19 31 23 32 20 33 22 34 21 35
REMARK H PARENT 8 3 6 10 16 28
ROOT
ATOM      1  C   UNL     1       9.936 -56.095 -22.979  1.00  0.00     0.114 C 
ENDROOT
BRANCH   1   2
ATOM      2  N   UNL     1      10.683 -57.236 -23.480  1.00  0.00    -0.370 N 
ATOM      3  H   UNL     1      11.681 -57.060 -23.600  1.00  0.00     0.162 HD
BRANCH   2   4
ATOM      4  C   UNL     1      10.352 -58.577 -23.333  1.00  0.00     0.123 A 
ATOM      5  N   UNL     1       9.796 -59.275 -24.391  1.00  0.00    -0.325 N 
ATOM      6  C   UNL     1       9.393 -60.598 -24.358  1.00  0.00     0.145 A 
ATOM      7  C   UNL     1      10.558 -59.263 -22.173  1.00  0.00     0.094 A 
ATOM      8  C   UNL     1       9.613 -61.356 -23.076  1.00  0.00     0.096 A 
ATOM      9  C   UNL     1      10.179 -60.670 -22.064  1.00  0.00     0.046 A 
ATOM     10  H   UNL     1       9.576 -58.727 -25.207  1.00  0.00     0.170 HD
BRANCH   6  11
ATOM     11  N   UNL     1       8.840 -61.239 -25.334  1.00  0.00    -0.254 NA
BRANCH  11  12
ATOM     12  C   UNL     1       9.401 -61.207 -26.677  1.00  0.00     0.233 C 
BRANCH  12  13
ATOM     13  C   UNL     1       8.818 -62.311 -27.448  1.00  0.00    -0.083 C 
ATOM     14  C   UNL     1       8.340 -63.219 -28.073  1.00  0.00     0.006 C 
ENDBRANCH  12  13
ENDBRANCH  11  12
ENDBRANCH   6  11
BRANCH   7  15
ATOM     15  C   UNL     1      11.142 -58.643 -21.027  1.00  0.00     0.103 C 
ATOM     16  N   UNL     1      11.651 -58.152 -20.107  1.00  0.00    -0.192 NA
ENDBRANCH   7  15
BRANCH   8  17
ATOM     17  C   UNL     1       9.250 -62.722 -22.948  1.00  0.00     0.103 C 
ATOM     18  N   UNL     1       9.022 -63.857 -22.860  1.00  0.00    -0.192 NA
ENDBRANCH   8  17
ENDBRANCH   2   4
ENDBRANCH   1   2
BRANCH   1  19
ATOM     19  C   UNL     1      10.908 -55.063 -22.400  1.00  0.00     0.021 C 
BRANCH  19  20
ATOM     20  C   UNL     1      11.386 -54.074 -23.463  1.00  0.00     0.002 C 
BRANCH  20  21
ATOM     21  C   UNL     1      11.011 -52.617 -23.162  1.00  0.00     0.004 C 
BRANCH  21  22
ATOM     22  C   UNL     1      12.069 -51.785 -22.401  1.00  0.00    -0.000 C 
ATOM     23  C   UNL     1      13.258 -51.349 -23.272  1.00  0.00     0.065 C 
ATOM     24  C   UNL     1      11.427 -50.545 -21.749  1.00  0.00     0.065 C 
ATOM     25  C   UNL     1      12.892 -50.260 -24.274  1.00  0.00     0.262 C 
ATOM     26  C   UNL     1      11.078 -49.451 -22.753  1.00  0.00     0.262 C 
ATOM     27  N   UNL     1      12.315 -49.082 -23.532  1.00  0.00    -0.331 N 
ATOM     28  H   UNL     1      13.019 -48.799 -22.839  1.00  0.00     0.348 HD
BRANCH  27  29
ATOM     29  C   UNL     1      12.134 -47.850 -24.401  1.00  0.00     0.299 C 
BRANCH  29  30
ATOM     30  C   UNL     1      11.938 -46.550 -23.668  1.00  0.00     0.006 A 
ATOM     31  C   UNL     1      12.868 -46.124 -22.706  1.00  0.00     0.009 A 
ATOM     32  C   UNL     1      10.819 -45.743 -23.929  1.00  0.00     0.009 A 
ATOM     33  C   UNL     1      12.675 -44.929 -22.012  1.00  0.00     0.001 A 
ATOM     34  C   UNL     1      10.630 -44.548 -23.233  1.00  0.00     0.001 A 
ATOM     35  C   UNL     1      11.555 -44.144 -22.274  1.00  0.00     0.000 A 
ENDBRANCH  29  30
ENDBRANCH  27  29
ENDBRANCH  21  22
ENDBRANCH  20  21
ENDBRANCH  19  20
ENDBRANCH   1  19
TORSDOF 13
ENDMDL
MODEL 9
REMARK VINA RESULT:    -8.492      2.391      5.839
REMARK INTER + INTRA:         -16.143
REMARK INTER:                 -15.011
REMARK INTRA:                  -1.132
REMARK UNBOUND:                -1.197
REMARK SMILES C#CCN=c1[nH]c(NCCCC[C@H]2CC[N@@H+](Cc3ccccc3)CC2)c(C#N)cc1C#N
REMARK SMILES IDX 9 1 8 2 7 4 6 5 5 6 26 7 30 8 29 9 4 11 3 12 2 13 1 14 27 15
REMARK SMILES IDX 28 16 31 17 32 18 10 19 11 20 12 21 13 22 25 23 14 24 24 25
REMARK SMILES IDX 15 26 16 27 17 29 18 30 19 31 23 32 20 33 22 34 21 35
REMARK H PARENT 8 3 6 10 16 28
ROOT
ATOM      1  C   UNL     1      12.607 -54.504 -25.737  1.00  0.00     0.114 C 
ENDROOT
BRANCH   1   2
ATOM      2  N   UNL     1      11.753 -54.603 -24.565  1.00  0.00    -0.370 N 
ATOM      3  H   UNL     1      11.014 -53.900 -24.529  1.00  0.00     0.162 HD
BRANCH   2   4
ATOM      4  C   UNL     1      11.497 -55.743 -23.815  1.00  0.00     0.123 A 
ATOM      5  N   UNL     1      11.788 -56.994 -24.331  1.00  0.00    -0.325 N 
ATOM      6  C   UNL     1      11.547 -58.200 -23.698  1.00  0.00     0.145 A 
ATOM      7  C   UNL     1      10.968 -55.694 -22.559  1.00  0.00     0.094 A 
ATOM      8  C   UNL     1      10.956 -58.149 -22.314  1.00  0.00     0.096 A 
ATOM      9  C   UNL     1      10.704 -56.924 -21.816  1.00  0.00     0.046 A 
ATOM     10  H   UNL     1      12.097 -57.009 -25.289  1.00  0.00     0.170 HD
BRANCH   6  11
ATOM     11  N   UNL     1      11.784 -59.370 -24.195  1.00  0.00    -0.254 NA
BRANCH  11  12
ATOM     12  C   UNL     1      10.844 -60.013 -25.102  1.00  0.00     0.233 C 
BRANCH  12  13
ATOM     13  C   UNL     1      10.441 -61.296 -24.515  1.00  0.00    -0.083 C 
ATOM     14  C   UNL     1      10.117 -62.347 -24.030  1.00  0.00     0.006 C 
ENDBRANCH  12  13
ENDBRANCH  11  12
ENDBRANCH   6  11
BRANCH   7  15
ATOM     15  C   UNL     1      10.649 -54.455 -21.927  1.00  0.00     0.103 C 
ATOM     16  N   UNL     1      10.352 -53.457 -21.413  1.00  0.00    -0.192 NA
ENDBRANCH   7  15
BRANCH   8  17
ATOM     17  C   UNL     1      10.690 -59.332 -21.576  1.00  0.00     0.103 C 
ATOM     18  N   UNL     1      10.401 -60.290 -20.986  1.00  0.00    -0.192 NA
ENDBRANCH   8  17
ENDBRANCH   2   4
ENDBRANCH   1   2
BRANCH   1  19
ATOM     19  C   UNL     1      13.243 -53.113 -25.790  1.00  0.00     0.021 C 
BRANCH  19  20
ATOM     20  C   UNL     1      12.732 -52.213 -24.665  1.00  0.00     0.002 C 
BRANCH  20  21
ATOM     21  C   UNL     1      13.233 -50.765 -24.759  1.00  0.00     0.004 C 
BRANCH  21  22
ATOM     22  C   UNL     1      13.675 -50.109 -23.431  1.00  0.00    -0.000 C 
ATOM     23  C   UNL     1      14.008 -48.615 -23.559  1.00  0.00     0.065 C 
ATOM     24  C   UNL     1      12.607 -50.307 -22.339  1.00  0.00     0.065 C 
ATOM     25  C   UNL     1      12.771 -47.746 -23.759  1.00  0.00     0.262 C 
ATOM     26  C   UNL     1      11.378 -49.424 -22.533  1.00  0.00     0.262 C 
ATOM     27  N   UNL     1      11.813 -47.984 -22.619  1.00  0.00    -0.331 N 
ATOM     28  H   UNL     1      12.332 -47.786 -21.755  1.00  0.00     0.348 HD
BRANCH  27  29
ATOM     29  C   UNL     1      10.655 -47.002 -22.589  1.00  0.00     0.299 C 
BRANCH  29  30
ATOM     30  C   UNL     1      11.029 -45.544 -22.556  1.00  0.00     0.006 A 
ATOM     31  C   UNL     1      10.300 -44.602 -23.298  1.00  0.00     0.009 A 
ATOM     32  C   UNL     1      12.118 -45.103 -21.787  1.00  0.00     0.009 A 
ATOM     33  C   UNL     1      10.661 -43.254 -23.282  1.00  0.00     0.001 A 
ATOM     34  C   UNL     1      12.475 -43.754 -21.774  1.00  0.00     0.001 A 
ATOM     35  C   UNL     1      11.749 -42.831 -22.524  1.00  0.00     0.000 A 
ENDBRANCH  29  30
ENDBRANCH  27  29
ENDBRANCH  21  22
ENDBRANCH  20  21
ENDBRANCH  19  20
ENDBRANCH   1  19
TORSDOF 13
ENDMDL
