MODEL 1
REMARK VINA RESULT:    -9.798      0.000      0.000
REMARK INTER + INTRA:         -10.084
REMARK INTER:                 -10.084
REMARK INTRA:                   0.000
REMARK UNBOUND:                 0.000
REMARK SMILES CC1=C[C@@H]2Cc3[nH]c4cc(Cl)ccc4c(=N)c3[C@H](C1)C2
REMARK SMILES IDX 7 1 6 2 17 3 15 4 14 5 13 6 12 7 10 8 11 9 9 10 8 11 18 12
REMARK SMILES IDX 19 13 2 14 1 15 3 16 4 17 5 18 20 19 16 21
REMARK H PARENT 7 20 16 22
ROOT
ATOM      1  N   UNL     1      10.887 -57.121 -21.996  1.00  0.00    -0.358 N 
ATOM      2  C   UNL     1      11.255 -58.260 -22.680  1.00  0.00     0.021 A 
ATOM      3  C   UNL     1      11.839 -58.238 -23.900  1.00  0.00     0.000 A 
ATOM      4  C   UNL     1      12.074 -56.900 -24.555  1.00  0.00     0.068 A 
ATOM      5  C   UNL     1      11.634 -55.686 -23.803  1.00  0.00     0.023 A 
ATOM      6  C   UNL     1      11.813 -54.407 -24.350  1.00  0.00     0.014 A 
ATOM      7  C   UNL     1      11.399 -53.282 -23.638  1.00  0.00     0.021 A 
ATOM      8  C   UNL     1      10.813 -53.438 -22.384  1.00  0.00     0.043 A 
ATOM      9  Cl  UNL     1      10.309 -52.050 -21.499  1.00  0.00    -0.084 Cl
ATOM     10  C   UNL     1      10.632 -54.709 -21.835  1.00  0.00     0.047 A 
ATOM     11  C   UNL     1      11.031 -55.845 -22.547  1.00  0.00     0.049 A 
ATOM     12  C   UNL     1      12.273 -59.506 -24.620  1.00  0.00     0.028 C 
ATOM     13  C   UNL     1      11.218 -59.936 -25.667  1.00  0.00     0.039 C 
ATOM     14  C   UNL     1      10.025 -60.658 -25.070  1.00  0.00    -0.076 C 
ATOM     15  C   UNL     1       8.869 -60.899 -25.996  1.00  0.00     0.039 C 
ATOM     16  C   UNL     1      10.008 -61.043 -23.780  1.00  0.00    -0.024 C 
ATOM     17  C   UNL     1      11.174 -60.827 -22.838  1.00  0.00     0.018 C 
ATOM     18  C   UNL     1      10.952 -59.575 -21.971  1.00  0.00     0.062 C 
ATOM     19  C   UNL     1      12.477 -60.655 -23.624  1.00  0.00     0.017 C 
ATOM     20  H   UNL     1      10.340 -57.225 -21.151  1.00  0.00     0.166 HD
ENDROOT
BRANCH   4  21
ATOM     21  N   UNL     1      12.621 -56.744 -25.719  1.00  0.00    -0.300 NA
ATOM     22  H   UNL     1      12.961 -55.793 -25.866  1.00  0.00     0.188 HD
ENDBRANCH   4  21
TORSDOF 1
ENDMDL
MODEL 2
REMARK VINA RESULT:    -9.216      1.560      2.083
REMARK INTER + INTRA:          -9.485
REMARK INTER:                  -9.485
REMARK INTRA:                   0.000
REMARK UNBOUND:                 0.000
REMARK SMILES CC1=C[C@@H]2Cc3[nH]c4cc(Cl)ccc4c(=N)c3[C@H](C1)C2
REMARK SMILES IDX 7 1 6 2 17 3 15 4 14 5 13 6 12 7 10 8 11 9 9 10 8 11 18 12
REMARK SMILES IDX 19 13 2 14 1 15 3 16 4 17 5 18 20 19 16 21
REMARK H PARENT 7 20 16 22
ROOT
ATOM      1  N   UNL     1       8.961 -58.252 -22.756  1.00  0.00    -0.358 N 
ATOM      2  C   UNL     1       9.379 -59.523 -23.085  1.00  0.00     0.021 A 
ATOM      3  C   UNL     1      10.587 -59.789 -23.635  1.00  0.00     0.000 A 
ATOM      4  C   UNL     1      11.509 -58.631 -23.926  1.00  0.00     0.068 A 
ATOM      5  C   UNL     1      11.014 -57.263 -23.588  1.00  0.00     0.023 A 
ATOM      6  C   UNL     1      11.812 -56.137 -23.835  1.00  0.00     0.014 A 
ATOM      7  C   UNL     1      11.338 -54.865 -23.515  1.00  0.00     0.021 A 
ATOM      8  C   UNL     1      10.074 -54.724 -22.947  1.00  0.00     0.043 A 
ATOM      9  Cl  UNL     1       9.491 -53.156 -22.541  1.00  0.00    -0.084 Cl
ATOM     10  C   UNL     1       9.276 -55.842 -22.698  1.00  0.00     0.047 A 
ATOM     11  C   UNL     1       9.736 -57.121 -23.029  1.00  0.00     0.049 A 
ATOM     12  C   UNL     1      11.045 -61.204 -23.955  1.00  0.00     0.028 C 
ATOM     13  C   UNL     1      10.831 -61.530 -25.452  1.00  0.00     0.039 C 
ATOM     14  C   UNL     1       9.399 -61.891 -25.800  1.00  0.00    -0.076 C 
ATOM     15  C   UNL     1       9.082 -61.996 -27.263  1.00  0.00     0.039 C 
ATOM     16  C   UNL     1       8.471 -62.090 -24.845  1.00  0.00    -0.024 C 
ATOM     17  C   UNL     1       8.780 -62.010 -23.364  1.00  0.00     0.018 C 
ATOM     18  C   UNL     1       8.379 -60.637 -22.796  1.00  0.00     0.062 C 
ATOM     19  C   UNL     1      10.274 -62.229 -23.112  1.00  0.00     0.017 C 
ATOM     20  H   UNL     1       7.999 -58.123 -22.470  1.00  0.00     0.166 HD
ENDROOT
BRANCH   4  21
ATOM     21  N   UNL     1      12.688 -58.752 -24.451  1.00  0.00    -0.300 NA
ATOM     22  H   UNL     1      12.678 -59.309 -25.306  1.00  0.00     0.188 HD
ENDBRANCH   4  21
TORSDOF 1
ENDMDL
MODEL 3
REMARK VINA RESULT:    -8.969      4.379      8.670
REMARK INTER + INTRA:          -9.231
REMARK INTER:                  -9.231
REMARK INTRA:                   0.000
REMARK UNBOUND:                 0.000
REMARK SMILES CC1=C[C@@H]2Cc3[nH]c4cc(Cl)ccc4c(=N)c3[C@H](C1)C2
REMARK SMILES IDX 7 1 6 2 17 3 15 4 14 5 13 6 12 7 10 8 11 9 9 10 8 11 18 12
REMARK SMILES IDX 19 13 2 14 1 15 3 16 4 17 5 18 20 19 16 21
REMARK H PARENT 7 20 16 22
ROOT
ATOM      1  N   UNL     1      12.447 -52.550 -24.537  1.00  0.00    -0.358 N 
ATOM      2  C   UNL     1      13.043 -51.337 -24.267  1.00  0.00     0.021 A 
ATOM      3  C   UNL     1      12.913 -50.692 -23.084  1.00  0.00     0.000 A 
ATOM      4  C   UNL     1      12.049 -51.321 -22.020  1.00  0.00     0.068 A 
ATOM      5  C   UNL     1      11.390 -52.618 -22.355  1.00  0.00     0.023 A 
ATOM      6  C   UNL     1      10.567 -53.261 -21.419  1.00  0.00     0.014 A 
ATOM      7  C   UNL     1       9.957 -54.472 -21.744  1.00  0.00     0.021 A 
ATOM      8  C   UNL     1      10.175 -55.038 -22.997  1.00  0.00     0.043 A 
ATOM      9  Cl  UNL     1       9.432 -56.538 -23.398  1.00  0.00    -0.084 Cl
ATOM     10  C   UNL     1      10.994 -54.403 -23.933  1.00  0.00     0.047 A 
ATOM     11  C   UNL     1      11.599 -53.180 -23.623  1.00  0.00     0.049 A 
ATOM     12  C   UNL     1      13.612 -49.373 -22.793  1.00  0.00     0.028 C 
ATOM     13  C   UNL     1      12.650 -48.179 -22.999  1.00  0.00     0.039 C 
ATOM     14  C   UNL     1      12.467 -47.786 -24.453  1.00  0.00    -0.076 C 
ATOM     15  C   UNL     1      11.380 -46.790 -24.735  1.00  0.00     0.039 C 
ATOM     16  C   UNL     1      13.231 -48.315 -25.427  1.00  0.00    -0.024 C 
ATOM     17  C   UNL     1      14.346 -49.304 -25.156  1.00  0.00     0.018 C 
ATOM     18  C   UNL     1      13.870 -50.747 -25.404  1.00  0.00     0.062 C 
ATOM     19  C   UNL     1      14.830 -49.188 -23.708  1.00  0.00     0.017 C 
ATOM     20  H   UNL     1      12.486 -52.902 -25.485  1.00  0.00     0.166 HD
ENDROOT
BRANCH   4  21
ATOM     21  N   UNL     1      11.843 -50.804 -20.849  1.00  0.00    -0.300 NA
ATOM     22  H   UNL     1      11.494 -49.847 -20.901  1.00  0.00     0.188 HD
ENDBRANCH   4  21
TORSDOF 1
ENDMDL
MODEL 4
REMARK VINA RESULT:    -8.747      3.987      7.083
REMARK INTER + INTRA:          -9.003
REMARK INTER:                  -9.003
REMARK INTRA:                   0.000
REMARK UNBOUND:                 0.000
REMARK SMILES CC1=C[C@@H]2Cc3[nH]c4cc(Cl)ccc4c(=N)c3[C@H](C1)C2
REMARK SMILES IDX 7 1 6 2 17 3 15 4 14 5 13 6 12 7 10 8 11 9 9 10 8 11 18 12
REMARK SMILES IDX 19 13 2 14 1 15 3 16 4 17 5 18 20 19 16 21
REMARK H PARENT 7 20 16 22
ROOT
ATOM      1  N   UNL     1      10.594 -60.997 -26.289  1.00  0.00    -0.358 N 
ATOM      2  C   UNL     1      11.007 -60.425 -25.104  1.00  0.00     0.021 A 
ATOM      3  C   UNL     1      10.438 -60.702 -23.908  1.00  0.00     0.000 A 
ATOM      4  C   UNL     1       9.277 -61.664 -23.875  1.00  0.00     0.068 A 
ATOM      5  C   UNL     1       8.833 -62.242 -25.178  1.00  0.00     0.023 A 
ATOM      6  C   UNL     1       7.756 -63.139 -25.229  1.00  0.00     0.014 A 
ATOM      7  C   UNL     1       7.351 -63.672 -26.452  1.00  0.00     0.021 A 
ATOM      8  C   UNL     1       8.024 -63.310 -27.617  1.00  0.00     0.043 A 
ATOM      9  Cl  UNL     1       7.532 -63.973 -29.127  1.00  0.00    -0.084 Cl
ATOM     10  C   UNL     1       9.096 -62.417 -27.573  1.00  0.00     0.047 A 
ATOM     11  C   UNL     1       9.501 -61.866 -26.352  1.00  0.00     0.049 A 
ATOM     12  C   UNL     1      10.935 -60.089 -22.607  1.00  0.00     0.028 C 
ATOM     13  C   UNL     1      10.062 -58.879 -22.197  1.00  0.00     0.039 C 
ATOM     14  C   UNL     1      10.394 -57.604 -22.950  1.00  0.00    -0.076 C 
ATOM     15  C   UNL     1       9.441 -56.460 -22.762  1.00  0.00     0.039 C 
ATOM     16  C   UNL     1      11.475 -57.518 -23.747  1.00  0.00    -0.024 C 
ATOM     17  C   UNL     1      12.459 -58.655 -23.930  1.00  0.00     0.018 C 
ATOM     18  C   UNL     1      12.160 -59.435 -25.223  1.00  0.00     0.062 C 
ATOM     19  C   UNL     1      12.390 -59.623 -22.746  1.00  0.00     0.017 C 
ATOM     20  H   UNL     1      10.982 -60.642 -27.153  1.00  0.00     0.166 HD
ENDROOT
BRANCH   4  21
ATOM     21  N   UNL     1       8.647 -62.009 -22.796  1.00  0.00    -0.300 NA
ATOM     22  H   UNL     1       9.051 -62.837 -22.357  1.00  0.00     0.188 HD
ENDBRANCH   4  21
TORSDOF 1
ENDMDL
MODEL 5
REMARK VINA RESULT:    -8.384      4.638      5.699
REMARK INTER + INTRA:          -8.629
REMARK INTER:                  -8.629
REMARK INTRA:                   0.000
REMARK UNBOUND:                 0.000
REMARK SMILES CC1=C[C@@H]2Cc3[nH]c4cc(Cl)ccc4c(=N)c3[C@H](C1)C2
REMARK SMILES IDX 7 1 6 2 17 3 15 4 14 5 13 6 12 7 10 8 11 9 9 10 8 11 18 12
REMARK SMILES IDX 19 13 2 14 1 15 3 16 4 17 5 18 20 19 16 21
REMARK H PARENT 7 20 16 22
ROOT
ATOM      1  N   UNL     1       9.521 -59.526 -26.301  1.00  0.00    -0.358 N 
ATOM      2  C   UNL     1       9.282 -59.894 -24.994  1.00  0.00     0.021 A 
ATOM      3  C   UNL     1      10.230 -60.424 -24.186  1.00  0.00     0.000 A 
ATOM      4  C   UNL     1      11.609 -60.646 -24.755  1.00  0.00     0.068 A 
ATOM      5  C   UNL     1      11.827 -60.267 -26.183  1.00  0.00     0.023 A 
ATOM      6  C   UNL     1      13.081 -60.450 -26.783  1.00  0.00     0.014 A 
ATOM      7  C   UNL     1      13.273 -60.092 -28.118  1.00  0.00     0.021 A 
ATOM      8  C   UNL     1      12.214 -59.550 -28.844  1.00  0.00     0.043 A 
ATOM      9  Cl  UNL     1      12.450 -59.098 -30.488  1.00  0.00    -0.084 Cl
ATOM     10  C   UNL     1      10.964 -59.366 -28.251  1.00  0.00     0.047 A 
ATOM     11  C   UNL     1      10.757 -59.735 -26.917  1.00  0.00     0.049 A 
ATOM     12  C   UNL     1       9.955 -60.787 -22.735  1.00  0.00     0.028 C 
ATOM     13  C   UNL     1       9.671 -62.301 -22.588  1.00  0.00     0.039 C 
ATOM     14  C   UNL     1       8.259 -62.698 -22.978  1.00  0.00    -0.076 C 
ATOM     15  C   UNL     1       7.992 -64.173 -23.072  1.00  0.00     0.039 C 
ATOM     16  C   UNL     1       7.314 -61.776 -23.234  1.00  0.00    -0.024 C 
ATOM     17  C   UNL     1       7.562 -60.286 -23.121  1.00  0.00     0.018 C 
ATOM     18  C   UNL     1       7.856 -59.674 -24.503  1.00  0.00     0.062 C 
ATOM     19  C   UNL     1       8.749 -60.005 -22.197  1.00  0.00     0.017 C 
ATOM     20  H   UNL     1       8.731 -59.260 -26.876  1.00  0.00     0.166 HD
ENDROOT
BRANCH   4  21
ATOM     21  N   UNL     1      12.601 -61.146 -24.087  1.00  0.00    -0.300 NA
ATOM     22  H   UNL     1      13.504 -60.921 -24.503  1.00  0.00     0.188 HD
ENDBRANCH   4  21
TORSDOF 1
ENDMDL
MODEL 6
REMARK VINA RESULT:    -8.300      6.216     10.921
REMARK INTER + INTRA:          -8.542
REMARK INTER:                  -8.542
REMARK INTRA:                   0.000
REMARK UNBOUND:                 0.000
REMARK SMILES CC1=C[C@@H]2Cc3[nH]c4cc(Cl)ccc4c(=N)c3[C@H](C1)C2
REMARK SMILES IDX 7 1 6 2 17 3 15 4 14 5 13 6 12 7 10 8 11 9 9 10 8 11 18 12
REMARK SMILES IDX 19 13 2 14 1 15 3 16 4 17 5 18 20 19 16 21
REMARK H PARENT 7 20 16 22
ROOT
ATOM      1  N   UNL     1      10.390 -48.817 -22.273  1.00  0.00    -0.358 N 
ATOM      2  C   UNL     1      10.948 -47.664 -22.784  1.00  0.00     0.021 A 
ATOM      3  C   UNL     1      11.983 -47.663 -23.656  1.00  0.00     0.000 A 
ATOM      4  C   UNL     1      12.572 -48.989 -24.066  1.00  0.00     0.068 A 
ATOM      5  C   UNL     1      11.968 -50.218 -23.469  1.00  0.00     0.023 A 
ATOM      6  C   UNL     1      12.466 -51.487 -23.798  1.00  0.00     0.014 A 
ATOM      7  C   UNL     1      11.893 -52.627 -23.234  1.00  0.00     0.021 A 
ATOM      8  C   UNL     1      10.825 -52.495 -22.350  1.00  0.00     0.043 A 
ATOM      9  Cl  UNL     1      10.109 -53.900 -21.661  1.00  0.00    -0.084 Cl
ATOM     10  C   UNL     1      10.324 -51.234 -22.020  1.00  0.00     0.047 A 
ATOM     11  C   UNL     1      10.902 -50.084 -22.569  1.00  0.00     0.049 A 
ATOM     12  C   UNL     1      12.557 -46.381 -24.238  1.00  0.00     0.028 C 
ATOM     13  C   UNL     1      13.831 -45.948 -23.473  1.00  0.00     0.039 C 
ATOM     14  C   UNL     1      13.544 -45.247 -22.158  1.00  0.00    -0.076 C 
ATOM     15  C   UNL     1      14.728 -45.005 -21.268  1.00  0.00     0.039 C 
ATOM     16  C   UNL     1      12.295 -44.880 -21.813  1.00  0.00    -0.024 C 
ATOM     17  C   UNL     1      11.094 -45.097 -22.710  1.00  0.00     0.018 C 
ATOM     18  C   UNL     1      10.323 -46.363 -22.295  1.00  0.00     0.062 C 
ATOM     19  C   UNL     1      11.530 -45.243 -24.170  1.00  0.00     0.017 C 
ATOM     20  H   UNL     1       9.708 -48.731 -21.530  1.00  0.00     0.166 HD
ENDROOT
BRANCH   4  21
ATOM     21  N   UNL     1      13.564 -49.123 -24.890  1.00  0.00    -0.300 NA
ATOM     22  H   UNL     1      14.455 -49.249 -24.410  1.00  0.00     0.188 HD
ENDBRANCH   4  21
TORSDOF 1
ENDMDL
MODEL 7
REMARK VINA RESULT:    -8.245      4.561      8.968
REMARK INTER + INTRA:          -8.486
REMARK INTER:                  -8.486
REMARK INTRA:                   0.000
REMARK UNBOUND:                 0.000
REMARK SMILES CC1=C[C@@H]2Cc3[nH]c4cc(Cl)ccc4c(=N)c3[C@H](C1)C2
REMARK SMILES IDX 7 1 6 2 17 3 15 4 14 5 13 6 12 7 10 8 11 9 9 10 8 11 18 12
REMARK SMILES IDX 19 13 2 14 1 15 3 16 4 17 5 18 20 19 16 21
REMARK H PARENT 7 20 16 22
ROOT
ATOM      1  N   UNL     1      11.780 -51.134 -22.783  1.00  0.00    -0.358 N 
ATOM      2  C   UNL     1      12.459 -50.070 -23.338  1.00  0.00     0.021 A 
ATOM      3  C   UNL     1      13.135 -50.149 -24.508  1.00  0.00     0.000 A 
ATOM      4  C   UNL     1      13.169 -51.476 -25.224  1.00  0.00     0.068 A 
ATOM      5  C   UNL     1      12.451 -52.617 -24.581  1.00  0.00     0.023 A 
ATOM      6  C   UNL     1      12.443 -53.883 -25.184  1.00  0.00     0.014 A 
ATOM      7  C   UNL     1      11.769 -54.940 -24.573  1.00  0.00     0.021 A 
ATOM      8  C   UNL     1      11.105 -54.729 -23.368  1.00  0.00     0.043 A 
ATOM      9  Cl  UNL     1      10.264 -56.029 -22.617  1.00  0.00    -0.084 Cl
ATOM     10  C   UNL     1      11.109 -53.470 -22.763  1.00  0.00     0.047 A 
ATOM     11  C   UNL     1      11.795 -52.406 -23.360  1.00  0.00     0.049 A 
ATOM     12  C   UNL     1      13.845 -48.952 -25.122  1.00  0.00     0.028 C 
ATOM     13  C   UNL     1      15.359 -48.983 -24.803  1.00  0.00     0.039 C 
ATOM     14  C   UNL     1      15.698 -48.494 -23.407  1.00  0.00    -0.076 C 
ATOM     15  C   UNL     1      17.114 -48.710 -22.959  1.00  0.00     0.039 C 
ATOM     16  C   UNL     1      14.773 -47.915 -22.619  1.00  0.00    -0.024 C 
ATOM     17  C   UNL     1      13.346 -47.670 -23.065  1.00  0.00     0.018 C 
ATOM     18  C   UNL     1      12.411 -48.773 -22.538  1.00  0.00     0.062 C 
ATOM     19  C   UNL     1      13.256 -47.638 -24.593  1.00  0.00     0.017 C 
ATOM     20  H   UNL     1      11.411 -51.030 -21.846  1.00  0.00     0.166 HD
ENDROOT
BRANCH   4  21
ATOM     21  N   UNL     1      13.781 -51.682 -26.348  1.00  0.00    -0.300 NA
ATOM     22  H   UNL     1      13.173 -51.543 -27.155  1.00  0.00     0.188 HD
ENDBRANCH   4  21
TORSDOF 1
ENDMDL
MODEL 8
REMARK VINA RESULT:    -8.204      7.530      9.601
REMARK INTER + INTRA:          -8.444
REMARK INTER:                  -8.444
REMARK INTRA:                   0.000
REMARK UNBOUND:                 0.000
REMARK SMILES CC1=C[C@@H]2Cc3[nH]c4cc(Cl)ccc4c(=N)c3[C@H](C1)C2
REMARK SMILES IDX 7 1 6 2 17 3 15 4 14 5 13 6 12 7 10 8 11 9 9 10 8 11 18 12
REMARK SMILES IDX 19 13 2 14 1 15 3 16 4 17 5 18 20 19 16 21
REMARK H PARENT 7 20 16 22
ROOT
ATOM      1  N   UNL     1      12.957 -47.470 -25.160  1.00  0.00    -0.358 N 
ATOM      2  C   UNL     1      13.204 -48.825 -25.122  1.00  0.00     0.021 A 
ATOM      3  C   UNL     1      12.652 -49.655 -24.206  1.00  0.00     0.000 A 
ATOM      4  C   UNL     1      11.743 -49.060 -23.159  1.00  0.00     0.068 A 
ATOM      5  C   UNL     1      11.522 -47.584 -23.207  1.00  0.00     0.023 A 
ATOM      6  C   UNL     1      10.695 -46.958 -22.264  1.00  0.00     0.014 A 
ATOM      7  C   UNL     1      10.496 -45.578 -22.320  1.00  0.00     0.021 A 
ATOM      8  C   UNL     1      11.119 -44.833 -23.318  1.00  0.00     0.043 A 
ATOM      9  Cl  UNL     1      10.868 -43.132 -23.396  1.00  0.00    -0.084 Cl
ATOM     10  C   UNL     1      11.943 -45.451 -24.260  1.00  0.00     0.047 A 
ATOM     11  C   UNL     1      12.161 -46.832 -24.204  1.00  0.00     0.049 A 
ATOM     12  C   UNL     1      12.907 -51.155 -24.205  1.00  0.00     0.028 C 
ATOM     13  C   UNL     1      13.999 -51.530 -23.176  1.00  0.00     0.039 C 
ATOM     14  C   UNL     1      15.413 -51.268 -23.662  1.00  0.00    -0.076 C 
ATOM     15  C   UNL     1      16.499 -51.398 -22.634  1.00  0.00     0.039 C 
ATOM     16  C   UNL     1      15.666 -50.927 -24.940  1.00  0.00    -0.024 C 
ATOM     17  C   UNL     1      14.584 -50.814 -25.994  1.00  0.00     0.018 C 
ATOM     18  C   UNL     1      14.160 -49.347 -26.188  1.00  0.00     0.062 C 
ATOM     19  C   UNL     1      13.353 -51.632 -25.594  1.00  0.00     0.017 C 
ATOM     20  H   UNL     1      13.506 -46.900 -25.791  1.00  0.00     0.166 HD
ENDROOT
BRANCH   4  21
ATOM     21  N   UNL     1      11.157 -49.746 -22.228  1.00  0.00    -0.300 NA
ATOM     22  H   UNL     1      10.141 -49.741 -22.322  1.00  0.00     0.188 HD
ENDBRANCH   4  21
TORSDOF 1
ENDMDL
MODEL 9
REMARK VINA RESULT:    -8.053      5.163      9.841
REMARK INTER + INTRA:          -8.289
REMARK INTER:                  -8.289
REMARK INTRA:                   0.000
REMARK UNBOUND:                 0.000
REMARK SMILES CC1=C[C@@H]2Cc3[nH]c4cc(Cl)ccc4c(=N)c3[C@H](C1)C2
REMARK SMILES IDX 7 1 6 2 17 3 15 4 14 5 13 6 12 7 10 8 11 9 9 10 8 11 18 12
REMARK SMILES IDX 19 13 2 14 1 15 3 16 4 17 5 18 20 19 16 21
REMARK H PARENT 7 20 16 22
ROOT
ATOM      1  N   UNL     1      13.878 -50.636 -25.111  1.00  0.00    -0.358 N 
ATOM      2  C   UNL     1      13.831 -49.525 -24.296  1.00  0.00     0.021 A 
ATOM      3  C   UNL     1      13.139 -49.487 -23.133  1.00  0.00     0.000 A 
ATOM      4  C   UNL     1      12.359 -50.711 -22.726  1.00  0.00     0.068 A 
ATOM      5  C   UNL     1      12.404 -51.886 -23.647  1.00  0.00     0.023 A 
ATOM      6  C   UNL     1      11.699 -53.059 -23.339  1.00  0.00     0.014 A 
ATOM      7  C   UNL     1      11.749 -54.149 -24.207  1.00  0.00     0.021 A 
ATOM      8  C   UNL     1      12.504 -54.066 -25.374  1.00  0.00     0.043 A 
ATOM      9  Cl  UNL     1      12.576 -55.413 -26.443  1.00  0.00    -0.084 Cl
ATOM     10  C   UNL     1      13.208 -52.901 -25.686  1.00  0.00     0.047 A 
ATOM     11  C   UNL     1      13.153 -51.796 -24.829  1.00  0.00     0.049 A 
ATOM     12  C   UNL     1      13.132 -48.264 -22.228  1.00  0.00     0.028 C 
ATOM     13  C   UNL     1      11.858 -47.415 -22.455  1.00  0.00     0.039 C 
ATOM     14  C   UNL     1      11.925 -46.531 -23.686  1.00  0.00    -0.076 C 
ATOM     15  C   UNL     1      10.643 -45.857 -24.084  1.00  0.00     0.039 C 
ATOM     16  C   UNL     1      13.067 -46.376 -24.381  1.00  0.00    -0.024 C 
ATOM     17  C   UNL     1      14.373 -47.030 -23.979  1.00  0.00     0.018 C 
ATOM     18  C   UNL     1      14.614 -48.315 -24.792  1.00  0.00     0.062 C 
ATOM     19  C   UNL     1      14.362 -47.385 -22.490  1.00  0.00     0.017 C 
ATOM     20  H   UNL     1      14.309 -50.543 -26.022  1.00  0.00     0.166 HD
ENDROOT
BRANCH   4  21
ATOM     21  N   UNL     1      11.656 -50.800 -21.640  1.00  0.00    -0.300 NA
ATOM     22  H   UNL     1      11.927 -50.107 -20.943  1.00  0.00     0.188 HD
ENDBRANCH   4  21
TORSDOF 1
ENDMDL
