MODEL 1
REMARK VINA RESULT:    -9.249      0.000      0.000
REMARK INTER + INTRA:         -14.195
REMARK INTER:                 -12.763
REMARK INTRA:                  -1.432
REMARK UNBOUND:                -1.432
REMARK SMILES COc1ccc([C@H]2C=C(c3cc(F)cc(F)c3)NN2c2ccc(S(N)(=O)=O)cc2)cc1OC
REMARK SMILES IDX 20 1 21 2 22 3 23 4 28 5 29 6 19 7 18 8 9 9 8 10 7 11 10 13
REMARK SMILES IDX 11 14 17 15 12 16 15 17 14 18 13 19 16 20 6 21 5 22 30 23
REMARK SMILES IDX 4 24 31 25 3 26 32 27 33 28 2 29 1 30 24 31 26 32 27 33
REMARK SMILES IDX 25 34
REMARK H PARENT 18 12 25 35 25 36
ROOT
ATOM      1  C   UNL     1      12.218 -52.337 -23.702  1.00  0.00     0.058 A 
ATOM      2  C   UNL     1      11.559 -52.670 -22.506  1.00  0.00     0.029 A 
ATOM      3  C   UNL     1      11.055 -53.957 -22.278  1.00  0.00     0.024 A 
ATOM      4  C   UNL     1      11.203 -54.939 -23.256  1.00  0.00     0.082 A 
ATOM      5  C   UNL     1      11.875 -54.652 -24.442  1.00  0.00     0.024 A 
ATOM      6  C   UNL     1      12.376 -53.362 -24.655  1.00  0.00     0.029 A 
ENDROOT
BRANCH   1   7
ATOM      7  N   UNL     1      12.751 -51.056 -23.937  1.00  0.00    -0.276 N 
ATOM      8  N   UNL     1      11.959 -49.911 -23.946  1.00  0.00    -0.297 N 
ATOM      9  C   UNL     1      12.701 -48.802 -23.571  1.00  0.00     0.060 C 
ATOM     10  C   UNL     1      13.931 -49.184 -23.194  1.00  0.00     0.033 C 
ATOM     11  C   UNL     1      14.087 -50.686 -23.364  1.00  0.00     0.161 C 
ATOM     12  H   UNL     1      11.417 -49.757 -24.797  1.00  0.00     0.188 HD
BRANCH   9  13
ATOM     13  C   UNL     1      12.151 -47.446 -23.620  1.00  0.00     0.005 A 
ATOM     14  C   UNL     1      12.699 -46.469 -24.461  1.00  0.00     0.049 A 
ATOM     15  C   UNL     1      11.042 -47.103 -22.833  1.00  0.00     0.049 A 
ATOM     16  C   UNL     1      12.151 -45.188 -24.500  1.00  0.00     0.126 A 
ATOM     17  C   UNL     1      10.512 -45.815 -22.888  1.00  0.00     0.126 A 
ATOM     18  C   UNL     1      11.057 -44.849 -23.718  1.00  0.00     0.078 A 
ATOM     19  F   UNL     1      12.689 -44.269 -25.313  1.00  0.00    -0.207 F 
ATOM     20  F   UNL     1       9.456 -45.507 -22.125  1.00  0.00    -0.207 F 
ENDBRANCH   9  13
BRANCH  11  21
ATOM     21  C   UNL     1      15.251 -51.015 -24.284  1.00  0.00    -0.016 A 
ATOM     22  C   UNL     1      16.198 -51.968 -23.884  1.00  0.00     0.010 A 
ATOM     23  C   UNL     1      15.436 -50.360 -25.515  1.00  0.00     0.056 A 
ATOM     24  C   UNL     1      17.294 -52.274 -24.698  1.00  0.00     0.051 A 
ATOM     25  C   UNL     1      16.526 -50.664 -26.340  1.00  0.00     0.161 A 
ATOM     26  C   UNL     1      17.466 -51.628 -25.926  1.00  0.00     0.160 A 
BRANCH  25  27
ATOM     27  O   UNL     1      16.766 -50.070 -27.555  1.00  0.00    -0.493 OA
ATOM     28  C   UNL     1      15.794 -49.154 -28.041  1.00  0.00     0.278 C 
ENDBRANCH  25  27
BRANCH  26  29
ATOM     29  O   UNL     1      18.508 -51.865 -26.788  1.00  0.00    -0.493 OA
ATOM     30  C   UNL     1      19.806 -52.009 -26.231  1.00  0.00     0.278 C 
ENDBRANCH  26  29
ENDBRANCH  11  21
ENDBRANCH   1   7
BRANCH   4  31
ATOM     31  S   UNL     1      10.599 -56.574 -22.964  1.00  0.00     0.238 S 
ATOM     32  O   UNL     1       9.228 -56.663 -23.407  1.00  0.00    -0.207 OA
ATOM     33  O   UNL     1      11.020 -57.011 -21.653  1.00  0.00    -0.207 OA
BRANCH  31  34
ATOM     34  N   UNL     1      11.495 -57.476 -24.061  1.00  0.00    -0.225 NA
ATOM     35  H   UNL     1      11.550 -56.980 -24.951  1.00  0.00     0.137 HD
ATOM     36  H   UNL     1      11.104 -58.416 -24.135  1.00  0.00     0.137 HD
ENDBRANCH  31  34
ENDBRANCH   4  31
TORSDOF 7
ENDMDL
MODEL 2
REMARK VINA RESULT:    -9.214      0.134      1.433
REMARK INTER + INTRA:         -14.147
REMARK INTER:                 -12.709
REMARK INTRA:                  -1.438
REMARK UNBOUND:                -1.432
REMARK SMILES COc1ccc([C@H]2C=C(c3cc(F)cc(F)c3)NN2c2ccc(S(N)(=O)=O)cc2)cc1OC
REMARK SMILES IDX 20 1 21 2 22 3 23 4 28 5 29 6 19 7 18 8 9 9 8 10 7 11 10 13
REMARK SMILES IDX 11 14 17 15 12 16 15 17 14 18 13 19 16 20 6 21 5 22 30 23
REMARK SMILES IDX 4 24 31 25 3 26 32 27 33 28 2 29 1 30 24 31 26 32 27 33
REMARK SMILES IDX 25 34
REMARK H PARENT 18 12 25 35 25 36
ROOT
ATOM      1  C   UNL     1      12.263 -52.320 -23.775  1.00  0.00     0.058 A 
ATOM      2  C   UNL     1      11.544 -52.624 -22.606  1.00  0.00     0.029 A 
ATOM      3  C   UNL     1      11.031 -53.906 -22.371  1.00  0.00     0.024 A 
ATOM      4  C   UNL     1      11.233 -54.914 -23.313  1.00  0.00     0.082 A 
ATOM      5  C   UNL     1      11.965 -54.656 -24.470  1.00  0.00     0.024 A 
ATOM      6  C   UNL     1      12.473 -53.370 -24.691  1.00  0.00     0.029 A 
ENDROOT
BRANCH   1   7
ATOM      7  N   UNL     1      12.805 -51.044 -24.016  1.00  0.00    -0.276 N 
ATOM      8  N   UNL     1      12.021 -49.894 -24.036  1.00  0.00    -0.297 N 
ATOM      9  C   UNL     1      12.767 -48.787 -23.665  1.00  0.00     0.060 C 
ATOM     10  C   UNL     1      13.993 -49.175 -23.280  1.00  0.00     0.033 C 
ATOM     11  C   UNL     1      14.140 -50.678 -23.439  1.00  0.00     0.161 C 
ATOM     12  H   UNL     1      11.483 -49.743 -24.891  1.00  0.00     0.188 HD
BRANCH   9  13
ATOM     13  C   UNL     1      12.225 -47.429 -23.726  1.00  0.00     0.005 A 
ATOM     14  C   UNL     1      11.095 -47.062 -22.983  1.00  0.00     0.049 A 
ATOM     15  C   UNL     1      12.845 -46.454 -24.522  1.00  0.00     0.049 A 
ATOM     16  C   UNL     1      10.604 -45.759 -23.048  1.00  0.00     0.126 A 
ATOM     17  C   UNL     1      12.335 -45.158 -24.572  1.00  0.00     0.126 A 
ATOM     18  C   UNL     1      11.216 -44.798 -23.839  1.00  0.00     0.078 A 
ATOM     19  F   UNL     1       9.523 -45.428 -22.329  1.00  0.00    -0.207 F 
ATOM     20  F   UNL     1      12.940 -44.245 -25.341  1.00  0.00    -0.207 F 
ENDBRANCH   9  13
BRANCH  11  21
ATOM     21  C   UNL     1      15.307 -51.020 -24.351  1.00  0.00    -0.016 A 
ATOM     22  C   UNL     1      16.197 -52.038 -23.981  1.00  0.00     0.010 A 
ATOM     23  C   UNL     1      15.552 -50.316 -25.544  1.00  0.00     0.056 A 
ATOM     24  C   UNL     1      17.294 -52.359 -24.788  1.00  0.00     0.051 A 
ATOM     25  C   UNL     1      16.642 -50.634 -26.362  1.00  0.00     0.161 A 
ATOM     26  C   UNL     1      17.524 -51.663 -25.978  1.00  0.00     0.160 A 
BRANCH  25  27
ATOM     27  O   UNL     1      16.939 -49.994 -27.541  1.00  0.00    -0.493 OA
ATOM     28  C   UNL     1      15.930 -49.172 -28.112  1.00  0.00     0.278 C 
ENDBRANCH  25  27
BRANCH  26  29
ATOM     29  O   UNL     1      18.573 -51.910 -26.830  1.00  0.00    -0.493 OA
ATOM     30  C   UNL     1      19.881 -51.923 -26.281  1.00  0.00     0.278 C 
ENDBRANCH  26  29
ENDBRANCH  11  21
ENDBRANCH   1   7
BRANCH   4  31
ATOM     31  S   UNL     1      10.618 -56.542 -23.009  1.00  0.00     0.238 S 
ATOM     32  O   UNL     1       9.239 -56.619 -23.432  1.00  0.00    -0.207 OA
ATOM     33  O   UNL     1      11.054 -56.981 -21.704  1.00  0.00    -0.207 OA
BRANCH  31  34
ATOM     34  N   UNL     1      11.489 -57.454 -24.118  1.00  0.00    -0.225 NA
ATOM     35  H   UNL     1      12.116 -56.847 -24.646  1.00  0.00     0.137 HD
ATOM     36  H   UNL     1      10.847 -57.993 -24.701  1.00  0.00     0.137 HD
ENDBRANCH  31  34
ENDBRANCH   4  31
TORSDOF 7
ENDMDL
MODEL 3
REMARK VINA RESULT:    -8.793      4.681      7.310
REMARK INTER + INTRA:         -13.566
REMARK INTER:                 -12.210
REMARK INTRA:                  -1.357
REMARK UNBOUND:                -1.432
REMARK SMILES COc1ccc([C@H]2C=C(c3cc(F)cc(F)c3)NN2c2ccc(S(N)(=O)=O)cc2)cc1OC
REMARK SMILES IDX 20 1 21 2 22 3 23 4 28 5 29 6 19 7 18 8 9 9 8 10 7 11 10 13
REMARK SMILES IDX 11 14 17 15 12 16 15 17 14 18 13 19 16 20 6 21 5 22 30 23
REMARK SMILES IDX 4 24 31 25 3 26 32 27 33 28 2 29 1 30 24 31 26 32 27 33
REMARK SMILES IDX 25 34
REMARK H PARENT 18 12 25 35 25 36
ROOT
ATOM      1  C   UNL     1      12.806 -48.242 -24.210  1.00  0.00     0.058 A 
ATOM      2  C   UNL     1      13.867 -47.352 -24.452  1.00  0.00     0.029 A 
ATOM      3  C   UNL     1      13.658 -45.971 -24.559  1.00  0.00     0.024 A 
ATOM      4  C   UNL     1      12.370 -45.455 -24.424  1.00  0.00     0.082 A 
ATOM      5  C   UNL     1      11.299 -46.305 -24.157  1.00  0.00     0.024 A 
ATOM      6  C   UNL     1      11.523 -47.683 -24.050  1.00  0.00     0.029 A 
ENDROOT
BRANCH   1   7
ATOM      7  N   UNL     1      13.002 -49.630 -24.076  1.00  0.00    -0.276 N 
ATOM      8  N   UNL     1      12.193 -50.420 -23.264  1.00  0.00    -0.297 N 
ATOM      9  C   UNL     1      12.141 -51.719 -23.744  1.00  0.00     0.060 C 
ATOM     10  C   UNL     1      12.789 -51.796 -24.917  1.00  0.00     0.033 C 
ATOM     11  C   UNL     1      13.391 -50.447 -25.272  1.00  0.00     0.161 C 
ATOM     12  H   UNL     1      12.394 -50.373 -22.265  1.00  0.00     0.188 HD
BRANCH   9  13
ATOM     13  C   UNL     1      11.469 -52.792 -23.010  1.00  0.00     0.005 A 
ATOM     14  C   UNL     1      11.437 -52.806 -21.609  1.00  0.00     0.049 A 
ATOM     15  C   UNL     1      10.822 -53.827 -23.702  1.00  0.00     0.049 A 
ATOM     16  C   UNL     1      10.779 -53.832 -20.932  1.00  0.00     0.126 A 
ATOM     17  C   UNL     1      10.173 -54.842 -23.003  1.00  0.00     0.126 A 
ATOM     18  C   UNL     1      10.144 -54.856 -21.618  1.00  0.00     0.078 A 
ATOM     19  F   UNL     1      10.759 -53.825 -19.592  1.00  0.00    -0.207 F 
ATOM     20  F   UNL     1       9.566 -55.822 -23.683  1.00  0.00    -0.207 F 
ENDBRANCH   9  13
BRANCH  11  21
ATOM     21  C   UNL     1      14.894 -50.553 -25.468  1.00  0.00    -0.016 A 
ATOM     22  C   UNL     1      15.680 -51.145 -24.469  1.00  0.00     0.010 A 
ATOM     23  C   UNL     1      15.536 -50.035 -26.607  1.00  0.00     0.056 A 
ATOM     24  C   UNL     1      17.068 -51.235 -24.609  1.00  0.00     0.051 A 
ATOM     25  C   UNL     1      16.925 -50.127 -26.761  1.00  0.00     0.161 A 
ATOM     26  C   UNL     1      17.699 -50.729 -25.749  1.00  0.00     0.160 A 
BRANCH  25  27
ATOM     27  O   UNL     1      17.617 -49.649 -27.847  1.00  0.00    -0.493 OA
ATOM     28  C   UNL     1      16.859 -49.135 -28.933  1.00  0.00     0.278 C 
ENDBRANCH  25  27
BRANCH  26  29
ATOM     29  O   UNL     1      19.054 -50.774 -25.971  1.00  0.00    -0.493 OA
ATOM     30  C   UNL     1      19.654 -52.051 -26.132  1.00  0.00     0.278 C 
ENDBRANCH  26  29
ENDBRANCH  11  21
ENDBRANCH   1   7
BRANCH   4  31
ATOM     31  S   UNL     1      12.102 -43.711 -24.524  1.00  0.00     0.238 S 
ATOM     32  O   UNL     1      12.476 -43.246 -25.839  1.00  0.00    -0.207 OA
ATOM     33  O   UNL     1      12.581 -43.085 -23.315  1.00  0.00    -0.207 OA
BRANCH  31  34
ATOM     34  N   UNL     1      10.427 -43.614 -24.463  1.00  0.00    -0.225 NA
ATOM     35  H   UNL     1      10.057 -43.442 -25.398  1.00  0.00     0.137 HD
ATOM     36  H   UNL     1      10.148 -42.915 -23.774  1.00  0.00     0.137 HD
ENDBRANCH  31  34
ENDBRANCH   4  31
TORSDOF 7
ENDMDL
MODEL 4
REMARK VINA RESULT:    -8.535      4.728      8.202
REMARK INTER + INTRA:         -13.211
REMARK INTER:                 -11.853
REMARK INTRA:                  -1.358
REMARK UNBOUND:                -1.432
REMARK SMILES COc1ccc([C@H]2C=C(c3cc(F)cc(F)c3)NN2c2ccc(S(N)(=O)=O)cc2)cc1OC
REMARK SMILES IDX 20 1 21 2 22 3 23 4 28 5 29 6 19 7 18 8 9 9 8 10 7 11 10 13
REMARK SMILES IDX 11 14 17 15 12 16 15 17 14 18 13 19 16 20 6 21 5 22 30 23
REMARK SMILES IDX 4 24 31 25 3 26 32 27 33 28 2 29 1 30 24 31 26 32 27 33
REMARK SMILES IDX 25 34
REMARK H PARENT 18 12 25 35 25 36
ROOT
ATOM      1  C   UNL     1      14.587 -50.331 -26.007  1.00  0.00     0.058 A 
ATOM      2  C   UNL     1      15.918 -50.595 -25.638  1.00  0.00     0.029 A 
ATOM      3  C   UNL     1      16.992 -50.268 -26.475  1.00  0.00     0.024 A 
ATOM      4  C   UNL     1      16.747 -49.666 -27.708  1.00  0.00     0.082 A 
ATOM      5  C   UNL     1      15.443 -49.365 -28.095  1.00  0.00     0.024 A 
ATOM      6  C   UNL     1      14.380 -49.696 -27.247  1.00  0.00     0.029 A 
ENDROOT
BRANCH   1   7
ATOM      7  N   UNL     1      13.498 -50.632 -25.168  1.00  0.00    -0.276 N 
ATOM      8  N   UNL     1      12.971 -51.916 -25.065  1.00  0.00    -0.297 N 
ATOM      9  C   UNL     1      12.399 -52.111 -23.818  1.00  0.00     0.060 C 
ATOM     10  C   UNL     1      12.634 -51.043 -23.039  1.00  0.00     0.033 C 
ATOM     11  C   UNL     1      13.394 -49.984 -23.819  1.00  0.00     0.161 C 
ATOM     12  H   UNL     1      12.361 -52.204 -25.831  1.00  0.00     0.188 HD
BRANCH   9  13
ATOM     13  C   UNL     1      11.656 -53.327 -23.485  1.00  0.00     0.005 A 
ATOM     14  C   UNL     1      12.016 -54.570 -24.021  1.00  0.00     0.049 A 
ATOM     15  C   UNL     1      10.568 -53.273 -22.601  1.00  0.00     0.049 A 
ATOM     16  C   UNL     1      11.300 -55.717 -23.680  1.00  0.00     0.126 A 
ATOM     17  C   UNL     1       9.867 -54.432 -22.275  1.00  0.00     0.126 A 
ATOM     18  C   UNL     1      10.224 -55.660 -22.809  1.00  0.00     0.078 A 
ATOM     19  F   UNL     1      11.663 -56.896 -24.202  1.00  0.00    -0.207 F 
ATOM     20  F   UNL     1       8.830 -54.357 -21.432  1.00  0.00    -0.207 F 
ENDBRANCH   9  13
BRANCH  11  21
ATOM     21  C   UNL     1      12.633 -48.668 -23.840  1.00  0.00    -0.016 A 
ATOM     22  C   UNL     1      11.477 -48.527 -23.058  1.00  0.00     0.010 A 
ATOM     23  C   UNL     1      13.026 -47.592 -24.655  1.00  0.00     0.056 A 
ATOM     24  C   UNL     1      10.742 -47.338 -23.075  1.00  0.00     0.051 A 
ATOM     25  C   UNL     1      12.302 -46.394 -24.673  1.00  0.00     0.161 A 
ATOM     26  C   UNL     1      11.146 -46.267 -23.878  1.00  0.00     0.160 A 
BRANCH  25  27
ATOM     27  O   UNL     1      12.630 -45.302 -25.439  1.00  0.00    -0.493 OA
ATOM     28  C   UNL     1      13.789 -44.567 -25.070  1.00  0.00     0.278 C 
ENDBRANCH  25  27
BRANCH  26  29
ATOM     29  O   UNL     1      10.487 -45.065 -23.956  1.00  0.00    -0.493 OA
ATOM     30  C   UNL     1      10.615 -44.169 -22.862  1.00  0.00     0.278 C 
ENDBRANCH  26  29
ENDBRANCH  11  21
ENDBRANCH   1   7
BRANCH   4  31
ATOM     31  S   UNL     1      18.098 -49.220 -28.757  1.00  0.00     0.238 S 
ATOM     32  O   UNL     1      18.629 -50.408 -29.383  1.00  0.00    -0.207 OA
ATOM     33  O   UNL     1      18.936 -48.263 -28.073  1.00  0.00    -0.207 OA
BRANCH  31  34
ATOM     34  N   UNL     1      17.322 -48.366 -29.977  1.00  0.00    -0.225 NA
ATOM     35  H   UNL     1      17.564 -48.765 -30.884  1.00  0.00     0.137 HD
ATOM     36  H   UNL     1      17.537 -47.372 -29.892  1.00  0.00     0.137 HD
ENDBRANCH  31  34
ENDBRANCH   4  31
TORSDOF 7
ENDMDL
MODEL 5
REMARK VINA RESULT:    -8.451      4.651      7.551
REMARK INTER + INTRA:         -13.094
REMARK INTER:                 -11.706
REMARK INTRA:                  -1.388
REMARK UNBOUND:                -1.432
REMARK SMILES COc1ccc([C@H]2C=C(c3cc(F)cc(F)c3)NN2c2ccc(S(N)(=O)=O)cc2)cc1OC
REMARK SMILES IDX 20 1 21 2 22 3 23 4 28 5 29 6 19 7 18 8 9 9 8 10 7 11 10 13
REMARK SMILES IDX 11 14 17 15 12 16 15 17 14 18 13 19 16 20 6 21 5 22 30 23
REMARK SMILES IDX 4 24 31 25 3 26 32 27 33 28 2 29 1 30 24 31 26 32 27 33
REMARK SMILES IDX 25 34
REMARK H PARENT 18 12 25 35 25 36
ROOT
ATOM      1  C   UNL     1      12.596 -47.836 -23.606  1.00  0.00     0.058 A 
ATOM      2  C   UNL     1      12.480 -47.141 -22.390  1.00  0.00     0.029 A 
ATOM      3  C   UNL     1      12.145 -45.781 -22.348  1.00  0.00     0.024 A 
ATOM      4  C   UNL     1      11.919 -45.090 -23.538  1.00  0.00     0.082 A 
ATOM      5  C   UNL     1      11.998 -45.754 -24.760  1.00  0.00     0.024 A 
ATOM      6  C   UNL     1      12.332 -47.113 -24.786  1.00  0.00     0.029 A 
ENDROOT
BRANCH   1   7
ATOM      7  N   UNL     1      12.909 -49.207 -23.663  1.00  0.00    -0.276 N 
ATOM      8  N   UNL     1      12.222 -50.159 -22.914  1.00  0.00    -0.297 N 
ATOM      9  C   UNL     1      12.240 -51.388 -23.553  1.00  0.00     0.060 C 
ATOM     10  C   UNL     1      12.810 -51.264 -24.762  1.00  0.00     0.033 C 
ATOM     11  C   UNL     1      13.279 -49.834 -24.974  1.00  0.00     0.161 C 
ATOM     12  H   UNL     1      12.487 -50.218 -21.930  1.00  0.00     0.188 HD
BRANCH   9  13
ATOM     13  C   UNL     1      11.705 -52.597 -22.925  1.00  0.00     0.005 A 
ATOM     14  C   UNL     1      11.322 -52.609 -21.577  1.00  0.00     0.049 A 
ATOM     15  C   UNL     1      11.549 -53.774 -23.673  1.00  0.00     0.049 A 
ATOM     16  C   UNL     1      10.803 -53.770 -21.004  1.00  0.00     0.126 A 
ATOM     17  C   UNL     1      11.029 -54.922 -23.078  1.00  0.00     0.126 A 
ATOM     18  C   UNL     1      10.653 -54.932 -21.744  1.00  0.00     0.078 A 
ATOM     19  F   UNL     1      10.441 -53.759 -19.715  1.00  0.00    -0.207 F 
ATOM     20  F   UNL     1      10.892 -56.035 -23.809  1.00  0.00    -0.207 F 
ENDBRANCH   9  13
BRANCH  11  21
ATOM     21  C   UNL     1      14.769 -49.785 -25.269  1.00  0.00    -0.016 A 
ATOM     22  C   UNL     1      15.206 -49.599 -26.588  1.00  0.00     0.010 A 
ATOM     23  C   UNL     1      15.734 -49.965 -24.261  1.00  0.00     0.056 A 
ATOM     24  C   UNL     1      16.570 -49.574 -26.893  1.00  0.00     0.051 A 
ATOM     25  C   UNL     1      17.102 -49.934 -24.555  1.00  0.00     0.161 A 
ATOM     26  C   UNL     1      17.525 -49.741 -25.886  1.00  0.00     0.160 A 
BRANCH  25  27
ATOM     27  O   UNL     1      18.098 -50.096 -23.624  1.00  0.00    -0.493 OA
ATOM     28  C   UNL     1      17.760 -50.754 -22.411  1.00  0.00     0.278 C 
ENDBRANCH  25  27
BRANCH  26  29
ATOM     29  O   UNL     1      18.882 -49.730 -26.093  1.00  0.00    -0.493 OA
ATOM     30  C   UNL     1      19.448 -50.809 -26.822  1.00  0.00     0.278 C 
ENDBRANCH  26  29
ENDBRANCH  11  21
ENDBRANCH   1   7
BRANCH   4  31
ATOM     31  S   UNL     1      11.464 -43.383 -23.495  1.00  0.00     0.238 S 
ATOM     32  O   UNL     1      12.588 -42.578 -23.911  1.00  0.00    -0.207 OA
ATOM     33  O   UNL     1      10.726 -43.118 -22.282  1.00  0.00    -0.207 OA
BRANCH  31  34
ATOM     34  N   UNL     1      10.346 -43.291 -24.744  1.00  0.00    -0.225 NA
ATOM     35  H   UNL     1      10.530 -42.463 -25.311  1.00  0.00     0.137 HD
ATOM     36  H   UNL     1       9.400 -43.330 -24.364  1.00  0.00     0.137 HD
ENDBRANCH  31  34
ENDBRANCH   4  31
TORSDOF 7
ENDMDL
MODEL 6
REMARK VINA RESULT:    -8.221      5.368      8.319
REMARK INTER + INTRA:         -12.777
REMARK INTER:                 -11.596
REMARK INTRA:                  -1.181
REMARK UNBOUND:                -1.432
REMARK SMILES COc1ccc([C@H]2C=C(c3cc(F)cc(F)c3)NN2c2ccc(S(N)(=O)=O)cc2)cc1OC
REMARK SMILES IDX 20 1 21 2 22 3 23 4 28 5 29 6 19 7 18 8 9 9 8 10 7 11 10 13
REMARK SMILES IDX 11 14 17 15 12 16 15 17 14 18 13 19 16 20 6 21 5 22 30 23
REMARK SMILES IDX 4 24 31 25 3 26 32 27 33 28 2 29 1 30 24 31 26 32 27 33
REMARK SMILES IDX 25 34
REMARK H PARENT 18 12 25 35 25 36
ROOT
ATOM      1  C   UNL     1      12.583 -46.838 -22.869  1.00  0.00     0.058 A 
ATOM      2  C   UNL     1      11.529 -46.271 -22.131  1.00  0.00     0.029 A 
ATOM      3  C   UNL     1      11.095 -44.959 -22.356  1.00  0.00     0.024 A 
ATOM      4  C   UNL     1      11.717 -44.186 -23.335  1.00  0.00     0.082 A 
ATOM      5  C   UNL     1      12.746 -44.723 -24.105  1.00  0.00     0.024 A 
ATOM      6  C   UNL     1      13.167 -46.037 -23.870  1.00  0.00     0.029 A 
ENDROOT
BRANCH   1   7
ATOM      7  N   UNL     1      13.016 -48.163 -22.671  1.00  0.00    -0.276 N 
ATOM      8  N   UNL     1      12.182 -49.257 -22.884  1.00  0.00    -0.297 N 
ATOM      9  C   UNL     1      12.923 -50.373 -23.240  1.00  0.00     0.060 C 
ATOM     10  C   UNL     1      14.213 -50.032 -23.390  1.00  0.00     0.033 C 
ATOM     11  C   UNL     1      14.407 -48.561 -23.066  1.00  0.00     0.161 C 
ATOM     12  H   UNL     1      11.508 -49.447 -22.142  1.00  0.00     0.188 HD
BRANCH   9  13
ATOM     13  C   UNL     1      12.312 -51.694 -23.395  1.00  0.00     0.005 A 
ATOM     14  C   UNL     1      12.669 -52.540 -24.453  1.00  0.00     0.049 A 
ATOM     15  C   UNL     1      11.364 -52.149 -22.467  1.00  0.00     0.049 A 
ATOM     16  C   UNL     1      12.082 -53.800 -24.573  1.00  0.00     0.126 A 
ATOM     17  C   UNL     1      10.791 -53.411 -22.609  1.00  0.00     0.126 A 
ATOM     18  C   UNL     1      11.142 -54.246 -23.657  1.00  0.00     0.078 A 
ATOM     19  F   UNL     1      12.438 -54.594 -25.591  1.00  0.00    -0.207 F 
ATOM     20  F   UNL     1       9.884 -53.824 -21.714  1.00  0.00    -0.207 F 
ENDBRANCH   9  13
BRANCH  11  21
ATOM     21  C   UNL     1      15.426 -48.375 -21.954  1.00  0.00    -0.016 A 
ATOM     22  C   UNL     1      15.225 -47.374 -20.993  1.00  0.00     0.010 A 
ATOM     23  C   UNL     1      16.598 -49.150 -21.880  1.00  0.00     0.056 A 
ATOM     24  C   UNL     1      16.157 -47.163 -19.972  1.00  0.00     0.051 A 
ATOM     25  C   UNL     1      17.534 -48.951 -20.858  1.00  0.00     0.161 A 
ATOM     26  C   UNL     1      17.313 -47.945 -19.897  1.00  0.00     0.160 A 
BRANCH  25  27
ATOM     27  O   UNL     1      18.695 -49.673 -20.721  1.00  0.00    -0.493 OA
ATOM     28  C   UNL     1      18.577 -51.039 -20.350  1.00  0.00     0.278 C 
ENDBRANCH  25  27
BRANCH  26  29
ATOM     29  O   UNL     1      18.281 -47.808 -18.932  1.00  0.00    -0.493 OA
ATOM     30  C   UNL     1      18.061 -46.850 -17.907  1.00  0.00     0.278 C 
ENDBRANCH  26  29
ENDBRANCH  11  21
ENDBRANCH   1   7
BRANCH   4  31
ATOM     31  S   UNL     1      11.154 -42.540 -23.650  1.00  0.00     0.238 S 
ATOM     32  O   UNL     1      12.255 -41.744 -24.138  1.00  0.00    -0.207 OA
ATOM     33  O   UNL     1      10.308 -42.110 -22.561  1.00  0.00    -0.207 OA
BRANCH  31  34
ATOM     34  N   UNL     1      10.134 -42.768 -24.964  1.00  0.00    -0.225 NA
ATOM     35  H   UNL     1       9.822 -41.864 -25.319  1.00  0.00     0.137 HD
ATOM     36  H   UNL     1       9.372 -43.396 -24.705  1.00  0.00     0.137 HD
ENDBRANCH  31  34
ENDBRANCH   4  31
TORSDOF 7
ENDMDL
MODEL 7
REMARK VINA RESULT:    -8.209      4.701      8.466
REMARK INTER + INTRA:         -12.761
REMARK INTER:                 -11.364
REMARK INTRA:                  -1.397
REMARK UNBOUND:                -1.432
REMARK SMILES COc1ccc([C@H]2C=C(c3cc(F)cc(F)c3)NN2c2ccc(S(N)(=O)=O)cc2)cc1OC
REMARK SMILES IDX 20 1 21 2 22 3 23 4 28 5 29 6 19 7 18 8 9 9 8 10 7 11 10 13
REMARK SMILES IDX 11 14 17 15 12 16 15 17 14 18 13 19 16 20 6 21 5 22 30 23
REMARK SMILES IDX 4 24 31 25 3 26 32 27 33 28 2 29 1 30 24 31 26 32 27 33
REMARK SMILES IDX 25 34
REMARK H PARENT 18 12 25 35 25 36
ROOT
ATOM      1  C   UNL     1      15.270 -49.538 -27.139  1.00  0.00     0.058 A 
ATOM      2  C   UNL     1      14.975 -49.058 -28.427  1.00  0.00     0.029 A 
ATOM      3  C   UNL     1      15.964 -48.935 -29.411  1.00  0.00     0.024 A 
ATOM      4  C   UNL     1      17.279 -49.292 -29.115  1.00  0.00     0.082 A 
ATOM      5  C   UNL     1      17.603 -49.797 -27.858  1.00  0.00     0.024 A 
ATOM      6  C   UNL     1      16.603 -49.918 -26.886  1.00  0.00     0.029 A 
ENDROOT
BRANCH   1   7
ATOM      7  N   UNL     1      14.283 -49.690 -26.147  1.00  0.00    -0.276 N 
ATOM      8  N   UNL     1      13.689 -50.919 -25.872  1.00  0.00    -0.297 N 
ATOM      9  C   UNL     1      13.274 -50.976 -24.551  1.00  0.00     0.060 C 
ATOM     10  C   UNL     1      13.680 -49.874 -23.900  1.00  0.00     0.033 C 
ATOM     11  C   UNL     1      14.401 -48.937 -24.855  1.00  0.00     0.161 C 
ATOM     12  H   UNL     1      12.965 -51.214 -26.529  1.00  0.00     0.188 HD
BRANCH   9  13
ATOM     13  C   UNL     1      12.501 -52.102 -24.027  1.00  0.00     0.005 A 
ATOM     14  C   UNL     1      11.735 -51.979 -22.860  1.00  0.00     0.049 A 
ATOM     15  C   UNL     1      12.496 -53.333 -24.701  1.00  0.00     0.049 A 
ATOM     16  C   UNL     1      10.996 -53.063 -22.387  1.00  0.00     0.126 A 
ATOM     17  C   UNL     1      11.751 -54.402 -24.208  1.00  0.00     0.126 A 
ATOM     18  C   UNL     1      10.996 -54.279 -23.052  1.00  0.00     0.078 A 
ATOM     19  F   UNL     1      10.269 -52.923 -21.271  1.00  0.00    -0.207 F 
ATOM     20  F   UNL     1      11.765 -55.569 -24.864  1.00  0.00    -0.207 F 
ENDBRANCH   9  13
BRANCH  11  21
ATOM     21  C   UNL     1      13.734 -47.572 -24.889  1.00  0.00    -0.016 A 
ATOM     22  C   UNL     1      14.421 -46.482 -25.442  1.00  0.00     0.010 A 
ATOM     23  C   UNL     1      12.458 -47.352 -24.341  1.00  0.00     0.056 A 
ATOM     24  C   UNL     1      13.845 -45.209 -25.466  1.00  0.00     0.051 A 
ATOM     25  C   UNL     1      11.868 -46.082 -24.366  1.00  0.00     0.161 A 
ATOM     26  C   UNL     1      12.570 -44.999 -24.931  1.00  0.00     0.160 A 
BRANCH  25  27
ATOM     27  O   UNL     1      10.625 -45.795 -23.856  1.00  0.00    -0.493 OA
ATOM     28  C   UNL     1      10.428 -45.989 -22.462  1.00  0.00     0.278 C 
ENDBRANCH  25  27
BRANCH  26  29
ATOM     29  O   UNL     1      11.927 -43.785 -24.911  1.00  0.00    -0.493 OA
ATOM     30  C   UNL     1      12.384 -42.782 -25.805  1.00  0.00     0.278 C 
ENDBRANCH  26  29
ENDBRANCH  11  21
ENDBRANCH   1   7
BRANCH   4  31
ATOM     31  S   UNL     1      18.528 -49.171 -30.360  1.00  0.00     0.238 S 
ATOM     32  O   UNL     1      17.904 -48.927 -31.639  1.00  0.00    -0.207 OA
ATOM     33  O   UNL     1      19.504 -50.216 -30.159  1.00  0.00    -0.207 OA
BRANCH  31  34
ATOM     34  N   UNL     1      19.294 -47.736 -29.943  1.00  0.00    -0.225 NA
ATOM     35  H   UNL     1      19.512 -47.739 -28.946  1.00  0.00     0.137 HD
ATOM     36  H   UNL     1      18.725 -46.942 -30.240  1.00  0.00     0.137 HD
ENDBRANCH  31  34
ENDBRANCH   4  31
TORSDOF 7
ENDMDL
MODEL 8
REMARK VINA RESULT:    -8.185      3.475      5.616
REMARK INTER + INTRA:         -12.727
REMARK INTER:                 -11.413
REMARK INTRA:                  -1.313
REMARK UNBOUND:                -1.432
REMARK SMILES COc1ccc([C@H]2C=C(c3cc(F)cc(F)c3)NN2c2ccc(S(N)(=O)=O)cc2)cc1OC
REMARK SMILES IDX 20 1 21 2 22 3 23 4 28 5 29 6 19 7 18 8 9 9 8 10 7 11 10 13
REMARK SMILES IDX 11 14 17 15 12 16 15 17 14 18 13 19 16 20 6 21 5 22 30 23
REMARK SMILES IDX 4 24 31 25 3 26 32 27 33 28 2 29 1 30 24 31 26 32 27 33
REMARK SMILES IDX 25 34
REMARK H PARENT 18 12 25 35 25 36
ROOT
ATOM      1  C   UNL     1      13.001 -51.408 -24.374  1.00  0.00     0.058 A 
ATOM      2  C   UNL     1      12.266 -51.316 -23.180  1.00  0.00     0.029 A 
ATOM      3  C   UNL     1      11.497 -52.387 -22.704  1.00  0.00     0.024 A 
ATOM      4  C   UNL     1      11.452 -53.578 -23.427  1.00  0.00     0.082 A 
ATOM      5  C   UNL     1      12.190 -53.714 -24.601  1.00  0.00     0.024 A 
ATOM      6  C   UNL     1      12.955 -52.637 -25.062  1.00  0.00     0.029 A 
ENDROOT
BRANCH   1   7
ATOM      7  N   UNL     1      13.796 -50.350 -24.853  1.00  0.00    -0.276 N 
ATOM      8  N   UNL     1      14.300 -50.327 -26.151  1.00  0.00    -0.297 N 
ATOM      9  C   UNL     1      14.477 -49.022 -26.582  1.00  0.00     0.060 C 
ATOM     10  C   UNL     1      13.996 -48.170 -25.662  1.00  0.00     0.033 C 
ATOM     11  C   UNL     1      13.479 -48.939 -24.458  1.00  0.00     0.161 C 
ATOM     12  H   UNL     1      15.117 -50.915 -26.317  1.00  0.00     0.188 HD
BRANCH   9  13
ATOM     13  C   UNL     1      15.117 -48.706 -27.860  1.00  0.00     0.005 A 
ATOM     14  C   UNL     1      16.158 -49.494 -28.368  1.00  0.00     0.049 A 
ATOM     15  C   UNL     1      14.682 -47.607 -28.617  1.00  0.00     0.049 A 
ATOM     16  C   UNL     1      16.743 -49.181 -29.594  1.00  0.00     0.126 A 
ATOM     17  C   UNL     1      15.284 -47.313 -29.839  1.00  0.00     0.126 A 
ATOM     18  C   UNL     1      16.315 -48.093 -30.338  1.00  0.00     0.078 A 
ATOM     19  F   UNL     1      17.736 -49.949 -30.061  1.00  0.00    -0.207 F 
ATOM     20  F   UNL     1      14.856 -46.258 -30.543  1.00  0.00    -0.207 F 
ENDBRANCH   9  13
BRANCH  11  21
ATOM     21  C   UNL     1      14.179 -48.496 -23.184  1.00  0.00    -0.016 A 
ATOM     22  C   UNL     1      13.502 -47.672 -22.275  1.00  0.00     0.010 A 
ATOM     23  C   UNL     1      15.511 -48.853 -22.903  1.00  0.00     0.056 A 
ATOM     24  C   UNL     1      14.128 -47.228 -21.106  1.00  0.00     0.051 A 
ATOM     25  C   UNL     1      16.145 -48.420 -21.732  1.00  0.00     0.161 A 
ATOM     26  C   UNL     1      15.448 -47.596 -20.827  1.00  0.00     0.160 A 
BRANCH  25  27
ATOM     27  O   UNL     1      17.438 -48.733 -21.391  1.00  0.00    -0.493 OA
ATOM     28  C   UNL     1      17.759 -50.108 -21.233  1.00  0.00     0.278 C 
ENDBRANCH  25  27
BRANCH  26  29
ATOM     29  O   UNL     1      16.140 -47.208 -19.706  1.00  0.00    -0.493 OA
ATOM     30  C   UNL     1      15.530 -46.255 -18.849  1.00  0.00     0.278 C 
ENDBRANCH  26  29
ENDBRANCH  11  21
ENDBRANCH   1   7
BRANCH   4  31
ATOM     31  S   UNL     1      10.512 -54.945 -22.818  1.00  0.00     0.238 S 
ATOM     32  O   UNL     1      11.386 -55.844 -22.102  1.00  0.00    -0.207 OA
ATOM     33  O   UNL     1       9.609 -55.398 -23.849  1.00  0.00    -0.207 OA
BRANCH  31  34
ATOM     34  N   UNL     1       9.551 -54.212 -21.652  1.00  0.00    -0.225 NA
ATOM     35  H   UNL     1       8.639 -54.668 -21.621  1.00  0.00     0.137 HD
ATOM     36  H   UNL     1       9.506 -53.207 -21.825  1.00  0.00     0.137 HD
ENDBRANCH  31  34
ENDBRANCH   4  31
TORSDOF 7
ENDMDL
MODEL 9
REMARK VINA RESULT:    -8.178      5.552      7.901
REMARK INTER + INTRA:         -12.718
REMARK INTER:                 -11.329
REMARK INTRA:                  -1.389
REMARK UNBOUND:                -1.432
REMARK SMILES COc1ccc([C@H]2C=C(c3cc(F)cc(F)c3)NN2c2ccc(S(N)(=O)=O)cc2)cc1OC
REMARK SMILES IDX 20 1 21 2 22 3 23 4 28 5 29 6 19 7 18 8 9 9 8 10 7 11 10 13
REMARK SMILES IDX 11 14 17 15 12 16 15 17 14 18 13 19 16 20 6 21 5 22 30 23
REMARK SMILES IDX 4 24 31 25 3 26 32 27 33 28 2 29 1 30 24 31 26 32 27 33
REMARK SMILES IDX 25 34
REMARK H PARENT 18 12 25 35 25 36
ROOT
ATOM      1  C   UNL     1      15.094 -48.324 -21.950  1.00  0.00     0.058 A 
ATOM      2  C   UNL     1      16.477 -48.506 -21.774  1.00  0.00     0.029 A 
ATOM      3  C   UNL     1      17.190 -47.817 -20.785  1.00  0.00     0.024 A 
ATOM      4  C   UNL     1      16.521 -46.924 -19.949  1.00  0.00     0.082 A 
ATOM      5  C   UNL     1      15.147 -46.739 -20.076  1.00  0.00     0.024 A 
ATOM      6  C   UNL     1      14.447 -47.437 -21.067  1.00  0.00     0.029 A 
ENDROOT
BRANCH   1   7
ATOM      7  N   UNL     1      14.359 -49.027 -22.923  1.00  0.00    -0.276 N 
ATOM      8  N   UNL     1      13.984 -50.357 -22.755  1.00  0.00    -0.297 N 
ATOM      9  C   UNL     1      12.819 -50.628 -23.455  1.00  0.00     0.060 C 
ATOM     10  C   UNL     1      12.335 -49.494 -23.987  1.00  0.00     0.033 C 
ATOM     11  C   UNL     1      13.264 -48.333 -23.677  1.00  0.00     0.161 C 
ATOM     12  H   UNL     1      14.719 -51.045 -22.923  1.00  0.00     0.188 HD
BRANCH   9  13
ATOM     13  C   UNL     1      12.273 -51.981 -23.560  1.00  0.00     0.005 A 
ATOM     14  C   UNL     1      12.573 -52.805 -24.654  1.00  0.00     0.049 A 
ATOM     15  C   UNL     1      11.446 -52.492 -22.549  1.00  0.00     0.049 A 
ATOM     16  C   UNL     1      12.051 -54.095 -24.726  1.00  0.00     0.126 A 
ATOM     17  C   UNL     1      10.935 -53.785 -22.644  1.00  0.00     0.126 A 
ATOM     18  C   UNL     1      11.230 -54.596 -23.727  1.00  0.00     0.078 A 
ATOM     19  F   UNL     1      12.351 -54.866 -25.780  1.00  0.00    -0.207 F 
ATOM     20  F   UNL     1      10.144 -54.251 -21.669  1.00  0.00    -0.207 F 
ENDBRANCH   9  13
BRANCH  11  21
ATOM     21  C   UNL     1      13.742 -47.658 -24.952  1.00  0.00    -0.016 A 
ATOM     22  C   UNL     1      14.493 -48.393 -25.881  1.00  0.00     0.010 A 
ATOM     23  C   UNL     1      13.493 -46.299 -25.215  1.00  0.00     0.056 A 
ATOM     24  C   UNL     1      14.968 -47.793 -27.052  1.00  0.00     0.051 A 
ATOM     25  C   UNL     1      13.958 -45.691 -26.388  1.00  0.00     0.161 A 
ATOM     26  C   UNL     1      14.706 -46.445 -27.314  1.00  0.00     0.160 A 
BRANCH  25  27
ATOM     27  O   UNL     1      13.747 -44.374 -26.713  1.00  0.00    -0.493 OA
ATOM     28  C   UNL     1      12.849 -43.633 -25.898  1.00  0.00     0.278 C 
ENDBRANCH  25  27
BRANCH  26  29
ATOM     29  O   UNL     1      15.132 -45.776 -28.435  1.00  0.00    -0.493 OA
ATOM     30  C   UNL     1      16.516 -45.821 -28.745  1.00  0.00     0.278 C 
ENDBRANCH  26  29
ENDBRANCH  11  21
ENDBRANCH   1   7
BRANCH   4  31
ATOM     31  S   UNL     1      17.407 -46.075 -18.677  1.00  0.00     0.238 S 
ATOM     32  O   UNL     1      17.679 -44.723 -19.106  1.00  0.00    -0.207 OA
ATOM     33  O   UNL     1      18.433 -46.942 -18.149  1.00  0.00    -0.207 OA
BRANCH  31  34
ATOM     34  N   UNL     1      16.244 -45.947 -17.472  1.00  0.00    -0.225 NA
ATOM     35  H   UNL     1      16.581 -46.394 -16.619  1.00  0.00     0.137 HD
ATOM     36  H   UNL     1      15.355 -46.318 -17.810  1.00  0.00     0.137 HD
ENDBRANCH  31  34
ENDBRANCH   4  31
TORSDOF 7
ENDMDL
