MODEL 1
REMARK VINA RESULT:   -10.955      0.000      0.000
REMARK INTER + INTRA:         -13.722
REMARK INTER:                 -12.877
REMARK INTRA:                  -0.845
REMARK UNBOUND:                -0.845
REMARK SMILES Oc1ccc([C@@H]2C=C(c3c4ccccc4cc4ccccc34)NN2)c(O)c1
REMARK SMILES IDX 5 1 4 2 3 3 2 4 27 5 25 6 6 7 23 8 24 9 8 10 7 11 9 14 10 15
REMARK SMILES IDX 22 16 11 17 15 18 21 19 17 20 12 21 14 22 16 23 20 24 18 25
REMARK SMILES IDX 13 26 19 27 26 28 1 30
REMARK H PARENT 23 12 24 13 26 29 1 31
ROOT
ATOM      1  C   UNL     1      10.887 -53.253 -22.217  1.00  0.00     0.017 A 
ATOM      2  C   UNL     1      11.182 -53.635 -23.542  1.00  0.00     0.013 A 
ATOM      3  C   UNL     1      11.340 -54.979 -23.894  1.00  0.00     0.047 A 
ATOM      4  C   UNL     1      11.213 -55.957 -22.916  1.00  0.00     0.119 A 
ATOM      5  C   UNL     1      10.932 -55.615 -21.600  1.00  0.00     0.092 A 
ATOM      6  C   UNL     1      10.773 -54.271 -21.257  1.00  0.00     0.124 A 
ENDROOT
BRANCH   1   7
ATOM      7  C   UNL     1      10.767 -51.770 -21.910  1.00  0.00     0.133 C 
ATOM      8  N   UNL     1      12.118 -49.948 -21.470  1.00  0.00    -0.320 N 
ATOM      9  N   UNL     1      11.782 -51.237 -20.939  1.00  0.00    -0.225 NA
ATOM     10  C   UNL     1      11.728 -49.884 -22.793  1.00  0.00     0.055 C 
ATOM     11  C   UNL     1      10.918 -50.896 -23.118  1.00  0.00     0.026 C 
ATOM     12  H   UNL     1      13.046 -49.566 -21.282  1.00  0.00     0.181 HD
ATOM     13  H   UNL     1      12.599 -51.852 -21.046  1.00  0.00     0.148 HD
BRANCH  10  14
ATOM     14  C   UNL     1      12.188 -48.810 -23.685  1.00  0.00     0.014 A 
ATOM     15  C   UNL     1      11.700 -47.480 -23.493  1.00  0.00    -0.008 A 
ATOM     16  C   UNL     1      13.123 -49.112 -24.721  1.00  0.00    -0.008 A 
ATOM     17  C   UNL     1      10.762 -47.111 -22.495  1.00  0.00     0.009 A 
ATOM     18  C   UNL     1      12.168 -46.458 -24.349  1.00  0.00    -0.017 A 
ATOM     19  C   UNL     1      13.642 -50.408 -24.972  1.00  0.00     0.009 A 
ATOM     20  C   UNL     1      13.570 -48.064 -25.557  1.00  0.00    -0.017 A 
ATOM     21  C   UNL     1      10.316 -45.795 -22.348  1.00  0.00     0.001 A 
ATOM     22  C   UNL     1      11.712 -45.137 -24.190  1.00  0.00     0.009 A 
ATOM     23  C   UNL     1      13.090 -46.763 -25.359  1.00  0.00     0.017 A 
ATOM     24  C   UNL     1      14.558 -50.654 -25.997  1.00  0.00     0.001 A 
ATOM     25  C   UNL     1      14.493 -48.325 -26.586  1.00  0.00     0.009 A 
ATOM     26  C   UNL     1      10.793 -44.807 -23.196  1.00  0.00     0.001 A 
ATOM     27  C   UNL     1      14.984 -49.611 -26.804  1.00  0.00     0.001 A 
ENDBRANCH  10  14
ENDBRANCH   1   7
BRANCH   6  28
ATOM     28  O   UNL     1      10.492 -53.945 -19.957  1.00  0.00    -0.507 OA
ATOM     29  H   UNL     1       9.620 -54.312 -19.729  1.00  0.00     0.293 HD
ENDBRANCH   6  28
BRANCH   4  30
ATOM     30  O   UNL     1      11.360 -57.280 -23.211  1.00  0.00    -0.508 OA
ATOM     31  H   UNL     1      11.493 -57.373 -24.170  1.00  0.00     0.293 HD
ENDBRANCH   4  30
TORSDOF 4
ENDMDL
MODEL 2
REMARK VINA RESULT:   -10.931      0.088      3.546
REMARK INTER + INTRA:         -13.694
REMARK INTER:                 -12.806
REMARK INTRA:                  -0.887
REMARK UNBOUND:                -0.845
REMARK SMILES Oc1ccc([C@@H]2C=C(c3c4ccccc4cc4ccccc34)NN2)c(O)c1
REMARK SMILES IDX 5 1 4 2 3 3 2 4 27 5 25 6 6 7 23 8 24 9 8 10 7 11 9 14 10 15
REMARK SMILES IDX 22 16 11 17 15 18 21 19 17 20 12 21 14 22 16 23 20 24 18 25
REMARK SMILES IDX 13 26 19 27 26 28 1 30
REMARK H PARENT 23 12 24 13 26 29 1 31
ROOT
ATOM      1  C   UNL     1      10.875 -53.273 -22.264  1.00  0.00     0.017 A 
ATOM      2  C   UNL     1      11.130 -53.625 -23.605  1.00  0.00     0.013 A 
ATOM      3  C   UNL     1      11.269 -54.960 -23.994  1.00  0.00     0.047 A 
ATOM      4  C   UNL     1      11.161 -55.961 -23.036  1.00  0.00     0.119 A 
ATOM      5  C   UNL     1      10.919 -55.649 -21.705  1.00  0.00     0.092 A 
ATOM      6  C   UNL     1      10.781 -54.313 -21.326  1.00  0.00     0.124 A 
ENDROOT
BRANCH   1   7
ATOM      7  C   UNL     1      10.774 -51.797 -21.919  1.00  0.00     0.133 C 
ATOM      8  N   UNL     1      12.151 -49.999 -21.455  1.00  0.00    -0.320 N 
ATOM      9  N   UNL     1      11.810 -51.298 -20.951  1.00  0.00    -0.225 NA
ATOM     10  C   UNL     1      11.741 -49.899 -22.770  1.00  0.00     0.055 C 
ATOM     11  C   UNL     1      10.915 -50.894 -23.107  1.00  0.00     0.026 C 
ATOM     12  H   UNL     1      13.085 -49.631 -21.273  1.00  0.00     0.181 HD
ATOM     13  H   UNL     1      12.619 -51.918 -21.086  1.00  0.00     0.148 HD
BRANCH  10  14
ATOM     14  C   UNL     1      12.198 -48.807 -23.642  1.00  0.00     0.014 A 
ATOM     15  C   UNL     1      13.144 -49.083 -24.677  1.00  0.00    -0.008 A 
ATOM     16  C   UNL     1      11.680 -47.490 -23.444  1.00  0.00    -0.008 A 
ATOM     17  C   UNL     1      13.709 -50.360 -24.921  1.00  0.00     0.009 A 
ATOM     18  C   UNL     1      13.556 -48.023 -25.516  1.00  0.00    -0.017 A 
ATOM     19  C   UNL     1      10.747 -47.145 -22.434  1.00  0.00     0.009 A 
ATOM     20  C   UNL     1      12.115 -46.456 -24.303  1.00  0.00    -0.017 A 
ATOM     21  C   UNL     1      14.631 -50.579 -25.948  1.00  0.00     0.001 A 
ATOM     22  C   UNL     1      14.485 -48.257 -26.546  1.00  0.00     0.009 A 
ATOM     23  C   UNL     1      13.039 -46.736 -25.319  1.00  0.00     0.017 A 
ATOM     24  C   UNL     1      10.267 -45.842 -22.283  1.00  0.00     0.001 A 
ATOM     25  C   UNL     1      11.624 -45.148 -24.141  1.00  0.00     0.009 A 
ATOM     26  C   UNL     1      15.018 -49.526 -26.762  1.00  0.00     0.001 A 
ATOM     27  C   UNL     1      10.706 -44.843 -23.138  1.00  0.00     0.001 A 
ENDBRANCH  10  14
ENDBRANCH   1   7
BRANCH   6  28
ATOM     28  O   UNL     1      10.537 -54.016 -20.011  1.00  0.00    -0.507 OA
ATOM     29  H   UNL     1      10.149 -54.800 -19.585  1.00  0.00     0.293 HD
ENDBRANCH   6  28
BRANCH   4  30
ATOM     30  O   UNL     1      11.290 -57.277 -23.367  1.00  0.00    -0.508 OA
ATOM     31  H   UNL     1      10.413 -57.695 -23.328  1.00  0.00     0.293 HD
ENDBRANCH   4  30
TORSDOF 4
ENDMDL
MODEL 3
REMARK VINA RESULT:   -10.667      3.494      7.395
REMARK INTER + INTRA:         -13.383
REMARK INTER:                 -13.284
REMARK INTRA:                  -0.099
REMARK UNBOUND:                -0.845
REMARK SMILES Oc1ccc([C@@H]2C=C(c3c4ccccc4cc4ccccc34)NN2)c(O)c1
REMARK SMILES IDX 5 1 4 2 3 3 2 4 27 5 25 6 6 7 23 8 24 9 8 10 7 11 9 14 10 15
REMARK SMILES IDX 22 16 11 17 15 18 21 19 17 20 12 21 14 22 16 23 20 24 18 25
REMARK SMILES IDX 13 26 19 27 26 28 1 30
REMARK H PARENT 23 12 24 13 26 29 1 31
ROOT
ATOM      1  C   UNL     1      11.895 -45.221 -22.354  1.00  0.00     0.017 A 
ATOM      2  C   UNL     1      12.765 -44.370 -21.641  1.00  0.00     0.013 A 
ATOM      3  C   UNL     1      13.048 -43.077 -22.090  1.00  0.00     0.047 A 
ATOM      4  C   UNL     1      12.467 -42.624 -23.268  1.00  0.00     0.119 A 
ATOM      5  C   UNL     1      11.612 -43.439 -23.999  1.00  0.00     0.092 A 
ATOM      6  C   UNL     1      11.334 -44.728 -23.543  1.00  0.00     0.124 A 
ENDROOT
BRANCH   1   7
ATOM      7  C   UNL     1      11.669 -46.624 -21.818  1.00  0.00     0.133 C 
ATOM      8  N   UNL     1      10.444 -48.521 -22.311  1.00  0.00    -0.320 N 
ATOM      9  N   UNL     1      10.265 -47.141 -21.961  1.00  0.00    -0.225 NA
ATOM     10  C   UNL     1      11.734 -48.713 -22.763  1.00  0.00     0.055 C 
ATOM     11  C   UNL     1      12.514 -47.664 -22.489  1.00  0.00     0.026 C 
ATOM     12  H   UNL     1       9.725 -48.983 -22.869  1.00  0.00     0.181 HD
ATOM     13  H   UNL     1       9.884 -46.649 -22.779  1.00  0.00     0.148 HD
BRANCH  10  14
ATOM     14  C   UNL     1      12.134 -49.945 -23.460  1.00  0.00     0.014 A 
ATOM     15  C   UNL     1      11.688 -51.209 -22.964  1.00  0.00    -0.008 A 
ATOM     16  C   UNL     1      12.955 -49.855 -24.625  1.00  0.00    -0.008 A 
ATOM     17  C   UNL     1      10.885 -51.374 -21.808  1.00  0.00     0.009 A 
ATOM     18  C   UNL     1      12.069 -52.379 -23.658  1.00  0.00    -0.017 A 
ATOM     19  C   UNL     1      13.438 -48.636 -25.166  1.00  0.00     0.009 A 
ATOM     20  C   UNL     1      13.316 -51.046 -25.293  1.00  0.00    -0.017 A 
ATOM     21  C   UNL     1      10.473 -52.633 -21.364  1.00  0.00     0.001 A 
ATOM     22  C   UNL     1      11.648 -53.641 -23.202  1.00  0.00     0.009 A 
ATOM     23  C   UNL     1      12.869 -52.281 -24.804  1.00  0.00     0.017 A 
ATOM     24  C   UNL     1      14.237 -48.598 -26.311  1.00  0.00     0.001 A 
ATOM     25  C   UNL     1      14.120 -50.996 -26.446  1.00  0.00     0.009 A 
ATOM     26  C   UNL     1      10.855 -53.768 -22.063  1.00  0.00     0.001 A 
ATOM     27  C   UNL     1      14.577 -49.780 -26.952  1.00  0.00     0.001 A 
ENDBRANCH  10  14
ENDBRANCH   1   7
BRANCH   6  28
ATOM     28  O   UNL     1      10.486 -45.522 -24.270  1.00  0.00    -0.507 OA
ATOM     29  H   UNL     1      10.151 -45.006 -25.023  1.00  0.00     0.293 HD
ENDBRANCH   6  28
BRANCH   4  30
ATOM     30  O   UNL     1      12.713 -41.371 -23.746  1.00  0.00    -0.508 OA
ATOM     31  H   UNL     1      13.637 -41.139 -23.550  1.00  0.00     0.293 HD
ENDBRANCH   4  30
TORSDOF 4
ENDMDL
MODEL 4
REMARK VINA RESULT:   -10.570      3.495      7.610
REMARK INTER + INTRA:         -13.269
REMARK INTER:                 -13.218
REMARK INTRA:                  -0.051
REMARK UNBOUND:                -0.845
REMARK SMILES Oc1ccc([C@@H]2C=C(c3c4ccccc4cc4ccccc34)NN2)c(O)c1
REMARK SMILES IDX 5 1 4 2 3 3 2 4 27 5 25 6 6 7 23 8 24 9 8 10 7 11 9 14 10 15
REMARK SMILES IDX 22 16 11 17 15 18 21 19 17 20 12 21 14 22 16 23 20 24 18 25
REMARK SMILES IDX 13 26 19 27 26 28 1 30
REMARK H PARENT 23 12 24 13 26 29 1 31
ROOT
ATOM      1  C   UNL     1      11.887 -45.189 -22.336  1.00  0.00     0.017 A 
ATOM      2  C   UNL     1      12.762 -44.336 -21.633  1.00  0.00     0.013 A 
ATOM      3  C   UNL     1      13.017 -43.033 -22.071  1.00  0.00     0.047 A 
ATOM      4  C   UNL     1      12.401 -42.573 -23.228  1.00  0.00     0.119 A 
ATOM      5  C   UNL     1      11.541 -43.389 -23.950  1.00  0.00     0.092 A 
ATOM      6  C   UNL     1      11.291 -44.689 -23.505  1.00  0.00     0.124 A 
ENDROOT
BRANCH   1   7
ATOM      7  C   UNL     1      11.693 -46.602 -21.814  1.00  0.00     0.133 C 
ATOM      8  N   UNL     1      10.477 -48.507 -22.298  1.00  0.00    -0.320 N 
ATOM      9  N   UNL     1      10.292 -47.134 -21.923  1.00  0.00    -0.225 NA
ATOM     10  C   UNL     1      11.755 -48.677 -22.790  1.00  0.00     0.055 C 
ATOM     11  C   UNL     1      12.531 -47.622 -22.524  1.00  0.00     0.026 C 
ATOM     12  H   UNL     1       9.747 -48.970 -22.841  1.00  0.00     0.181 HD
ATOM     13  H   UNL     1       9.882 -46.635 -22.723  1.00  0.00     0.148 HD
BRANCH  10  14
ATOM     14  C   UNL     1      12.150 -49.894 -23.515  1.00  0.00     0.014 A 
ATOM     15  C   UNL     1      12.976 -49.783 -24.676  1.00  0.00    -0.008 A 
ATOM     16  C   UNL     1      11.707 -51.166 -23.040  1.00  0.00    -0.008 A 
ATOM     17  C   UNL     1      13.440 -48.555 -25.211  1.00  0.00     0.009 A 
ATOM     18  C   UNL     1      13.359 -50.966 -25.348  1.00  0.00    -0.017 A 
ATOM     19  C   UNL     1      10.882 -51.347 -21.902  1.00  0.00     0.009 A 
ATOM     20  C   UNL     1      12.111 -52.327 -23.737  1.00  0.00    -0.017 A 
ATOM     21  C   UNL     1      14.248 -48.500 -26.350  1.00  0.00     0.001 A 
ATOM     22  C   UNL     1      14.173 -50.897 -26.493  1.00  0.00     0.009 A 
ATOM     23  C   UNL     1      12.926 -52.210 -24.871  1.00  0.00     0.017 A 
ATOM     24  C   UNL     1      10.477 -52.614 -21.473  1.00  0.00     0.001 A 
ATOM     25  C   UNL     1      11.698 -53.597 -23.296  1.00  0.00     0.009 A 
ATOM     26  C   UNL     1      14.616 -49.673 -26.990  1.00  0.00     0.001 A 
ATOM     27  C   UNL     1      10.886 -53.740 -22.172  1.00  0.00     0.001 A 
ENDBRANCH  10  14
ENDBRANCH   1   7
BRANCH   6  28
ATOM     28  O   UNL     1      10.437 -45.485 -24.222  1.00  0.00    -0.507 OA
ATOM     29  H   UNL     1      10.957 -45.982 -24.876  1.00  0.00     0.293 HD
ENDBRANCH   6  28
BRANCH   4  30
ATOM     30  O   UNL     1      12.619 -41.310 -23.695  1.00  0.00    -0.508 OA
ATOM     31  H   UNL     1      13.578 -41.151 -23.727  1.00  0.00     0.293 HD
ENDBRANCH   4  30
TORSDOF 4
ENDMDL
MODEL 5
REMARK VINA RESULT:   -10.089      1.684      3.726
REMARK INTER + INTRA:         -12.704
REMARK INTER:                 -11.750
REMARK INTRA:                  -0.955
REMARK UNBOUND:                -0.845
REMARK SMILES Oc1ccc([C@@H]2C=C(c3c4ccccc4cc4ccccc34)NN2)c(O)c1
REMARK SMILES IDX 5 1 4 2 3 3 2 4 27 5 25 6 6 7 23 8 24 9 8 10 7 11 9 14 10 15
REMARK SMILES IDX 22 16 11 17 15 18 21 19 17 20 12 21 14 22 16 23 20 24 18 25
REMARK SMILES IDX 13 26 19 27 26 28 1 30
REMARK H PARENT 23 12 24 13 26 29 1 31
ROOT
ATOM      1  C   UNL     1      11.093 -53.570 -22.620  1.00  0.00     0.017 A 
ATOM      2  C   UNL     1      11.452 -54.145 -23.856  1.00  0.00     0.013 A 
ATOM      3  C   UNL     1      11.541 -55.530 -24.017  1.00  0.00     0.047 A 
ATOM      4  C   UNL     1      11.279 -56.358 -22.932  1.00  0.00     0.119 A 
ATOM      5  C   UNL     1      10.932 -55.825 -21.698  1.00  0.00     0.092 A 
ATOM      6  C   UNL     1      10.843 -54.440 -21.547  1.00  0.00     0.124 A 
ENDROOT
BRANCH   1   7
ATOM      7  C   UNL     1      11.054 -52.055 -22.520  1.00  0.00     0.133 C 
ATOM      8  N   UNL     1      12.248 -50.323 -21.563  1.00  0.00    -0.320 N 
ATOM      9  N   UNL     1      11.502 -51.493 -21.200  1.00  0.00    -0.225 NA
ATOM     10  C   UNL     1      12.598 -50.400 -22.896  1.00  0.00     0.055 C 
ATOM     11  C   UNL     1      11.925 -51.367 -23.527  1.00  0.00     0.026 C 
ATOM     12  H   UNL     1      12.997 -50.006 -20.945  1.00  0.00     0.181 HD
ATOM     13  H   UNL     1      12.159 -52.189 -20.825  1.00  0.00     0.148 HD
BRANCH  10  14
ATOM     14  C   UNL     1      13.600 -49.501 -23.487  1.00  0.00     0.014 A 
ATOM     15  C   UNL     1      14.963 -49.925 -23.570  1.00  0.00    -0.008 A 
ATOM     16  C   UNL     1      13.192 -48.223 -23.977  1.00  0.00    -0.008 A 
ATOM     17  C   UNL     1      15.440 -51.171 -23.092  1.00  0.00     0.009 A 
ATOM     18  C   UNL     1      15.907 -49.053 -24.157  1.00  0.00    -0.017 A 
ATOM     19  C   UNL     1      11.861 -47.737 -23.920  1.00  0.00     0.009 A 
ATOM     20  C   UNL     1      14.163 -47.379 -24.559  1.00  0.00    -0.017 A 
ATOM     21  C   UNL     1      16.784 -51.540 -23.198  1.00  0.00     0.001 A 
ATOM     22  C   UNL     1      17.256 -49.436 -24.258  1.00  0.00     0.009 A 
ATOM     23  C   UNL     1      15.496 -47.804 -24.641  1.00  0.00     0.017 A 
ATOM     24  C   UNL     1      11.509 -46.480 -24.416  1.00  0.00     0.001 A 
ATOM     25  C   UNL     1      13.797 -46.115 -25.055  1.00  0.00     0.009 A 
ATOM     26  C   UNL     1      17.693 -50.671 -23.783  1.00  0.00     0.001 A 
ATOM     27  C   UNL     1      12.478 -45.668 -24.985  1.00  0.00     0.001 A 
ENDBRANCH  10  14
ENDBRANCH   1   7
BRANCH   6  28
ATOM     28  O   UNL     1      10.495 -53.925 -20.326  1.00  0.00    -0.507 OA
ATOM     29  H   UNL     1      11.120 -54.261 -19.661  1.00  0.00     0.293 HD
ENDBRANCH   6  28
BRANCH   4  30
ATOM     30  O   UNL     1      11.354 -57.715 -23.040  1.00  0.00    -0.508 OA
ATOM     31  H   UNL     1      12.053 -57.939 -23.677  1.00  0.00     0.293 HD
ENDBRANCH   4  30
TORSDOF 4
ENDMDL
MODEL 6
REMARK VINA RESULT:   -10.040      1.722      2.062
REMARK INTER + INTRA:         -12.646
REMARK INTER:                 -11.708
REMARK INTRA:                  -0.938
REMARK UNBOUND:                -0.845
REMARK SMILES Oc1ccc([C@@H]2C=C(c3c4ccccc4cc4ccccc34)NN2)c(O)c1
REMARK SMILES IDX 5 1 4 2 3 3 2 4 27 5 25 6 6 7 23 8 24 9 8 10 7 11 9 14 10 15
REMARK SMILES IDX 22 16 11 17 15 18 21 19 17 20 12 21 14 22 16 23 20 24 18 25
REMARK SMILES IDX 13 26 19 27 26 28 1 30
REMARK H PARENT 23 12 24 13 26 29 1 31
ROOT
ATOM      1  C   UNL     1      11.069 -53.480 -22.587  1.00  0.00     0.017 A 
ATOM      2  C   UNL     1      11.429 -54.072 -23.814  1.00  0.00     0.013 A 
ATOM      3  C   UNL     1      11.514 -55.460 -23.955  1.00  0.00     0.047 A 
ATOM      4  C   UNL     1      11.246 -56.272 -22.860  1.00  0.00     0.119 A 
ATOM      5  C   UNL     1      10.897 -55.721 -21.634  1.00  0.00     0.092 A 
ATOM      6  C   UNL     1      10.813 -54.334 -21.503  1.00  0.00     0.124 A 
ENDROOT
BRANCH   1   7
ATOM      7  C   UNL     1      11.035 -51.962 -22.508  1.00  0.00     0.133 C 
ATOM      8  N   UNL     1      12.219 -50.223 -21.552  1.00  0.00    -0.320 N 
ATOM      9  N   UNL     1      11.461 -51.385 -21.187  1.00  0.00    -0.225 NA
ATOM     10  C   UNL     1      12.593 -50.320 -22.877  1.00  0.00     0.055 C 
ATOM     11  C   UNL     1      11.928 -51.292 -23.507  1.00  0.00     0.026 C 
ATOM     12  H   UNL     1      12.957 -49.902 -20.924  1.00  0.00     0.181 HD
ATOM     13  H   UNL     1      12.107 -52.079 -20.791  1.00  0.00     0.148 HD
BRANCH  10  14
ATOM     14  C   UNL     1      13.610 -49.433 -23.460  1.00  0.00     0.014 A 
ATOM     15  C   UNL     1      13.221 -48.153 -23.963  1.00  0.00    -0.008 A 
ATOM     16  C   UNL     1      14.971 -49.864 -23.506  1.00  0.00    -0.008 A 
ATOM     17  C   UNL     1      11.889 -47.667 -23.963  1.00  0.00     0.009 A 
ATOM     18  C   UNL     1      14.217 -47.309 -24.504  1.00  0.00    -0.017 A 
ATOM     19  C   UNL     1      15.424 -51.121 -23.033  1.00  0.00     0.009 A 
ATOM     20  C   UNL     1      15.940 -48.992 -24.053  1.00  0.00    -0.017 A 
ATOM     21  C   UNL     1      11.560 -46.406 -24.466  1.00  0.00     0.001 A 
ATOM     22  C   UNL     1      13.873 -46.041 -25.007  1.00  0.00     0.009 A 
ATOM     23  C   UNL     1      15.550 -47.736 -24.538  1.00  0.00     0.017 A 
ATOM     24  C   UNL     1      16.768 -51.497 -23.095  1.00  0.00     0.001 A 
ATOM     25  C   UNL     1      17.290 -49.381 -24.110  1.00  0.00     0.009 A 
ATOM     26  C   UNL     1      12.554 -45.591 -24.988  1.00  0.00     0.001 A 
ATOM     27  C   UNL     1      17.702 -50.625 -23.635  1.00  0.00     0.001 A 
ENDBRANCH  10  14
ENDBRANCH   1   7
BRANCH   6  28
ATOM     28  O   UNL     1      10.463 -53.801 -20.290  1.00  0.00    -0.507 OA
ATOM     29  H   UNL     1       9.756 -54.347 -19.906  1.00  0.00     0.293 HD
ENDBRANCH   6  28
BRANCH   4  30
ATOM     30  O   UNL     1      11.316 -57.631 -22.949  1.00  0.00    -0.508 OA
ATOM     31  H   UNL     1      12.087 -57.868 -23.491  1.00  0.00     0.293 HD
ENDBRANCH   4  30
TORSDOF 4
ENDMDL
MODEL 7
REMARK VINA RESULT:    -9.847      6.361     11.972
REMARK INTER + INTRA:         -12.420
REMARK INTER:                 -11.757
REMARK INTRA:                  -0.663
REMARK UNBOUND:                -0.845
REMARK SMILES Oc1ccc([C@@H]2C=C(c3c4ccccc4cc4ccccc34)NN2)c(O)c1
REMARK SMILES IDX 5 1 4 2 3 3 2 4 27 5 25 6 6 7 23 8 24 9 8 10 7 11 9 14 10 15
REMARK SMILES IDX 22 16 11 17 15 18 21 19 17 20 12 21 14 22 16 23 20 24 18 25
REMARK SMILES IDX 13 26 19 27 26 28 1 30
REMARK H PARENT 23 12 24 13 26 29 1 31
ROOT
ATOM      1  C   UNL     1      11.645 -57.225 -23.358  1.00  0.00     0.017 A 
ATOM      2  C   UNL     1      11.553 -55.949 -23.950  1.00  0.00     0.013 A 
ATOM      3  C   UNL     1      11.208 -54.821 -23.199  1.00  0.00     0.047 A 
ATOM      4  C   UNL     1      10.943 -54.964 -21.843  1.00  0.00     0.119 A 
ATOM      5  C   UNL     1      11.015 -56.208 -21.230  1.00  0.00     0.092 A 
ATOM      6  C   UNL     1      11.362 -57.328 -21.987  1.00  0.00     0.124 A 
ENDROOT
BRANCH   1   7
ATOM      7  C   UNL     1      11.990 -58.404 -24.252  1.00  0.00     0.133 C 
ATOM      8  N   UNL     1      12.140 -60.708 -24.148  1.00  0.00    -0.320 N 
ATOM      9  N   UNL     1      12.717 -59.529 -23.570  1.00  0.00    -0.225 NA
ATOM     10  C   UNL     1      10.938 -60.383 -24.744  1.00  0.00     0.055 C 
ATOM     11  C   UNL     1      10.790 -59.060 -24.866  1.00  0.00     0.026 C 
ATOM     12  H   UNL     1      12.121 -61.567 -23.596  1.00  0.00     0.181 HD
ATOM     13  H   UNL     1      12.422 -59.476 -22.586  1.00  0.00     0.148 HD
BRANCH  10  14
ATOM     14  C   UNL     1       9.980 -61.414 -25.168  1.00  0.00     0.014 A 
ATOM     15  C   UNL     1       9.309 -62.199 -24.180  1.00  0.00    -0.008 A 
ATOM     16  C   UNL     1       9.729 -61.607 -26.561  1.00  0.00    -0.008 A 
ATOM     17  C   UNL     1       9.519 -62.071 -22.783  1.00  0.00     0.009 A 
ATOM     18  C   UNL     1       8.378 -63.172 -24.607  1.00  0.00    -0.017 A 
ATOM     19  C   UNL     1      10.363 -60.870 -27.593  1.00  0.00     0.009 A 
ATOM     20  C   UNL     1       8.791 -62.589 -26.951  1.00  0.00    -0.017 A 
ATOM     21  C   UNL     1       8.837 -62.863 -21.856  1.00  0.00     0.001 A 
ATOM     22  C   UNL     1       7.698 -63.963 -23.663  1.00  0.00     0.009 A 
ATOM     23  C   UNL     1       8.134 -63.350 -25.975  1.00  0.00     0.017 A 
ATOM     24  C   UNL     1      10.082 -61.092 -28.943  1.00  0.00     0.001 A 
ATOM     25  C   UNL     1       8.516 -62.803 -28.313  1.00  0.00     0.009 A 
ATOM     26  C   UNL     1       7.924 -63.809 -22.297  1.00  0.00     0.001 A 
ATOM     27  C   UNL     1       9.157 -62.060 -29.303  1.00  0.00     0.001 A 
ENDBRANCH  10  14
ENDBRANCH   1   7
BRANCH   6  28
ATOM     28  O   UNL     1      11.435 -58.550 -21.372  1.00  0.00    -0.507 OA
ATOM     29  H   UNL     1      11.819 -58.427 -20.487  1.00  0.00     0.293 HD
ENDBRANCH   6  28
BRANCH   4  30
ATOM     30  O   UNL     1      10.601 -53.894 -21.069  1.00  0.00    -0.508 OA
ATOM     31  H   UNL     1      10.422 -54.207 -20.167  1.00  0.00     0.293 HD
ENDBRANCH   4  30
TORSDOF 4
ENDMDL
MODEL 8
REMARK VINA RESULT:    -9.568      1.482      2.121
REMARK INTER + INTRA:         -12.091
REMARK INTER:                 -11.237
REMARK INTRA:                  -0.854
REMARK UNBOUND:                -0.845
REMARK SMILES Oc1ccc([C@@H]2C=C(c3c4ccccc4cc4ccccc34)NN2)c(O)c1
REMARK SMILES IDX 5 1 4 2 3 3 2 4 27 5 25 6 6 7 23 8 24 9 8 10 7 11 9 14 10 15
REMARK SMILES IDX 22 16 11 17 15 18 21 19 17 20 12 21 14 22 16 23 20 24 18 25
REMARK SMILES IDX 13 26 19 27 26 28 1 30
REMARK H PARENT 23 12 24 13 26 29 1 31
ROOT
ATOM      1  C   UNL     1      11.070 -51.315 -22.720  1.00  0.00     0.017 A 
ATOM      2  C   UNL     1      12.156 -51.912 -23.392  1.00  0.00     0.013 A 
ATOM      3  C   UNL     1      12.117 -53.251 -23.792  1.00  0.00     0.047 A 
ATOM      4  C   UNL     1      10.988 -54.010 -23.514  1.00  0.00     0.119 A 
ATOM      5  C   UNL     1       9.904 -53.456 -22.847  1.00  0.00     0.092 A 
ATOM      6  C   UNL     1       9.950 -52.118 -22.452  1.00  0.00     0.124 A 
ENDROOT
BRANCH   1   7
ATOM      7  C   UNL     1      11.207 -49.865 -22.287  1.00  0.00     0.133 C 
ATOM      8  N   UNL     1      12.840 -48.249 -22.034  1.00  0.00    -0.320 N 
ATOM      9  N   UNL     1      12.467 -49.542 -21.536  1.00  0.00    -0.225 NA
ATOM     10  C   UNL     1      12.183 -48.014 -23.225  1.00  0.00     0.055 C 
ATOM     11  C   UNL     1      11.201 -48.896 -23.430  1.00  0.00     0.026 C 
ATOM     12  H   UNL     1      13.827 -47.989 -22.035  1.00  0.00     0.181 HD
ATOM     13  H   UNL     1      13.157 -50.227 -21.870  1.00  0.00     0.148 HD
BRANCH  10  14
ATOM     14  C   UNL     1      12.571 -46.911 -24.118  1.00  0.00     0.014 A 
ATOM     15  C   UNL     1      12.016 -45.610 -23.909  1.00  0.00    -0.008 A 
ATOM     16  C   UNL     1      13.502 -47.158 -25.172  1.00  0.00    -0.008 A 
ATOM     17  C   UNL     1      11.077 -45.297 -22.894  1.00  0.00     0.009 A 
ATOM     18  C   UNL     1      12.415 -44.561 -24.766  1.00  0.00    -0.017 A 
ATOM     19  C   UNL     1      14.085 -48.423 -25.439  1.00  0.00     0.009 A 
ATOM     20  C   UNL     1      13.879 -46.083 -26.008  1.00  0.00    -0.017 A 
ATOM     21  C   UNL     1      10.565 -44.008 -22.730  1.00  0.00     0.001 A 
ATOM     22  C   UNL     1      11.892 -43.267 -24.591  1.00  0.00     0.009 A 
ATOM     23  C   UNL     1      13.334 -44.810 -25.793  1.00  0.00     0.017 A 
ATOM     24  C   UNL     1      14.995 -48.614 -26.481  1.00  0.00     0.001 A 
ATOM     25  C   UNL     1      14.796 -46.288 -27.054  1.00  0.00     0.009 A 
ATOM     26  C   UNL     1      10.974 -42.991 -23.580  1.00  0.00     0.001 A 
ATOM     27  C   UNL     1      15.351 -47.545 -27.289  1.00  0.00     0.001 A 
ENDBRANCH  10  14
ENDBRANCH   1   7
BRANCH   6  28
ATOM     28  O   UNL     1       8.873 -51.580 -21.798  1.00  0.00    -0.507 OA
ATOM     29  H   UNL     1       8.983 -51.735 -20.844  1.00  0.00     0.293 HD
ENDBRANCH   6  28
BRANCH   4  30
ATOM     30  O   UNL     1      10.904 -55.320 -23.884  1.00  0.00    -0.508 OA
ATOM     31  H   UNL     1       9.979 -55.524 -24.102  1.00  0.00     0.293 HD
ENDBRANCH   4  30
TORSDOF 4
ENDMDL
MODEL 9
REMARK VINA RESULT:    -9.550      4.011      7.490
REMARK INTER + INTRA:         -12.070
REMARK INTER:                 -11.291
REMARK INTRA:                  -0.778
REMARK UNBOUND:                -0.845
REMARK SMILES Oc1ccc([C@@H]2C=C(c3c4ccccc4cc4ccccc34)NN2)c(O)c1
REMARK SMILES IDX 5 1 4 2 3 3 2 4 27 5 25 6 6 7 23 8 24 9 8 10 7 11 9 14 10 15
REMARK SMILES IDX 22 16 11 17 15 18 21 19 17 20 12 21 14 22 16 23 20 24 18 25
REMARK SMILES IDX 13 26 19 27 26 28 1 30
REMARK H PARENT 23 12 24 13 26 29 1 31
ROOT
ATOM      1  C   UNL     1      14.179 -45.908 -20.812  1.00  0.00     0.017 A 
ATOM      2  C   UNL     1      14.158 -44.974 -21.869  1.00  0.00     0.013 A 
ATOM      3  C   UNL     1      15.050 -43.899 -21.907  1.00  0.00     0.047 A 
ATOM      4  C   UNL     1      15.970 -43.742 -20.879  1.00  0.00     0.119 A 
ATOM      5  C   UNL     1      16.012 -44.639 -19.819  1.00  0.00     0.092 A 
ATOM      6  C   UNL     1      15.119 -45.711 -19.789  1.00  0.00     0.124 A 
ENDROOT
BRANCH   1   7
ATOM      7  C   UNL     1      13.151 -47.027 -20.827  1.00  0.00     0.133 C 
ATOM      8  N   UNL     1      11.512 -47.895 -22.205  1.00  0.00    -0.320 N 
ATOM      9  N   UNL     1      11.853 -46.690 -21.506  1.00  0.00    -0.225 NA
ATOM     10  C   UNL     1      12.635 -48.689 -22.321  1.00  0.00     0.055 C 
ATOM     11  C   UNL     1      13.623 -48.264 -21.529  1.00  0.00     0.026 C 
ATOM     12  H   UNL     1      10.951 -47.827 -23.055  1.00  0.00     0.181 HD
ATOM     13  H   UNL     1      12.096 -45.972 -22.200  1.00  0.00     0.148 HD
BRANCH  10  14
ATOM     14  C   UNL     1      12.676 -49.845 -23.228  1.00  0.00     0.014 A 
ATOM     15  C   UNL     1      13.331 -49.723 -24.493  1.00  0.00    -0.008 A 
ATOM     16  C   UNL     1      12.068 -51.073 -22.825  1.00  0.00    -0.008 A 
ATOM     17  C   UNL     1      13.942 -48.533 -24.964  1.00  0.00     0.009 A 
ATOM     18  C   UNL     1      13.374 -50.851 -25.343  1.00  0.00    -0.017 A 
ATOM     19  C   UNL     1      11.398 -51.261 -21.590  1.00  0.00     0.009 A 
ATOM     20  C   UNL     1      12.133 -52.180 -23.700  1.00  0.00    -0.017 A 
ATOM     21  C   UNL     1      14.571 -48.465 -26.210  1.00  0.00     0.001 A 
ATOM     22  C   UNL     1      14.011 -50.770 -26.594  1.00  0.00     0.009 A 
ATOM     23  C   UNL     1      12.782 -52.053 -24.936  1.00  0.00     0.017 A 
ATOM     24  C   UNL     1      10.821 -52.484 -21.238  1.00  0.00     0.001 A 
ATOM     25  C   UNL     1      11.549 -53.406 -23.335  1.00  0.00     0.009 A 
ATOM     26  C   UNL     1      14.606 -49.586 -27.025  1.00  0.00     0.001 A 
ATOM     27  C   UNL     1      10.898 -53.557 -22.112  1.00  0.00     0.001 A 
ENDBRANCH  10  14
ENDBRANCH   1   7
BRANCH   6  28
ATOM     28  O   UNL     1      15.172 -46.591 -18.741  1.00  0.00    -0.507 OA
ATOM     29  H   UNL     1      15.340 -46.089 -17.925  1.00  0.00     0.293 HD
ENDBRANCH   6  28
BRANCH   4  30
ATOM     30  O   UNL     1      16.860 -42.709 -20.872  1.00  0.00    -0.508 OA
ATOM     31  H   UNL     1      16.690 -42.147 -21.647  1.00  0.00     0.293 HD
ENDBRANCH   4  30
TORSDOF 4
ENDMDL
