MODEL 1
REMARK VINA RESULT:   -10.863      0.000      0.000
REMARK INTER + INTRA:         -14.852
REMARK INTER:                 -14.038
REMARK INTRA:                  -0.814
REMARK UNBOUND:                -0.814
REMARK SMILES O=C(NCCNc1c2c(nc3ccccc13)CCCC2)c1ccc(F)cc1
REMARK SMILES IDX 4 1 3 2 2 3 1 4 21 6 22 7 27 8 23 9 26 10 24 11 25 12 5 13
REMARK SMILES IDX 6 14 7 16 8 17 16 18 9 19 20 20 15 21 11 22 10 23 17 24
REMARK SMILES IDX 19 25 14 26 12 27 18 28 13 29
REMARK H PARENT 3 5 6 15
ROOT
ATOM      1  C   UNL     1      12.930 -55.912 -26.376  1.00  0.00     0.137 C 
ENDROOT
BRANCH   1   2
ATOM      2  N   UNL     1      12.460 -56.512 -25.156  1.00  0.00    -0.350 N 
ATOM      3  C   UNL     1      12.081 -57.865 -24.979  1.00  0.00     0.251 C 
ATOM      4  O   UNL     1      12.144 -58.655 -25.953  1.00  0.00    -0.269 OA
ATOM      5  H   UNL     1      12.369 -55.944 -24.281  1.00  0.00     0.163 HD
BRANCH   3   6
ATOM      6  C   UNL     1      11.611 -58.436 -23.725  1.00  0.00     0.040 A 
ATOM      7  C   UNL     1      11.276 -59.773 -23.695  1.00  0.00     0.017 A 
ATOM      8  C   UNL     1      11.464 -57.756 -22.535  1.00  0.00     0.017 A 
ATOM      9  C   UNL     1      10.815 -60.394 -22.528  1.00  0.00     0.040 A 
ATOM     10  C   UNL     1      11.013 -58.345 -21.375  1.00  0.00     0.040 A 
ATOM     11  C   UNL     1      10.682 -59.684 -21.358  1.00  0.00     0.123 A 
ATOM     12  F   UNL     1      10.235 -60.304 -20.241  1.00  0.00    -0.207 F 
ENDBRANCH   3   6
ENDBRANCH   1   2
BRANCH   1  13
ATOM     13  C   UNL     1      13.736 -54.649 -26.097  1.00  0.00     0.134 C 
BRANCH  13  14
ATOM     14  N   UNL     1      12.910 -53.533 -25.753  1.00  0.00    -0.382 N 
ATOM     15  H   UNL     1      12.033 -53.625 -26.266  1.00  0.00     0.160 HD
BRANCH  14  16
ATOM     16  C   UNL     1      12.800 -52.379 -25.014  1.00  0.00     0.049 A 
ATOM     17  C   UNL     1      12.131 -52.894 -23.995  1.00  0.00    -0.003 A 
ATOM     18  C   UNL     1      13.197 -51.112 -25.189  1.00  0.00     0.024 A 
ATOM     19  C   UNL     1      11.812 -51.883 -22.946  1.00  0.00     0.046 A 
ATOM     20  C   UNL     1      11.385 -53.578 -23.072  1.00  0.00     0.039 C 
ATOM     21  C   UNL     1      13.878 -50.860 -26.350  1.00  0.00     0.012 A 
ATOM     22  C   UNL     1      12.911 -50.180 -24.240  1.00  0.00     0.073 A 
ATOM     23  N   UNL     1      12.242 -50.528 -23.145  1.00  0.00    -0.252 NA
ATOM     24  C   UNL     1      11.059 -51.777 -21.398  1.00  0.00     0.056 C 
ATOM     25  C   UNL     1       9.998 -53.455 -22.619  1.00  0.00     0.005 C 
ATOM     26  C   UNL     1      14.312 -49.585 -26.594  1.00  0.00     0.001 A 
ATOM     27  C   UNL     1      13.344 -48.898 -24.479  1.00  0.00     0.029 A 
ATOM     28  C   UNL     1       9.763 -51.874 -22.272  1.00  0.00     0.007 C 
ATOM     29  C   UNL     1      14.045 -48.587 -25.650  1.00  0.00     0.002 A 
ENDBRANCH  14  16
ENDBRANCH  13  14
ENDBRANCH   1  13
TORSDOF 5
ENDMDL
MODEL 2
REMARK VINA RESULT:   -10.758      3.644      8.799
REMARK INTER + INTRA:         -14.717
REMARK INTER:                 -14.120
REMARK INTRA:                  -0.597
REMARK UNBOUND:                -0.814
REMARK SMILES O=C(NCCNc1c2c(nc3ccccc13)CCCC2)c1ccc(F)cc1
REMARK SMILES IDX 4 1 3 2 2 3 1 4 21 6 22 7 27 8 23 9 26 10 24 11 25 12 5 13
REMARK SMILES IDX 6 14 7 16 8 17 16 18 9 19 20 20 15 21 11 22 10 23 17 24
REMARK SMILES IDX 19 25 14 26 12 27 18 28 13 29
REMARK H PARENT 3 5 6 15
ROOT
ATOM      1  C   UNL     1      11.101 -58.631 -21.636  1.00  0.00     0.137 C 
ENDROOT
BRANCH   1   2
ATOM      2  N   UNL     1      11.290 -57.206 -21.677  1.00  0.00    -0.350 N 
ATOM      3  C   UNL     1      10.682 -56.305 -22.585  1.00  0.00     0.251 C 
ATOM      4  O   UNL     1       9.896 -56.748 -23.458  1.00  0.00    -0.269 OA
ATOM      5  H   UNL     1      11.926 -56.730 -20.993  1.00  0.00     0.163 HD
BRANCH   3   6
ATOM      6  C   UNL     1      10.900 -54.865 -22.593  1.00  0.00     0.040 A 
ATOM      7  C   UNL     1      11.463 -54.292 -23.714  1.00  0.00     0.017 A 
ATOM      8  C   UNL     1      10.590 -53.997 -21.569  1.00  0.00     0.017 A 
ATOM      9  C   UNL     1      11.705 -52.915 -23.798  1.00  0.00     0.040 A 
ATOM     10  C   UNL     1      10.817 -52.640 -21.628  1.00  0.00     0.040 A 
ATOM     11  C   UNL     1      11.382 -52.079 -22.755  1.00  0.00     0.123 A 
ATOM     12  F   UNL     1      11.623 -50.751 -22.857  1.00  0.00    -0.207 F 
ENDBRANCH   3   6
ENDBRANCH   1   2
BRANCH   1  13
ATOM     13  C   UNL     1      12.130 -59.352 -22.498  1.00  0.00     0.134 C 
BRANCH  13  14
ATOM     14  N   UNL     1      11.558 -60.414 -23.267  1.00  0.00    -0.382 N 
ATOM     15  H   UNL     1      11.855 -61.296 -22.849  1.00  0.00     0.160 HD
BRANCH  14  16
ATOM     16  C   UNL     1      10.769 -60.748 -24.341  1.00  0.00     0.049 A 
ATOM     17  C   UNL     1       9.785 -61.314 -23.658  1.00  0.00    -0.003 A 
ATOM     18  C   UNL     1      10.877 -60.600 -25.668  1.00  0.00     0.024 A 
ATOM     19  C   UNL     1       8.696 -61.828 -24.538  1.00  0.00     0.046 A 
ATOM     20  C   UNL     1       8.908 -61.922 -22.801  1.00  0.00     0.039 C 
ATOM     21  C   UNL     1      12.014 -59.970 -26.101  1.00  0.00     0.012 A 
ATOM     22  C   UNL     1       9.891 -61.066 -26.480  1.00  0.00     0.073 A 
ATOM     23  N   UNL     1       8.825 -61.664 -25.958  1.00  0.00    -0.252 NA
ATOM     24  C   UNL     1       7.157 -62.599 -24.422  1.00  0.00     0.056 C 
ATOM     25  C   UNL     1       8.473 -63.310 -22.635  1.00  0.00     0.005 C 
ATOM     26  C   UNL     1      12.191 -59.787 -27.446  1.00  0.00     0.001 A 
ATOM     27  C   UNL     1      10.062 -60.884 -27.831  1.00  0.00     0.029 A 
ATOM     28  C   UNL     1       8.057 -63.846 -24.123  1.00  0.00     0.007 C 
ATOM     29  C   UNL     1      11.206 -60.248 -28.327  1.00  0.00     0.002 A 
ENDBRANCH  14  16
ENDBRANCH  13  14
ENDBRANCH   1  13
TORSDOF 5
ENDMDL
MODEL 3
REMARK VINA RESULT:   -10.742      4.057      9.376
REMARK INTER + INTRA:         -14.696
REMARK INTER:                 -14.029
REMARK INTRA:                  -0.668
REMARK UNBOUND:                -0.814
REMARK SMILES O=C(NCCNc1c2c(nc3ccccc13)CCCC2)c1ccc(F)cc1
REMARK SMILES IDX 4 1 3 2 2 3 1 4 21 6 22 7 27 8 23 9 26 10 24 11 25 12 5 13
REMARK SMILES IDX 6 14 7 16 8 17 16 18 9 19 20 20 15 21 11 22 10 23 17 24
REMARK SMILES IDX 19 25 14 26 12 27 18 28 13 29
REMARK H PARENT 3 5 6 15
ROOT
ATOM      1  C   UNL     1      12.152 -59.203 -23.771  1.00  0.00     0.137 C 
ENDROOT
BRANCH   1   2
ATOM      2  N   UNL     1      12.126 -57.821 -23.376  1.00  0.00    -0.350 N 
ATOM      3  C   UNL     1      10.972 -57.014 -23.225  1.00  0.00     0.251 C 
ATOM      4  O   UNL     1       9.840 -57.509 -23.448  1.00  0.00    -0.269 OA
ATOM      5  H   UNL     1      13.015 -57.307 -23.165  1.00  0.00     0.163 HD
BRANCH   3   6
ATOM      6  C   UNL     1      10.988 -55.614 -22.822  1.00  0.00     0.040 A 
ATOM      7  C   UNL     1      11.330 -54.664 -23.760  1.00  0.00     0.017 A 
ATOM      8  C   UNL     1      10.686 -55.134 -21.566  1.00  0.00     0.017 A 
ATOM      9  C   UNL     1      11.369 -53.299 -23.449  1.00  0.00     0.040 A 
ATOM     10  C   UNL     1      10.717 -53.797 -21.237  1.00  0.00     0.040 A 
ATOM     11  C   UNL     1      11.061 -52.856 -22.184  1.00  0.00     0.123 A 
ATOM     12  F   UNL     1      11.104 -51.532 -21.905  1.00  0.00    -0.207 F 
ENDBRANCH   3   6
ENDBRANCH   1   2
BRANCH   1  13
ATOM     13  C   UNL     1      11.747 -59.371 -25.231  1.00  0.00     0.134 C 
BRANCH  13  14
ATOM     14  N   UNL     1      10.414 -59.867 -25.379  1.00  0.00    -0.382 N 
ATOM     15  H   UNL     1       9.780 -59.068 -25.355  1.00  0.00     0.160 HD
BRANCH  14  16
ATOM     16  C   UNL     1       9.621 -60.978 -25.541  1.00  0.00     0.049 A 
ATOM     17  C   UNL     1       9.330 -61.167 -24.264  1.00  0.00    -0.003 A 
ATOM     18  C   UNL     1       9.226 -61.703 -26.596  1.00  0.00     0.024 A 
ATOM     19  C   UNL     1       8.449 -62.349 -24.042  1.00  0.00     0.046 A 
ATOM     20  C   UNL     1       9.200 -61.250 -22.903  1.00  0.00     0.039 C 
ATOM     21  C   UNL     1       9.684 -61.273 -27.814  1.00  0.00     0.012 A 
ATOM     22  C   UNL     1       8.423 -62.784 -26.407  1.00  0.00     0.073 A 
ATOM     23  N   UNL     1       8.033 -63.118 -25.181  1.00  0.00    -0.252 NA
ATOM     24  C   UNL     1       7.643 -63.176 -22.761  1.00  0.00     0.056 C 
ATOM     25  C   UNL     1       9.611 -62.253 -21.919  1.00  0.00     0.005 C 
ATOM     26  C   UNL     1       9.320 -61.968 -28.935  1.00  0.00     0.001 A 
ATOM     27  C   UNL     1       8.053 -63.486 -27.529  1.00  0.00     0.029 A 
ATOM     28  C   UNL     1       9.094 -63.698 -22.488  1.00  0.00     0.007 C 
ATOM     29  C   UNL     1       8.494 -63.090 -28.797  1.00  0.00     0.002 A 
ENDBRANCH  14  16
ENDBRANCH  13  14
ENDBRANCH   1  13
TORSDOF 5
ENDMDL
MODEL 4
REMARK VINA RESULT:   -10.671      2.155      4.012
REMARK INTER + INTRA:         -14.605
REMARK INTER:                 -14.203
REMARK INTRA:                  -0.402
REMARK UNBOUND:                -0.814
REMARK SMILES O=C(NCCNc1c2c(nc3ccccc13)CCCC2)c1ccc(F)cc1
REMARK SMILES IDX 4 1 3 2 2 3 1 4 21 6 22 7 27 8 23 9 26 10 24 11 25 12 5 13
REMARK SMILES IDX 6 14 7 16 8 17 16 18 9 19 20 20 15 21 11 22 10 23 17 24
REMARK SMILES IDX 19 25 14 26 12 27 18 28 13 29
REMARK H PARENT 3 5 6 15
ROOT
ATOM      1  C   UNL     1       9.725 -52.785 -22.340  1.00  0.00     0.137 C 
ENDROOT
BRANCH   1   2
ATOM      2  N   UNL     1       9.810 -54.193 -22.058  1.00  0.00    -0.350 N 
ATOM      3  C   UNL     1      10.163 -55.213 -22.975  1.00  0.00     0.251 C 
ATOM      4  O   UNL     1      10.437 -54.906 -24.161  1.00  0.00    -0.269 OA
ATOM      5  H   UNL     1       9.602 -54.560 -21.099  1.00  0.00     0.163 HD
BRANCH   3   6
ATOM      6  C   UNL     1      10.238 -56.630 -22.648  1.00  0.00     0.040 A 
ATOM      7  C   UNL     1      11.241 -57.057 -21.804  1.00  0.00     0.017 A 
ATOM      8  C   UNL     1       9.387 -57.610 -23.110  1.00  0.00     0.017 A 
ATOM      9  C   UNL     1      11.379 -58.404 -21.443  1.00  0.00     0.040 A 
ATOM     10  C   UNL     1       9.503 -58.939 -22.769  1.00  0.00     0.040 A 
ATOM     11  C   UNL     1      10.510 -59.354 -21.923  1.00  0.00     0.123 A 
ATOM     12  F   UNL     1      10.661 -60.650 -21.561  1.00  0.00    -0.207 F 
ENDBRANCH   3   6
ENDBRANCH   1   2
BRANCH   1  13
ATOM     13  C   UNL     1      10.713 -51.990 -21.494  1.00  0.00     0.134 C 
BRANCH  13  14
ATOM     14  N   UNL     1      11.162 -50.799 -22.146  1.00  0.00    -0.382 N 
ATOM     15  H   UNL     1      10.760 -50.002 -21.653  1.00  0.00     0.160 HD
BRANCH  14  16
ATOM     16  C   UNL     1      11.916 -50.273 -23.168  1.00  0.00     0.049 A 
ATOM     17  C   UNL     1      11.758 -48.996 -22.855  1.00  0.00    -0.003 A 
ATOM     18  C   UNL     1      12.608 -50.795 -24.189  1.00  0.00     0.024 A 
ATOM     19  C   UNL     1      12.465 -48.081 -23.796  1.00  0.00     0.046 A 
ATOM     20  C   UNL     1      11.426 -47.738 -22.428  1.00  0.00     0.039 C 
ATOM     21  C   UNL     1      12.599 -52.163 -24.271  1.00  0.00     0.012 A 
ATOM     22  C   UNL     1      13.256 -49.971 -25.055  1.00  0.00     0.073 A 
ATOM     23  N   UNL     1      13.202 -48.653 -24.887  1.00  0.00    -0.252 NA
ATOM     24  C   UNL     1      12.764 -46.398 -24.029  1.00  0.00     0.056 C 
ATOM     25  C   UNL     1      10.669 -46.644 -23.038  1.00  0.00     0.005 C 
ATOM     26  C   UNL     1      13.285 -52.763 -25.292  1.00  0.00     0.001 A 
ATOM     27  C   UNL     1      13.948 -50.568 -26.081  1.00  0.00     0.029 A 
ATOM     28  C   UNL     1      11.283 -46.437 -24.540  1.00  0.00     0.007 C 
ATOM     29  C   UNL     1      13.971 -51.961 -26.211  1.00  0.00     0.002 A 
ENDBRANCH  14  16
ENDBRANCH  13  14
ENDBRANCH   1  13
TORSDOF 5
ENDMDL
MODEL 5
REMARK VINA RESULT:   -10.503      3.812      9.236
REMARK INTER + INTRA:         -14.387
REMARK INTER:                 -13.900
REMARK INTRA:                  -0.487
REMARK UNBOUND:                -0.814
REMARK SMILES O=C(NCCNc1c2c(nc3ccccc13)CCCC2)c1ccc(F)cc1
REMARK SMILES IDX 4 1 3 2 2 3 1 4 21 6 22 7 27 8 23 9 26 10 24 11 25 12 5 13
REMARK SMILES IDX 6 14 7 16 8 17 16 18 9 19 20 20 15 21 11 22 10 23 17 24
REMARK SMILES IDX 19 25 14 26 12 27 18 28 13 29
REMARK H PARENT 3 5 6 15
ROOT
ATOM      1  C   UNL     1      11.045 -59.019 -21.962  1.00  0.00     0.137 C 
ENDROOT
BRANCH   1   2
ATOM      2  N   UNL     1      11.339 -57.615 -22.073  1.00  0.00    -0.350 N 
ATOM      3  C   UNL     1      10.529 -56.635 -22.696  1.00  0.00     0.251 C 
ATOM      4  O   UNL     1       9.439 -56.978 -23.218  1.00  0.00    -0.269 OA
ATOM      5  H   UNL     1      12.223 -57.221 -21.672  1.00  0.00     0.163 HD
BRANCH   3   6
ATOM      6  C   UNL     1      10.863 -55.221 -22.787  1.00  0.00     0.040 A 
ATOM      7  C   UNL     1      10.566 -54.405 -21.716  1.00  0.00     0.017 A 
ATOM      8  C   UNL     1      11.461 -54.601 -23.862  1.00  0.00     0.017 A 
ATOM      9  C   UNL     1      10.856 -53.035 -21.727  1.00  0.00     0.040 A 
ATOM     10  C   UNL     1      11.755 -53.256 -23.897  1.00  0.00     0.040 A 
ATOM     11  C   UNL     1      11.454 -52.451 -22.818  1.00  0.00     0.123 A 
ATOM     12  F   UNL     1      11.726 -51.125 -22.808  1.00  0.00    -0.207 F 
ENDBRANCH   3   6
ENDBRANCH   1   2
BRANCH   1  13
ATOM     13  C   UNL     1      11.653 -59.806 -23.117  1.00  0.00     0.134 C 
BRANCH  13  14
ATOM     14  N   UNL     1      10.662 -60.397 -23.962  1.00  0.00    -0.382 N 
ATOM     15  H   UNL     1       9.818 -60.534 -23.404  1.00  0.00     0.160 HD
BRANCH  14  16
ATOM     16  C   UNL     1      10.366 -60.861 -25.221  1.00  0.00     0.049 A 
ATOM     17  C   UNL     1      11.304 -60.193 -25.873  1.00  0.00    -0.003 A 
ATOM     18  C   UNL     1       9.450 -61.702 -25.720  1.00  0.00     0.024 A 
ATOM     19  C   UNL     1      11.282 -60.454 -27.341  1.00  0.00     0.046 A 
ATOM     20  C   UNL     1      12.275 -59.373 -26.384  1.00  0.00     0.039 C 
ATOM     21  C   UNL     1       8.596 -62.257 -24.804  1.00  0.00     0.012 A 
ATOM     22  C   UNL     1       9.419 -61.948 -27.057  1.00  0.00     0.073 A 
ATOM     23  N   UNL     1      10.295 -61.357 -27.863  1.00  0.00    -0.252 NA
ATOM     24  C   UNL     1      12.148 -60.031 -28.772  1.00  0.00     0.056 C 
ATOM     25  C   UNL     1      12.238 -58.229 -27.297  1.00  0.00     0.005 C 
ATOM     26  C   UNL     1       7.634 -63.125 -25.245  1.00  0.00     0.001 A 
ATOM     27  C   UNL     1       8.456 -62.819 -27.506  1.00  0.00     0.029 A 
ATOM     28  C   UNL     1      11.350 -58.696 -28.589  1.00  0.00     0.007 C 
ATOM     29  C   UNL     1       7.558 -63.414 -26.612  1.00  0.00     0.002 A 
ENDBRANCH  14  16
ENDBRANCH  13  14
ENDBRANCH   1  13
TORSDOF 5
ENDMDL
MODEL 6
REMARK VINA RESULT:   -10.475      0.641      3.377
REMARK INTER + INTRA:         -14.351
REMARK INTER:                 -13.517
REMARK INTRA:                  -0.834
REMARK UNBOUND:                -0.814
REMARK SMILES O=C(NCCNc1c2c(nc3ccccc13)CCCC2)c1ccc(F)cc1
REMARK SMILES IDX 4 1 3 2 2 3 1 4 21 6 22 7 27 8 23 9 26 10 24 11 25 12 5 13
REMARK SMILES IDX 6 14 7 16 8 17 16 18 9 19 20 20 15 21 11 22 10 23 17 24
REMARK SMILES IDX 19 25 14 26 12 27 18 28 13 29
REMARK H PARENT 3 5 6 15
ROOT
ATOM      1  C   UNL     1      12.897 -55.978 -26.415  1.00  0.00     0.137 C 
ENDROOT
BRANCH   1   2
ATOM      2  N   UNL     1      12.429 -56.591 -25.202  1.00  0.00    -0.350 N 
ATOM      3  C   UNL     1      12.045 -57.945 -25.040  1.00  0.00     0.251 C 
ATOM      4  O   UNL     1      12.102 -58.723 -26.024  1.00  0.00    -0.269 OA
ATOM      5  H   UNL     1      12.342 -56.033 -24.319  1.00  0.00     0.163 HD
BRANCH   3   6
ATOM      6  C   UNL     1      11.576 -58.529 -23.791  1.00  0.00     0.040 A 
ATOM      7  C   UNL     1      11.190 -59.853 -23.789  1.00  0.00     0.017 A 
ATOM      8  C   UNL     1      11.479 -57.876 -22.582  1.00  0.00     0.017 A 
ATOM      9  C   UNL     1      10.727 -60.486 -22.629  1.00  0.00     0.040 A 
ATOM     10  C   UNL     1      11.027 -58.477 -21.428  1.00  0.00     0.040 A 
ATOM     11  C   UNL     1      10.644 -59.802 -21.439  1.00  0.00     0.123 A 
ATOM     12  F   UNL     1      10.194 -60.433 -20.329  1.00  0.00    -0.207 F 
ENDBRANCH   3   6
ENDBRANCH   1   2
BRANCH   1  13
ATOM     13  C   UNL     1      13.674 -54.699 -26.126  1.00  0.00     0.134 C 
BRANCH  13  14
ATOM     14  N   UNL     1      12.831 -53.630 -25.687  1.00  0.00    -0.382 N 
ATOM     15  H   UNL     1      12.212 -53.384 -26.459  1.00  0.00     0.160 HD
BRANCH  14  16
ATOM     16  C   UNL     1      12.501 -52.788 -24.652  1.00  0.00     0.049 A 
ATOM     17  C   UNL     1      13.058 -51.692 -25.142  1.00  0.00    -0.003 A 
ATOM     18  C   UNL     1      11.846 -52.937 -23.493  1.00  0.00     0.024 A 
ATOM     19  C   UNL     1      12.900 -50.513 -24.241  1.00  0.00     0.046 A 
ATOM     20  C   UNL     1      13.750 -50.686 -25.763  1.00  0.00     0.039 C 
ATOM     21  C   UNL     1      11.371 -54.197 -23.240  1.00  0.00     0.012 A 
ATOM     22  C   UNL     1      11.696 -51.871 -22.662  1.00  0.00     0.073 A 
ATOM     23  N   UNL     1      12.197 -50.687 -23.001  1.00  0.00    -0.252 NA
ATOM     24  C   UNL     1      13.277 -48.831 -24.186  1.00  0.00     0.056 C 
ATOM     25  C   UNL     1      14.943 -49.920 -25.399  1.00  0.00     0.005 C 
ATOM     26  C   UNL     1      10.693 -54.421 -22.073  1.00  0.00     0.001 A 
ATOM     27  C   UNL     1      11.016 -52.089 -21.489  1.00  0.00     0.029 A 
ATOM     28  C   UNL     1      14.704 -49.392 -23.869  1.00  0.00     0.007 C 
ATOM     29  C   UNL     1      10.510 -53.357 -21.181  1.00  0.00     0.002 A 
ENDBRANCH  14  16
ENDBRANCH  13  14
ENDBRANCH   1  13
TORSDOF 5
ENDMDL
MODEL 7
REMARK VINA RESULT:    -9.969      2.215      4.107
REMARK INTER + INTRA:         -13.697
REMARK INTER:                 -13.141
REMARK INTRA:                  -0.556
REMARK UNBOUND:                -0.814
REMARK SMILES O=C(NCCNc1c2c(nc3ccccc13)CCCC2)c1ccc(F)cc1
REMARK SMILES IDX 4 1 3 2 2 3 1 4 21 6 22 7 27 8 23 9 26 10 24 11 25 12 5 13
REMARK SMILES IDX 6 14 7 16 8 17 16 18 9 19 20 20 15 21 11 22 10 23 17 24
REMARK SMILES IDX 19 25 14 26 12 27 18 28 13 29
REMARK H PARENT 3 5 6 15
ROOT
ATOM      1  C   UNL     1       9.656 -52.582 -22.241  1.00  0.00     0.137 C 
ENDROOT
BRANCH   1   2
ATOM      2  N   UNL     1       9.713 -54.001 -22.012  1.00  0.00    -0.350 N 
ATOM      3  C   UNL     1      10.434 -54.946 -22.782  1.00  0.00     0.251 C 
ATOM      4  O   UNL     1      11.101 -54.555 -23.771  1.00  0.00    -0.269 OA
ATOM      5  H   UNL     1       9.193 -54.435 -21.213  1.00  0.00     0.163 HD
BRANCH   3   6
ATOM      6  C   UNL     1      10.467 -56.378 -22.515  1.00  0.00     0.040 A 
ATOM      7  C   UNL     1      11.344 -56.848 -21.561  1.00  0.00     0.017 A 
ATOM      8  C   UNL     1       9.690 -57.331 -23.136  1.00  0.00     0.017 A 
ATOM      9  C   UNL     1      11.435 -58.211 -21.249  1.00  0.00     0.040 A 
ATOM     10  C   UNL     1       9.762 -58.676 -22.846  1.00  0.00     0.040 A 
ATOM     11  C   UNL     1      10.643 -59.134 -21.889  1.00  0.00     0.123 A 
ATOM     12  F   UNL     1      10.747 -60.446 -21.571  1.00  0.00    -0.207 F 
ENDBRANCH   3   6
ENDBRANCH   1   2
BRANCH   1  13
ATOM     13  C   UNL     1      10.889 -51.880 -21.685  1.00  0.00     0.134 C 
BRANCH  13  14
ATOM     14  N   UNL     1      11.780 -51.436 -22.712  1.00  0.00    -0.382 N 
ATOM     15  H   UNL     1      12.386 -52.219 -22.959  1.00  0.00     0.160 HD
BRANCH  14  16
ATOM     16  C   UNL     1      12.166 -50.388 -23.513  1.00  0.00     0.049 A 
ATOM     17  C   UNL     1      12.904 -51.087 -24.361  1.00  0.00    -0.003 A 
ATOM     18  C   UNL     1      11.931 -49.069 -23.511  1.00  0.00     0.024 A 
ATOM     19  C   UNL     1      13.522 -50.238 -25.421  1.00  0.00     0.046 A 
ATOM     20  C   UNL     1      13.679 -51.951 -25.088  1.00  0.00     0.039 C 
ATOM     21  C   UNL     1      11.121 -48.614 -22.505  1.00  0.00     0.012 A 
ATOM     22  C   UNL     1      12.490 -48.285 -24.472  1.00  0.00     0.073 A 
ATOM     23  N   UNL     1      13.264 -48.826 -25.407  1.00  0.00    -0.252 NA
ATOM     24  C   UNL     1      14.513 -50.390 -26.825  1.00  0.00     0.056 C 
ATOM     25  C   UNL     1      15.122 -52.053 -25.310  1.00  0.00     0.005 C 
ATOM     26  C   UNL     1      10.841 -47.276 -22.442  1.00  0.00     0.001 A 
ATOM     27  C   UNL     1      12.212 -46.940 -24.414  1.00  0.00     0.029 A 
ATOM     28  C   UNL     1      15.631 -50.559 -25.741  1.00  0.00     0.007 C 
ATOM     29  C   UNL     1      11.390 -46.423 -23.406  1.00  0.00     0.002 A 
ENDBRANCH  14  16
ENDBRANCH  13  14
ENDBRANCH   1  13
TORSDOF 5
ENDMDL
MODEL 8
REMARK VINA RESULT:    -9.866      1.824      2.211
REMARK INTER + INTRA:         -13.564
REMARK INTER:                 -12.922
REMARK INTRA:                  -0.643
REMARK UNBOUND:                -0.814
REMARK SMILES O=C(NCCNc1c2c(nc3ccccc13)CCCC2)c1ccc(F)cc1
REMARK SMILES IDX 4 1 3 2 2 3 1 4 21 6 22 7 27 8 23 9 26 10 24 11 25 12 5 13
REMARK SMILES IDX 6 14 7 16 8 17 16 18 9 19 20 20 15 21 11 22 10 23 17 24
REMARK SMILES IDX 19 25 14 26 12 27 18 28 13 29
REMARK H PARENT 3 5 6 15
ROOT
ATOM      1  C   UNL     1      12.764 -56.295 -27.123  1.00  0.00     0.137 C 
ENDROOT
BRANCH   1   2
ATOM      2  N   UNL     1      12.389 -57.388 -26.267  1.00  0.00    -0.350 N 
ATOM      3  C   UNL     1      12.021 -58.691 -26.683  1.00  0.00     0.251 C 
ATOM      4  O   UNL     1      12.006 -58.966 -27.908  1.00  0.00    -0.269 OA
ATOM      5  H   UNL     1      12.368 -57.270 -25.226  1.00  0.00     0.163 HD
BRANCH   3   6
ATOM      6  C   UNL     1      11.649 -59.773 -25.782  1.00  0.00     0.040 A 
ATOM      7  C   UNL     1      12.484 -60.065 -24.724  1.00  0.00     0.017 A 
ATOM      8  C   UNL     1      10.517 -60.552 -25.882  1.00  0.00     0.017 A 
ATOM      9  C   UNL     1      12.195 -61.091 -23.815  1.00  0.00     0.040 A 
ATOM     10  C   UNL     1      10.211 -61.565 -25.001  1.00  0.00     0.040 A 
ATOM     11  C   UNL     1      11.055 -61.848 -23.947  1.00  0.00     0.123 A 
ATOM     12  F   UNL     1      10.794 -62.834 -23.057  1.00  0.00    -0.207 F 
ENDBRANCH   3   6
ENDBRANCH   1   2
BRANCH   1  13
ATOM     13  C   UNL     1      13.471 -55.195 -26.340  1.00  0.00     0.134 C 
BRANCH  13  14
ATOM     14  N   UNL     1      12.558 -54.266 -25.750  1.00  0.00    -0.382 N 
ATOM     15  H   UNL     1      11.698 -54.281 -26.299  1.00  0.00     0.160 HD
BRANCH  14  16
ATOM     16  C   UNL     1      12.350 -53.353 -24.743  1.00  0.00     0.049 A 
ATOM     17  C   UNL     1      11.756 -54.174 -23.891  1.00  0.00    -0.003 A 
ATOM     18  C   UNL     1      12.615 -52.049 -24.589  1.00  0.00     0.024 A 
ATOM     19  C   UNL     1      11.361 -53.498 -22.621  1.00  0.00     0.046 A 
ATOM     20  C   UNL     1      11.101 -55.140 -23.175  1.00  0.00     0.039 C 
ATOM     21  C   UNL     1      13.244 -51.445 -25.645  1.00  0.00     0.012 A 
ATOM     22  C   UNL     1      12.258 -51.422 -23.436  1.00  0.00     0.073 A 
ATOM     23  N   UNL     1      11.650 -52.101 -22.469  1.00  0.00    -0.252 NA
ATOM     24  C   UNL     1      10.633 -53.863 -21.100  1.00  0.00     0.056 C 
ATOM     25  C   UNL     1       9.718 -55.276 -22.713  1.00  0.00     0.005 C 
ATOM     26  C   UNL     1      13.544 -50.113 -25.555  1.00  0.00     0.001 A 
ATOM     27  C   UNL     1      12.557 -50.084 -23.340  1.00  0.00     0.029 A 
ATOM     28  C   UNL     1       9.335 -53.866 -21.977  1.00  0.00     0.007 C 
ATOM     29  C   UNL     1      13.199 -49.418 -24.390  1.00  0.00     0.002 A 
ENDBRANCH  14  16
ENDBRANCH  13  14
ENDBRANCH   1  13
TORSDOF 5
ENDMDL
MODEL 9
REMARK VINA RESULT:    -9.677      1.910      2.540
REMARK INTER + INTRA:         -13.320
REMARK INTER:                 -12.887
REMARK INTRA:                  -0.433
REMARK UNBOUND:                -0.814
REMARK SMILES O=C(NCCNc1c2c(nc3ccccc13)CCCC2)c1ccc(F)cc1
REMARK SMILES IDX 4 1 3 2 2 3 1 4 21 6 22 7 27 8 23 9 26 10 24 11 25 12 5 13
REMARK SMILES IDX 6 14 7 16 8 17 16 18 9 19 20 20 15 21 11 22 10 23 17 24
REMARK SMILES IDX 19 25 14 26 12 27 18 28 13 29
REMARK H PARENT 3 5 6 15
ROOT
ATOM      1  C   UNL     1      11.436 -54.186 -23.573  1.00  0.00     0.137 C 
ENDROOT
BRANCH   1   2
ATOM      2  N   UNL     1      11.428 -55.619 -23.697  1.00  0.00    -0.350 N 
ATOM      3  C   UNL     1      11.271 -56.551 -22.642  1.00  0.00     0.251 C 
ATOM      4  O   UNL     1      11.123 -56.133 -21.467  1.00  0.00    -0.269 OA
ATOM      5  H   UNL     1      11.544 -56.076 -24.633  1.00  0.00     0.163 HD
BRANCH   3   6
ATOM      6  C   UNL     1      11.268 -57.998 -22.810  1.00  0.00     0.040 A 
ATOM      7  C   UNL     1      11.792 -58.526 -23.970  1.00  0.00     0.017 A 
ATOM      8  C   UNL     1      10.782 -58.913 -21.902  1.00  0.00     0.017 A 
ATOM      9  C   UNL     1      11.824 -59.906 -24.206  1.00  0.00     0.040 A 
ATOM     10  C   UNL     1      10.802 -60.274 -22.111  1.00  0.00     0.040 A 
ATOM     11  C   UNL     1      11.330 -60.791 -23.276  1.00  0.00     0.123 A 
ATOM     12  F   UNL     1      11.371 -62.121 -23.524  1.00  0.00    -0.207 F 
ENDBRANCH   3   6
ENDBRANCH   1   2
BRANCH   1  13
ATOM     13  C   UNL     1      12.136 -53.531 -24.758  1.00  0.00     0.134 C 
BRANCH  13  14
ATOM     14  N   UNL     1      12.877 -52.366 -24.385  1.00  0.00    -0.382 N 
ATOM     15  H   UNL     1      13.669 -52.669 -23.817  1.00  0.00     0.160 HD
BRANCH  14  16
ATOM     16  C   UNL     1      12.972 -50.998 -24.471  1.00  0.00     0.049 A 
ATOM     17  C   UNL     1      12.264 -50.711 -23.390  1.00  0.00    -0.003 A 
ATOM     18  C   UNL     1      13.556 -50.150 -25.328  1.00  0.00     0.024 A 
ATOM     19  C   UNL     1      12.140 -49.243 -23.156  1.00  0.00     0.046 A 
ATOM     20  C   UNL     1      11.450 -50.603 -22.294  1.00  0.00     0.039 C 
ATOM     21  C   UNL     1      14.232 -50.732 -26.368  1.00  0.00     0.012 A 
ATOM     22  C   UNL     1      13.449 -48.809 -25.126  1.00  0.00     0.073 A 
ATOM     23  N   UNL     1      12.769 -48.345 -24.082  1.00  0.00    -0.252 NA
ATOM     24  C   UNL     1      11.462 -48.138 -22.018  1.00  0.00     0.056 C 
ATOM     25  C   UNL     1      10.114 -50.039 -22.093  1.00  0.00     0.005 C 
ATOM     26  C   UNL     1      14.851 -49.923 -27.283  1.00  0.00     0.001 A 
ATOM     27  C   UNL     1      14.069 -47.992 -26.040  1.00  0.00     0.029 A 
ATOM     28  C   UNL     1      10.140 -48.542 -22.755  1.00  0.00     0.007 C 
ATOM     29  C   UNL     1      14.773 -48.535 -27.122  1.00  0.00     0.002 A 
ENDBRANCH  14  16
ENDBRANCH  13  14
ENDBRANCH   1  13
TORSDOF 5
ENDMDL
