MODEL 1
REMARK VINA RESULT:    -9.082      0.000      0.000
REMARK INTER + INTRA:         -10.225
REMARK INTER:                 -10.144
REMARK INTRA:                  -0.080
REMARK UNBOUND:                -0.080
REMARK SMILES CNC(=O)Oc1ccc2c(c1)[C@]1(C)CCO[C@@H]1N2C
REMARK SMILES IDX 5 1 3 2 2 3 1 4 4 6 6 7 7 8 11 9 8 10 10 11 9 12 12 13 18 14
REMARK SMILES IDX 14 15 17 16 15 17 16 18 13 19 19 20
REMARK H PARENT 2 5
ROOT
ATOM      1  O   UNL     1      12.633 -59.750 -23.266  1.00  0.00    -0.410 OA
ENDROOT
BRANCH   1   2
ATOM      2  C   UNL     1      13.481 -60.285 -24.224  1.00  0.00     0.412 C 
ATOM      3  N   UNL     1      12.980 -60.009 -25.467  1.00  0.00    -0.324 N 
ATOM      4  C   UNL     1      13.562 -60.558 -26.661  1.00  0.00     0.146 C 
ATOM      5  H   UNL     1      12.057 -59.599 -25.494  1.00  0.00     0.166 HD
ATOM      6  O   UNL     1      14.507 -60.917 -24.015  1.00  0.00    -0.224 OA
ENDBRANCH   1   2
BRANCH   1   7
ATOM      7  C   UNL     1      11.254 -59.968 -23.428  1.00  0.00     0.133 A 
ATOM      8  C   UNL     1      10.427 -58.838 -23.390  1.00  0.00     0.049 A 
ATOM      9  C   UNL     1      10.725 -61.252 -23.537  1.00  0.00     0.054 A 
ATOM     10  C   UNL     1       9.040 -58.980 -23.496  1.00  0.00     0.030 A 
ATOM     11  C   UNL     1       9.347 -61.371 -23.638  1.00  0.00    -0.010 A 
ATOM     12  C   UNL     1       8.500 -60.252 -23.615  1.00  0.00     0.043 A 
ATOM     13  C   UNL     1       8.516 -62.611 -23.786  1.00  0.00     0.042 C 
ATOM     14  N   UNL     1       7.150 -60.599 -23.775  1.00  0.00    -0.348 N 
ATOM     15  C   UNL     1       8.417 -63.110 -25.219  1.00  0.00     0.045 C 
ATOM     16  C   UNL     1       7.098 -62.047 -23.538  1.00  0.00     0.225 C 
ATOM     17  C   UNL     1       6.961 -63.513 -25.332  1.00  0.00     0.164 C 
ATOM     18  O   UNL     1       6.205 -62.652 -24.476  1.00  0.00    -0.357 OA
ATOM     19  C   UNL     1       8.877 -63.718 -22.796  1.00  0.00     0.021 C 
ATOM     20  C   UNL     1       6.133 -59.773 -23.159  1.00  0.00     0.146 C 
ENDBRANCH   1   7
TORSDOF 2
ENDMDL
MODEL 2
REMARK VINA RESULT:    -8.572      7.146      9.926
REMARK INTER + INTRA:          -9.654
REMARK INTER:                  -9.402
REMARK INTRA:                  -0.252
REMARK UNBOUND:                -0.080
REMARK SMILES CNC(=O)Oc1ccc2c(c1)[C@]1(C)CCO[C@@H]1N2C
REMARK SMILES IDX 5 1 3 2 2 3 1 4 4 6 6 7 7 8 11 9 8 10 10 11 9 12 12 13 18 14
REMARK SMILES IDX 14 15 17 16 15 17 16 18 13 19 19 20
REMARK H PARENT 2 5
ROOT
ATOM      1  O   UNL     1      10.358 -55.582 -23.531  1.00  0.00    -0.410 OA
ENDROOT
BRANCH   1   2
ATOM      2  C   UNL     1      11.032 -56.548 -22.798  1.00  0.00     0.412 C 
ATOM      3  N   UNL     1      11.307 -57.613 -23.611  1.00  0.00    -0.324 N 
ATOM      4  C   UNL     1      11.871 -58.833 -23.102  1.00  0.00     0.146 C 
ATOM      5  H   UNL     1      10.885 -57.592 -24.529  1.00  0.00     0.166 HD
ATOM      6  O   UNL     1      11.331 -56.485 -21.614  1.00  0.00    -0.224 OA
ENDBRANCH   1   2
BRANCH   1   7
ATOM      7  C   UNL     1      10.711 -54.240 -23.311  1.00  0.00     0.133 A 
ATOM      8  C   UNL     1       9.851 -53.484 -22.506  1.00  0.00     0.049 A 
ATOM      9  C   UNL     1      11.818 -53.664 -23.932  1.00  0.00     0.054 A 
ATOM     10  C   UNL     1      10.110 -52.128 -22.282  1.00  0.00     0.030 A 
ATOM     11  C   UNL     1      12.056 -52.317 -23.699  1.00  0.00    -0.010 A 
ATOM     12  C   UNL     1      11.214 -51.544 -22.885  1.00  0.00     0.043 A 
ATOM     13  C   UNL     1      13.170 -51.454 -24.213  1.00  0.00     0.042 C 
ATOM     14  N   UNL     1      11.665 -50.222 -22.751  1.00  0.00    -0.348 N 
ATOM     15  C   UNL     1      14.450 -51.567 -23.402  1.00  0.00     0.045 C 
ATOM     16  C   UNL     1      12.658 -50.048 -23.819  1.00  0.00     0.225 C 
ATOM     17  C   UNL     1      14.923 -50.131 -23.321  1.00  0.00     0.164 C 
ATOM     18  O   UNL     1      13.765 -49.292 -23.323  1.00  0.00    -0.357 OA
ATOM     19  C   UNL     1      13.406 -51.580 -25.717  1.00  0.00     0.021 C 
ATOM     20  C   UNL     1      10.697 -49.165 -22.547  1.00  0.00     0.146 C 
ENDBRANCH   1   7
TORSDOF 2
ENDMDL
MODEL 3
REMARK VINA RESULT:    -8.528      2.913      3.844
REMARK INTER + INTRA:          -9.606
REMARK INTER:                  -9.443
REMARK INTRA:                  -0.162
REMARK UNBOUND:                -0.080
REMARK SMILES CNC(=O)Oc1ccc2c(c1)[C@]1(C)CCO[C@@H]1N2C
REMARK SMILES IDX 5 1 3 2 2 3 1 4 4 6 6 7 7 8 11 9 8 10 10 11 9 12 12 13 18 14
REMARK SMILES IDX 14 15 17 16 15 17 16 18 13 19 19 20
REMARK H PARENT 2 5
ROOT
ATOM      1  O   UNL     1      11.421 -56.435 -22.770  1.00  0.00    -0.410 OA
ENDROOT
BRANCH   1   2
ATOM      2  C   UNL     1      11.304 -55.156 -23.296  1.00  0.00     0.412 C 
ATOM      3  N   UNL     1      11.069 -54.275 -22.276  1.00  0.00    -0.324 N 
ATOM      4  C   UNL     1      10.758 -52.893 -22.521  1.00  0.00     0.146 C 
ATOM      5  H   UNL     1      10.893 -54.682 -21.368  1.00  0.00     0.166 HD
ATOM      6  O   UNL     1      11.382 -54.846 -24.475  1.00  0.00    -0.224 OA
ENDBRANCH   1   2
BRANCH   1   7
ATOM      7  C   UNL     1      10.442 -57.375 -23.132  1.00  0.00     0.133 A 
ATOM      8  C   UNL     1       9.105 -56.976 -23.002  1.00  0.00     0.049 A 
ATOM      9  C   UNL     1      10.779 -58.670 -23.519  1.00  0.00     0.054 A 
ATOM     10  C   UNL     1       8.074 -57.874 -23.297  1.00  0.00     0.030 A 
ATOM     11  C   UNL     1       9.742 -59.545 -23.804  1.00  0.00    -0.010 A 
ATOM     12  C   UNL     1       8.396 -59.163 -23.694  1.00  0.00     0.043 A 
ATOM     13  C   UNL     1       9.811 -60.973 -24.259  1.00  0.00     0.042 C 
ATOM     14  N   UNL     1       7.515 -60.189 -24.072  1.00  0.00    -0.348 N 
ATOM     15  C   UNL     1      10.021 -61.124 -25.757  1.00  0.00     0.045 C 
ATOM     16  C   UNL     1       8.335 -61.407 -24.091  1.00  0.00     0.225 C 
ATOM     17  C   UNL     1       9.090 -62.265 -26.112  1.00  0.00     0.164 C 
ATOM     18  O   UNL     1       7.974 -62.207 -25.219  1.00  0.00    -0.357 OA
ATOM     19  C   UNL     1      10.762 -61.838 -23.435  1.00  0.00     0.021 C 
ATOM     20  C   UNL     1       6.209 -60.259 -23.451  1.00  0.00     0.146 C 
ENDBRANCH   1   7
TORSDOF 2
ENDMDL
MODEL 4
REMARK VINA RESULT:    -8.525      3.168      4.629
REMARK INTER + INTRA:          -9.602
REMARK INTER:                  -9.628
REMARK INTRA:                   0.026
REMARK UNBOUND:                -0.080
REMARK SMILES CNC(=O)Oc1ccc2c(c1)[C@]1(C)CCO[C@@H]1N2C
REMARK SMILES IDX 5 1 3 2 2 3 1 4 4 6 6 7 7 8 11 9 8 10 10 11 9 12 12 13 18 14
REMARK SMILES IDX 14 15 17 16 15 17 16 18 13 19 19 20
REMARK H PARENT 2 5
ROOT
ATOM      1  O   UNL     1      11.521 -55.985 -22.007  1.00  0.00    -0.410 OA
ENDROOT
BRANCH   1   2
ATOM      2  C   UNL     1      10.993 -54.976 -22.799  1.00  0.00     0.412 C 
ATOM      3  N   UNL     1      10.408 -54.037 -21.994  1.00  0.00    -0.324 N 
ATOM      4  C   UNL     1       9.648 -52.942 -22.531  1.00  0.00     0.146 C 
ATOM      5  H   UNL     1      10.336 -54.274 -21.014  1.00  0.00     0.166 HD
ATOM      6  O   UNL     1      11.023 -54.920 -24.020  1.00  0.00    -0.224 OA
ENDBRANCH   1   2
BRANCH   1   7
ATOM      7  C   UNL     1      10.891 -57.240 -22.054  1.00  0.00     0.133 A 
ATOM      8  C   UNL     1      11.406 -58.238 -21.217  1.00  0.00     0.049 A 
ATOM      9  C   UNL     1       9.858 -57.507 -22.951  1.00  0.00     0.054 A 
ATOM     10  C   UNL     1      10.863 -59.526 -21.244  1.00  0.00     0.030 A 
ATOM     11  C   UNL     1       9.336 -58.792 -22.964  1.00  0.00    -0.010 A 
ATOM     12  C   UNL     1       9.828 -59.803 -22.124  1.00  0.00     0.043 A 
ATOM     13  C   UNL     1       8.221 -59.347 -23.799  1.00  0.00     0.042 C 
ATOM     14  N   UNL     1       9.127 -61.010 -22.271  1.00  0.00    -0.348 N 
ATOM     15  C   UNL     1       6.838 -59.056 -23.239  1.00  0.00     0.045 C 
ATOM     16  C   UNL     1       8.372 -60.862 -23.522  1.00  0.00     0.225 C 
ATOM     17  C   UNL     1       6.106 -60.364 -23.458  1.00  0.00     0.164 C 
ATOM     18  O   UNL     1       7.066 -61.419 -23.360  1.00  0.00    -0.357 OA
ATOM     19  C   UNL     1       8.340 -59.019 -25.286  1.00  0.00     0.021 C 
ATOM     20  C   UNL     1       9.820 -62.259 -22.040  1.00  0.00     0.146 C 
ENDBRANCH   1   7
TORSDOF 2
ENDMDL
MODEL 5
REMARK VINA RESULT:    -8.268      2.513      5.695
REMARK INTER + INTRA:          -9.315
REMARK INTER:                  -9.224
REMARK INTRA:                  -0.090
REMARK UNBOUND:                -0.080
REMARK SMILES CNC(=O)Oc1ccc2c(c1)[C@]1(C)CCO[C@@H]1N2C
REMARK SMILES IDX 5 1 3 2 2 3 1 4 4 6 6 7 7 8 11 9 8 10 10 11 9 12 12 13 18 14
REMARK SMILES IDX 14 15 17 16 15 17 16 18 13 19 19 20
REMARK H PARENT 2 5
ROOT
ATOM      1  O   UNL     1       6.294 -61.317 -23.942  1.00  0.00    -0.410 OA
ENDROOT
BRANCH   1   2
ATOM      2  C   UNL     1       6.905 -62.509 -24.303  1.00  0.00     0.412 C 
ATOM      3  N   UNL     1       6.931 -63.343 -23.219  1.00  0.00    -0.324 N 
ATOM      4  C   UNL     1       7.631 -64.598 -23.242  1.00  0.00     0.146 C 
ATOM      5  H   UNL     1       6.639 -62.940 -22.340  1.00  0.00     0.166 HD
ATOM      6  O   UNL     1       7.366 -62.785 -25.401  1.00  0.00    -0.224 OA
ENDBRANCH   1   2
BRANCH   1   7
ATOM      7  C   UNL     1       7.129 -60.241 -23.595  1.00  0.00     0.133 A 
ATOM      8  C   UNL     1       6.638 -58.954 -23.848  1.00  0.00     0.049 A 
ATOM      9  C   UNL     1       8.417 -60.444 -23.103  1.00  0.00     0.054 A 
ATOM     10  C   UNL     1       7.430 -57.835 -23.574  1.00  0.00     0.030 A 
ATOM     11  C   UNL     1       9.188 -59.321 -22.842  1.00  0.00    -0.010 A 
ATOM     12  C   UNL     1       8.711 -58.022 -23.075  1.00  0.00     0.043 A 
ATOM     13  C   UNL     1      10.582 -59.241 -22.295  1.00  0.00     0.042 C 
ATOM     14  N   UNL     1       9.637 -57.036 -22.700  1.00  0.00    -0.348 N 
ATOM     15  C   UNL     1      10.646 -59.334 -20.779  1.00  0.00     0.045 C 
ATOM     16  C   UNL     1      10.911 -57.750 -22.544  1.00  0.00     0.225 C 
ATOM     17  C   UNL     1      11.685 -58.290 -20.424  1.00  0.00     0.164 C 
ATOM     18  O   UNL     1      11.602 -57.247 -21.398  1.00  0.00    -0.357 OA
ATOM     19  C   UNL     1      11.573 -60.173 -22.990  1.00  0.00     0.021 C 
ATOM     20  C   UNL     1       9.648 -55.774 -23.410  1.00  0.00     0.146 C 
ENDBRANCH   1   7
TORSDOF 2
ENDMDL
MODEL 6
REMARK VINA RESULT:    -7.971      8.306     10.437
REMARK INTER + INTRA:          -8.984
REMARK INTER:                  -8.746
REMARK INTRA:                  -0.237
REMARK UNBOUND:                -0.080
REMARK SMILES CNC(=O)Oc1ccc2c(c1)[C@]1(C)CCO[C@@H]1N2C
REMARK SMILES IDX 5 1 3 2 2 3 1 4 4 6 6 7 7 8 11 9 8 10 10 11 9 12 12 13 18 14
REMARK SMILES IDX 14 15 17 16 15 17 16 18 13 19 19 20
REMARK H PARENT 2 5
ROOT
ATOM      1  O   UNL     1      12.951 -48.888 -22.556  1.00  0.00    -0.410 OA
ENDROOT
BRANCH   1   2
ATOM      2  C   UNL     1      12.115 -47.896 -23.048  1.00  0.00     0.412 C 
ATOM      3  N   UNL     1      11.588 -47.196 -21.996  1.00  0.00    -0.324 N 
ATOM      4  C   UNL     1      10.571 -46.197 -22.181  1.00  0.00     0.146 C 
ATOM      5  H   UNL     1      11.772 -47.570 -21.076  1.00  0.00     0.166 HD
ATOM      6  O   UNL     1      11.863 -47.673 -24.223  1.00  0.00    -0.224 OA
ENDBRANCH   1   2
BRANCH   1   7
ATOM      7  C   UNL     1      12.752 -50.195 -23.031  1.00  0.00     0.133 A 
ATOM      8  C   UNL     1      13.584 -50.621 -24.075  1.00  0.00     0.049 A 
ATOM      9  C   UNL     1      11.723 -51.000 -22.548  1.00  0.00     0.054 A 
ATOM     10  C   UNL     1      13.413 -51.892 -24.632  1.00  0.00     0.030 A 
ATOM     11  C   UNL     1      11.569 -52.256 -23.116  1.00  0.00    -0.010 A 
ATOM     12  C   UNL     1      12.399 -52.708 -24.153  1.00  0.00     0.043 A 
ATOM     13  C   UNL     1      10.574 -53.327 -22.782  1.00  0.00     0.042 C 
ATOM     14  N   UNL     1      12.097 -54.021 -24.548  1.00  0.00    -0.348 N 
ATOM     15  C   UNL     1      10.979 -54.186 -21.596  1.00  0.00     0.045 C 
ATOM     16  C   UNL     1      10.775 -54.297 -23.970  1.00  0.00     0.225 C 
ATOM     17  C   UNL     1      10.595 -55.580 -22.045  1.00  0.00     0.164 C 
ATOM     18  O   UNL     1      10.744 -55.634 -23.466  1.00  0.00    -0.357 OA
ATOM     19  C   UNL     1       9.134 -52.824 -22.687  1.00  0.00     0.021 C 
ATOM     20  C   UNL     1      12.334 -54.416 -25.920  1.00  0.00     0.146 C 
ENDBRANCH   1   7
TORSDOF 2
ENDMDL
MODEL 7
REMARK VINA RESULT:    -7.301      2.432      5.233
REMARK INTER + INTRA:          -8.235
REMARK INTER:                  -8.087
REMARK INTRA:                  -0.148
REMARK UNBOUND:                -0.080
REMARK SMILES CNC(=O)Oc1ccc2c(c1)[C@]1(C)CCO[C@@H]1N2C
REMARK SMILES IDX 5 1 3 2 2 3 1 4 4 6 6 7 7 8 11 9 8 10 10 11 9 12 12 13 18 14
REMARK SMILES IDX 14 15 17 16 15 17 16 18 13 19 19 20
REMARK H PARENT 2 5
ROOT
ATOM      1  O   UNL     1       7.952 -63.299 -24.391  1.00  0.00    -0.410 OA
ENDROOT
BRANCH   1   2
ATOM      2  C   UNL     1       7.528 -63.495 -25.697  1.00  0.00     0.412 C 
ATOM      3  N   UNL     1       8.472 -62.992 -26.552  1.00  0.00    -0.324 N 
ATOM      4  C   UNL     1       8.251 -62.917 -27.970  1.00  0.00     0.146 C 
ATOM      5  H   UNL     1       9.223 -62.468 -26.126  1.00  0.00     0.166 HD
ATOM      6  O   UNL     1       6.481 -64.016 -26.051  1.00  0.00    -0.224 OA
ENDBRANCH   1   2
BRANCH   1   7
ATOM      7  C   UNL     1       8.222 -61.979 -23.990  1.00  0.00     0.133 A 
ATOM      8  C   UNL     1       7.194 -61.044 -24.161  1.00  0.00     0.049 A 
ATOM      9  C   UNL     1       9.479 -61.600 -23.524  1.00  0.00     0.054 A 
ATOM     10  C   UNL     1       7.405 -59.702 -23.830  1.00  0.00     0.030 A 
ATOM     11  C   UNL     1       9.669 -60.263 -23.204  1.00  0.00    -0.010 A 
ATOM     12  C   UNL     1       8.648 -59.312 -23.355  1.00  0.00     0.043 A 
ATOM     13  C   UNL     1      10.895 -59.587 -22.667  1.00  0.00     0.042 C 
ATOM     14  N   UNL     1       9.041 -58.033 -22.932  1.00  0.00    -0.348 N 
ATOM     15  C   UNL     1      11.049 -59.714 -21.160  1.00  0.00     0.045 C 
ATOM     16  C   UNL     1      10.505 -58.098 -22.831  1.00  0.00     0.225 C 
ATOM     17  C   UNL     1      11.515 -58.331 -20.754  1.00  0.00     0.164 C 
ATOM     18  O   UNL     1      10.935 -57.393 -21.665  1.00  0.00    -0.357 OA
ATOM     19  C   UNL     1      12.174 -59.933 -23.427  1.00  0.00     0.021 C 
ATOM     20  C   UNL     1       8.456 -56.870 -23.566  1.00  0.00     0.146 C 
ENDBRANCH   1   7
TORSDOF 2
ENDMDL
MODEL 8
REMARK VINA RESULT:    -7.228      8.744     11.660
REMARK INTER + INTRA:          -8.153
REMARK INTER:                  -8.306
REMARK INTRA:                   0.153
REMARK UNBOUND:                -0.080
REMARK SMILES CNC(=O)Oc1ccc2c(c1)[C@]1(C)CCO[C@@H]1N2C
REMARK SMILES IDX 5 1 3 2 2 3 1 4 4 6 6 7 7 8 11 9 8 10 10 11 9 12 12 13 18 14
REMARK SMILES IDX 14 15 17 16 15 17 16 18 13 19 19 20
REMARK H PARENT 2 5
ROOT
ATOM      1  O   UNL     1      10.751 -53.386 -22.276  1.00  0.00    -0.410 OA
ENDROOT
BRANCH   1   2
ATOM      2  C   UNL     1      10.532 -54.643 -22.822  1.00  0.00     0.412 C 
ATOM      3  N   UNL     1      11.108 -55.585 -22.013  1.00  0.00    -0.324 N 
ATOM      4  C   UNL     1      11.175 -56.971 -22.389  1.00  0.00     0.146 C 
ATOM      5  H   UNL     1      11.683 -55.234 -21.260  1.00  0.00     0.166 HD
ATOM      6  O   UNL     1       9.937 -54.891 -23.860  1.00  0.00    -0.224 OA
ENDBRANCH   1   2
BRANCH   1   7
ATOM      7  C   UNL     1      11.468 -52.461 -23.052  1.00  0.00     0.133 A 
ATOM      8  C   UNL     1      12.155 -52.966 -24.164  1.00  0.00     0.049 A 
ATOM      9  C   UNL     1      11.564 -51.119 -22.688  1.00  0.00     0.054 A 
ATOM     10  C   UNL     1      12.931 -52.113 -24.956  1.00  0.00     0.030 A 
ATOM     11  C   UNL     1      12.340 -50.291 -23.485  1.00  0.00    -0.010 A 
ATOM     12  C   UNL     1      13.026 -50.773 -24.610  1.00  0.00     0.043 A 
ATOM     13  C   UNL     1      12.601 -48.821 -23.345  1.00  0.00     0.042 C 
ATOM     14  N   UNL     1      13.713 -49.759 -25.295  1.00  0.00    -0.348 N 
ATOM     15  C   UNL     1      11.504 -47.950 -23.937  1.00  0.00     0.045 C 
ATOM     16  C   UNL     1      13.753 -48.628 -24.358  1.00  0.00     0.225 C 
ATOM     17  C   UNL     1      12.286 -46.849 -24.624  1.00  0.00     0.164 C 
ATOM     18  O   UNL     1      13.523 -47.410 -25.071  1.00  0.00    -0.357 OA
ATOM     19  C   UNL     1      12.999 -48.396 -21.933  1.00  0.00     0.021 C 
ATOM     20  C   UNL     1      14.926 -50.090 -26.012  1.00  0.00     0.146 C 
ENDBRANCH   1   7
TORSDOF 2
ENDMDL
MODEL 9
REMARK VINA RESULT:    -6.934     10.348     12.359
REMARK INTER + INTRA:          -7.825
REMARK INTER:                  -7.610
REMARK INTRA:                  -0.215
REMARK UNBOUND:                -0.080
REMARK SMILES CNC(=O)Oc1ccc2c(c1)[C@]1(C)CCO[C@@H]1N2C
REMARK SMILES IDX 5 1 3 2 2 3 1 4 4 6 6 7 7 8 11 9 8 10 10 11 9 12 12 13 18 14
REMARK SMILES IDX 14 15 17 16 15 17 16 18 13 19 19 20
REMARK H PARENT 2 5
ROOT
ATOM      1  O   UNL     1      14.736 -51.691 -25.484  1.00  0.00    -0.410 OA
ENDROOT
BRANCH   1   2
ATOM      2  C   UNL     1      16.019 -51.800 -24.969  1.00  0.00     0.412 C 
ATOM      3  N   UNL     1      16.896 -52.010 -25.998  1.00  0.00    -0.324 N 
ATOM      4  C   UNL     1      18.283 -52.307 -25.766  1.00  0.00     0.146 C 
ATOM      5  H   UNL     1      16.485 -52.178 -26.905  1.00  0.00     0.166 HD
ATOM      6  O   UNL     1      16.337 -51.734 -23.790  1.00  0.00    -0.224 OA
ENDBRANCH   1   2
BRANCH   1   7
ATOM      7  C   UNL     1      13.757 -51.102 -24.665  1.00  0.00     0.133 A 
ATOM      8  C   UNL     1      12.919 -51.972 -23.956  1.00  0.00     0.049 A 
ATOM      9  C   UNL     1      13.573 -49.722 -24.623  1.00  0.00     0.054 A 
ATOM     10  C   UNL     1      11.891 -51.461 -23.159  1.00  0.00     0.030 A 
ATOM     11  C   UNL     1      12.546 -49.235 -23.829  1.00  0.00    -0.010 A 
ATOM     12  C   UNL     1      11.703 -50.088 -23.100  1.00  0.00     0.043 A 
ATOM     13  C   UNL     1      12.138 -47.813 -23.581  1.00  0.00     0.042 C 
ATOM     14  N   UNL     1      10.763 -49.384 -22.331  1.00  0.00    -0.348 N 
ATOM     15  C   UNL     1      12.963 -47.121 -22.509  1.00  0.00     0.045 C 
ATOM     16  C   UNL     1      10.780 -48.016 -22.867  1.00  0.00     0.225 C 
ATOM     17  C   UNL     1      11.920 -46.341 -21.735  1.00  0.00     0.164 C 
ATOM     18  O   UNL     1      10.697 -47.081 -21.790  1.00  0.00    -0.357 OA
ATOM     19  C   UNL     1      11.999 -46.980 -24.854  1.00  0.00     0.021 C 
ATOM     20  C   UNL     1       9.477 -49.991 -22.062  1.00  0.00     0.146 C 
ENDBRANCH   1   7
TORSDOF 2
ENDMDL
