MODEL 1
REMARK VINA RESULT:   -12.190      0.000      0.000
REMARK INTER + INTRA:         -16.554
REMARK INTER:                 -15.753
REMARK INTRA:                  -0.801
REMARK UNBOUND:                -0.801
REMARK SMILES O=C1CCc2cc3c(CC[C@H]4CC[N@@H+](Cc5ccccc5)CC4)noc3cc2N1
REMARK SMILES IDX 10 1 11 2 13 3 14 4 12 5 22 6 23 7 15 9 16 10 17 11 21 12
REMARK SMILES IDX 18 13 20 14 19 15 9 16 8 17 7 18 24 19 6 20 26 21 25 22 5 23
REMARK SMILES IDX 27 24 4 25 28 26 3 27 29 28 2 29 1 31
REMARK H PARENT 14 8 29 30
ROOT
ATOM      1  C   UNL     1       9.704 -56.977 -22.672  1.00  0.00     0.010 C 
ENDROOT
BRANCH   1   2
ATOM      2  C   UNL     1      11.204 -57.233 -22.412  1.00  0.00     0.000 C 
ATOM      3  C   UNL     1      11.088 -59.771 -22.115  1.00  0.00     0.262 C 
ATOM      4  N   UNL     1      11.937 -59.927 -23.351  1.00  0.00    -0.331 N 
ATOM      5  C   UNL     1      11.396 -58.427 -21.459  1.00  0.00     0.065 C 
ATOM      6  C   UNL     1      11.699 -58.824 -24.351  1.00  0.00     0.262 C 
ATOM      7  C   UNL     1      12.015 -57.482 -23.696  1.00  0.00     0.065 C 
ATOM      8  H   UNL     1      12.914 -59.837 -23.047  1.00  0.00     0.348 HD
BRANCH   4   9
ATOM      9  C   UNL     1      11.863 -61.317 -23.959  1.00  0.00     0.299 C 
BRANCH   9  10
ATOM     10  C   UNL     1      10.530 -62.009 -23.862  1.00  0.00     0.006 A 
ATOM     11  C   UNL     1      10.249 -62.878 -22.796  1.00  0.00     0.009 A 
ATOM     12  C   UNL     1       9.545 -61.799 -24.841  1.00  0.00     0.009 A 
ATOM     13  C   UNL     1       9.020 -63.537 -22.725  1.00  0.00     0.001 A 
ATOM     14  C   UNL     1       8.317 -62.458 -24.763  1.00  0.00     0.001 A 
ATOM     15  C   UNL     1       8.057 -63.328 -23.709  1.00  0.00     0.000 A 
ENDBRANCH   9  10
ENDBRANCH   4   9
ENDBRANCH   1   2
BRANCH   1  16
ATOM     16  C   UNL     1       9.420 -55.697 -23.474  1.00  0.00     0.061 C 
BRANCH  16  17
ATOM     17  C   UNL     1      10.009 -54.496 -22.816  1.00  0.00     0.091 A 
ATOM     18  C   UNL     1      11.030 -53.631 -23.284  1.00  0.00     0.045 A 
ATOM     19  N   UNL     1       9.561 -54.126 -21.608  1.00  0.00    -0.084 NA
ATOM     20  C   UNL     1      11.840 -53.508 -24.426  1.00  0.00     0.020 A 
ATOM     21  C   UNL     1      11.163 -52.702 -22.267  1.00  0.00     0.169 A 
ATOM     22  O   UNL     1      10.289 -52.996 -21.269  1.00  0.00    -0.356 OA
ATOM     23  C   UNL     1      12.770 -52.451 -24.477  1.00  0.00    -0.023 A 
ATOM     24  C   UNL     1      12.057 -51.634 -22.283  1.00  0.00     0.077 A 
ATOM     25  C   UNL     1      13.589 -52.216 -25.720  1.00  0.00     0.047 C 
ATOM     26  C   UNL     1      12.871 -51.539 -23.415  1.00  0.00     0.048 A 
ATOM     27  C   UNL     1      14.920 -51.561 -25.389  1.00  0.00     0.105 C 
ATOM     28  N   UNL     1      13.791 -50.489 -23.498  1.00  0.00    -0.326 N 
ATOM     29  C   UNL     1      14.751 -50.378 -24.468  1.00  0.00     0.224 C 
ATOM     30  H   UNL     1      13.783 -49.745 -22.812  1.00  0.00     0.169 HD
ATOM     31  O   UNL     1      15.493 -49.400 -24.511  1.00  0.00    -0.275 OA
ENDBRANCH  16  17
ENDBRANCH   1  16
TORSDOF 5
ENDMDL
MODEL 2
REMARK VINA RESULT:   -11.995      1.010      1.503
REMARK INTER + INTRA:         -16.302
REMARK INTER:                 -15.646
REMARK INTRA:                  -0.656
REMARK UNBOUND:                -0.801
REMARK SMILES O=C1CCc2cc3c(CC[C@H]4CC[N@@H+](Cc5ccccc5)CC4)noc3cc2N1
REMARK SMILES IDX 10 1 11 2 13 3 14 4 12 5 22 6 23 7 15 9 16 10 17 11 21 12
REMARK SMILES IDX 18 13 20 14 19 15 9 16 8 17 7 18 24 19 6 20 26 21 25 22 5 23
REMARK SMILES IDX 27 24 4 25 28 26 3 27 29 28 2 29 1 31
REMARK H PARENT 14 8 29 30
ROOT
ATOM      1  C   UNL     1      11.256 -56.685 -22.916  1.00  0.00     0.010 C 
ENDROOT
BRANCH   1   2
ATOM      2  C   UNL     1      10.981 -57.906 -22.012  1.00  0.00     0.000 C 
ATOM      3  C   UNL     1       9.637 -59.295 -23.687  1.00  0.00     0.262 C 
ATOM      4  N   UNL     1      10.730 -60.335 -23.661  1.00  0.00    -0.331 N 
ATOM      5  C   UNL     1       9.623 -58.545 -22.357  1.00  0.00     0.065 C 
ATOM      6  C   UNL     1      12.089 -59.727 -23.423  1.00  0.00     0.262 C 
ATOM      7  C   UNL     1      12.076 -58.985 -22.090  1.00  0.00     0.065 C 
ATOM      8  H   UNL     1      10.538 -60.939 -22.854  1.00  0.00     0.348 HD
BRANCH   4   9
ATOM      9  C   UNL     1      10.692 -61.277 -24.851  1.00  0.00     0.299 C 
BRANCH   9  10
ATOM     10  C   UNL     1       9.499 -62.191 -24.930  1.00  0.00     0.006 A 
ATOM     11  C   UNL     1       8.784 -62.338 -26.129  1.00  0.00     0.009 A 
ATOM     12  C   UNL     1       9.076 -62.911 -23.800  1.00  0.00     0.009 A 
ATOM     13  C   UNL     1       7.664 -63.167 -26.190  1.00  0.00     0.001 A 
ATOM     14  C   UNL     1       7.956 -63.742 -23.866  1.00  0.00     0.001 A 
ATOM     15  C   UNL     1       7.250 -63.866 -25.058  1.00  0.00     0.000 A 
ENDBRANCH   9  10
ENDBRANCH   4   9
ENDBRANCH   1   2
BRANCH   1  16
ATOM     16  C   UNL     1      10.076 -55.704 -23.013  1.00  0.00     0.061 C 
BRANCH  16  17
ATOM     17  C   UNL     1      10.460 -54.337 -22.563  1.00  0.00     0.091 A 
ATOM     18  C   UNL     1      11.324 -53.400 -23.186  1.00  0.00     0.045 A 
ATOM     19  N   UNL     1       9.961 -53.862 -21.413  1.00  0.00    -0.084 NA
ATOM     20  C   UNL     1      12.099 -53.325 -24.356  1.00  0.00     0.020 A 
ATOM     21  C   UNL     1      11.304 -52.315 -22.326  1.00  0.00     0.169 A 
ATOM     22  O   UNL     1      10.494 -52.590 -21.271  1.00  0.00    -0.356 OA
ATOM     23  C   UNL     1      12.841 -52.152 -24.593  1.00  0.00    -0.023 A 
ATOM     24  C   UNL     1      12.009 -51.132 -22.529  1.00  0.00     0.077 A 
ATOM     25  C   UNL     1      13.607 -51.982 -25.880  1.00  0.00     0.047 C 
ATOM     26  C   UNL     1      12.793 -51.082 -23.686  1.00  0.00     0.048 A 
ATOM     27  C   UNL     1      14.813 -51.076 -25.690  1.00  0.00     0.105 C 
ATOM     28  N   UNL     1      13.528 -49.923 -23.953  1.00  0.00    -0.326 N 
ATOM     29  C   UNL     1      14.453 -49.808 -24.956  1.00  0.00     0.224 C 
ATOM     30  H   UNL     1      13.398 -49.092 -23.388  1.00  0.00     0.169 HD
ATOM     31  O   UNL     1      15.024 -48.741 -25.168  1.00  0.00    -0.275 OA
ENDBRANCH  16  17
ENDBRANCH   1  16
TORSDOF 5
ENDMDL
MODEL 3
REMARK VINA RESULT:   -11.784      1.953      2.748
REMARK INTER + INTRA:         -16.030
REMARK INTER:                 -15.519
REMARK INTRA:                  -0.510
REMARK UNBOUND:                -0.801
REMARK SMILES O=C1CCc2cc3c(CC[C@H]4CC[N@@H+](Cc5ccccc5)CC4)noc3cc2N1
REMARK SMILES IDX 10 1 11 2 13 3 14 4 12 5 22 6 23 7 15 9 16 10 17 11 21 12
REMARK SMILES IDX 18 13 20 14 19 15 9 16 8 17 7 18 24 19 6 20 26 21 25 22 5 23
REMARK SMILES IDX 27 24 4 25 28 26 3 27 29 28 2 29 1 31
REMARK H PARENT 14 8 29 30
ROOT
ATOM      1  C   UNL     1      11.452 -56.614 -23.121  1.00  0.00     0.010 C 
ENDROOT
BRANCH   1   2
ATOM      2  C   UNL     1      10.586 -57.467 -22.170  1.00  0.00     0.000 C 
ATOM      3  C   UNL     1       9.759 -59.181 -23.879  1.00  0.00     0.262 C 
ATOM      4  N   UNL     1      10.502 -60.254 -23.123  1.00  0.00    -0.331 N 
ATOM      5  C   UNL     1       9.376 -58.059 -22.917  1.00  0.00     0.065 C 
ATOM      6  C   UNL     1      11.749 -59.726 -22.459  1.00  0.00     0.262 C 
ATOM      7  C   UNL     1      11.364 -58.610 -21.492  1.00  0.00     0.065 C 
ATOM      8  H   UNL     1       9.879 -60.561 -22.366  1.00  0.00     0.348 HD
BRANCH   4   9
ATOM      9  C   UNL     1      10.741 -61.510 -23.941  1.00  0.00     0.299 C 
BRANCH   9  10
ATOM     10  C   UNL     1       9.526 -62.347 -24.235  1.00  0.00     0.006 A 
ATOM     11  C   UNL     1       8.945 -62.346 -25.513  1.00  0.00     0.009 A 
ATOM     12  C   UNL     1       8.948 -63.142 -23.232  1.00  0.00     0.009 A 
ATOM     13  C   UNL     1       7.803 -63.105 -25.773  1.00  0.00     0.001 A 
ATOM     14  C   UNL     1       7.807 -63.902 -23.497  1.00  0.00     0.001 A 
ATOM     15  C   UNL     1       7.234 -63.879 -24.765  1.00  0.00     0.000 A 
ENDBRANCH   9  10
ENDBRANCH   4   9
ENDBRANCH   1   2
BRANCH   1  16
ATOM     16  C   UNL     1      10.952 -55.171 -23.292  1.00  0.00     0.061 C 
BRANCH  16  17
ATOM     17  C   UNL     1      11.781 -54.415 -24.274  1.00  0.00     0.091 A 
ATOM     18  C   UNL     1      12.155 -53.047 -24.263  1.00  0.00     0.045 A 
ATOM     19  N   UNL     1      12.271 -55.055 -25.345  1.00  0.00    -0.084 NA
ATOM     20  C   UNL     1      11.959 -51.928 -23.436  1.00  0.00     0.020 A 
ATOM     21  C   UNL     1      12.917 -52.907 -25.410  1.00  0.00     0.169 A 
ATOM     22  O   UNL     1      12.986 -54.102 -26.054  1.00  0.00    -0.356 OA
ATOM     23  C   UNL     1      12.534 -50.701 -23.823  1.00  0.00    -0.023 A 
ATOM     24  C   UNL     1      13.515 -51.720 -25.821  1.00  0.00     0.077 A 
ATOM     25  C   UNL     1      12.440 -49.497 -22.923  1.00  0.00     0.047 C 
ATOM     26  C   UNL     1      13.293 -50.610 -25.001  1.00  0.00     0.048 A 
ATOM     27  C   UNL     1      12.471 -48.205 -23.721  1.00  0.00     0.105 C 
ATOM     28  N   UNL     1      13.866 -49.384 -25.354  1.00  0.00    -0.326 N 
ATOM     29  C   UNL     1      13.593 -48.195 -24.731  1.00  0.00     0.224 C 
ATOM     30  H   UNL     1      14.528 -49.329 -26.118  1.00  0.00     0.169 HD
ATOM     31  O   UNL     1      14.175 -47.164 -25.060  1.00  0.00    -0.275 OA
ENDBRANCH  16  17
ENDBRANCH   1  16
TORSDOF 5
ENDMDL
MODEL 4
REMARK VINA RESULT:   -11.397      3.472     10.373
REMARK INTER + INTRA:         -15.530
REMARK INTER:                 -14.898
REMARK INTRA:                  -0.632
REMARK UNBOUND:                -0.801
REMARK SMILES O=C1CCc2cc3c(CC[C@H]4CC[N@@H+](Cc5ccccc5)CC4)noc3cc2N1
REMARK SMILES IDX 10 1 11 2 13 3 14 4 12 5 22 6 23 7 15 9 16 10 17 11 21 12
REMARK SMILES IDX 18 13 20 14 19 15 9 16 8 17 7 18 24 19 6 20 26 21 25 22 5 23
REMARK SMILES IDX 27 24 4 25 28 26 3 27 29 28 2 29 1 31
REMARK H PARENT 14 8 29 30
ROOT
ATOM      1  C   UNL     1      11.287 -55.909 -22.302  1.00  0.00     0.010 C 
ENDROOT
BRANCH   1   2
ATOM      2  C   UNL     1      10.344 -54.890 -22.978  1.00  0.00     0.000 C 
ATOM      3  C   UNL     1      11.099 -52.804 -21.705  1.00  0.00     0.262 C 
ATOM      4  N   UNL     1      11.603 -52.227 -23.003  1.00  0.00    -0.331 N 
ATOM      5  C   UNL     1       9.954 -53.771 -21.994  1.00  0.00     0.065 C 
ATOM      6  C   UNL     1      12.086 -53.294 -23.953  1.00  0.00     0.262 C 
ATOM      7  C   UNL     1      10.938 -54.255 -24.248  1.00  0.00     0.065 C 
ATOM      8  H   UNL     1      10.797 -51.780 -23.456  1.00  0.00     0.348 HD
BRANCH   4   9
ATOM      9  C   UNL     1      12.598 -51.095 -22.812  1.00  0.00     0.299 C 
BRANCH   9  10
ATOM     10  C   UNL     1      12.133 -49.729 -23.239  1.00  0.00     0.006 A 
ATOM     11  C   UNL     1      12.835 -49.004 -24.214  1.00  0.00     0.009 A 
ATOM     12  C   UNL     1      10.989 -49.154 -22.662  1.00  0.00     0.009 A 
ATOM     13  C   UNL     1      12.413 -47.727 -24.588  1.00  0.00     0.001 A 
ATOM     14  C   UNL     1      10.569 -47.877 -23.041  1.00  0.00     0.001 A 
ATOM     15  C   UNL     1      11.283 -47.164 -23.999  1.00  0.00     0.000 A 
ENDBRANCH   9  10
ENDBRANCH   4   9
ENDBRANCH   1   2
BRANCH   1  16
ATOM     16  C   UNL     1      10.668 -57.305 -22.122  1.00  0.00     0.061 C 
BRANCH  16  17
ATOM     17  C   UNL     1      10.842 -58.143 -23.341  1.00  0.00     0.091 A 
ATOM     18  C   UNL     1      10.044 -59.219 -23.808  1.00  0.00     0.045 A 
ATOM     19  N   UNL     1      11.881 -57.907 -24.155  1.00  0.00    -0.084 NA
ATOM     20  C   UNL     1       8.878 -59.892 -23.407  1.00  0.00     0.020 A 
ATOM     21  C   UNL     1      10.677 -59.613 -24.974  1.00  0.00     0.169 A 
ATOM     22  O   UNL     1      11.770 -58.833 -25.181  1.00  0.00    -0.356 OA
ATOM     23  C   UNL     1       8.412 -60.958 -24.203  1.00  0.00    -0.023 A 
ATOM     24  C   UNL     1      10.243 -60.649 -25.798  1.00  0.00     0.077 A 
ATOM     25  C   UNL     1       7.113 -61.645 -23.872  1.00  0.00     0.047 C 
ATOM     26  C   UNL     1       9.095 -61.324 -25.374  1.00  0.00     0.048 A 
ATOM     27  C   UNL     1       7.116 -63.090 -24.343  1.00  0.00     0.105 C 
ATOM     28  N   UNL     1       8.603 -62.375 -26.154  1.00  0.00    -0.326 N 
ATOM     29  C   UNL     1       7.592 -63.215 -25.770  1.00  0.00     0.224 C 
ATOM     30  H   UNL     1       8.996 -62.562 -27.068  1.00  0.00     0.169 HD
ATOM     31  O   UNL     1       7.173 -64.085 -26.529  1.00  0.00    -0.275 OA
ENDBRANCH  16  17
ENDBRANCH   1  16
TORSDOF 5
ENDMDL
MODEL 5
REMARK VINA RESULT:   -11.198      2.323      2.824
REMARK INTER + INTRA:         -15.273
REMARK INTER:                 -15.038
REMARK INTRA:                  -0.235
REMARK UNBOUND:                -0.801
REMARK SMILES O=C1CCc2cc3c(CC[C@H]4CC[N@@H+](Cc5ccccc5)CC4)noc3cc2N1
REMARK SMILES IDX 10 1 11 2 13 3 14 4 12 5 22 6 23 7 15 9 16 10 17 11 21 12
REMARK SMILES IDX 18 13 20 14 19 15 9 16 8 17 7 18 24 19 6 20 26 21 25 22 5 23
REMARK SMILES IDX 27 24 4 25 28 26 3 27 29 28 2 29 1 31
REMARK H PARENT 14 8 29 30
ROOT
ATOM      1  C   UNL     1      10.797 -55.627 -23.573  1.00  0.00     0.010 C 
ENDROOT
BRANCH   1   2
ATOM      2  C   UNL     1      10.272 -56.539 -22.443  1.00  0.00     0.000 C 
ATOM      3  C   UNL     1       9.448 -58.473 -23.901  1.00  0.00     0.262 C 
ATOM      4  N   UNL     1      10.483 -59.363 -23.259  1.00  0.00    -0.331 N 
ATOM      5  C   UNL     1       9.063 -57.363 -22.926  1.00  0.00     0.065 C 
ATOM      6  C   UNL     1      11.723 -58.602 -22.863  1.00  0.00     0.262 C 
ATOM      7  C   UNL     1      11.338 -57.497 -21.882  1.00  0.00     0.065 C 
ATOM      8  H   UNL     1      10.067 -59.712 -22.387  1.00  0.00     0.348 HD
BRANCH   4   9
ATOM      9  C   UNL     1      10.777 -60.619 -24.060  1.00  0.00     0.299 C 
BRANCH   9  10
ATOM     10  C   UNL     1       9.832 -61.771 -23.851  1.00  0.00     0.006 A 
ATOM     11  C   UNL     1       9.911 -62.563 -22.695  1.00  0.00     0.009 A 
ATOM     12  C   UNL     1       8.856 -62.077 -24.813  1.00  0.00     0.009 A 
ATOM     13  C   UNL     1       9.048 -63.646 -22.517  1.00  0.00     0.001 A 
ATOM     14  C   UNL     1       7.994 -63.159 -24.630  1.00  0.00     0.001 A 
ATOM     15  C   UNL     1       8.093 -63.944 -23.486  1.00  0.00     0.000 A 
ENDBRANCH   9  10
ENDBRANCH   4   9
ENDBRANCH   1   2
BRANCH   1  16
ATOM     16  C   UNL     1      11.583 -54.405 -23.071  1.00  0.00     0.061 C 
BRANCH  16  17
ATOM     17  C   UNL     1      10.674 -53.299 -22.658  1.00  0.00     0.091 A 
ATOM     18  C   UNL     1      10.902 -51.900 -22.677  1.00  0.00     0.045 A 
ATOM     19  N   UNL     1       9.454 -53.596 -22.188  1.00  0.00    -0.084 NA
ATOM     20  C   UNL     1      11.936 -51.025 -23.051  1.00  0.00     0.020 A 
ATOM     21  C   UNL     1       9.721 -51.369 -22.187  1.00  0.00     0.169 A 
ATOM     22  O   UNL     1       8.860 -52.379 -21.896  1.00  0.00    -0.356 OA
ATOM     23  C   UNL     1      11.732 -49.640 -22.891  1.00  0.00    -0.023 A 
ATOM     24  C   UNL     1       9.472 -50.009 -22.028  1.00  0.00     0.077 A 
ATOM     25  C   UNL     1      12.768 -48.657 -23.371  1.00  0.00     0.047 C 
ATOM     26  C   UNL     1      10.518 -49.152 -22.383  1.00  0.00     0.048 A 
ATOM     27  C   UNL     1      12.733 -47.374 -22.556  1.00  0.00     0.105 C 
ATOM     28  N   UNL     1      10.336 -47.772 -22.249  1.00  0.00    -0.326 N 
ATOM     29  C   UNL     1      11.328 -46.842 -22.405  1.00  0.00     0.224 C 
ATOM     30  H   UNL     1       9.424 -47.396 -22.019  1.00  0.00     0.169 HD
ATOM     31  O   UNL     1      11.084 -45.641 -22.326  1.00  0.00    -0.275 OA
ENDBRANCH  16  17
ENDBRANCH   1  16
TORSDOF 5
ENDMDL
MODEL 6
REMARK VINA RESULT:   -10.925      1.587      2.466
REMARK INTER + INTRA:         -14.920
REMARK INTER:                 -14.340
REMARK INTRA:                  -0.580
REMARK UNBOUND:                -0.801
REMARK SMILES O=C1CCc2cc3c(CC[C@H]4CC[N@@H+](Cc5ccccc5)CC4)noc3cc2N1
REMARK SMILES IDX 10 1 11 2 13 3 14 4 12 5 22 6 23 7 15 9 16 10 17 11 21 12
REMARK SMILES IDX 18 13 20 14 19 15 9 16 8 17 7 18 24 19 6 20 26 21 25 22 5 23
REMARK SMILES IDX 27 24 4 25 28 26 3 27 29 28 2 29 1 31
REMARK H PARENT 14 8 29 30
ROOT
ATOM      1  C   UNL     1      11.002 -56.422 -22.891  1.00  0.00     0.010 C 
ENDROOT
BRANCH   1   2
ATOM      2  C   UNL     1      10.472 -57.560 -21.993  1.00  0.00     0.000 C 
ATOM      3  C   UNL     1       9.875 -59.226 -23.840  1.00  0.00     0.262 C 
ATOM      4  N   UNL     1      10.927 -60.162 -23.299  1.00  0.00    -0.331 N 
ATOM      5  C   UNL     1       9.355 -58.344 -22.708  1.00  0.00     0.065 C 
ATOM      6  C   UNL     1      12.085 -59.421 -22.679  1.00  0.00     0.262 C 
ATOM      7  C   UNL     1      11.565 -58.546 -21.542  1.00  0.00     0.065 C 
ATOM      8  H   UNL     1      10.483 -60.692 -22.541  1.00  0.00     0.348 HD
BRANCH   4   9
ATOM      9  C   UNL     1      11.357 -61.224 -24.296  1.00  0.00     0.299 C 
BRANCH   9  10
ATOM     10  C   UNL     1      11.334 -60.816 -25.744  1.00  0.00     0.006 A 
ATOM     11  C   UNL     1      12.383 -60.064 -26.295  1.00  0.00     0.009 A 
ATOM     12  C   UNL     1      10.257 -61.179 -26.570  1.00  0.00     0.009 A 
ATOM     13  C   UNL     1      12.344 -59.667 -27.633  1.00  0.00     0.001 A 
ATOM     14  C   UNL     1      10.224 -60.782 -27.908  1.00  0.00     0.001 A 
ATOM     15  C   UNL     1      11.264 -60.024 -28.437  1.00  0.00     0.000 A 
ENDBRANCH   9  10
ENDBRANCH   4   9
ENDBRANCH   1   2
BRANCH   1  16
ATOM     16  C   UNL     1       9.975 -55.312 -23.161  1.00  0.00     0.061 C 
BRANCH  16  17
ATOM     17  C   UNL     1      10.440 -53.995 -22.641  1.00  0.00     0.091 A 
ATOM     18  C   UNL     1      11.360 -53.081 -23.216  1.00  0.00     0.045 A 
ATOM     19  N   UNL     1       9.969 -53.552 -21.467  1.00  0.00    -0.084 NA
ATOM     20  C   UNL     1      12.140 -52.993 -24.381  1.00  0.00     0.020 A 
ATOM     21  C   UNL     1      11.405 -52.044 -22.301  1.00  0.00     0.169 A 
ATOM     22  O   UNL     1      10.578 -52.323 -21.260  1.00  0.00    -0.356 OA
ATOM     23  C   UNL     1      12.953 -51.857 -24.559  1.00  0.00    -0.023 A 
ATOM     24  C   UNL     1      12.181 -50.897 -22.444  1.00  0.00     0.077 A 
ATOM     25  C   UNL     1      13.729 -51.667 -25.836  1.00  0.00     0.047 C 
ATOM     26  C   UNL     1      12.968 -50.834 -23.597  1.00  0.00     0.048 A 
ATOM     27  C   UNL     1      14.988 -50.847 -25.602  1.00  0.00     0.105 C 
ATOM     28  N   UNL     1      13.773 -49.709 -23.806  1.00  0.00    -0.326 N 
ATOM     29  C   UNL     1      14.705 -49.599 -24.802  1.00  0.00     0.224 C 
ATOM     30  H   UNL     1      13.693 -48.903 -23.198  1.00  0.00     0.169 HD
ATOM     31  O   UNL     1      15.339 -48.559 -24.959  1.00  0.00    -0.275 OA
ENDBRANCH  16  17
ENDBRANCH   1  16
TORSDOF 5
ENDMDL
MODEL 7
REMARK VINA RESULT:   -10.817      2.989      4.495
REMARK INTER + INTRA:         -14.780
REMARK INTER:                 -14.229
REMARK INTRA:                  -0.551
REMARK UNBOUND:                -0.801
REMARK SMILES O=C1CCc2cc3c(CC[C@H]4CC[N@@H+](Cc5ccccc5)CC4)noc3cc2N1
REMARK SMILES IDX 10 1 11 2 13 3 14 4 12 5 22 6 23 7 15 9 16 10 17 11 21 12
REMARK SMILES IDX 18 13 20 14 19 15 9 16 8 17 7 18 24 19 6 20 26 21 25 22 5 23
REMARK SMILES IDX 27 24 4 25 28 26 3 27 29 28 2 29 1 31
REMARK H PARENT 14 8 29 30
ROOT
ATOM      1  C   UNL     1      11.606 -52.813 -23.165  1.00  0.00     0.010 C 
ENDROOT
BRANCH   1   2
ATOM      2  C   UNL     1      10.313 -53.648 -23.045  1.00  0.00     0.000 C 
ATOM      3  C   UNL     1      11.357 -55.967 -23.319  1.00  0.00     0.262 C 
ATOM      4  N   UNL     1      10.933 -56.295 -21.910  1.00  0.00    -0.331 N 
ATOM      5  C   UNL     1      10.406 -54.924 -23.902  1.00  0.00     0.065 C 
ATOM      6  C   UNL     1      10.926 -55.079 -21.018  1.00  0.00     0.262 C 
ATOM      7  C   UNL     1       9.969 -54.041 -21.597  1.00  0.00     0.065 C 
ATOM      8  H   UNL     1       9.960 -56.617 -21.966  1.00  0.00     0.348 HD
BRANCH   4   9
ATOM      9  C   UNL     1      11.683 -57.474 -21.315  1.00  0.00     0.299 C 
BRANCH   9  10
ATOM     10  C   UNL     1      11.353 -58.824 -21.893  1.00  0.00     0.006 A 
ATOM     11  C   UNL     1      12.042 -59.313 -23.014  1.00  0.00     0.009 A 
ATOM     12  C   UNL     1      10.344 -59.617 -21.322  1.00  0.00     0.009 A 
ATOM     13  C   UNL     1      11.716 -60.554 -23.561  1.00  0.00     0.001 A 
ATOM     14  C   UNL     1      10.023 -60.859 -21.871  1.00  0.00     0.001 A 
ATOM     15  C   UNL     1      10.705 -61.325 -22.991  1.00  0.00     0.000 A 
ENDBRANCH   9  10
ENDBRANCH   4   9
ENDBRANCH   1   2
BRANCH   1  16
ATOM     16  C   UNL     1      11.803 -51.802 -22.024  1.00  0.00     0.061 C 
BRANCH  16  17
ATOM     17  C   UNL     1      11.187 -50.484 -22.347  1.00  0.00     0.091 A 
ATOM     18  C   UNL     1      11.697 -49.431 -23.150  1.00  0.00     0.045 A 
ATOM     19  N   UNL     1       9.985 -50.181 -21.837  1.00  0.00    -0.084 NA
ATOM     20  C   UNL     1      12.847 -49.178 -23.916  1.00  0.00     0.020 A 
ATOM     21  C   UNL     1      10.706 -48.467 -23.092  1.00  0.00     0.169 A 
ATOM     22  O   UNL     1       9.687 -48.912 -22.310  1.00  0.00    -0.356 OA
ATOM     23  C   UNL     1      12.950 -47.940 -24.580  1.00  0.00    -0.023 A 
ATOM     24  C   UNL     1      10.760 -47.238 -23.743  1.00  0.00     0.077 A 
ATOM     25  C   UNL     1      14.114 -47.661 -25.495  1.00  0.00     0.047 C 
ATOM     26  C   UNL     1      11.920 -46.992 -24.484  1.00  0.00     0.048 A 
ATOM     27  C   UNL     1      14.426 -46.174 -25.555  1.00  0.00     0.105 C 
ATOM     28  N   UNL     1      12.041 -45.776 -25.165  1.00  0.00    -0.326 N 
ATOM     29  C   UNL     1      13.183 -45.348 -25.785  1.00  0.00     0.224 C 
ATOM     30  H   UNL     1      11.254 -45.141 -25.223  1.00  0.00     0.169 HD
ATOM     31  O   UNL     1      13.202 -44.292 -26.412  1.00  0.00    -0.275 OA
ENDBRANCH  16  17
ENDBRANCH   1  16
TORSDOF 5
ENDMDL
MODEL 8
REMARK VINA RESULT:   -10.744      2.227      3.146
REMARK INTER + INTRA:         -14.685
REMARK INTER:                 -14.327
REMARK INTRA:                  -0.358
REMARK UNBOUND:                -0.801
REMARK SMILES O=C1CCc2cc3c(CC[C@H]4CC[N@@H+](Cc5ccccc5)CC4)noc3cc2N1
REMARK SMILES IDX 10 1 11 2 13 3 14 4 12 5 22 6 23 7 15 9 16 10 17 11 21 12
REMARK SMILES IDX 18 13 20 14 19 15 9 16 8 17 7 18 24 19 6 20 26 21 25 22 5 23
REMARK SMILES IDX 27 24 4 25 28 26 3 27 29 28 2 29 1 31
REMARK H PARENT 14 8 29 30
ROOT
ATOM      1  C   UNL     1      11.413 -56.550 -23.133  1.00  0.00     0.010 C 
ENDROOT
BRANCH   1   2
ATOM      2  C   UNL     1      10.593 -57.361 -22.106  1.00  0.00     0.000 C 
ATOM      3  C   UNL     1       9.562 -59.052 -23.725  1.00  0.00     0.262 C 
ATOM      4  N   UNL     1      10.319 -60.148 -23.019  1.00  0.00    -0.331 N 
ATOM      5  C   UNL     1       9.304 -57.908 -22.747  1.00  0.00     0.065 C 
ATOM      6  C   UNL     1      11.636 -59.667 -22.464  1.00  0.00     0.262 C 
ATOM      7  C   UNL     1      11.376 -58.529 -21.481  1.00  0.00     0.065 C 
ATOM      8  H   UNL     1       9.748 -60.424 -22.212  1.00  0.00     0.348 HD
BRANCH   4   9
ATOM      9  C   UNL     1      10.442 -61.420 -23.841  1.00  0.00     0.299 C 
BRANCH   9  10
ATOM     10  C   UNL     1      10.378 -61.247 -25.335  1.00  0.00     0.006 A 
ATOM     11  C   UNL     1      11.286 -60.409 -26.001  1.00  0.00     0.009 A 
ATOM     12  C   UNL     1       9.402 -61.920 -26.089  1.00  0.00     0.009 A 
ATOM     13  C   UNL     1      11.207 -60.234 -27.383  1.00  0.00     0.001 A 
ATOM     14  C   UNL     1       9.328 -61.743 -27.472  1.00  0.00     0.001 A 
ATOM     15  C   UNL     1      10.227 -60.898 -28.116  1.00  0.00     0.000 A 
ENDBRANCH   9  10
ENDBRANCH   4   9
ENDBRANCH   1   2
BRANCH   1  16
ATOM     16  C   UNL     1      10.926 -55.104 -23.317  1.00  0.00     0.061 C 
BRANCH  16  17
ATOM     17  C   UNL     1      11.768 -54.362 -24.297  1.00  0.00     0.091 A 
ATOM     18  C   UNL     1      12.156 -52.998 -24.290  1.00  0.00     0.045 A 
ATOM     19  N   UNL     1      12.257 -55.011 -25.363  1.00  0.00    -0.084 NA
ATOM     20  C   UNL     1      11.968 -51.872 -23.470  1.00  0.00     0.020 A 
ATOM     21  C   UNL     1      12.925 -52.871 -25.434  1.00  0.00     0.169 A 
ATOM     22  O   UNL     1      12.986 -54.069 -26.072  1.00  0.00    -0.356 OA
ATOM     23  C   UNL     1      12.557 -50.654 -23.859  1.00  0.00    -0.023 A 
ATOM     24  C   UNL     1      13.538 -51.692 -25.847  1.00  0.00     0.077 A 
ATOM     25  C   UNL     1      12.471 -49.445 -22.965  1.00  0.00     0.047 C 
ATOM     26  C   UNL     1      13.324 -50.576 -25.033  1.00  0.00     0.048 A 
ATOM     27  C   UNL     1      12.520 -48.156 -23.769  1.00  0.00     0.105 C 
ATOM     28  N   UNL     1      13.911 -49.357 -25.389  1.00  0.00    -0.326 N 
ATOM     29  C   UNL     1      13.648 -48.163 -24.773  1.00  0.00     0.224 C 
ATOM     30  H   UNL     1      14.578 -49.313 -26.150  1.00  0.00     0.169 HD
ATOM     31  O   UNL     1      14.241 -47.140 -25.103  1.00  0.00    -0.275 OA
ENDBRANCH  16  17
ENDBRANCH   1  16
TORSDOF 5
ENDMDL
MODEL 9
REMARK VINA RESULT:   -10.469      3.809      5.485
REMARK INTER + INTRA:         -14.330
REMARK INTER:                 -13.803
REMARK INTRA:                  -0.527
REMARK UNBOUND:                -0.801
REMARK SMILES O=C1CCc2cc3c(CC[C@H]4CC[N@@H+](Cc5ccccc5)CC4)noc3cc2N1
REMARK SMILES IDX 10 1 11 2 13 3 14 4 12 5 22 6 23 7 15 9 16 10 17 11 21 12
REMARK SMILES IDX 18 13 20 14 19 15 9 16 8 17 7 18 24 19 6 20 26 21 25 22 5 23
REMARK SMILES IDX 27 24 4 25 28 26 3 27 29 28 2 29 1 31
REMARK H PARENT 14 8 29 30
ROOT
ATOM      1  C   UNL     1      11.742 -52.419 -22.769  1.00  0.00     0.010 C 
ENDROOT
BRANCH   1   2
ATOM      2  C   UNL     1      10.373 -53.133 -22.747  1.00  0.00     0.000 C 
ATOM      3  C   UNL     1      11.150 -55.422 -23.586  1.00  0.00     0.262 C 
ATOM      4  N   UNL     1      10.755 -56.013 -22.256  1.00  0.00    -0.331 N 
ATOM      5  C   UNL     1      10.291 -54.191 -23.865  1.00  0.00     0.065 C 
ATOM      6  C   UNL     1      10.918 -55.031 -21.124  1.00  0.00     0.262 C 
ATOM      7  C   UNL     1      10.053 -53.805 -21.400  1.00  0.00     0.065 C 
ATOM      8  H   UNL     1       9.752 -56.222 -22.317  1.00  0.00     0.348 HD
BRANCH   4   9
ATOM      9  C   UNL     1      11.400 -57.361 -21.982  1.00  0.00     0.299 C 
BRANCH   9  10
ATOM     10  C   UNL     1      10.505 -58.562 -22.128  1.00  0.00     0.006 A 
ATOM     11  C   UNL     1      10.712 -59.711 -21.349  1.00  0.00     0.009 A 
ATOM     12  C   UNL     1       9.447 -58.555 -23.052  1.00  0.00     0.009 A 
ATOM     13  C   UNL     1       9.895 -60.831 -21.506  1.00  0.00     0.001 A 
ATOM     14  C   UNL     1       8.630 -59.676 -23.204  1.00  0.00     0.001 A 
ATOM     15  C   UNL     1       8.857 -60.813 -22.435  1.00  0.00     0.000 A 
ENDBRANCH   9  10
ENDBRANCH   4   9
ENDBRANCH   1   2
BRANCH   1  16
ATOM     16  C   UNL     1      11.694 -50.967 -22.269  1.00  0.00     0.061 C 
BRANCH  16  17
ATOM     17  C   UNL     1      12.196 -50.015 -23.300  1.00  0.00     0.091 A 
ATOM     18  C   UNL     1      11.967 -48.620 -23.416  1.00  0.00     0.045 A 
ATOM     19  N   UNL     1      12.976 -50.474 -24.289  1.00  0.00    -0.084 NA
ATOM     20  C   UNL     1      11.273 -47.623 -22.711  1.00  0.00     0.020 A 
ATOM     21  C   UNL     1      12.676 -48.266 -24.552  1.00  0.00     0.169 A 
ATOM     22  O   UNL     1      13.276 -49.369 -25.072  1.00  0.00    -0.356 OA
ATOM     23  C   UNL     1      11.310 -46.304 -23.204  1.00  0.00    -0.023 A 
ATOM     24  C   UNL     1      12.753 -46.974 -25.065  1.00  0.00     0.077 A 
ATOM     25  C   UNL     1      10.668 -45.182 -22.431  1.00  0.00     0.047 C 
ATOM     26  C   UNL     1      12.038 -45.998 -24.365  1.00  0.00     0.048 A 
ATOM     27  C   UNL     1      10.212 -44.064 -23.354  1.00  0.00     0.105 C 
ATOM     28  N   UNL     1      12.072 -44.677 -24.824  1.00  0.00    -0.326 N 
ATOM     29  C   UNL     1      11.292 -43.666 -24.331  1.00  0.00     0.224 C 
ATOM     30  H   UNL     1      12.700 -44.411 -25.573  1.00  0.00     0.169 HD
ATOM     31  O   UNL     1      11.413 -42.517 -24.745  1.00  0.00    -0.275 OA
ENDBRANCH  16  17
ENDBRANCH   1  16
TORSDOF 5
ENDMDL
