MODEL 1
REMARK VINA RESULT:   -10.130      0.000      0.000
REMARK INTER + INTRA:         -13.270
REMARK INTER:                 -12.795
REMARK INTRA:                  -0.476
REMARK UNBOUND:                -0.476
REMARK SMILES C[N@H+]1CC[C@@H](CCCC2=C(O)c3ccccc3C2)CC1
REMARK SMILES IDX 8 1 9 2 10 3 12 4 18 5 13 6 17 7 14 8 16 9 15 10 11 11 7 13
REMARK SMILES IDX 6 14 5 15 4 16 19 17 3 18 20 19 2 20 1 21
REMARK H PARENT 11 12 2 22
ROOT
ATOM      1  C   UNL     1      10.239 -56.244 -22.742  1.00  0.00     0.035 C 
ENDROOT
BRANCH   1   2
ATOM      2  C   UNL     1      10.730 -54.838 -22.818  1.00  0.00    -0.023 C 
ATOM      3  C   UNL     1      11.408 -54.270 -23.827  1.00  0.00     0.122 C 
ATOM      4  C   UNL     1      11.720 -52.887 -23.488  1.00  0.00     0.020 A 
ATOM      5  C   UNL     1      10.523 -53.866 -21.674  1.00  0.00     0.071 C 
ATOM      6  C   UNL     1      12.384 -51.892 -24.184  1.00  0.00     0.012 A 
ATOM      7  C   UNL     1      11.199 -52.635 -22.207  1.00  0.00    -0.033 A 
ATOM      8  C   UNL     1      12.527 -50.638 -23.580  1.00  0.00     0.001 A 
ATOM      9  C   UNL     1      11.335 -51.398 -21.599  1.00  0.00     0.005 A 
ATOM     10  C   UNL     1      12.008 -50.394 -22.297  1.00  0.00     0.000 A 
BRANCH   3  11
ATOM     11  O   UNL     1      11.776 -54.856 -24.999  1.00  0.00    -0.507 OA
ATOM     12  H   UNL     1      11.993 -54.138 -25.620  1.00  0.00     0.293 HD
ENDBRANCH   3  11
ENDBRANCH   1   2
BRANCH   1  13
ATOM     13  C   UNL     1      11.389 -57.238 -22.542  1.00  0.00     0.005 C 
BRANCH  13  14
ATOM     14  C   UNL     1      11.099 -58.261 -21.436  1.00  0.00     0.004 C 
BRANCH  14  15
ATOM     15  C   UNL     1      11.163 -59.731 -21.904  1.00  0.00    -0.000 C 
ATOM     16  C   UNL     1      11.690 -59.795 -23.348  1.00  0.00     0.065 C 
ATOM     17  C   UNL     1       9.819 -60.464 -21.792  1.00  0.00     0.065 C 
ATOM     18  C   UNL     1      11.749 -61.222 -23.874  1.00  0.00     0.262 C 
ATOM     19  C   UNL     1       9.891 -61.885 -22.333  1.00  0.00     0.262 C 
ATOM     20  N   UNL     1      10.409 -61.899 -23.749  1.00  0.00    -0.337 N 
ATOM     21  C   UNL     1       9.399 -61.445 -24.767  1.00  0.00     0.332 C 
ATOM     22  H   UNL     1      10.577 -62.890 -23.970  1.00  0.00     0.347 HD
ENDBRANCH  14  15
ENDBRANCH  13  14
ENDBRANCH   1  13
TORSDOF 5
ENDMDL
MODEL 2
REMARK VINA RESULT:   -10.084      1.115      1.745
REMARK INTER + INTRA:         -13.212
REMARK INTER:                 -12.785
REMARK INTRA:                  -0.427
REMARK UNBOUND:                -0.476
REMARK SMILES C[N@H+]1CC[C@@H](CCCC2=C(O)c3ccccc3C2)CC1
REMARK SMILES IDX 8 1 9 2 10 3 12 4 18 5 13 6 17 7 14 8 16 9 15 10 11 11 7 13
REMARK SMILES IDX 6 14 5 15 4 16 19 17 3 18 20 19 2 20 1 21
REMARK H PARENT 11 12 2 22
ROOT
ATOM      1  C   UNL     1      10.319 -56.051 -22.795  1.00  0.00     0.035 C 
ENDROOT
BRANCH   1   2
ATOM      2  C   UNL     1      10.914 -54.707 -23.051  1.00  0.00    -0.023 C 
ATOM      3  C   UNL     1      10.817 -53.618 -22.273  1.00  0.00     0.122 C 
ATOM      4  C   UNL     1      11.522 -52.507 -22.901  1.00  0.00     0.020 A 
ATOM      5  C   UNL     1      11.708 -54.421 -24.308  1.00  0.00     0.071 C 
ATOM      6  C   UNL     1      11.720 -51.196 -22.503  1.00  0.00     0.012 A 
ATOM      7  C   UNL     1      12.055 -52.973 -24.114  1.00  0.00    -0.033 A 
ATOM      8  C   UNL     1      12.457 -50.351 -23.340  1.00  0.00     0.001 A 
ATOM      9  C   UNL     1      12.786 -52.145 -24.950  1.00  0.00     0.005 A 
ATOM     10  C   UNL     1      12.984 -50.821 -24.554  1.00  0.00     0.000 A 
BRANCH   3  11
ATOM     11  O   UNL     1      10.167 -53.516 -21.082  1.00  0.00    -0.507 OA
ATOM     12  H   UNL     1       9.642 -52.698 -21.113  1.00  0.00     0.293 HD
ENDBRANCH   3  11
ENDBRANCH   1   2
BRANCH   1  13
ATOM     13  C   UNL     1      11.394 -57.139 -22.697  1.00  0.00     0.005 C 
BRANCH  13  14
ATOM     14  C   UNL     1      11.142 -58.115 -21.540  1.00  0.00     0.004 C 
BRANCH  14  15
ATOM     15  C   UNL     1      11.218 -59.604 -21.942  1.00  0.00    -0.000 C 
ATOM     16  C   UNL     1      11.707 -59.726 -23.395  1.00  0.00     0.065 C 
ATOM     17  C   UNL     1       9.890 -60.352 -21.760  1.00  0.00     0.065 C 
ATOM     18  C   UNL     1      11.776 -61.175 -23.857  1.00  0.00     0.262 C 
ATOM     19  C   UNL     1       9.971 -61.794 -22.238  1.00  0.00     0.262 C 
ATOM     20  N   UNL     1      10.451 -61.866 -23.664  1.00  0.00    -0.337 N 
ATOM     21  C   UNL     1       9.407 -61.474 -24.674  1.00  0.00     0.332 C 
ATOM     22  H   UNL     1      10.630 -62.863 -23.844  1.00  0.00     0.347 HD
ENDBRANCH  14  15
ENDBRANCH  13  14
ENDBRANCH   1  13
TORSDOF 5
ENDMDL
MODEL 3
REMARK VINA RESULT:   -10.004      1.745      3.274
REMARK INTER + INTRA:         -13.111
REMARK INTER:                 -12.626
REMARK INTRA:                  -0.485
REMARK UNBOUND:                -0.476
REMARK SMILES C[N@H+]1CC[C@@H](CCCC2=C(O)c3ccccc3C2)CC1
REMARK SMILES IDX 8 1 9 2 10 3 12 4 18 5 13 6 17 7 14 8 16 9 15 10 11 11 7 13
REMARK SMILES IDX 6 14 5 15 4 16 19 17 3 18 20 19 2 20 1 21
REMARK H PARENT 11 12 2 22
ROOT
ATOM      1  C   UNL     1      11.906 -59.199 -23.678  1.00  0.00     0.035 C 
ENDROOT
BRANCH   1   2
ATOM      2  C   UNL     1      11.658 -57.753 -23.414  1.00  0.00    -0.023 C 
ATOM      3  C   UNL     1      11.914 -56.724 -24.237  1.00  0.00     0.122 C 
ATOM      4  C   UNL     1      11.547 -55.474 -23.584  1.00  0.00     0.020 A 
ATOM      5  C   UNL     1      11.087 -57.277 -22.094  1.00  0.00     0.071 C 
ATOM      6  C   UNL     1      11.607 -54.158 -24.008  1.00  0.00     0.012 A 
ATOM      7  C   UNL     1      11.055 -55.790 -22.306  1.00  0.00    -0.033 A 
ATOM      8  C   UNL     1      11.171 -53.156 -23.133  1.00  0.00     0.001 A 
ATOM      9  C   UNL     1      10.622 -54.807 -21.432  1.00  0.00     0.005 A 
ATOM     10  C   UNL     1      10.684 -53.478 -21.855  1.00  0.00     0.000 A 
BRANCH   3  11
ATOM     11  O   UNL     1      12.439 -56.789 -25.491  1.00  0.00    -0.507 OA
ATOM     12  H   UNL     1      11.714 -57.037 -26.091  1.00  0.00     0.293 HD
ENDBRANCH   3  11
ENDBRANCH   1   2
BRANCH   1  13
ATOM     13  C   UNL     1      11.277 -60.090 -22.600  1.00  0.00     0.005 C 
BRANCH  13  14
ATOM     14  C   UNL     1      10.872 -61.469 -23.137  1.00  0.00     0.004 C 
BRANCH  14  15
ATOM     15  C   UNL     1       9.376 -61.804 -22.953  1.00  0.00    -0.000 C 
ATOM     16  C   UNL     1       9.175 -63.328 -22.995  1.00  0.00     0.065 C 
ATOM     17  C   UNL     1       8.468 -61.116 -23.982  1.00  0.00     0.065 C 
ATOM     18  C   UNL     1       7.711 -63.717 -22.846  1.00  0.00     0.262 C 
ATOM     19  C   UNL     1       7.010 -61.525 -23.829  1.00  0.00     0.262 C 
ATOM     20  N   UNL     1       6.860 -63.024 -23.878  1.00  0.00    -0.337 N 
ATOM     21  C   UNL     1       6.991 -63.600 -25.262  1.00  0.00     0.332 C 
ATOM     22  H   UNL     1       5.886 -63.212 -23.606  1.00  0.00     0.347 HD
ENDBRANCH  14  15
ENDBRANCH  13  14
ENDBRANCH   1  13
TORSDOF 5
ENDMDL
MODEL 4
REMARK VINA RESULT:    -9.793      2.850      8.212
REMARK INTER + INTRA:         -12.844
REMARK INTER:                 -12.401
REMARK INTRA:                  -0.443
REMARK UNBOUND:                -0.476
REMARK SMILES C[N@H+]1CC[C@@H](CCCC2=C(O)c3ccccc3C2)CC1
REMARK SMILES IDX 8 1 9 2 10 3 12 4 18 5 13 6 17 7 14 8 16 9 15 10 11 11 7 13
REMARK SMILES IDX 6 14 5 15 4 16 19 17 3 18 20 19 2 20 1 21
REMARK H PARENT 11 12 2 22
ROOT
ATOM      1  C   UNL     1      11.402 -56.334 -22.824  1.00  0.00     0.035 C 
ENDROOT
BRANCH   1   2
ATOM      2  C   UNL     1      11.179 -57.809 -22.853  1.00  0.00    -0.023 C 
ATOM      3  C   UNL     1      11.546 -58.664 -23.820  1.00  0.00     0.122 C 
ATOM      4  C   UNL     1      11.114 -60.011 -23.469  1.00  0.00     0.020 A 
ATOM      5  C   UNL     1      10.442 -58.519 -21.737  1.00  0.00     0.071 C 
ATOM      6  C   UNL     1      11.256 -61.225 -24.119  1.00  0.00     0.012 A 
ATOM      7  C   UNL     1      10.454 -59.937 -22.231  1.00  0.00    -0.033 A 
ATOM      8  C   UNL     1      10.722 -62.369 -23.515  1.00  0.00     0.001 A 
ATOM      9  C   UNL     1       9.922 -61.063 -21.625  1.00  0.00     0.005 A 
ATOM     10  C   UNL     1      10.060 -62.288 -22.279  1.00  0.00     0.000 A 
BRANCH   3  11
ATOM     11  O   UNL     1      12.212 -58.365 -24.969  1.00  0.00    -0.507 OA
ATOM     12  H   UNL     1      11.923 -59.007 -25.641  1.00  0.00     0.293 HD
ENDBRANCH   3  11
ENDBRANCH   1   2
BRANCH   1  13
ATOM     13  C   UNL     1      10.100 -55.558 -23.051  1.00  0.00     0.005 C 
BRANCH  13  14
ATOM     14  C   UNL     1      10.334 -54.197 -23.720  1.00  0.00     0.004 C 
BRANCH  14  15
ATOM     15  C   UNL     1      11.299 -53.271 -22.947  1.00  0.00    -0.000 C 
ATOM     16  C   UNL     1      10.502 -52.381 -21.979  1.00  0.00     0.065 C 
ATOM     17  C   UNL     1      12.180 -52.411 -23.863  1.00  0.00     0.065 C 
ATOM     18  C   UNL     1      11.402 -51.425 -21.207  1.00  0.00     0.262 C 
ATOM     19  C   UNL     1      13.064 -51.452 -23.078  1.00  0.00     0.262 C 
ATOM     20  N   UNL     1      12.243 -50.599 -22.145  1.00  0.00    -0.337 N 
ATOM     21  C   UNL     1      11.482 -49.503 -22.841  1.00  0.00     0.332 C 
ATOM     22  H   UNL     1      12.924 -50.110 -21.549  1.00  0.00     0.347 HD
ENDBRANCH  14  15
ENDBRANCH  13  14
ENDBRANCH   1  13
TORSDOF 5
ENDMDL
MODEL 5
REMARK VINA RESULT:    -9.541      1.728      2.832
REMARK INTER + INTRA:         -12.527
REMARK INTER:                 -12.123
REMARK INTRA:                  -0.404
REMARK UNBOUND:                -0.476
REMARK SMILES C[N@H+]1CC[C@@H](CCCC2=C(O)c3ccccc3C2)CC1
REMARK SMILES IDX 8 1 9 2 10 3 12 4 18 5 13 6 17 7 14 8 16 9 15 10 11 11 7 13
REMARK SMILES IDX 6 14 5 15 4 16 19 17 3 18 20 19 2 20 1 21
REMARK H PARENT 11 12 2 22
ROOT
ATOM      1  C   UNL     1      10.387 -54.016 -21.855  1.00  0.00     0.035 C 
ENDROOT
BRANCH   1   2
ATOM      2  C   UNL     1      11.225 -53.211 -22.790  1.00  0.00    -0.023 C 
ATOM      3  C   UNL     1      11.531 -51.909 -22.686  1.00  0.00     0.122 C 
ATOM      4  C   UNL     1      12.350 -51.508 -23.823  1.00  0.00     0.020 A 
ATOM      5  C   UNL     1      11.820 -53.821 -24.042  1.00  0.00     0.071 C 
ATOM      6  C   UNL     1      12.920 -50.295 -24.169  1.00  0.00     0.012 A 
ATOM      7  C   UNL     1      12.528 -52.638 -24.638  1.00  0.00    -0.033 A 
ATOM      8  C   UNL     1      13.670 -50.224 -25.348  1.00  0.00     0.001 A 
ATOM      9  C   UNL     1      13.268 -52.579 -25.808  1.00  0.00     0.005 A 
ATOM     10  C   UNL     1      13.841 -51.357 -26.161  1.00  0.00     0.000 A 
BRANCH   3  11
ATOM     11  O   UNL     1      11.152 -51.054 -21.696  1.00  0.00    -0.507 OA
ATOM     12  H   UNL     1      11.637 -50.222 -21.838  1.00  0.00     0.293 HD
ENDBRANCH   3  11
ENDBRANCH   1   2
BRANCH   1  13
ATOM     13  C   UNL     1      10.061 -55.399 -22.431  1.00  0.00     0.005 C 
BRANCH  13  14
ATOM     14  C   UNL     1      11.065 -56.473 -21.991  1.00  0.00     0.004 C 
BRANCH  14  15
ATOM     15  C   UNL     1      11.036 -57.755 -22.852  1.00  0.00    -0.000 C 
ATOM     16  C   UNL     1       9.581 -58.208 -23.058  1.00  0.00     0.065 C 
ATOM     17  C   UNL     1      11.875 -58.899 -22.267  1.00  0.00     0.065 C 
ATOM     18  C   UNL     1       9.490 -59.487 -23.879  1.00  0.00     0.262 C 
ATOM     19  C   UNL     1      11.764 -60.174 -23.091  1.00  0.00     0.262 C 
ATOM     20  N   UNL     1      10.324 -60.582 -23.266  1.00  0.00    -0.337 N 
ATOM     21  C   UNL     1       9.715 -61.195 -22.034  1.00  0.00     0.332 C 
ATOM     22  H   UNL     1      10.336 -61.343 -23.959  1.00  0.00     0.347 HD
ENDBRANCH  14  15
ENDBRANCH  13  14
ENDBRANCH   1  13
TORSDOF 5
ENDMDL
MODEL 6
REMARK VINA RESULT:    -9.009      3.119      7.670
REMARK INTER + INTRA:         -11.855
REMARK INTER:                 -11.115
REMARK INTRA:                  -0.740
REMARK UNBOUND:                -0.476
REMARK SMILES C[N@H+]1CC[C@@H](CCCC2=C(O)c3ccccc3C2)CC1
REMARK SMILES IDX 8 1 9 2 10 3 12 4 18 5 13 6 17 7 14 8 16 9 15 10 11 11 7 13
REMARK SMILES IDX 6 14 5 15 4 16 19 17 3 18 20 19 2 20 1 21
REMARK H PARENT 11 12 2 22
ROOT
ATOM      1  C   UNL     1      10.673 -53.014 -23.050  1.00  0.00     0.035 C 
ENDROOT
BRANCH   1   2
ATOM      2  C   UNL     1      10.972 -54.471 -22.954  1.00  0.00    -0.023 C 
ATOM      3  C   UNL     1      11.403 -55.276 -23.937  1.00  0.00     0.122 C 
ATOM      4  C   UNL     1      11.546 -56.634 -23.428  1.00  0.00     0.020 A 
ATOM      5  C   UNL     1      10.774 -55.234 -21.661  1.00  0.00     0.071 C 
ATOM      6  C   UNL     1      11.960 -57.809 -24.033  1.00  0.00     0.012 A 
ATOM      7  C   UNL     1      11.173 -56.623 -22.074  1.00  0.00    -0.033 A 
ATOM      8  C   UNL     1      11.993 -58.978 -23.264  1.00  0.00     0.001 A 
ATOM      9  C   UNL     1      11.201 -57.774 -21.304  1.00  0.00     0.005 A 
ATOM     10  C   UNL     1      11.614 -58.960 -21.912  1.00  0.00     0.000 A 
BRANCH   3  11
ATOM     11  O   UNL     1      11.671 -54.926 -25.225  1.00  0.00    -0.507 OA
ATOM     12  H   UNL     1      11.296 -55.621 -25.793  1.00  0.00     0.293 HD
ENDBRANCH   3  11
ENDBRANCH   1   2
BRANCH   1  13
ATOM     13  C   UNL     1      11.662 -52.175 -22.233  1.00  0.00     0.005 C 
BRANCH  13  14
ATOM     14  C   UNL     1      12.193 -50.964 -23.012  1.00  0.00     0.004 C 
BRANCH  14  15
ATOM     15  C   UNL     1      12.861 -51.322 -24.357  1.00  0.00    -0.000 C 
ATOM     16  C   UNL     1      14.078 -52.229 -24.107  1.00  0.00     0.065 C 
ATOM     17  C   UNL     1      13.271 -50.092 -25.179  1.00  0.00     0.065 C 
ATOM     18  C   UNL     1      14.796 -52.593 -25.399  1.00  0.00     0.262 C 
ATOM     19  C   UNL     1      13.998 -50.472 -26.461  1.00  0.00     0.262 C 
ATOM     20  N   UNL     1      15.182 -51.357 -26.170  1.00  0.00    -0.337 N 
ATOM     21  C   UNL     1      16.359 -50.621 -25.589  1.00  0.00     0.332 C 
ATOM     22  H   UNL     1      15.508 -51.692 -27.086  1.00  0.00     0.347 HD
ENDBRANCH  14  15
ENDBRANCH  13  14
ENDBRANCH   1  13
TORSDOF 5
ENDMDL
MODEL 7
REMARK VINA RESULT:    -8.841      2.950      8.124
REMARK INTER + INTRA:         -11.642
REMARK INTER:                 -11.385
REMARK INTRA:                  -0.257
REMARK UNBOUND:                -0.476
REMARK SMILES C[N@H+]1CC[C@@H](CCCC2=C(O)c3ccccc3C2)CC1
REMARK SMILES IDX 8 1 9 2 10 3 12 4 18 5 13 6 17 7 14 8 16 9 15 10 11 11 7 13
REMARK SMILES IDX 6 14 5 15 4 16 19 17 3 18 20 19 2 20 1 21
REMARK H PARENT 11 12 2 22
ROOT
ATOM      1  C   UNL     1      11.053 -56.241 -21.816  1.00  0.00     0.035 C 
ENDROOT
BRANCH   1   2
ATOM      2  C   UNL     1      10.775 -57.561 -22.450  1.00  0.00    -0.023 C 
ATOM      3  C   UNL     1       9.701 -57.897 -23.182  1.00  0.00     0.122 C 
ATOM      4  C   UNL     1       9.808 -59.292 -23.592  1.00  0.00     0.020 A 
ATOM      5  C   UNL     1      11.724 -58.730 -22.291  1.00  0.00     0.071 C 
ATOM      6  C   UNL     1       8.978 -60.097 -24.353  1.00  0.00     0.012 A 
ATOM      7  C   UNL     1      11.008 -59.799 -23.066  1.00  0.00    -0.033 A 
ATOM      8  C   UNL     1       9.362 -61.424 -24.578  1.00  0.00     0.001 A 
ATOM      9  C   UNL     1      11.397 -61.111 -23.282  1.00  0.00     0.005 A 
ATOM     10  C   UNL     1      10.560 -61.926 -24.045  1.00  0.00     0.000 A 
BRANCH   3  11
ATOM     11  O   UNL     1       8.650 -57.097 -23.510  1.00  0.00    -0.507 OA
ATOM     12  H   UNL     1       8.250 -56.796 -22.676  1.00  0.00     0.293 HD
ENDBRANCH   3  11
ENDBRANCH   1   2
BRANCH   1  13
ATOM     13  C   UNL     1      11.051 -55.104 -22.844  1.00  0.00     0.005 C 
BRANCH  13  14
ATOM     14  C   UNL     1      10.720 -53.743 -22.217  1.00  0.00     0.004 C 
BRANCH  14  15
ATOM     15  C   UNL     1      11.231 -52.533 -23.030  1.00  0.00    -0.000 C 
ATOM     16  C   UNL     1      12.281 -53.000 -24.052  1.00  0.00     0.065 C 
ATOM     17  C   UNL     1      11.801 -51.409 -22.154  1.00  0.00     0.065 C 
ATOM     18  C   UNL     1      12.844 -51.843 -24.866  1.00  0.00     0.262 C 
ATOM     19  C   UNL     1      12.370 -50.265 -22.981  1.00  0.00     0.262 C 
ATOM     20  N   UNL     1      13.394 -50.767 -23.966  1.00  0.00    -0.337 N 
ATOM     21  C   UNL     1      14.716 -51.117 -23.337  1.00  0.00     0.332 C 
ATOM     22  H   UNL     1      13.599 -49.968 -24.582  1.00  0.00     0.347 HD
ENDBRANCH  14  15
ENDBRANCH  13  14
ENDBRANCH   1  13
TORSDOF 5
ENDMDL
MODEL 8
REMARK VINA RESULT:    -8.726      1.269      2.085
REMARK INTER + INTRA:         -11.498
REMARK INTER:                 -11.040
REMARK INTRA:                  -0.458
REMARK UNBOUND:                -0.476
REMARK SMILES C[N@H+]1CC[C@@H](CCCC2=C(O)c3ccccc3C2)CC1
REMARK SMILES IDX 8 1 9 2 10 3 12 4 18 5 13 6 17 7 14 8 16 9 15 10 11 11 7 13
REMARK SMILES IDX 6 14 5 15 4 16 19 17 3 18 20 19 2 20 1 21
REMARK H PARENT 11 12 2 22
ROOT
ATOM      1  C   UNL     1      11.366 -55.112 -23.847  1.00  0.00     0.035 C 
ENDROOT
BRANCH   1   2
ATOM      2  C   UNL     1      11.700 -53.660 -23.815  1.00  0.00    -0.023 C 
ATOM      3  C   UNL     1      12.493 -52.993 -24.669  1.00  0.00     0.122 C 
ATOM      4  C   UNL     1      12.575 -51.594 -24.266  1.00  0.00     0.020 A 
ATOM      5  C   UNL     1      11.168 -52.749 -22.729  1.00  0.00     0.071 C 
ATOM      6  C   UNL     1      13.246 -50.514 -24.813  1.00  0.00     0.012 A 
ATOM      7  C   UNL     1      11.791 -51.437 -23.111  1.00  0.00    -0.033 A 
ATOM      8  C   UNL     1      13.126 -49.269 -24.184  1.00  0.00     0.001 A 
ATOM      9  C   UNL     1      11.666 -50.210 -22.481  1.00  0.00     0.005 A 
ATOM     10  C   UNL     1      12.344 -49.120 -23.027  1.00  0.00     0.000 A 
BRANCH   3  11
ATOM     11  O   UNL     1      13.145 -53.502 -25.750  1.00  0.00    -0.507 OA
ATOM     12  H   UNL     1      12.490 -54.001 -26.268  1.00  0.00     0.293 HD
ENDBRANCH   3  11
ENDBRANCH   1   2
BRANCH   1  13
ATOM     13  C   UNL     1      10.939 -55.627 -22.468  1.00  0.00     0.005 C 
BRANCH  13  14
ATOM     14  C   UNL     1      11.341 -57.090 -22.233  1.00  0.00     0.004 C 
BRANCH  14  15
ATOM     15  C   UNL     1      10.840 -58.064 -23.322  1.00  0.00    -0.000 C 
ATOM     16  C   UNL     1       9.777 -59.004 -22.729  1.00  0.00     0.065 C 
ATOM     17  C   UNL     1      11.967 -58.876 -23.976  1.00  0.00     0.065 C 
ATOM     18  C   UNL     1       9.265 -60.008 -23.752  1.00  0.00     0.262 C 
ATOM     19  C   UNL     1      11.439 -59.884 -24.986  1.00  0.00     0.262 C 
ATOM     20  N   UNL     1      10.403 -60.784 -24.363  1.00  0.00    -0.337 N 
ATOM     21  C   UNL     1      10.982 -61.834 -23.453  1.00  0.00     0.332 C 
ATOM     22  H   UNL     1       9.991 -61.312 -25.144  1.00  0.00     0.347 HD
ENDBRANCH  14  15
ENDBRANCH  13  14
ENDBRANCH   1  13
TORSDOF 5
ENDMDL
MODEL 9
REMARK VINA RESULT:    -8.691      3.174      5.171
REMARK INTER + INTRA:         -11.453
REMARK INTER:                 -10.735
REMARK INTRA:                  -0.718
REMARK UNBOUND:                -0.476
REMARK SMILES C[N@H+]1CC[C@@H](CCCC2=C(O)c3ccccc3C2)CC1
REMARK SMILES IDX 8 1 9 2 10 3 12 4 18 5 13 6 17 7 14 8 16 9 15 10 11 11 7 13
REMARK SMILES IDX 6 14 5 15 4 16 19 17 3 18 20 19 2 20 1 21
REMARK H PARENT 11 12 2 22
ROOT
ATOM      1  C   UNL     1       7.396 -60.863 -23.695  1.00  0.00     0.035 C 
ENDROOT
BRANCH   1   2
ATOM      2  C   UNL     1       8.282 -59.753 -23.242  1.00  0.00    -0.023 C 
ATOM      3  C   UNL     1       8.247 -58.473 -23.645  1.00  0.00     0.122 C 
ATOM      4  C   UNL     1       9.302 -57.723 -22.976  1.00  0.00     0.020 A 
ATOM      5  C   UNL     1       9.396 -59.989 -22.243  1.00  0.00     0.071 C 
ATOM      6  C   UNL     1       9.672 -56.390 -23.042  1.00  0.00     0.012 A 
ATOM      7  C   UNL     1       9.994 -58.615 -22.139  1.00  0.00    -0.033 A 
ATOM      8  C   UNL     1      10.751 -55.960 -22.261  1.00  0.00     0.001 A 
ATOM      9  C   UNL     1      11.063 -58.199 -21.363  1.00  0.00     0.005 A 
ATOM     10  C   UNL     1      11.441 -56.858 -21.430  1.00  0.00     0.000 A 
BRANCH   3  11
ATOM     11  O   UNL     1       7.386 -57.920 -24.542  1.00  0.00    -0.507 OA
ATOM     12  H   UNL     1       7.919 -57.612 -25.296  1.00  0.00     0.293 HD
ENDBRANCH   3  11
ENDBRANCH   1   2
BRANCH   1  13
ATOM     13  C   UNL     1       8.064 -61.717 -24.780  1.00  0.00     0.005 C 
BRANCH  13  14
ATOM     14  C   UNL     1       9.439 -62.246 -24.352  1.00  0.00     0.004 C 
BRANCH  14  15
ATOM     15  C   UNL     1      10.619 -61.660 -25.157  1.00  0.00    -0.000 C 
ATOM     16  C   UNL     1      11.751 -61.252 -24.199  1.00  0.00     0.065 C 
ATOM     17  C   UNL     1      10.220 -60.476 -26.048  1.00  0.00     0.065 C 
ATOM     18  C   UNL     1      12.934 -60.640 -24.936  1.00  0.00     0.262 C 
ATOM     19  C   UNL     1      11.414 -59.868 -26.769  1.00  0.00     0.262 C 
ATOM     20  N   UNL     1      12.496 -59.481 -25.793  1.00  0.00    -0.337 N 
ATOM     21  C   UNL     1      12.188 -58.230 -25.014  1.00  0.00     0.332 C 
ATOM     22  H   UNL     1      13.313 -59.238 -26.369  1.00  0.00     0.347 HD
ENDBRANCH  14  15
ENDBRANCH  13  14
ENDBRANCH   1  13
TORSDOF 5
ENDMDL
