MODEL 1
REMARK VINA RESULT:    -9.496      0.000      0.000
REMARK INTER + INTRA:         -15.325
REMARK INTER:                 -13.937
REMARK INTRA:                  -1.388
REMARK UNBOUND:                -1.388
REMARK SMILES COc1ccc([C@H](C)NS(=O)(=O)NC(=O)OCc2ccccc2)cc1
REMARK SMILES IDX 9 1 7 3 8 4 6 5 3 6 4 7 25 8 5 9 24 10 2 11 1 12 10 13 11 14
REMARK SMILES IDX 12 15 13 16 14 17 15 19 16 20 17 21 18 22 19 23 23 24 20 25
REMARK SMILES IDX 22 26 21 27
REMARK H PARENT 9 2 13 18
ROOT
ATOM      1  N   UNL     1      10.812 -60.521 -24.655  1.00  0.00    -0.190 NA
ATOM      2  H   UNL     1      11.177 -61.474 -24.620  1.00  0.00     0.143 HD
ENDROOT
BRANCH   1   3
ATOM      3  C   UNL     1       9.557 -60.411 -25.430  1.00  0.00     0.098 C 
ATOM      4  C   UNL     1       9.281 -61.766 -26.094  1.00  0.00     0.031 C 
BRANCH   3   5
ATOM      5  C   UNL     1       8.382 -59.984 -24.572  1.00  0.00    -0.030 A 
ATOM      6  C   UNL     1       6.252 -59.166 -22.914  1.00  0.00     0.118 A 
ATOM      7  C   UNL     1       7.063 -58.217 -23.536  1.00  0.00     0.047 A 
ATOM      8  C   UNL     1       6.500 -60.522 -23.132  1.00  0.00     0.047 A 
ATOM      9  C   UNL     1       8.120 -58.623 -24.360  1.00  0.00     0.009 A 
ATOM     10  C   UNL     1       7.559 -60.931 -23.944  1.00  0.00     0.009 A 
BRANCH   6  11
ATOM     11  O   UNL     1       5.194 -58.904 -22.089  1.00  0.00    -0.497 OA
ATOM     12  C   UNL     1       3.935 -58.683 -22.717  1.00  0.00     0.278 C 
ENDBRANCH   6  11
ENDBRANCH   3   5
ENDBRANCH   1   3
BRANCH   1  13
ATOM     13  S   UNL     1      12.085 -59.518 -25.065  1.00  0.00     0.304 S 
ATOM     14  O   UNL     1      13.300 -60.245 -24.798  1.00  0.00    -0.189 OA
ATOM     15  O   UNL     1      11.809 -58.999 -26.384  1.00  0.00    -0.189 OA
BRANCH  13  16
ATOM     16  N   UNL     1      11.927 -58.273 -24.030  1.00  0.00    -0.205 N 
ATOM     17  C   UNL     1      11.542 -58.354 -22.706  1.00  0.00     0.422 C 
ATOM     18  H   UNL     1      11.953 -57.351 -24.444  1.00  0.00     0.188 HD
ATOM     19  O   UNL     1      11.299 -59.387 -22.104  1.00  0.00    -0.223 OA
BRANCH  17  20
ATOM     20  O   UNL     1      11.460 -57.113 -22.168  1.00  0.00    -0.444 OA
BRANCH  20  21
ATOM     21  C   UNL     1      10.299 -56.388 -22.572  1.00  0.00     0.270 C 
BRANCH  21  22
ATOM     22  C   UNL     1      10.657 -54.925 -22.602  1.00  0.00    -0.011 A 
ATOM     23  C   UNL     1      10.308 -54.088 -21.533  1.00  0.00     0.007 A 
ATOM     24  C   UNL     1      11.373 -54.386 -23.680  1.00  0.00     0.007 A 
ATOM     25  C   UNL     1      10.653 -52.735 -21.551  1.00  0.00     0.000 A 
ATOM     26  C   UNL     1      11.717 -53.034 -23.696  1.00  0.00     0.000 A 
ATOM     27  C   UNL     1      11.356 -52.208 -22.632  1.00  0.00     0.000 A 
ENDBRANCH  21  22
ENDBRANCH  20  21
ENDBRANCH  17  20
ENDBRANCH  13  16
ENDBRANCH   1  13
TORSDOF 8
ENDMDL
MODEL 2
REMARK VINA RESULT:    -9.472      2.612      3.705
REMARK INTER + INTRA:         -15.290
REMARK INTER:                 -14.273
REMARK INTRA:                  -1.017
REMARK UNBOUND:                -1.388
REMARK SMILES COc1ccc([C@H](C)NS(=O)(=O)NC(=O)OCc2ccccc2)cc1
REMARK SMILES IDX 9 1 7 3 8 4 6 5 3 6 4 7 25 8 5 9 24 10 2 11 1 12 10 13 11 14
REMARK SMILES IDX 12 15 13 16 14 17 15 19 16 20 17 21 18 22 19 23 23 24 20 25
REMARK SMILES IDX 22 26 21 27
REMARK H PARENT 9 2 13 18
ROOT
ATOM      1  N   UNL     1      10.353 -59.466 -23.647  1.00  0.00    -0.190 NA
ATOM      2  H   UNL     1      10.015 -58.921 -22.854  1.00  0.00     0.143 HD
ENDROOT
BRANCH   1   3
ATOM      3  C   UNL     1      10.349 -60.923 -23.390  1.00  0.00     0.098 C 
ATOM      4  C   UNL     1       9.824 -61.159 -21.968  1.00  0.00     0.031 C 
BRANCH   3   5
ATOM      5  C   UNL     1       9.519 -61.688 -24.403  1.00  0.00    -0.030 A 
ATOM      6  C   UNL     1       8.017 -63.182 -26.266  1.00  0.00     0.118 A 
ATOM      7  C   UNL     1       7.783 -63.324 -24.898  1.00  0.00     0.047 A 
ATOM      8  C   UNL     1       8.993 -62.284 -26.700  1.00  0.00     0.047 A 
ATOM      9  C   UNL     1       8.527 -62.582 -23.973  1.00  0.00     0.009 A 
ATOM     10  C   UNL     1       9.745 -61.550 -25.780  1.00  0.00     0.009 A 
BRANCH   6  11
ATOM     11  O   UNL     1       7.364 -63.845 -27.267  1.00  0.00    -0.497 OA
ATOM     12  C   UNL     1       7.969 -63.809 -28.555  1.00  0.00     0.278 C 
ENDBRANCH   6  11
ENDBRANCH   3   5
ENDBRANCH   1   3
BRANCH   1  13
ATOM     13  S   UNL     1      11.775 -58.758 -24.166  1.00  0.00     0.304 S 
ATOM     14  O   UNL     1      12.853 -59.416 -23.471  1.00  0.00    -0.189 OA
ATOM     15  O   UNL     1      11.734 -58.730 -25.609  1.00  0.00    -0.189 OA
BRANCH  13  16
ATOM     16  N   UNL     1      11.630 -57.218 -23.663  1.00  0.00    -0.205 N 
ATOM     17  C   UNL     1      11.379 -56.800 -22.370  1.00  0.00     0.422 C 
ATOM     18  H   UNL     1      11.553 -56.523 -24.393  1.00  0.00     0.188 HD
ATOM     19  O   UNL     1      11.266 -57.532 -21.401  1.00  0.00    -0.223 OA
BRANCH  17  20
ATOM     20  O   UNL     1      11.262 -55.450 -22.332  1.00  0.00    -0.444 OA
BRANCH  20  21
ATOM     21  C   UNL     1      10.732 -54.885 -23.531  1.00  0.00     0.270 C 
BRANCH  21  22
ATOM     22  C   UNL     1      11.598 -53.712 -23.909  1.00  0.00    -0.011 A 
ATOM     23  C   UNL     1      12.403 -53.766 -25.056  1.00  0.00     0.007 A 
ATOM     24  C   UNL     1      11.586 -52.538 -23.143  1.00  0.00     0.007 A 
ATOM     25  C   UNL     1      13.194 -52.674 -25.417  1.00  0.00     0.000 A 
ATOM     26  C   UNL     1      12.377 -51.448 -23.506  1.00  0.00     0.000 A 
ATOM     27  C   UNL     1      13.182 -51.516 -24.642  1.00  0.00     0.000 A 
ENDBRANCH  21  22
ENDBRANCH  20  21
ENDBRANCH  17  20
ENDBRANCH  13  16
ENDBRANCH   1  13
TORSDOF 8
ENDMDL
MODEL 3
REMARK VINA RESULT:    -9.408      2.968      6.930
REMARK INTER + INTRA:         -15.195
REMARK INTER:                 -14.446
REMARK INTRA:                  -0.749
REMARK UNBOUND:                -1.388
REMARK SMILES COc1ccc([C@H](C)NS(=O)(=O)NC(=O)OCc2ccccc2)cc1
REMARK SMILES IDX 9 1 7 3 8 4 6 5 3 6 4 7 25 8 5 9 24 10 2 11 1 12 10 13 11 14
REMARK SMILES IDX 12 15 13 16 14 17 15 19 16 20 17 21 18 22 19 23 23 24 20 25
REMARK SMILES IDX 22 26 21 27
REMARK H PARENT 9 2 13 18
ROOT
ATOM      1  N   UNL     1      12.636 -58.517 -24.597  1.00  0.00    -0.190 NA
ATOM      2  H   UNL     1      13.347 -59.140 -24.210  1.00  0.00     0.143 HD
ENDROOT
BRANCH   1   3
ATOM      3  C   UNL     1      11.526 -58.253 -23.655  1.00  0.00     0.098 C 
ATOM      4  C   UNL     1      11.761 -59.085 -22.389  1.00  0.00     0.031 C 
BRANCH   3   5
ATOM      5  C   UNL     1      11.395 -56.781 -23.314  1.00  0.00    -0.030 A 
ATOM      6  C   UNL     1      11.064 -54.053 -22.678  1.00  0.00     0.118 A 
ATOM      7  C   UNL     1      10.850 -55.032 -21.708  1.00  0.00     0.047 A 
ATOM      8  C   UNL     1      11.455 -54.439 -23.961  1.00  0.00     0.047 A 
ATOM      9  C   UNL     1      11.015 -56.386 -22.023  1.00  0.00     0.009 A 
ATOM     10  C   UNL     1      11.610 -55.789 -24.282  1.00  0.00     0.009 A 
BRANCH   6  11
ATOM     11  O   UNL     1      10.938 -52.703 -22.501  1.00  0.00    -0.497 OA
ATOM     12  C   UNL     1       9.615 -52.202 -22.348  1.00  0.00     0.278 C 
ENDBRANCH   6  11
ENDBRANCH   3   5
ENDBRANCH   1   3
BRANCH   1  13
ATOM     13  S   UNL     1      12.260 -59.083 -26.124  1.00  0.00     0.304 S 
ATOM     14  O   UNL     1      12.147 -57.933 -26.986  1.00  0.00    -0.189 OA
ATOM     15  O   UNL     1      13.192 -60.144 -26.426  1.00  0.00    -0.189 OA
BRANCH  13  16
ATOM     16  N   UNL     1      10.806 -59.781 -25.915  1.00  0.00    -0.205 N 
ATOM     17  C   UNL     1      10.033 -60.372 -26.896  1.00  0.00     0.422 C 
ATOM     18  H   UNL     1      10.364 -59.617 -25.021  1.00  0.00     0.188 HD
ATOM     19  O   UNL     1      10.350 -60.490 -28.068  1.00  0.00    -0.223 OA
BRANCH  17  20
ATOM     20  O   UNL     1       8.857 -60.794 -26.372  1.00  0.00    -0.444 OA
BRANCH  20  21
ATOM     21  C   UNL     1       8.700 -62.213 -26.384  1.00  0.00     0.270 C 
BRANCH  21  22
ATOM     22  C   UNL     1       8.790 -62.698 -24.961  1.00  0.00    -0.011 A 
ATOM     23  C   UNL     1       9.909 -62.385 -24.175  1.00  0.00     0.007 A 
ATOM     24  C   UNL     1       7.746 -63.438 -24.389  1.00  0.00     0.007 A 
ATOM     25  C   UNL     1       9.989 -62.819 -22.851  1.00  0.00     0.000 A 
ATOM     26  C   UNL     1       7.828 -63.871 -23.065  1.00  0.00     0.000 A 
ATOM     27  C   UNL     1       8.949 -63.563 -22.297  1.00  0.00     0.000 A 
ENDBRANCH  21  22
ENDBRANCH  20  21
ENDBRANCH  17  20
ENDBRANCH  13  16
ENDBRANCH   1  13
TORSDOF 8
ENDMDL
MODEL 4
REMARK VINA RESULT:    -9.345      2.567      4.609
REMARK INTER + INTRA:         -15.103
REMARK INTER:                 -13.953
REMARK INTRA:                  -1.151
REMARK UNBOUND:                -1.388
REMARK SMILES COc1ccc([C@H](C)NS(=O)(=O)NC(=O)OCc2ccccc2)cc1
REMARK SMILES IDX 9 1 7 3 8 4 6 5 3 6 4 7 25 8 5 9 24 10 2 11 1 12 10 13 11 14
REMARK SMILES IDX 12 15 13 16 14 17 15 19 16 20 17 21 18 22 19 23 23 24 20 25
REMARK SMILES IDX 22 26 21 27
REMARK H PARENT 9 2 13 18
ROOT
ATOM      1  N   UNL     1      10.245 -60.081 -23.111  1.00  0.00    -0.190 NA
ATOM      2  H   UNL     1       9.494 -60.429 -22.515  1.00  0.00     0.143 HD
ENDROOT
BRANCH   1   3
ATOM      3  C   UNL     1      10.895 -61.148 -23.905  1.00  0.00     0.098 C 
ATOM      4  C   UNL     1      10.033 -62.413 -23.806  1.00  0.00     0.031 C 
BRANCH   3   5
ATOM      5  C   UNL     1      11.099 -60.749 -25.354  1.00  0.00    -0.030 A 
ATOM      6  C   UNL     1      11.485 -60.092 -28.069  1.00  0.00     0.118 A 
ATOM      7  C   UNL     1      10.282 -60.656 -27.647  1.00  0.00     0.047 A 
ATOM      8  C   UNL     1      12.489 -59.846 -27.131  1.00  0.00     0.047 A 
ATOM      9  C   UNL     1      10.089 -60.981 -26.299  1.00  0.00     0.009 A 
ATOM     10  C   UNL     1      12.304 -60.179 -25.788  1.00  0.00     0.009 A 
BRANCH   6  11
ATOM     11  O   UNL     1      11.799 -59.730 -29.350  1.00  0.00    -0.497 OA
ATOM     12  C   UNL     1      12.103 -58.357 -29.568  1.00  0.00     0.278 C 
ENDBRANCH   6  11
ENDBRANCH   3   5
ENDBRANCH   1   3
BRANCH   1  13
ATOM     13  S   UNL     1      11.213 -59.098 -22.167  1.00  0.00     0.304 S 
ATOM     14  O   UNL     1      10.769 -59.249 -20.805  1.00  0.00    -0.189 OA
ATOM     15  O   UNL     1      12.582 -59.373 -22.533  1.00  0.00    -0.189 OA
BRANCH  13  16
ATOM     16  N   UNL     1      10.873 -57.604 -22.715  1.00  0.00    -0.205 N 
ATOM     17  C   UNL     1       9.635 -57.142 -23.116  1.00  0.00     0.422 C 
ATOM     18  H   UNL     1      11.672 -57.024 -22.934  1.00  0.00     0.188 HD
ATOM     19  O   UNL     1       8.598 -57.783 -23.081  1.00  0.00    -0.223 OA
BRANCH  17  20
ATOM     20  O   UNL     1       9.737 -55.868 -23.569  1.00  0.00    -0.444 OA
BRANCH  20  21
ATOM     21  C   UNL     1      10.225 -54.949 -22.593  1.00  0.00     0.270 C 
BRANCH  21  22
ATOM     22  C   UNL     1      11.158 -53.992 -23.287  1.00  0.00    -0.011 A 
ATOM     23  C   UNL     1      11.762 -54.348 -24.502  1.00  0.00     0.007 A 
ATOM     24  C   UNL     1      11.410 -52.722 -22.751  1.00  0.00     0.007 A 
ATOM     25  C   UNL     1      12.614 -53.457 -25.157  1.00  0.00     0.000 A 
ATOM     26  C   UNL     1      12.262 -51.833 -23.407  1.00  0.00     0.000 A 
ATOM     27  C   UNL     1      12.865 -52.201 -24.609  1.00  0.00     0.000 A 
ENDBRANCH  21  22
ENDBRANCH  20  21
ENDBRANCH  17  20
ENDBRANCH  13  16
ENDBRANCH   1  13
TORSDOF 8
ENDMDL
MODEL 5
REMARK VINA RESULT:    -9.118      3.806      8.891
REMARK INTER + INTRA:         -14.770
REMARK INTER:                 -13.762
REMARK INTRA:                  -1.008
REMARK UNBOUND:                -1.388
REMARK SMILES COc1ccc([C@H](C)NS(=O)(=O)NC(=O)OCc2ccccc2)cc1
REMARK SMILES IDX 9 1 7 3 8 4 6 5 3 6 4 7 25 8 5 9 24 10 2 11 1 12 10 13 11 14
REMARK SMILES IDX 12 15 13 16 14 17 15 19 16 20 17 21 18 22 19 23 23 24 20 25
REMARK SMILES IDX 22 26 21 27
REMARK H PARENT 9 2 13 18
ROOT
ATOM      1  N   UNL     1      11.807 -53.031 -22.351  1.00  0.00    -0.190 NA
ATOM      2  H   UNL     1      12.552 -52.986 -21.654  1.00  0.00     0.143 HD
ENDROOT
BRANCH   1   3
ATOM      3  C   UNL     1      11.464 -51.707 -22.915  1.00  0.00     0.098 C 
ATOM      4  C   UNL     1      11.503 -50.675 -21.781  1.00  0.00     0.031 C 
BRANCH   3   5
ATOM      5  C   UNL     1      12.393 -51.300 -24.043  1.00  0.00    -0.030 A 
ATOM      6  C   UNL     1      14.054 -50.508 -26.181  1.00  0.00     0.118 A 
ATOM      7  C   UNL     1      13.568 -49.561 -25.280  1.00  0.00     0.047 A 
ATOM      8  C   UNL     1      13.719 -51.851 -26.003  1.00  0.00     0.047 A 
ATOM      9  C   UNL     1      12.744 -49.954 -24.218  1.00  0.00     0.009 A 
ATOM     10  C   UNL     1      12.889 -52.246 -24.952  1.00  0.00     0.009 A 
BRANCH   6  11
ATOM     11  O   UNL     1      14.862 -50.258 -27.255  1.00  0.00    -0.497 OA
ATOM     12  C   UNL     1      16.076 -49.564 -26.991  1.00  0.00     0.278 C 
ENDBRANCH   6  11
ENDBRANCH   3   5
ENDBRANCH   1   3
BRANCH   1  13
ATOM     13  S   UNL     1      10.575 -53.956 -21.700  1.00  0.00     0.304 S 
ATOM     14  O   UNL     1      10.588 -53.737 -20.277  1.00  0.00    -0.189 OA
ATOM     15  O   UNL     1       9.389 -53.690 -22.479  1.00  0.00    -0.189 OA
BRANCH  13  16
ATOM     16  N   UNL     1      11.031 -55.478 -22.047  1.00  0.00    -0.205 N 
ATOM     17  C   UNL     1      11.391 -55.962 -23.289  1.00  0.00     0.422 C 
ATOM     18  H   UNL     1      10.872 -56.161 -21.317  1.00  0.00     0.188 HD
ATOM     19  O   UNL     1      11.459 -55.300 -24.311  1.00  0.00    -0.223 OA
BRANCH  17  20
ATOM     20  O   UNL     1      11.651 -57.291 -23.215  1.00  0.00    -0.444 OA
BRANCH  20  21
ATOM     21  C   UNL     1      11.090 -57.922 -22.064  1.00  0.00     0.270 C 
BRANCH  21  22
ATOM     22  C   UNL     1      10.908 -59.382 -22.383  1.00  0.00    -0.011 A 
ATOM     23  C   UNL     1      10.056 -60.177 -21.603  1.00  0.00     0.007 A 
ATOM     24  C   UNL     1      11.557 -59.961 -23.482  1.00  0.00     0.007 A 
ATOM     25  C   UNL     1       9.872 -61.527 -21.905  1.00  0.00     0.000 A 
ATOM     26  C   UNL     1      11.372 -61.311 -23.783  1.00  0.00     0.000 A 
ATOM     27  C   UNL     1      10.532 -62.094 -22.994  1.00  0.00     0.000 A 
ENDBRANCH  21  22
ENDBRANCH  20  21
ENDBRANCH  17  20
ENDBRANCH  13  16
ENDBRANCH   1  13
TORSDOF 8
ENDMDL
MODEL 6
REMARK VINA RESULT:    -9.111      2.866      7.913
REMARK INTER + INTRA:         -14.760
REMARK INTER:                 -14.126
REMARK INTRA:                  -0.634
REMARK UNBOUND:                -1.388
REMARK SMILES COc1ccc([C@H](C)NS(=O)(=O)NC(=O)OCc2ccccc2)cc1
REMARK SMILES IDX 9 1 7 3 8 4 6 5 3 6 4 7 25 8 5 9 24 10 2 11 1 12 10 13 11 14
REMARK SMILES IDX 12 15 13 16 14 17 15 19 16 20 17 21 18 22 19 23 23 24 20 25
REMARK SMILES IDX 22 26 21 27
REMARK H PARENT 9 2 13 18
ROOT
ATOM      1  N   UNL     1      10.481 -54.895 -23.865  1.00  0.00    -0.190 NA
ATOM      2  H   UNL     1      10.032 -55.122 -24.752  1.00  0.00     0.143 HD
ENDROOT
BRANCH   1   3
ATOM      3  C   UNL     1      11.799 -54.244 -24.034  1.00  0.00     0.098 C 
ATOM      4  C   UNL     1      12.179 -54.307 -25.519  1.00  0.00     0.031 C 
BRANCH   3   5
ATOM      5  C   UNL     1      11.806 -52.811 -23.539  1.00  0.00    -0.030 A 
ATOM      6  C   UNL     1      11.737 -50.136 -22.646  1.00  0.00     0.118 A 
ATOM      7  C   UNL     1      11.001 -51.117 -21.984  1.00  0.00     0.047 A 
ATOM      8  C   UNL     1      12.517 -50.497 -23.747  1.00  0.00     0.047 A 
ATOM      9  C   UNL     1      11.035 -52.446 -22.425  1.00  0.00     0.009 A 
ATOM     10  C   UNL     1      12.545 -51.818 -24.197  1.00  0.00     0.009 A 
BRANCH   6  11
ATOM     11  O   UNL     1      11.790 -48.810 -22.319  1.00  0.00    -0.497 OA
ATOM     12  C   UNL     1      10.979 -47.930 -23.090  1.00  0.00     0.278 C 
ENDBRANCH   6  11
ENDBRANCH   3   5
ENDBRANCH   1   3
BRANCH   1  13
ATOM     13  S   UNL     1      10.390 -56.257 -22.900  1.00  0.00     0.304 S 
ATOM     14  O   UNL     1      11.028 -55.934 -21.649  1.00  0.00    -0.189 OA
ATOM     15  O   UNL     1       9.020 -56.711 -22.935  1.00  0.00    -0.189 OA
BRANCH  13  16
ATOM     16  N   UNL     1      11.268 -57.354 -23.720  1.00  0.00    -0.205 N 
ATOM     17  C   UNL     1      11.861 -58.485 -23.194  1.00  0.00     0.422 C 
ATOM     18  H   UNL     1      11.537 -57.089 -24.658  1.00  0.00     0.188 HD
ATOM     19  O   UNL     1      11.778 -58.851 -22.033  1.00  0.00    -0.223 OA
BRANCH  17  20
ATOM     20  O   UNL     1      12.563 -59.133 -24.156  1.00  0.00    -0.444 OA
BRANCH  20  21
ATOM     21  C   UNL     1      12.726 -60.529 -23.907  1.00  0.00     0.270 C 
BRANCH  21  22
ATOM     22  C   UNL     1      11.430 -61.213 -24.255  1.00  0.00    -0.011 A 
ATOM     23  C   UNL     1      10.836 -62.107 -23.353  1.00  0.00     0.007 A 
ATOM     24  C   UNL     1      10.781 -60.940 -25.467  1.00  0.00     0.007 A 
ATOM     25  C   UNL     1       9.627 -62.730 -23.666  1.00  0.00     0.000 A 
ATOM     26  C   UNL     1       9.572 -61.564 -25.778  1.00  0.00     0.000 A 
ATOM     27  C   UNL     1       8.996 -62.459 -24.878  1.00  0.00     0.000 A 
ENDBRANCH  21  22
ENDBRANCH  20  21
ENDBRANCH  17  20
ENDBRANCH  13  16
ENDBRANCH   1  13
TORSDOF 8
ENDMDL
MODEL 7
REMARK VINA RESULT:    -9.086      1.863      6.008
REMARK INTER + INTRA:         -14.722
REMARK INTER:                 -14.006
REMARK INTRA:                  -0.717
REMARK UNBOUND:                -1.388
REMARK SMILES COc1ccc([C@H](C)NS(=O)(=O)NC(=O)OCc2ccccc2)cc1
REMARK SMILES IDX 9 1 7 3 8 4 6 5 3 6 4 7 25 8 5 9 24 10 2 11 1 12 10 13 11 14
REMARK SMILES IDX 12 15 13 16 14 17 15 19 16 20 17 21 18 22 19 23 23 24 20 25
REMARK SMILES IDX 22 26 21 27
REMARK H PARENT 9 2 13 18
ROOT
ATOM      1  N   UNL     1      12.536 -58.691 -24.206  1.00  0.00    -0.190 NA
ATOM      2  H   UNL     1      13.239 -59.219 -23.689  1.00  0.00     0.143 HD
ENDROOT
BRANCH   1   3
ATOM      3  C   UNL     1      11.413 -58.238 -23.356  1.00  0.00     0.098 C 
ATOM      4  C   UNL     1      11.570 -58.877 -21.971  1.00  0.00     0.031 C 
BRANCH   3   5
ATOM      5  C   UNL     1      11.343 -56.727 -23.245  1.00  0.00    -0.030 A 
ATOM      6  C   UNL     1      11.129 -53.921 -23.048  1.00  0.00     0.118 A 
ATOM      7  C   UNL     1      10.721 -54.733 -21.990  1.00  0.00     0.047 A 
ATOM      8  C   UNL     1      11.654 -54.513 -24.197  1.00  0.00     0.047 A 
ATOM      9  C   UNL     1      10.828 -56.126 -22.087  1.00  0.00     0.009 A 
ATOM     10  C   UNL     1      11.753 -55.901 -24.302  1.00  0.00     0.009 A 
BRANCH   6  11
ATOM     11  O   UNL     1      11.076 -52.556 -23.080  1.00  0.00    -0.497 OA
ATOM     12  C   UNL     1      12.322 -51.869 -23.023  1.00  0.00     0.278 C 
ENDBRANCH   6  11
ENDBRANCH   3   5
ENDBRANCH   1   3
BRANCH   1  13
ATOM     13  S   UNL     1      12.180 -59.561 -25.588  1.00  0.00     0.304 S 
ATOM     14  O   UNL     1      11.846 -58.607 -26.615  1.00  0.00    -0.189 OA
ATOM     15  O   UNL     1      13.252 -60.509 -25.781  1.00  0.00    -0.189 OA
BRANCH  13  16
ATOM     16  N   UNL     1      10.867 -60.420 -25.160  1.00  0.00    -0.205 N 
ATOM     17  C   UNL     1      10.833 -61.471 -24.265  1.00  0.00     0.422 C 
ATOM     18  H   UNL     1      10.042 -60.274 -25.727  1.00  0.00     0.188 HD
ATOM     19  O   UNL     1      11.788 -61.887 -23.629  1.00  0.00    -0.223 OA
BRANCH  17  20
ATOM     20  O   UNL     1       9.582 -61.988 -24.200  1.00  0.00    -0.444 OA
BRANCH  20  21
ATOM     21  C   UNL     1       8.663 -61.383 -25.109  1.00  0.00     0.270 C 
BRANCH  21  22
ATOM     22  C   UNL     1       7.860 -60.365 -24.342  1.00  0.00    -0.011 A 
ATOM     23  C   UNL     1       8.088 -58.994 -24.532  1.00  0.00     0.007 A 
ATOM     24  C   UNL     1       6.852 -60.768 -23.456  1.00  0.00     0.007 A 
ATOM     25  C   UNL     1       7.335 -58.048 -23.835  1.00  0.00     0.000 A 
ATOM     26  C   UNL     1       6.100 -59.821 -22.760  1.00  0.00     0.000 A 
ATOM     27  C   UNL     1       6.342 -58.462 -22.949  1.00  0.00     0.000 A 
ENDBRANCH  21  22
ENDBRANCH  20  21
ENDBRANCH  17  20
ENDBRANCH  13  16
ENDBRANCH   1  13
TORSDOF 8
ENDMDL
MODEL 8
REMARK VINA RESULT:    -8.758      1.137      2.101
REMARK INTER + INTRA:         -14.241
REMARK INTER:                 -13.604
REMARK INTRA:                  -0.637
REMARK UNBOUND:                -1.388
REMARK SMILES COc1ccc([C@H](C)NS(=O)(=O)NC(=O)OCc2ccccc2)cc1
REMARK SMILES IDX 9 1 7 3 8 4 6 5 3 6 4 7 25 8 5 9 24 10 2 11 1 12 10 13 11 14
REMARK SMILES IDX 12 15 13 16 14 17 15 19 16 20 17 21 18 22 19 23 23 24 20 25
REMARK SMILES IDX 22 26 21 27
REMARK H PARENT 9 2 13 18
ROOT
ATOM      1  N   UNL     1      10.712 -60.360 -23.887  1.00  0.00    -0.190 NA
ATOM      2  H   UNL     1      11.236 -61.088 -24.375  1.00  0.00     0.143 HD
ENDROOT
BRANCH   1   3
ATOM      3  C   UNL     1       9.688 -59.716 -24.738  1.00  0.00     0.098 C 
ATOM      4  C   UNL     1       9.480 -60.586 -25.983  1.00  0.00     0.031 C 
BRANCH   3   5
ATOM      5  C   UNL     1       8.377 -59.504 -24.005  1.00  0.00    -0.030 A 
ATOM      6  C   UNL     1       5.896 -59.119 -22.719  1.00  0.00     0.118 A 
ATOM      7  C   UNL     1       6.258 -60.383 -23.183  1.00  0.00     0.047 A 
ATOM      8  C   UNL     1       6.780 -58.052 -22.888  1.00  0.00     0.047 A 
ATOM      9  C   UNL     1       7.490 -60.575 -23.821  1.00  0.00     0.009 A 
ATOM     10  C   UNL     1       8.004 -58.237 -23.533  1.00  0.00     0.009 A 
BRANCH   6  11
ATOM     11  O   UNL     1       4.729 -58.799 -22.084  1.00  0.00    -0.497 OA
ATOM     12  C   UNL     1       3.649 -58.376 -22.909  1.00  0.00     0.278 C 
ENDBRANCH   6  11
ENDBRANCH   3   5
ENDBRANCH   1   3
BRANCH   1  13
ATOM     13  S   UNL     1      11.827 -59.384 -23.113  1.00  0.00     0.304 S 
ATOM     14  O   UNL     1      11.496 -59.392 -21.711  1.00  0.00    -0.189 OA
ATOM     15  O   UNL     1      13.135 -59.791 -23.567  1.00  0.00    -0.189 OA
BRANCH  13  16
ATOM     16  N   UNL     1      11.545 -57.916 -23.755  1.00  0.00    -0.205 N 
ATOM     17  C   UNL     1      11.347 -56.741 -23.055  1.00  0.00     0.422 C 
ATOM     18  H   UNL     1      11.332 -57.902 -24.744  1.00  0.00     0.188 HD
ATOM     19  O   UNL     1      11.393 -56.626 -21.842  1.00  0.00    -0.223 OA
BRANCH  17  20
ATOM     20  O   UNL     1      11.078 -55.727 -23.914  1.00  0.00    -0.444 OA
BRANCH  20  21
ATOM     21  C   UNL     1      10.130 -54.785 -23.412  1.00  0.00     0.270 C 
BRANCH  21  22
ATOM     22  C   UNL     1      10.867 -53.506 -23.112  1.00  0.00    -0.011 A 
ATOM     23  C   UNL     1      11.907 -53.075 -23.947  1.00  0.00     0.007 A 
ATOM     24  C   UNL     1      10.503 -52.711 -22.017  1.00  0.00     0.007 A 
ATOM     25  C   UNL     1      12.581 -51.882 -23.681  1.00  0.00     0.000 A 
ATOM     26  C   UNL     1      11.177 -51.519 -21.752  1.00  0.00     0.000 A 
ATOM     27  C   UNL     1      12.217 -51.105 -22.583  1.00  0.00     0.000 A 
ENDBRANCH  21  22
ENDBRANCH  20  21
ENDBRANCH  17  20
ENDBRANCH  13  16
ENDBRANCH   1  13
TORSDOF 8
ENDMDL
MODEL 9
REMARK VINA RESULT:    -8.633      3.809      8.712
REMARK INTER + INTRA:         -14.058
REMARK INTER:                 -13.110
REMARK INTRA:                  -0.949
REMARK UNBOUND:                -1.388
REMARK SMILES COc1ccc([C@H](C)NS(=O)(=O)NC(=O)OCc2ccccc2)cc1
REMARK SMILES IDX 9 1 7 3 8 4 6 5 3 6 4 7 25 8 5 9 24 10 2 11 1 12 10 13 11 14
REMARK SMILES IDX 12 15 13 16 14 17 15 19 16 20 17 21 18 22 19 23 23 24 20 25
REMARK SMILES IDX 22 26 21 27
REMARK H PARENT 9 2 13 18
ROOT
ATOM      1  N   UNL     1      10.609 -53.294 -23.238  1.00  0.00    -0.190 NA
ATOM      2  H   UNL     1      10.070 -53.878 -23.878  1.00  0.00     0.143 HD
ENDROOT
BRANCH   1   3
ATOM      3  C   UNL     1      12.016 -53.120 -23.662  1.00  0.00     0.098 C 
ATOM      4  C   UNL     1      12.250 -53.971 -24.917  1.00  0.00     0.031 C 
BRANCH   3   5
ATOM      5  C   UNL     1      12.366 -51.668 -23.926  1.00  0.00    -0.030 A 
ATOM      6  C   UNL     1      12.936 -48.954 -24.442  1.00  0.00     0.118 A 
ATOM      7  C   UNL     1      12.156 -49.312 -23.342  1.00  0.00     0.047 A 
ATOM      8  C   UNL     1      13.439 -49.954 -25.274  1.00  0.00     0.047 A 
ATOM      9  C   UNL     1      11.874 -50.659 -23.085  1.00  0.00     0.009 A 
ATOM     10  C   UNL     1      13.152 -51.298 -25.027  1.00  0.00     0.009 A 
BRANCH   6  11
ATOM     11  O   UNL     1      13.282 -47.682 -24.803  1.00  0.00    -0.497 OA
ATOM     12  C   UNL     1      13.158 -46.678 -23.801  1.00  0.00     0.278 C 
ENDBRANCH   6  11
ENDBRANCH   3   5
ENDBRANCH   1   3
BRANCH   1  13
ATOM     13  S   UNL     1      10.313 -53.851 -21.691  1.00  0.00     0.304 S 
ATOM     14  O   UNL     1      11.012 -52.975 -20.784  1.00  0.00    -0.189 OA
ATOM     15  O   UNL     1       8.888 -54.049 -21.576  1.00  0.00    -0.189 OA
BRANCH  13  16
ATOM     16  N   UNL     1      10.993 -55.329 -21.690  1.00  0.00    -0.205 N 
ATOM     17  C   UNL     1      10.685 -56.371 -22.543  1.00  0.00     0.422 C 
ATOM     18  H   UNL     1      11.569 -55.547 -20.888  1.00  0.00     0.188 HD
ATOM     19  O   UNL     1       9.877 -56.321 -23.455  1.00  0.00    -0.223 OA
BRANCH  17  20
ATOM     20  O   UNL     1      11.404 -57.471 -22.213  1.00  0.00    -0.444 OA
BRANCH  20  21
ATOM     21  C   UNL     1      11.669 -58.337 -23.316  1.00  0.00     0.270 C 
BRANCH  21  22
ATOM     22  C   UNL     1      11.134 -59.701 -22.969  1.00  0.00    -0.011 A 
ATOM     23  C   UNL     1      10.331 -59.880 -21.833  1.00  0.00     0.007 A 
ATOM     24  C   UNL     1      11.398 -60.805 -23.792  1.00  0.00     0.007 A 
ATOM     25  C   UNL     1       9.820 -61.140 -21.518  1.00  0.00     0.000 A 
ATOM     26  C   UNL     1      10.887 -62.064 -23.476  1.00  0.00     0.000 A 
ATOM     27  C   UNL     1      10.099 -62.232 -22.338  1.00  0.00     0.000 A 
ENDBRANCH  21  22
ENDBRANCH  20  21
ENDBRANCH  17  20
ENDBRANCH  13  16
ENDBRANCH   1  13
TORSDOF 8
ENDMDL
