MODEL 1
REMARK VINA RESULT:   -11.905      0.000      0.000
REMARK INTER + INTRA:         -15.953
REMARK INTER:                 -15.733
REMARK INTRA:                  -0.220
REMARK UNBOUND:                -0.220
REMARK SMILES O=c1nc2ccccc2c(O)n1CC[C@H]1CC[N@H+](Cc2ccccc2)CC1
REMARK SMILES IDX 13 1 12 2 10 3 9 4 8 5 4 6 2 7 7 8 5 9 3 10 6 11 1 12 11 13
REMARK SMILES IDX 14 15 15 16 27 17 16 18 26 19 17 20 18 21 19 23 20 24 21 25
REMARK SMILES IDX 25 26 22 27 24 28 23 29
REMARK H PARENT 11 14 18 22
ROOT
ATOM      1  C   UNL     1      10.201 -55.169 -22.902  1.00  0.00     0.131 C 
ENDROOT
BRANCH   1   2
ATOM      2  N   UNL     1      10.956 -53.958 -23.212  1.00  0.00    -0.262 N 
ATOM      3  C   UNL     1      11.736 -53.878 -24.349  1.00  0.00     0.204 A 
ATOM      4  C   UNL     1      12.448 -52.774 -24.634  1.00  0.00     0.061 A 
ATOM      5  C   UNL     1      13.315 -52.551 -25.778  1.00  0.00     0.016 A 
ATOM      6  C   UNL     1      12.293 -51.690 -23.616  1.00  0.00     0.081 A 
ATOM      7  C   UNL     1      10.907 -52.921 -22.272  1.00  0.00     0.350 A 
ATOM      8  C   UNL     1      13.949 -51.380 -25.938  1.00  0.00     0.001 A 
ATOM      9  C   UNL     1      13.031 -50.427 -23.896  1.00  0.00     0.029 A 
ATOM     10  N   UNL     1      11.588 -51.766 -22.538  1.00  0.00    -0.193 NA
ATOM     11  C   UNL     1      13.796 -50.306 -24.988  1.00  0.00     0.002 A 
ATOM     12  O   UNL     1      10.272 -53.049 -21.227  1.00  0.00    -0.246 OA
BRANCH   3  13
ATOM     13  O   UNL     1      11.722 -55.009 -25.142  1.00  0.00    -0.494 OA
ATOM     14  H   UNL     1      12.496 -54.998 -25.726  1.00  0.00     0.295 HD
ENDBRANCH   3  13
ENDBRANCH   1   2
BRANCH   1  15
ATOM     15  C   UNL     1      11.032 -56.155 -22.070  1.00  0.00     0.026 C 
BRANCH  15  16
ATOM     16  C   UNL     1      10.930 -57.608 -22.571  1.00  0.00     0.002 C 
ATOM     17  C   UNL     1       9.539 -57.946 -23.121  1.00  0.00     0.065 C 
ATOM     18  C   UNL     1      11.994 -57.867 -23.647  1.00  0.00     0.065 C 
ATOM     19  C   UNL     1       9.475 -59.368 -23.668  1.00  0.00     0.262 C 
ATOM     20  C   UNL     1      11.925 -59.291 -24.177  1.00  0.00     0.262 C 
ATOM     21  N   UNL     1      10.544 -59.561 -24.718  1.00  0.00    -0.331 N 
ATOM     22  H   UNL     1      10.359 -58.878 -25.464  1.00  0.00     0.348 HD
BRANCH  21  23
ATOM     23  C   UNL     1      10.472 -60.925 -25.377  1.00  0.00     0.299 C 
BRANCH  23  24
ATOM     24  C   UNL     1       9.709 -61.934 -24.562  1.00  0.00     0.006 A 
ATOM     25  C   UNL     1       8.449 -62.385 -24.984  1.00  0.00     0.009 A 
ATOM     26  C   UNL     1      10.255 -62.452 -23.378  1.00  0.00     0.009 A 
ATOM     27  C   UNL     1       7.755 -63.340 -24.240  1.00  0.00     0.001 A 
ATOM     28  C   UNL     1       9.557 -63.406 -22.636  1.00  0.00     0.001 A 
ATOM     29  C   UNL     1       8.311 -63.851 -23.068  1.00  0.00     0.000 A 
ENDBRANCH  23  24
ENDBRANCH  21  23
ENDBRANCH  15  16
ENDBRANCH   1  15
TORSDOF 6
ENDMDL
MODEL 2
REMARK VINA RESULT:   -11.621      1.192      2.419
REMARK INTER + INTRA:         -15.578
REMARK INTER:                 -15.048
REMARK INTRA:                  -0.530
REMARK UNBOUND:                -0.220
REMARK SMILES O=c1nc2ccccc2c(O)n1CC[C@H]1CC[N@H+](Cc2ccccc2)CC1
REMARK SMILES IDX 13 1 12 2 10 3 9 4 8 5 4 6 2 7 7 8 5 9 3 10 6 11 1 12 11 13
REMARK SMILES IDX 14 15 15 16 27 17 16 18 26 19 17 20 18 21 19 23 20 24 21 25
REMARK SMILES IDX 25 26 22 27 24 28 23 29
REMARK H PARENT 11 14 18 22
ROOT
ATOM      1  C   UNL     1      10.431 -55.545 -23.131  1.00  0.00     0.131 C 
ENDROOT
BRANCH   1   2
ATOM      2  N   UNL     1      11.078 -54.269 -23.421  1.00  0.00    -0.262 N 
ATOM      3  C   UNL     1      10.777 -53.136 -22.691  1.00  0.00     0.204 A 
ATOM      4  C   UNL     1      11.356 -51.954 -22.962  1.00  0.00     0.061 A 
ATOM      5  C   UNL     1      11.132 -50.684 -22.293  1.00  0.00     0.016 A 
ATOM      6  C   UNL     1      12.325 -52.015 -24.099  1.00  0.00     0.081 A 
ATOM      7  C   UNL     1      11.956 -54.236 -24.513  1.00  0.00     0.350 A 
ATOM      8  C   UNL     1      11.803 -49.585 -22.666  1.00  0.00     0.001 A 
ATOM      9  C   UNL     1      13.026 -50.741 -24.425  1.00  0.00     0.029 A 
ATOM     10  N   UNL     1      12.592 -53.062 -24.805  1.00  0.00    -0.193 NA
ATOM     11  C   UNL     1      12.766 -49.621 -23.740  1.00  0.00     0.002 A 
ATOM     12  O   UNL     1      12.143 -55.239 -25.200  1.00  0.00    -0.246 OA
BRANCH   3  13
ATOM     13  O   UNL     1       9.849 -53.325 -21.686  1.00  0.00    -0.494 OA
ATOM     14  H   UNL     1      10.309 -53.585 -20.873  1.00  0.00     0.295 HD
ENDBRANCH   3  13
ENDBRANCH   1   2
BRANCH   1  15
ATOM     15  C   UNL     1      11.090 -56.255 -21.940  1.00  0.00     0.026 C 
BRANCH  15  16
ATOM     16  C   UNL     1      11.454 -57.722 -22.234  1.00  0.00     0.002 C 
ATOM     17  C   UNL     1      10.697 -58.709 -21.336  1.00  0.00     0.065 C 
ATOM     18  C   UNL     1      11.182 -58.045 -23.710  1.00  0.00     0.065 C 
ATOM     19  C   UNL     1      11.023 -60.158 -21.683  1.00  0.00     0.262 C 
ATOM     20  C   UNL     1      11.520 -59.490 -24.043  1.00  0.00     0.262 C 
ATOM     21  N   UNL     1      10.737 -60.411 -23.144  1.00  0.00    -0.331 N 
ATOM     22  H   UNL     1       9.737 -60.221 -23.292  1.00  0.00     0.348 HD
BRANCH  21  23
ATOM     23  C   UNL     1      10.945 -61.863 -23.534  1.00  0.00     0.299 C 
BRANCH  23  24
ATOM     24  C   UNL     1       9.667 -62.559 -23.916  1.00  0.00     0.006 A 
ATOM     25  C   UNL     1       9.036 -63.436 -23.020  1.00  0.00     0.009 A 
ATOM     26  C   UNL     1       9.077 -62.326 -25.168  1.00  0.00     0.009 A 
ATOM     27  C   UNL     1       7.838 -64.059 -23.367  1.00  0.00     0.001 A 
ATOM     28  C   UNL     1       7.878 -62.953 -25.512  1.00  0.00     0.001 A 
ATOM     29  C   UNL     1       7.259 -63.816 -24.611  1.00  0.00     0.000 A 
ENDBRANCH  23  24
ENDBRANCH  21  23
ENDBRANCH  15  16
ENDBRANCH   1  15
TORSDOF 6
ENDMDL
MODEL 3
REMARK VINA RESULT:   -11.094      2.439      8.740
REMARK INTER + INTRA:         -14.881
REMARK INTER:                 -14.413
REMARK INTRA:                  -0.468
REMARK UNBOUND:                -0.220
REMARK SMILES O=c1nc2ccccc2c(O)n1CC[C@H]1CC[N@H+](Cc2ccccc2)CC1
REMARK SMILES IDX 13 1 12 2 10 3 9 4 8 5 4 6 2 7 7 8 5 9 3 10 6 11 1 12 11 13
REMARK SMILES IDX 14 15 15 16 27 17 16 18 26 19 17 20 18 21 19 23 20 24 21 25
REMARK SMILES IDX 25 26 22 27 24 28 23 29
REMARK H PARENT 11 14 18 22
ROOT
ATOM      1  C   UNL     1      11.379 -60.836 -23.104  1.00  0.00     0.131 C 
ENDROOT
BRANCH   1   2
ATOM      2  N   UNL     1      10.849 -61.022 -24.452  1.00  0.00    -0.262 N 
ATOM      3  C   UNL     1       9.879 -61.970 -24.710  1.00  0.00     0.204 A 
ATOM      4  C   UNL     1       9.398 -62.160 -25.951  1.00  0.00     0.061 A 
ATOM      5  C   UNL     1       8.393 -63.119 -26.373  1.00  0.00     0.016 A 
ATOM      6  C   UNL     1      10.012 -61.254 -26.970  1.00  0.00     0.081 A 
ATOM      7  C   UNL     1      11.421 -60.249 -25.471  1.00  0.00     0.350 A 
ATOM      8  C   UNL     1       7.997 -63.178 -27.653  1.00  0.00     0.001 A 
ATOM      9  C   UNL     1       9.494 -61.393 -28.359  1.00  0.00     0.029 A 
ATOM     10  N   UNL     1      10.939 -60.385 -26.743  1.00  0.00    -0.193 NA
ATOM     11  C   UNL     1       8.551 -62.298 -28.652  1.00  0.00     0.002 A 
ATOM     12  O   UNL     1      12.343 -59.472 -25.228  1.00  0.00    -0.246 OA
BRANCH   3  13
ATOM     13  O   UNL     1       9.464 -62.689 -23.607  1.00  0.00    -0.494 OA
ATOM     14  H   UNL     1       8.804 -62.171 -23.120  1.00  0.00     0.295 HD
ENDBRANCH   3  13
ENDBRANCH   1   2
BRANCH   1  15
ATOM     15  C   UNL     1      10.280 -60.422 -22.116  1.00  0.00     0.026 C 
BRANCH  15  16
ATOM     16  C   UNL     1      10.094 -58.896 -22.019  1.00  0.00     0.002 C 
ATOM     17  C   UNL     1      11.428 -58.141 -21.985  1.00  0.00     0.065 C 
ATOM     18  C   UNL     1       9.240 -58.396 -23.194  1.00  0.00     0.065 C 
ATOM     19  C   UNL     1      11.224 -56.630 -21.952  1.00  0.00     0.262 C 
ATOM     20  C   UNL     1       9.038 -56.890 -23.143  1.00  0.00     0.262 C 
ATOM     21  N   UNL     1      10.378 -56.201 -23.127  1.00  0.00    -0.331 N 
ATOM     22  H   UNL     1      10.884 -56.478 -23.979  1.00  0.00     0.348 HD
BRANCH  21  23
ATOM     23  C   UNL     1      10.220 -54.695 -23.211  1.00  0.00     0.299 C 
BRANCH  23  24
ATOM     24  C   UNL     1      11.339 -54.026 -23.963  1.00  0.00     0.006 A 
ATOM     25  C   UNL     1      11.937 -54.659 -25.063  1.00  0.00     0.009 A 
ATOM     26  C   UNL     1      11.788 -52.751 -23.585  1.00  0.00     0.009 A 
ATOM     27  C   UNL     1      12.956 -54.025 -25.775  1.00  0.00     0.001 A 
ATOM     28  C   UNL     1      12.809 -52.121 -24.299  1.00  0.00     0.001 A 
ATOM     29  C   UNL     1      13.390 -52.757 -25.393  1.00  0.00     0.000 A 
ENDBRANCH  23  24
ENDBRANCH  21  23
ENDBRANCH  15  16
ENDBRANCH   1  15
TORSDOF 6
ENDMDL
MODEL 4
REMARK VINA RESULT:   -10.983      1.449      2.174
REMARK INTER + INTRA:         -14.734
REMARK INTER:                 -14.113
REMARK INTRA:                  -0.622
REMARK UNBOUND:                -0.220
REMARK SMILES O=c1nc2ccccc2c(O)n1CC[C@H]1CC[N@H+](Cc2ccccc2)CC1
REMARK SMILES IDX 13 1 12 2 10 3 9 4 8 5 4 6 2 7 7 8 5 9 3 10 6 11 1 12 11 13
REMARK SMILES IDX 14 15 15 16 27 17 16 18 26 19 17 20 18 21 19 23 20 24 21 25
REMARK SMILES IDX 25 26 22 27 24 28 23 29
REMARK H PARENT 11 14 18 22
ROOT
ATOM      1  C   UNL     1      10.736 -55.919 -22.508  1.00  0.00     0.131 C 
ENDROOT
BRANCH   1   2
ATOM      2  N   UNL     1      11.235 -54.622 -22.958  1.00  0.00    -0.262 N 
ATOM      3  C   UNL     1      11.937 -54.502 -24.141  1.00  0.00     0.204 A 
ATOM      4  C   UNL     1      12.414 -53.316 -24.555  1.00  0.00     0.061 A 
ATOM      5  C   UNL     1      13.175 -53.040 -25.761  1.00  0.00     0.016 A 
ATOM      6  C   UNL     1      12.100 -52.192 -23.621  1.00  0.00     0.081 A 
ATOM      7  C   UNL     1      11.029 -53.531 -22.104  1.00  0.00     0.350 A 
ATOM      8  C   UNL     1      13.569 -51.791 -26.052  1.00  0.00     0.001 A 
ATOM      9  C   UNL     1      12.573 -50.844 -24.043  1.00  0.00     0.029 A 
ATOM     10  N   UNL     1      11.468 -52.299 -22.500  1.00  0.00    -0.193 NA
ATOM     11  C   UNL     1      13.255 -50.683 -25.184  1.00  0.00     0.002 A 
ATOM     12  O   UNL     1      10.474 -53.680 -21.016  1.00  0.00    -0.246 OA
BRANCH   3  13
ATOM     13  O   UNL     1      12.104 -55.683 -24.838  1.00  0.00    -0.494 OA
ATOM     14  H   UNL     1      11.522 -55.679 -25.614  1.00  0.00     0.295 HD
ENDBRANCH   3  13
ENDBRANCH   1   2
BRANCH   1  15
ATOM     15  C   UNL     1       9.269 -56.129 -22.906  1.00  0.00     0.026 C 
BRANCH  15  16
ATOM     16  C   UNL     1       8.847 -57.611 -22.908  1.00  0.00     0.002 C 
ATOM     17  C   UNL     1       7.950 -57.967 -24.099  1.00  0.00     0.065 C 
ATOM     18  C   UNL     1      10.092 -58.510 -22.904  1.00  0.00     0.065 C 
ATOM     19  C   UNL     1       7.593 -59.449 -24.118  1.00  0.00     0.262 C 
ATOM     20  C   UNL     1       9.721 -59.985 -22.915  1.00  0.00     0.262 C 
ATOM     21  N   UNL     1       8.855 -60.279 -24.112  1.00  0.00    -0.331 N 
ATOM     22  H   UNL     1       9.386 -60.025 -24.955  1.00  0.00     0.348 HD
BRANCH  21  23
ATOM     23  C   UNL     1       8.574 -61.765 -24.232  1.00  0.00     0.299 C 
BRANCH  23  24
ATOM     24  C   UNL     1       8.551 -62.247 -25.658  1.00  0.00     0.006 A 
ATOM     25  C   UNL     1       7.675 -63.271 -26.050  1.00  0.00     0.009 A 
ATOM     26  C   UNL     1       9.393 -61.667 -26.619  1.00  0.00     0.009 A 
ATOM     27  C   UNL     1       7.638 -63.697 -27.378  1.00  0.00     0.001 A 
ATOM     28  C   UNL     1       9.353 -62.097 -27.946  1.00  0.00     0.001 A 
ATOM     29  C   UNL     1       8.474 -63.109 -28.325  1.00  0.00     0.000 A 
ENDBRANCH  23  24
ENDBRANCH  21  23
ENDBRANCH  15  16
ENDBRANCH   1  15
TORSDOF 6
ENDMDL
MODEL 5
REMARK VINA RESULT:   -10.539      1.879      9.595
REMARK INTER + INTRA:         -14.147
REMARK INTER:                 -14.257
REMARK INTRA:                   0.110
REMARK UNBOUND:                -0.220
REMARK SMILES O=c1nc2ccccc2c(O)n1CC[C@H]1CC[N@H+](Cc2ccccc2)CC1
REMARK SMILES IDX 13 1 12 2 10 3 9 4 8 5 4 6 2 7 7 8 5 9 3 10 6 11 1 12 11 13
REMARK SMILES IDX 14 15 15 16 27 17 16 18 26 19 17 20 18 21 19 23 20 24 21 25
REMARK SMILES IDX 25 26 22 27 24 28 23 29
REMARK H PARENT 11 14 18 22
ROOT
ATOM      1  C   UNL     1      10.965 -58.163 -23.466  1.00  0.00     0.131 C 
ENDROOT
BRANCH   1   2
ATOM      2  N   UNL     1      10.006 -59.264 -23.455  1.00  0.00    -0.262 N 
ATOM      3  C   UNL     1      10.400 -60.547 -23.128  1.00  0.00     0.204 A 
ATOM      4  C   UNL     1       9.528 -61.569 -23.132  1.00  0.00     0.061 A 
ATOM      5  C   UNL     1       9.797 -62.963 -22.824  1.00  0.00     0.016 A 
ATOM      6  C   UNL     1       8.140 -61.163 -23.513  1.00  0.00     0.081 A 
ATOM      7  C   UNL     1       8.697 -58.970 -23.859  1.00  0.00     0.350 A 
ATOM      8  C   UNL     1       8.812 -63.873 -22.852  1.00  0.00     0.001 A 
ATOM      9  C   UNL     1       7.119 -62.249 -23.501  1.00  0.00     0.029 A 
ATOM     10  N   UNL     1       7.769 -59.973 -23.846  1.00  0.00    -0.193 NA
ATOM     11  C   UNL     1       7.458 -63.505 -23.187  1.00  0.00     0.002 A 
ATOM     12  O   UNL     1       8.392 -57.837 -24.226  1.00  0.00    -0.246 OA
BRANCH   3  13
ATOM     13  O   UNL     1      11.737 -60.678 -22.810  1.00  0.00    -0.494 OA
ATOM     14  H   UNL     1      11.817 -61.076 -21.929  1.00  0.00     0.295 HD
ENDBRANCH   3  13
ENDBRANCH   1   2
BRANCH   1  15
ATOM     15  C   UNL     1      10.948 -57.386 -22.143  1.00  0.00     0.026 C 
BRANCH  15  16
ATOM     16  C   UNL     1      10.629 -55.889 -22.321  1.00  0.00     0.002 C 
ATOM     17  C   UNL     1      11.031 -55.051 -21.102  1.00  0.00     0.065 C 
ATOM     18  C   UNL     1      11.327 -55.351 -23.578  1.00  0.00     0.065 C 
ATOM     19  C   UNL     1      10.765 -53.565 -21.321  1.00  0.00     0.262 C 
ATOM     20  C   UNL     1      11.046 -53.871 -23.789  1.00  0.00     0.262 C 
ATOM     21  N   UNL     1      11.475 -53.097 -22.569  1.00  0.00    -0.331 N 
ATOM     22  H   UNL     1      12.479 -53.267 -22.426  1.00  0.00     0.348 HD
BRANCH  21  23
ATOM     23  C   UNL     1      11.335 -51.603 -22.792  1.00  0.00     0.299 C 
BRANCH  23  24
ATOM     24  C   UNL     1      12.258 -51.078 -23.857  1.00  0.00     0.006 A 
ATOM     25  C   UNL     1      12.871 -51.954 -24.766  1.00  0.00     0.009 A 
ATOM     26  C   UNL     1      12.506 -49.701 -23.968  1.00  0.00     0.009 A 
ATOM     27  C   UNL     1      13.706 -51.461 -25.769  1.00  0.00     0.001 A 
ATOM     28  C   UNL     1      13.343 -49.212 -24.973  1.00  0.00     0.001 A 
ATOM     29  C   UNL     1      13.940 -50.091 -25.873  1.00  0.00     0.000 A 
ENDBRANCH  23  24
ENDBRANCH  21  23
ENDBRANCH  15  16
ENDBRANCH   1  15
TORSDOF 6
ENDMDL
MODEL 6
REMARK VINA RESULT:   -10.378      1.959      9.386
REMARK INTER + INTRA:         -13.935
REMARK INTER:                 -13.619
REMARK INTRA:                  -0.316
REMARK UNBOUND:                -0.220
REMARK SMILES O=c1nc2ccccc2c(O)n1CC[C@H]1CC[N@H+](Cc2ccccc2)CC1
REMARK SMILES IDX 13 1 12 2 10 3 9 4 8 5 4 6 2 7 7 8 5 9 3 10 6 11 1 12 11 13
REMARK SMILES IDX 14 15 15 16 27 17 16 18 26 19 17 20 18 21 19 23 20 24 21 25
REMARK SMILES IDX 25 26 22 27 24 28 23 29
REMARK H PARENT 11 14 18 22
ROOT
ATOM      1  C   UNL     1      10.868 -57.473 -23.044  1.00  0.00     0.131 C 
ENDROOT
BRANCH   1   2
ATOM      2  N   UNL     1      10.493 -58.869 -22.835  1.00  0.00    -0.262 N 
ATOM      3  C   UNL     1       9.944 -59.619 -23.856  1.00  0.00     0.204 A 
ATOM      4  C   UNL     1       9.581 -60.899 -23.668  1.00  0.00     0.061 A 
ATOM      5  C   UNL     1       8.986 -61.802 -24.638  1.00  0.00     0.016 A 
ATOM      6  C   UNL     1       9.837 -61.390 -22.279  1.00  0.00     0.081 A 
ATOM      7  C   UNL     1      10.649 -59.381 -21.540  1.00  0.00     0.350 A 
ATOM      8  C   UNL     1       8.693 -63.068 -24.306  1.00  0.00     0.001 A 
ATOM      9  C   UNL     1       9.487 -62.814 -22.019  1.00  0.00     0.029 A 
ATOM     10  N   UNL     1      10.323 -60.689 -21.311  1.00  0.00    -0.193 NA
ATOM     11  C   UNL     1       8.956 -63.578 -22.982  1.00  0.00     0.002 A 
ATOM     12  O   UNL     1      11.061 -58.667 -20.627  1.00  0.00    -0.246 OA
BRANCH   3  13
ATOM     13  O   UNL     1       9.803 -58.949 -25.055  1.00  0.00    -0.494 OA
ATOM     14  H   UNL     1      10.683 -58.753 -25.415  1.00  0.00     0.295 HD
ENDBRANCH   3  13
ENDBRANCH   1   2
BRANCH   1  15
ATOM     15  C   UNL     1       9.700 -56.523 -22.744  1.00  0.00     0.026 C 
BRANCH  15  16
ATOM     16  C   UNL     1      10.003 -55.056 -23.102  1.00  0.00     0.002 C 
ATOM     17  C   UNL     1       9.901 -54.120 -21.892  1.00  0.00     0.065 C 
ATOM     18  C   UNL     1      11.401 -54.948 -23.729  1.00  0.00     0.065 C 
ATOM     19  C   UNL     1      10.264 -52.684 -22.252  1.00  0.00     0.262 C 
ATOM     20  C   UNL     1      11.746 -53.512 -24.091  1.00  0.00     0.262 C 
ATOM     21  N   UNL     1      11.645 -52.643 -22.864  1.00  0.00    -0.331 N 
ATOM     22  H   UNL     1      12.296 -53.015 -22.161  1.00  0.00     0.348 HD
BRANCH  21  23
ATOM     23  C   UNL     1      12.111 -51.229 -23.154  1.00  0.00     0.299 C 
BRANCH  23  24
ATOM     24  C   UNL     1      13.359 -51.182 -23.993  1.00  0.00     0.006 A 
ATOM     25  C   UNL     1      13.296 -50.813 -25.346  1.00  0.00     0.009 A 
ATOM     26  C   UNL     1      14.608 -51.487 -23.430  1.00  0.00     0.009 A 
ATOM     27  C   UNL     1      14.458 -50.744 -26.114  1.00  0.00     0.001 A 
ATOM     28  C   UNL     1      15.768 -51.418 -24.202  1.00  0.00     0.001 A 
ATOM     29  C   UNL     1      15.693 -51.044 -25.542  1.00  0.00     0.000 A 
ENDBRANCH  23  24
ENDBRANCH  21  23
ENDBRANCH  15  16
ENDBRANCH   1  15
TORSDOF 6
ENDMDL
MODEL 7
REMARK VINA RESULT:   -10.298      2.103      3.280
REMARK INTER + INTRA:         -13.829
REMARK INTER:                 -13.167
REMARK INTRA:                  -0.663
REMARK UNBOUND:                -0.220
REMARK SMILES O=c1nc2ccccc2c(O)n1CC[C@H]1CC[N@H+](Cc2ccccc2)CC1
REMARK SMILES IDX 13 1 12 2 10 3 9 4 8 5 4 6 2 7 7 8 5 9 3 10 6 11 1 12 11 13
REMARK SMILES IDX 14 15 15 16 27 17 16 18 26 19 17 20 18 21 19 23 20 24 21 25
REMARK SMILES IDX 25 26 22 27 24 28 23 29
REMARK H PARENT 11 14 18 22
ROOT
ATOM      1  C   UNL     1      10.825 -52.268 -21.615  1.00  0.00     0.131 C 
ENDROOT
BRANCH   1   2
ATOM      2  N   UNL     1      10.938 -50.950 -22.233  1.00  0.00    -0.262 N 
ATOM      3  C   UNL     1      12.070 -50.589 -22.937  1.00  0.00     0.204 A 
ATOM      4  C   UNL     1      12.189 -49.372 -23.495  1.00  0.00     0.061 A 
ATOM      5  C   UNL     1      13.316 -48.850 -24.248  1.00  0.00     0.016 A 
ATOM      6  C   UNL     1      10.995 -48.498 -23.273  1.00  0.00     0.081 A 
ATOM      7  C   UNL     1       9.882 -50.055 -22.017  1.00  0.00     0.350 A 
ATOM      8  C   UNL     1      13.281 -47.613 -24.764  1.00  0.00     0.001 A 
ATOM      9  C   UNL     1      11.054 -47.148 -23.898  1.00  0.00     0.029 A 
ATOM     10  N   UNL     1       9.945 -48.818 -22.594  1.00  0.00    -0.193 NA
ATOM     11  C   UNL     1      12.131 -46.758 -24.591  1.00  0.00     0.002 A 
ATOM     12  O   UNL     1       8.922 -50.372 -21.316  1.00  0.00    -0.246 OA
BRANCH   3  13
ATOM     13  O   UNL     1      13.043 -51.565 -23.008  1.00  0.00    -0.494 OA
ATOM     14  H   UNL     1      12.641 -52.392 -23.318  1.00  0.00     0.295 HD
ENDBRANCH   3  13
ENDBRANCH   1   2
BRANCH   1  15
ATOM     15  C   UNL     1      10.170 -53.283 -22.563  1.00  0.00     0.026 C 
BRANCH  15  16
ATOM     16  C   UNL     1      11.042 -54.527 -22.816  1.00  0.00     0.002 C 
ATOM     17  C   UNL     1      10.397 -55.815 -22.291  1.00  0.00     0.065 C 
ATOM     18  C   UNL     1      11.336 -54.665 -24.317  1.00  0.00     0.065 C 
ATOM     19  C   UNL     1      11.245 -57.044 -22.605  1.00  0.00     0.262 C 
ATOM     20  C   UNL     1      12.189 -55.888 -24.614  1.00  0.00     0.262 C 
ATOM     21  N   UNL     1      11.501 -57.122 -24.091  1.00  0.00    -0.331 N 
ATOM     22  H   UNL     1      10.584 -57.190 -24.551  1.00  0.00     0.348 HD
BRANCH  21  23
ATOM     23  C   UNL     1      12.255 -58.378 -24.485  1.00  0.00     0.299 C 
BRANCH  23  24
ATOM     24  C   UNL     1      11.407 -59.620 -24.420  1.00  0.00     0.006 A 
ATOM     25  C   UNL     1      10.195 -59.693 -25.124  1.00  0.00     0.009 A 
ATOM     26  C   UNL     1      11.826 -60.729 -23.670  1.00  0.00     0.009 A 
ATOM     27  C   UNL     1       9.424 -60.855 -25.083  1.00  0.00     0.001 A 
ATOM     28  C   UNL     1      11.050 -61.889 -23.631  1.00  0.00     0.001 A 
ATOM     29  C   UNL     1       9.853 -61.952 -24.339  1.00  0.00     0.000 A 
ENDBRANCH  23  24
ENDBRANCH  21  23
ENDBRANCH  15  16
ENDBRANCH   1  15
TORSDOF 6
ENDMDL
MODEL 8
REMARK VINA RESULT:   -10.115      2.570      4.274
REMARK INTER + INTRA:         -13.588
REMARK INTER:                 -13.211
REMARK INTRA:                  -0.376
REMARK UNBOUND:                -0.220
REMARK SMILES O=c1nc2ccccc2c(O)n1CC[C@H]1CC[N@H+](Cc2ccccc2)CC1
REMARK SMILES IDX 13 1 12 2 10 3 9 4 8 5 4 6 2 7 7 8 5 9 3 10 6 11 1 12 11 13
REMARK SMILES IDX 14 15 15 16 27 17 16 18 26 19 17 20 18 21 19 23 20 24 21 25
REMARK SMILES IDX 25 26 22 27 24 28 23 29
REMARK H PARENT 11 14 18 22
ROOT
ATOM      1  C   UNL     1      11.274 -51.218 -21.657  1.00  0.00     0.131 C 
ENDROOT
BRANCH   1   2
ATOM      2  N   UNL     1      11.781 -50.126 -22.483  1.00  0.00    -0.262 N 
ATOM      3  C   UNL     1      11.045 -48.972 -22.667  1.00  0.00     0.204 A 
ATOM      4  C   UNL     1      11.497 -47.968 -23.439  1.00  0.00     0.061 A 
ATOM      5  C   UNL     1      10.834 -46.710 -23.732  1.00  0.00     0.016 A 
ATOM      6  C   UNL     1      12.837 -48.242 -24.043  1.00  0.00     0.081 A 
ATOM      7  C   UNL     1      13.006 -50.335 -23.130  1.00  0.00     0.350 A 
ATOM      8  C   UNL     1      11.423 -45.791 -24.511  1.00  0.00     0.001 A 
ATOM      9  C   UNL     1      13.407 -47.151 -24.882  1.00  0.00     0.029 A 
ATOM     10  N   UNL     1      13.520 -49.328 -23.899  1.00  0.00    -0.193 NA
ATOM     11  C   UNL     1      12.728 -46.015 -25.083  1.00  0.00     0.002 A 
ATOM     12  O   UNL     1      13.602 -51.405 -23.017  1.00  0.00    -0.246 OA
BRANCH   3  13
ATOM     13  O   UNL     1       9.833 -48.947 -22.006  1.00  0.00    -0.494 OA
ATOM     14  H   UNL     1       9.122 -49.134 -22.639  1.00  0.00     0.295 HD
ENDBRANCH   3  13
ENDBRANCH   1   2
BRANCH   1  15
ATOM     15  C   UNL     1      10.460 -52.221 -22.485  1.00  0.00     0.026 C 
BRANCH  15  16
ATOM     16  C   UNL     1      11.139 -53.597 -22.612  1.00  0.00     0.002 C 
ATOM     17  C   UNL     1      10.426 -54.685 -21.799  1.00  0.00     0.065 C 
ATOM     18  C   UNL     1      11.212 -54.012 -24.089  1.00  0.00     0.065 C 
ATOM     19  C   UNL     1      11.076 -56.052 -21.986  1.00  0.00     0.262 C 
ATOM     20  C   UNL     1      11.870 -55.372 -24.260  1.00  0.00     0.262 C 
ATOM     21  N   UNL     1      11.120 -56.401 -23.455  1.00  0.00    -0.331 N 
ATOM     22  H   UNL     1      10.148 -56.415 -23.790  1.00  0.00     0.348 HD
BRANCH  21  23
ATOM     23  C   UNL     1      11.664 -57.795 -23.705  1.00  0.00     0.299 C 
BRANCH  23  24
ATOM     24  C   UNL     1      10.803 -58.878 -23.115  1.00  0.00     0.006 A 
ATOM     25  C   UNL     1       9.676 -59.349 -23.807  1.00  0.00     0.009 A 
ATOM     26  C   UNL     1      11.124 -59.447 -21.873  1.00  0.00     0.009 A 
ATOM     27  C   UNL     1       8.894 -60.372 -23.269  1.00  0.00     0.001 A 
ATOM     28  C   UNL     1      10.339 -60.469 -21.339  1.00  0.00     0.001 A 
ATOM     29  C   UNL     1       9.227 -60.932 -22.038  1.00  0.00     0.000 A 
ENDBRANCH  23  24
ENDBRANCH  21  23
ENDBRANCH  15  16
ENDBRANCH   1  15
TORSDOF 6
ENDMDL
MODEL 9
REMARK VINA RESULT:    -9.187      3.430      6.051
REMARK INTER + INTRA:         -12.361
REMARK INTER:                 -11.845
REMARK INTRA:                  -0.515
REMARK UNBOUND:                -0.220
REMARK SMILES O=c1nc2ccccc2c(O)n1CC[C@H]1CC[N@H+](Cc2ccccc2)CC1
REMARK SMILES IDX 13 1 12 2 10 3 9 4 8 5 4 6 2 7 7 8 5 9 3 10 6 11 1 12 11 13
REMARK SMILES IDX 14 15 15 16 27 17 16 18 26 19 17 20 18 21 19 23 20 24 21 25
REMARK SMILES IDX 25 26 22 27 24 28 23 29
REMARK H PARENT 11 14 18 22
ROOT
ATOM      1  C   UNL     1      13.157 -50.141 -22.497  1.00  0.00     0.131 C 
ENDROOT
BRANCH   1   2
ATOM      2  N   UNL     1      13.043 -48.732 -22.862  1.00  0.00    -0.262 N 
ATOM      3  C   UNL     1      11.828 -48.079 -22.806  1.00  0.00     0.204 A 
ATOM      4  C   UNL     1      11.710 -46.786 -23.156  1.00  0.00     0.061 A 
ATOM      5  C   UNL     1      10.505 -45.976 -23.158  1.00  0.00     0.016 A 
ATOM      6  C   UNL     1      13.001 -46.170 -23.591  1.00  0.00     0.081 A 
ATOM      7  C   UNL     1      14.201 -48.103 -23.337  1.00  0.00     0.350 A 
ATOM      8  C   UNL     1      10.548 -44.685 -23.518  1.00  0.00     0.001 A 
ATOM      9  C   UNL     1      12.942 -44.728 -23.958  1.00  0.00     0.029 A 
ATOM     10  N   UNL     1      14.136 -46.780 -23.673  1.00  0.00    -0.193 NA
ATOM     11  C   UNL     1      11.784 -44.056 -23.914  1.00  0.00     0.002 A 
ATOM     12  O   UNL     1      15.253 -48.731 -23.458  1.00  0.00    -0.246 OA
BRANCH   3  13
ATOM     13  O   UNL     1      10.772 -48.856 -22.372  1.00  0.00    -0.494 OA
ATOM     14  H   UNL     1      10.030 -48.758 -22.989  1.00  0.00     0.295 HD
ENDBRANCH   3  13
ENDBRANCH   1   2
BRANCH   1  15
ATOM     15  C   UNL     1      13.277 -51.039 -23.736  1.00  0.00     0.026 C 
BRANCH  15  16
ATOM     16  C   UNL     1      12.109 -52.031 -23.883  1.00  0.00     0.002 C 
ATOM     17  C   UNL     1      12.541 -53.363 -24.507  1.00  0.00     0.065 C 
ATOM     18  C   UNL     1      11.459 -52.282 -22.514  1.00  0.00     0.065 C 
ATOM     19  C   UNL     1      11.385 -54.355 -24.588  1.00  0.00     0.262 C 
ATOM     20  C   UNL     1      10.303 -53.265 -22.611  1.00  0.00     0.262 C 
ATOM     21  N   UNL     1      10.789 -54.558 -23.215  1.00  0.00    -0.331 N 
ATOM     22  H   UNL     1      11.537 -54.924 -22.613  1.00  0.00     0.348 HD
BRANCH  21  23
ATOM     23  C   UNL     1       9.697 -55.610 -23.206  1.00  0.00     0.299 C 
BRANCH  23  24
ATOM     24  C   UNL     1      10.153 -56.928 -22.639  1.00  0.00     0.006 A 
ATOM     25  C   UNL     1      11.153 -56.973 -21.656  1.00  0.00     0.009 A 
ATOM     26  C   UNL     1       9.572 -58.129 -23.074  1.00  0.00     0.009 A 
ATOM     27  C   UNL     1      11.556 -58.194 -21.114  1.00  0.00     0.001 A 
ATOM     28  C   UNL     1       9.979 -59.348 -22.530  1.00  0.00     0.001 A 
ATOM     29  C   UNL     1      10.967 -59.379 -21.549  1.00  0.00     0.000 A 
ENDBRANCH  23  24
ENDBRANCH  21  23
ENDBRANCH  15  16
ENDBRANCH   1  15
TORSDOF 6
ENDMDL
