MODEL 1
REMARK VINA RESULT:    -8.780      0.000      0.000
REMARK INTER + INTRA:          -9.037
REMARK INTER:                  -9.037
REMARK INTRA:                   0.000
REMARK UNBOUND:                 0.000
REMARK SMILES Nc1c2c(nc3cc(Cl)ccc13)CCCC2
REMARK SMILES IDX 2 1 3 2 4 3 5 4 6 5 7 6 8 7 9 8 10 9 11 10 12 11 13 12 14 13
REMARK SMILES IDX 15 14 16 15 1 16
REMARK H PARENT 1 17 1 18
ROOT
ATOM      1  C   UNL     1      12.040 -51.331 -22.695  1.00  0.00     0.046 A 
ATOM      2  C   UNL     1      12.684 -50.865 -23.858  1.00  0.00    -0.003 A 
ATOM      3  C   UNL     1      12.914 -51.781 -24.887  1.00  0.00     0.046 A 
ATOM      4  N   UNL     1      12.484 -53.063 -24.845  1.00  0.00    -0.252 NA
ATOM      5  C   UNL     1      11.784 -53.479 -23.784  1.00  0.00     0.074 A 
ATOM      6  C   UNL     1      11.312 -54.784 -23.799  1.00  0.00     0.049 A 
ATOM      7  C   UNL     1      10.555 -55.291 -22.748  1.00  0.00     0.043 A 
ATOM      8  Cl  UNL     1       9.984 -56.914 -22.807  1.00  0.00    -0.084 Cl
ATOM      9  C   UNL     1      10.250 -54.493 -21.657  1.00  0.00     0.021 A 
ATOM     10  C   UNL     1      10.721 -53.181 -21.621  1.00  0.00     0.014 A 
ATOM     11  C   UNL     1      11.506 -52.650 -22.677  1.00  0.00     0.024 A 
ATOM     12  C   UNL     1      13.616 -51.389 -26.162  1.00  0.00     0.056 C 
ATOM     13  C   UNL     1      14.433 -50.110 -26.033  1.00  0.00     0.007 C 
ATOM     14  C   UNL     1      13.588 -49.025 -25.383  1.00  0.00     0.005 C 
ATOM     15  C   UNL     1      13.180 -49.442 -23.971  1.00  0.00     0.039 C 
ENDROOT
BRANCH   1  16
ATOM     16  N   UNL     1      11.757 -50.428 -21.641  1.00  0.00    -0.398 N 
ATOM     17  H   UNL     1      10.819 -50.526 -21.267  1.00  0.00     0.156 HD
ATOM     18  H   UNL     1      12.440 -50.446 -20.890  1.00  0.00     0.156 HD
ENDBRANCH   1  16
TORSDOF 1
ENDMDL
MODEL 2
REMARK VINA RESULT:    -8.665      2.737      5.809
REMARK INTER + INTRA:          -8.918
REMARK INTER:                  -8.918
REMARK INTRA:                   0.000
REMARK UNBOUND:                 0.000
REMARK SMILES Nc1c2c(nc3cc(Cl)ccc13)CCCC2
REMARK SMILES IDX 2 1 3 2 4 3 5 4 6 5 7 6 8 7 9 8 10 9 11 10 12 11 13 12 14 13
REMARK SMILES IDX 15 14 16 15 1 16
REMARK H PARENT 1 17 1 18
ROOT
ATOM      1  C   UNL     1      12.528 -53.411 -24.820  1.00  0.00     0.046 A 
ATOM      2  C   UNL     1      11.724 -53.667 -23.692  1.00  0.00    -0.003 A 
ATOM      3  C   UNL     1      11.508 -52.618 -22.795  1.00  0.00     0.046 A 
ATOM      4  N   UNL     1      11.970 -51.363 -23.001  1.00  0.00    -0.252 NA
ATOM      5  C   UNL     1      12.649 -51.095 -24.122  1.00  0.00     0.074 A 
ATOM      6  C   UNL     1      13.061 -49.787 -24.324  1.00  0.00     0.049 A 
ATOM      7  C   UNL     1      13.750 -49.416 -25.474  1.00  0.00     0.043 A 
ATOM      8  Cl  UNL     1      14.241 -47.780 -25.691  1.00  0.00    -0.084 Cl
ATOM      9  C   UNL     1      14.037 -50.355 -26.452  1.00  0.00     0.021 A 
ATOM     10  C   UNL     1      13.636 -51.678 -26.262  1.00  0.00     0.014 A 
ATOM     11  C   UNL     1      12.944 -52.078 -25.090  1.00  0.00     0.024 A 
ATOM     12  C   UNL     1      10.682 -52.793 -21.547  1.00  0.00     0.056 C 
ATOM     13  C   UNL     1      10.524 -54.249 -21.127  1.00  0.00     0.007 C 
ATOM     14  C   UNL     1      10.097 -55.084 -22.324  1.00  0.00     0.005 C 
ATOM     15  C   UNL     1      11.170 -55.045 -23.411  1.00  0.00     0.039 C 
ENDROOT
BRANCH   1  16
ATOM     16  N   UNL     1      12.746 -54.438 -25.773  1.00  0.00    -0.398 N 
ATOM     17  H   UNL     1      13.274 -54.131 -26.582  1.00  0.00     0.156 HD
ATOM     18  H   UNL     1      13.156 -55.280 -25.381  1.00  0.00     0.156 HD
ENDBRANCH   1  16
TORSDOF 1
ENDMDL
MODEL 3
REMARK VINA RESULT:    -8.622      2.526      5.218
REMARK INTER + INTRA:          -8.874
REMARK INTER:                  -8.874
REMARK INTRA:                   0.000
REMARK UNBOUND:                 0.000
REMARK SMILES Nc1c2c(nc3cc(Cl)ccc13)CCCC2
REMARK SMILES IDX 2 1 3 2 4 3 5 4 6 5 7 6 8 7 9 8 10 9 11 10 12 11 13 12 14 13
REMARK SMILES IDX 15 14 16 15 1 16
REMARK H PARENT 1 17 1 18
ROOT
ATOM      1  C   UNL     1      11.879 -51.209 -22.771  1.00  0.00     0.046 A 
ATOM      2  C   UNL     1      11.524 -52.568 -22.662  1.00  0.00    -0.003 A 
ATOM      3  C   UNL     1      11.801 -53.402 -23.748  1.00  0.00     0.046 A 
ATOM      4  N   UNL     1      12.455 -52.982 -24.855  1.00  0.00    -0.252 NA
ATOM      5  C   UNL     1      12.881 -51.716 -24.917  1.00  0.00     0.074 A 
ATOM      6  C   UNL     1      13.594 -51.334 -26.044  1.00  0.00     0.049 A 
ATOM      7  C   UNL     1      14.096 -50.044 -26.179  1.00  0.00     0.043 A 
ATOM      8  Cl  UNL     1      14.980 -49.610 -27.591  1.00  0.00    -0.084 Cl
ATOM      9  C   UNL     1      13.894 -49.106 -25.179  1.00  0.00     0.021 A 
ATOM     10  C   UNL     1      13.173 -49.470 -24.041  1.00  0.00     0.014 A 
ATOM     11  C   UNL     1      12.643 -50.777 -23.891  1.00  0.00     0.024 A 
ATOM     12  C   UNL     1      11.442 -54.866 -23.740  1.00  0.00     0.056 C 
ATOM     13  C   UNL     1      10.377 -55.222 -22.710  1.00  0.00     0.007 C 
ATOM     14  C   UNL     1      10.750 -54.626 -21.361  1.00  0.00     0.005 C 
ATOM     15  C   UNL     1      10.801 -53.101 -21.447  1.00  0.00     0.039 C 
ENDROOT
BRANCH   1  16
ATOM     16  N   UNL     1      11.646 -50.334 -21.681  1.00  0.00    -0.398 N 
ATOM     17  H   UNL     1      10.798 -50.549 -21.167  1.00  0.00     0.156 HD
ATOM     18  H   UNL     1      12.433 -50.252 -21.046  1.00  0.00     0.156 HD
ENDBRANCH   1  16
TORSDOF 1
ENDMDL
MODEL 4
REMARK VINA RESULT:    -8.373      5.776      9.364
REMARK INTER + INTRA:          -8.618
REMARK INTER:                  -8.618
REMARK INTRA:                   0.000
REMARK UNBOUND:                 0.000
REMARK SMILES Nc1c2c(nc3cc(Cl)ccc13)CCCC2
REMARK SMILES IDX 2 1 3 2 4 3 5 4 6 5 7 6 8 7 9 8 10 9 11 10 12 11 13 12 14 13
REMARK SMILES IDX 15 14 16 15 1 16
REMARK H PARENT 1 17 1 18
ROOT
ATOM      1  C   UNL     1      10.625 -60.445 -23.380  1.00  0.00     0.046 A 
ATOM      2  C   UNL     1       9.456 -61.206 -23.574  1.00  0.00    -0.003 A 
ATOM      3  C   UNL     1       8.226 -60.552 -23.453  1.00  0.00     0.046 A 
ATOM      4  N   UNL     1       8.115 -59.222 -23.236  1.00  0.00    -0.252 NA
ATOM      5  C   UNL     1       9.225 -58.481 -23.153  1.00  0.00     0.074 A 
ATOM      6  C   UNL     1       9.073 -57.113 -22.983  1.00  0.00     0.049 A 
ATOM      7  C   UNL     1      10.173 -56.266 -22.912  1.00  0.00     0.043 A 
ATOM      8  Cl  UNL     1       9.942 -54.573 -22.706  1.00  0.00    -0.084 Cl
ATOM      9  C   UNL     1      11.457 -56.777 -23.014  1.00  0.00     0.021 A 
ATOM     10  C   UNL     1      11.631 -58.151 -23.178  1.00  0.00     0.014 A 
ATOM     11  C   UNL     1      10.521 -59.033 -23.240  1.00  0.00     0.024 A 
ATOM     12  C   UNL     1       6.917 -61.280 -23.619  1.00  0.00     0.056 C 
ATOM     13  C   UNL     1       7.039 -62.790 -23.453  1.00  0.00     0.007 C 
ATOM     14  C   UNL     1       8.194 -63.306 -24.298  1.00  0.00     0.005 C 
ATOM     15  C   UNL     1       9.513 -62.694 -23.829  1.00  0.00     0.039 C 
ENDROOT
BRANCH   1  16
ATOM     16  N   UNL     1      11.894 -61.060 -23.526  1.00  0.00    -0.398 N 
ATOM     17  H   UNL     1      11.850 -62.074 -23.542  1.00  0.00     0.156 HD
ATOM     18  H   UNL     1      12.428 -60.717 -24.318  1.00  0.00     0.156 HD
ENDBRANCH   1  16
TORSDOF 1
ENDMDL
MODEL 5
REMARK VINA RESULT:    -8.359      8.650     10.820
REMARK INTER + INTRA:          -8.603
REMARK INTER:                  -8.603
REMARK INTRA:                   0.000
REMARK UNBOUND:                 0.000
REMARK SMILES Nc1c2c(nc3cc(Cl)ccc13)CCCC2
REMARK SMILES IDX 2 1 3 2 4 3 5 4 6 5 7 6 8 7 9 8 10 9 11 10 12 11 13 12 14 13
REMARK SMILES IDX 15 14 16 15 1 16
REMARK H PARENT 1 17 1 18
ROOT
ATOM      1  C   UNL     1      10.888 -61.287 -24.361  1.00  0.00     0.046 A 
ATOM      2  C   UNL     1       9.782 -62.135 -24.151  1.00  0.00    -0.003 A 
ATOM      3  C   UNL     1       8.911 -62.345 -25.223  1.00  0.00     0.046 A 
ATOM      4  N   UNL     1       9.123 -61.836 -26.458  1.00  0.00    -0.252 NA
ATOM      5  C   UNL     1      10.225 -61.115 -26.684  1.00  0.00     0.074 A 
ATOM      6  C   UNL     1      10.437 -60.654 -27.975  1.00  0.00     0.049 A 
ATOM      7  C   UNL     1      11.570 -59.917 -28.303  1.00  0.00     0.043 A 
ATOM      8  Cl  UNL     1      11.799 -59.367 -29.918  1.00  0.00    -0.084 Cl
ATOM      9  C   UNL     1      12.521 -59.629 -27.337  1.00  0.00     0.021 A 
ATOM     10  C   UNL     1      12.323 -60.078 -26.032  1.00  0.00     0.014 A 
ATOM     11  C   UNL     1      11.167 -60.820 -25.675  1.00  0.00     0.024 A 
ATOM     12  C   UNL     1       7.687 -63.216 -25.096  1.00  0.00     0.056 C 
ATOM     13  C   UNL     1       7.247 -63.434 -23.654  1.00  0.00     0.007 C 
ATOM     14  C   UNL     1       8.443 -63.849 -22.811  1.00  0.00     0.005 C 
ATOM     15  C   UNL     1       9.496 -62.741 -22.797  1.00  0.00     0.039 C 
ENDROOT
BRANCH   1  16
ATOM     16  N   UNL     1      11.815 -61.072 -23.310  1.00  0.00    -0.398 N 
ATOM     17  H   UNL     1      11.410 -60.606 -22.506  1.00  0.00     0.156 HD
ATOM     18  H   UNL     1      12.309 -61.911 -23.022  1.00  0.00     0.156 HD
ENDBRANCH   1  16
TORSDOF 1
ENDMDL
MODEL 6
REMARK VINA RESULT:    -8.317      7.275     10.419
REMARK INTER + INTRA:          -8.560
REMARK INTER:                  -8.560
REMARK INTRA:                   0.000
REMARK UNBOUND:                 0.000
REMARK SMILES Nc1c2c(nc3cc(Cl)ccc13)CCCC2
REMARK SMILES IDX 2 1 3 2 4 3 5 4 6 5 7 6 8 7 9 8 10 9 11 10 12 11 13 12 14 13
REMARK SMILES IDX 15 14 16 15 1 16
REMARK H PARENT 1 17 1 18
ROOT
ATOM      1  C   UNL     1      10.014 -61.048 -25.054  1.00  0.00     0.046 A 
ATOM      2  C   UNL     1       9.013 -62.028 -24.901  1.00  0.00    -0.003 A 
ATOM      3  C   UNL     1       8.591 -62.330 -23.604  1.00  0.00     0.046 A 
ATOM      4  N   UNL     1       9.042 -61.677 -22.509  1.00  0.00    -0.252 NA
ATOM      5  C   UNL     1       9.918 -60.678 -22.662  1.00  0.00     0.074 A 
ATOM      6  C   UNL     1      10.318 -59.996 -21.523  1.00  0.00     0.049 A 
ATOM      7  C   UNL     1      11.206 -58.928 -21.595  1.00  0.00     0.043 A 
ATOM      8  Cl  UNL     1      11.675 -58.103 -20.158  1.00  0.00    -0.084 Cl
ATOM      9  C   UNL     1      11.710 -58.518 -22.819  1.00  0.00     0.021 A 
ATOM     10  C   UNL     1      11.324 -59.196 -23.975  1.00  0.00     0.014 A 
ATOM     11  C   UNL     1      10.430 -60.296 -23.920  1.00  0.00     0.024 A 
ATOM     12  C   UNL     1       7.543 -63.379 -23.331  1.00  0.00     0.056 C 
ATOM     13  C   UNL     1       7.354 -64.359 -24.482  1.00  0.00     0.007 C 
ATOM     14  C   UNL     1       7.198 -63.593 -25.787  1.00  0.00     0.005 C 
ATOM     15  C   UNL     1       8.461 -62.787 -26.086  1.00  0.00     0.039 C 
ENDROOT
BRANCH   1  16
ATOM     16  N   UNL     1      10.448 -60.687 -26.354  1.00  0.00    -0.398 N 
ATOM     17  H   UNL     1      10.015 -59.838 -26.702  1.00  0.00     0.156 HD
ATOM     18  H   UNL     1      11.457 -60.634 -26.449  1.00  0.00     0.156 HD
ENDBRANCH   1  16
TORSDOF 1
ENDMDL
MODEL 7
REMARK VINA RESULT:    -8.158      5.518      7.942
REMARK INTER + INTRA:          -8.396
REMARK INTER:                  -8.396
REMARK INTRA:                   0.000
REMARK UNBOUND:                 0.000
REMARK SMILES Nc1c2c(nc3cc(Cl)ccc13)CCCC2
REMARK SMILES IDX 2 1 3 2 4 3 5 4 6 5 7 6 8 7 9 8 10 9 11 10 12 11 13 12 14 13
REMARK SMILES IDX 15 14 16 15 1 16
REMARK H PARENT 1 17 1 18
ROOT
ATOM      1  C   UNL     1      11.402 -59.514 -23.392  1.00  0.00     0.046 A 
ATOM      2  C   UNL     1      10.888 -58.217 -23.202  1.00  0.00    -0.003 A 
ATOM      3  C   UNL     1       9.500 -58.072 -23.118  1.00  0.00     0.046 A 
ATOM      4  N   UNL     1       8.646 -59.121 -23.137  1.00  0.00    -0.252 NA
ATOM      5  C   UNL     1       9.140 -60.361 -23.216  1.00  0.00     0.074 A 
ATOM      6  C   UNL     1       8.238 -61.414 -23.179  1.00  0.00     0.049 A 
ATOM      7  C   UNL     1       8.667 -62.736 -23.231  1.00  0.00     0.043 A 
ATOM      8  Cl  UNL     1       7.517 -64.015 -23.177  1.00  0.00    -0.084 Cl
ATOM      9  C   UNL     1      10.019 -63.030 -23.318  1.00  0.00     0.021 A 
ATOM     10  C   UNL     1      10.941 -61.984 -23.363  1.00  0.00     0.014 A 
ATOM     11  C   UNL     1      10.521 -60.629 -23.324  1.00  0.00     0.024 A 
ATOM     12  C   UNL     1       8.848 -56.726 -22.938  1.00  0.00     0.056 C 
ATOM     13  C   UNL     1       9.752 -55.560 -23.323  1.00  0.00     0.007 C 
ATOM     14  C   UNL     1      11.113 -55.729 -22.666  1.00  0.00     0.005 C 
ATOM     15  C   UNL     1      11.790 -57.005 -23.163  1.00  0.00     0.039 C 
ENDROOT
BRANCH   1  16
ATOM     16  N   UNL     1      12.805 -59.710 -23.449  1.00  0.00    -0.398 N 
ATOM     17  H   UNL     1      13.327 -59.051 -22.882  1.00  0.00     0.156 HD
ATOM     18  H   UNL     1      13.095 -60.661 -23.243  1.00  0.00     0.156 HD
ENDBRANCH   1  16
TORSDOF 1
ENDMDL
MODEL 8
REMARK VINA RESULT:    -8.077      8.045     10.288
REMARK INTER + INTRA:          -8.313
REMARK INTER:                  -8.313
REMARK INTRA:                   0.000
REMARK UNBOUND:                 0.000
REMARK SMILES Nc1c2c(nc3cc(Cl)ccc13)CCCC2
REMARK SMILES IDX 2 1 3 2 4 3 5 4 6 5 7 6 8 7 9 8 10 9 11 10 12 11 13 12 14 13
REMARK SMILES IDX 15 14 16 15 1 16
REMARK H PARENT 1 17 1 18
ROOT
ATOM      1  C   UNL     1       8.446 -62.322 -24.379  1.00  0.00     0.046 A 
ATOM      2  C   UNL     1       8.684 -62.323 -25.768  1.00  0.00    -0.003 A 
ATOM      3  C   UNL     1       9.540 -61.346 -26.282  1.00  0.00     0.046 A 
ATOM      4  N   UNL     1      10.199 -60.457 -25.504  1.00  0.00    -0.252 NA
ATOM      5  C   UNL     1      10.051 -60.520 -24.176  1.00  0.00     0.074 A 
ATOM      6  C   UNL     1      10.784 -59.629 -23.406  1.00  0.00     0.049 A 
ATOM      7  C   UNL     1      10.709 -59.642 -22.018  1.00  0.00     0.043 A 
ATOM      8  Cl  UNL     1      11.637 -58.522 -21.097  1.00  0.00    -0.084 Cl
ATOM      9  C   UNL     1       9.896 -60.558 -21.369  1.00  0.00     0.021 A 
ATOM     10  C   UNL     1       9.148 -61.458 -22.127  1.00  0.00     0.014 A 
ATOM     11  C   UNL     1       9.200 -61.452 -23.545  1.00  0.00     0.024 A 
ATOM     12  C   UNL     1       9.843 -61.246 -27.755  1.00  0.00     0.056 C 
ATOM     13  C   UNL     1       8.815 -61.951 -28.633  1.00  0.00     0.007 C 
ATOM     14  C   UNL     1       8.566 -63.354 -28.103  1.00  0.00     0.005 C 
ATOM     15  C   UNL     1       7.986 -63.296 -26.690  1.00  0.00     0.039 C 
ENDROOT
BRANCH   1  16
ATOM     16  N   UNL     1       7.611 -63.317 -23.811  1.00  0.00    -0.398 N 
ATOM     17  H   UNL     1       8.116 -64.145 -23.516  1.00  0.00     0.156 HD
ATOM     18  H   UNL     1       7.020 -62.976 -23.060  1.00  0.00     0.156 HD
ENDBRANCH   1  16
TORSDOF 1
ENDMDL
MODEL 9
REMARK VINA RESULT:    -7.965      6.770      8.318
REMARK INTER + INTRA:          -8.198
REMARK INTER:                  -8.198
REMARK INTRA:                   0.000
REMARK UNBOUND:                 0.000
REMARK SMILES Nc1c2c(nc3cc(Cl)ccc13)CCCC2
REMARK SMILES IDX 2 1 3 2 4 3 5 4 6 5 7 6 8 7 9 8 10 9 11 10 12 11 13 12 14 13
REMARK SMILES IDX 15 14 16 15 1 16
REMARK H PARENT 1 17 1 18
ROOT
ATOM      1  C   UNL     1      10.187 -60.761 -25.534  1.00  0.00     0.046 A 
ATOM      2  C   UNL     1      10.833 -60.198 -26.652  1.00  0.00    -0.003 A 
ATOM      3  C   UNL     1      11.613 -59.057 -26.447  1.00  0.00     0.046 A 
ATOM      4  N   UNL     1      11.832 -58.522 -25.224  1.00  0.00    -0.252 NA
ATOM      5  C   UNL     1      11.301 -59.115 -24.150  1.00  0.00     0.074 A 
ATOM      6  C   UNL     1      11.589 -58.570 -22.907  1.00  0.00     0.049 A 
ATOM      7  C   UNL     1      11.098 -59.139 -21.737  1.00  0.00     0.043 A 
ATOM      8  Cl  UNL     1      11.484 -58.435 -20.214  1.00  0.00    -0.084 Cl
ATOM      9  C   UNL     1      10.307 -60.275 -21.789  1.00  0.00     0.021 A 
ATOM     10  C   UNL     1      10.000 -60.833 -23.030  1.00  0.00     0.014 A 
ATOM     11  C   UNL     1      10.481 -60.260 -24.235  1.00  0.00     0.024 A 
ATOM     12  C   UNL     1      12.328 -58.364 -27.579  1.00  0.00     0.056 C 
ATOM     13  C   UNL     1      11.762 -58.710 -28.951  1.00  0.00     0.007 C 
ATOM     14  C   UNL     1      11.621 -60.218 -29.083  1.00  0.00     0.005 C 
ATOM     15  C   UNL     1      10.637 -60.754 -28.043  1.00  0.00     0.039 C 
ENDROOT
BRANCH   1  16
ATOM     16  N   UNL     1       9.413 -61.938 -25.692  1.00  0.00    -0.398 N 
ATOM     17  H   UNL     1       8.863 -61.946 -26.544  1.00  0.00     0.156 HD
ATOM     18  H   UNL     1       9.949 -62.795 -25.609  1.00  0.00     0.156 HD
ENDBRANCH   1  16
TORSDOF 1
ENDMDL
