MODEL 1
REMARK VINA RESULT:   -12.109      0.000      0.000
REMARK INTER + INTRA:         -16.381
REMARK INTER:                 -16.003
REMARK INTRA:                  -0.378
REMARK UNBOUND:                -0.378
REMARK SMILES O=c1nc2cc(Cl)ccc2c(O)n1CC[C@H]1CC[N@H+](Cc2ccccc2)CC1
REMARK SMILES IDX 14 1 13 2 11 3 10 4 9 5 4 6 2 7 8 8 5 9 3 10 6 11 1 12 7 13
REMARK SMILES IDX 12 14 15 16 16 17 17 18 28 19 18 20 27 21 19 22 20 24 21 25
REMARK SMILES IDX 22 26 26 27 23 28 25 29 24 30
REMARK H PARENT 12 15 19 23
ROOT
ATOM      1  C   UNL     1      10.501 -55.867 -22.757  1.00  0.00     0.131 C 
ENDROOT
BRANCH   1   2
ATOM      2  N   UNL     1      11.041 -54.554 -23.103  1.00  0.00    -0.262 N 
ATOM      3  C   UNL     1      11.809 -54.375 -24.236  1.00  0.00     0.204 A 
ATOM      4  C   UNL     1      12.324 -53.175 -24.551  1.00  0.00     0.061 A 
ATOM      5  C   UNL     1      13.153 -52.840 -25.695  1.00  0.00     0.017 A 
ATOM      6  C   UNL     1      11.974 -52.103 -23.570  1.00  0.00     0.083 A 
ATOM      7  C   UNL     1      10.802 -53.514 -22.197  1.00  0.00     0.350 A 
ATOM      8  C   UNL     1      13.578 -51.583 -25.885  1.00  0.00     0.021 A 
ATOM      9  C   UNL     1      12.485 -50.739 -23.877  1.00  0.00     0.049 A 
ATOM     10  N   UNL     1      11.278 -52.267 -22.496  1.00  0.00    -0.193 NA
ATOM     11  C   UNL     1      13.232 -50.524 -24.967  1.00  0.00     0.043 A 
ATOM     12  O   UNL     1      10.185 -53.716 -21.152  1.00  0.00    -0.246 OA
ATOM     13  Cl  UNL     1      13.823 -48.940 -25.314  1.00  0.00    -0.084 Cl
BRANCH   3  14
ATOM     14  O   UNL     1      12.000 -55.516 -24.991  1.00  0.00    -0.494 OA
ATOM     15  H   UNL     1      12.894 -55.859 -24.837  1.00  0.00     0.295 HD
ENDBRANCH   3  14
ENDBRANCH   1   2
BRANCH   1  16
ATOM     16  C   UNL     1      11.336 -56.555 -21.669  1.00  0.00     0.026 C 
BRANCH  16  17
ATOM     17  C   UNL     1      11.565 -58.053 -21.934  1.00  0.00     0.002 C 
ATOM     18  C   UNL     1      11.751 -58.298 -23.439  1.00  0.00     0.065 C 
ATOM     19  C   UNL     1      10.426 -58.931 -21.402  1.00  0.00     0.065 C 
ATOM     20  C   UNL     1      11.973 -59.770 -23.753  1.00  0.00     0.262 C 
ATOM     21  C   UNL     1      10.649 -60.402 -21.726  1.00  0.00     0.262 C 
ATOM     22  N   UNL     1      10.819 -60.580 -23.212  1.00  0.00    -0.331 N 
ATOM     23  H   UNL     1       9.968 -60.234 -23.672  1.00  0.00     0.348 HD
BRANCH  22  24
ATOM     24  C   UNL     1      10.919 -62.048 -23.581  1.00  0.00     0.299 C 
BRANCH  24  25
ATOM     25  C   UNL     1       9.607 -62.634 -24.028  1.00  0.00     0.006 A 
ATOM     26  C   UNL     1       8.882 -63.484 -23.177  1.00  0.00     0.009 A 
ATOM     27  C   UNL     1       9.080 -62.326 -25.290  1.00  0.00     0.009 A 
ATOM     28  C   UNL     1       7.652 -64.006 -23.581  1.00  0.00     0.001 A 
ATOM     29  C   UNL     1       7.850 -62.850 -25.689  1.00  0.00     0.001 A 
ATOM     30  C   UNL     1       7.137 -63.688 -24.836  1.00  0.00     0.000 A 
ENDBRANCH  24  25
ENDBRANCH  22  24
ENDBRANCH  16  17
ENDBRANCH   1  16
TORSDOF 6
ENDMDL
MODEL 2
REMARK VINA RESULT:   -11.827      0.897      2.016
REMARK INTER + INTRA:         -16.008
REMARK INTER:                 -15.576
REMARK INTRA:                  -0.432
REMARK UNBOUND:                -0.378
REMARK SMILES O=c1nc2cc(Cl)ccc2c(O)n1CC[C@H]1CC[N@H+](Cc2ccccc2)CC1
REMARK SMILES IDX 14 1 13 2 11 3 10 4 9 5 4 6 2 7 8 8 5 9 3 10 6 11 1 12 7 13
REMARK SMILES IDX 12 14 15 16 16 17 17 18 28 19 18 20 27 21 19 22 20 24 21 25
REMARK SMILES IDX 22 26 26 27 23 28 25 29 24 30
REMARK H PARENT 12 15 19 23
ROOT
ATOM      1  C   UNL     1      10.546 -55.656 -23.070  1.00  0.00     0.131 C 
ENDROOT
BRANCH   1   2
ATOM      2  N   UNL     1      11.143 -54.355 -23.361  1.00  0.00    -0.262 N 
ATOM      3  C   UNL     1      10.891 -53.260 -22.559  1.00  0.00     0.204 A 
ATOM      4  C   UNL     1      11.422 -52.055 -22.831  1.00  0.00     0.061 A 
ATOM      5  C   UNL     1      11.239 -50.821 -22.090  1.00  0.00     0.017 A 
ATOM      6  C   UNL     1      12.284 -52.048 -24.052  1.00  0.00     0.083 A 
ATOM      7  C   UNL     1      11.916 -54.260 -24.525  1.00  0.00     0.350 A 
ATOM      8  C   UNL     1      11.854 -49.694 -22.479  1.00  0.00     0.021 A 
ATOM      9  C   UNL     1      12.931 -50.752 -24.392  1.00  0.00     0.049 A 
ATOM     10  N   UNL     1      12.504 -53.061 -24.821  1.00  0.00    -0.193 NA
ATOM     11  C   UNL     1      12.713 -49.667 -23.638  1.00  0.00     0.043 A 
ATOM     12  O   UNL     1      12.058 -55.230 -25.269  1.00  0.00    -0.246 OA
ATOM     13  Cl  UNL     1      13.465 -48.166 -24.041  1.00  0.00    -0.084 Cl
BRANCH   3  14
ATOM     14  O   UNL     1      10.060 -53.509 -21.485  1.00  0.00    -0.494 OA
ATOM     15  H   UNL     1       9.922 -54.466 -21.399  1.00  0.00     0.295 HD
ENDBRANCH   3  14
ENDBRANCH   1   2
BRANCH   1  16
ATOM     16  C   UNL     1      11.223 -56.335 -21.872  1.00  0.00     0.026 C 
BRANCH  16  17
ATOM     17  C   UNL     1      11.508 -57.830 -22.101  1.00  0.00     0.002 C 
ATOM     18  C   UNL     1      11.699 -58.105 -23.600  1.00  0.00     0.065 C 
ATOM     19  C   UNL     1      10.403 -58.736 -21.544  1.00  0.00     0.065 C 
ATOM     20  C   UNL     1      11.976 -59.575 -23.879  1.00  0.00     0.262 C 
ATOM     21  C   UNL     1      10.680 -60.206 -21.833  1.00  0.00     0.262 C 
ATOM     22  N   UNL     1      10.854 -60.414 -23.314  1.00  0.00    -0.331 N 
ATOM     23  H   UNL     1       9.990 -60.111 -23.780  1.00  0.00     0.348 HD
BRANCH  22  24
ATOM     24  C   UNL     1      11.007 -61.886 -23.647  1.00  0.00     0.299 C 
BRANCH  24  25
ATOM     25  C   UNL     1       9.693 -62.570 -23.913  1.00  0.00     0.006 A 
ATOM     26  C   UNL     1       9.125 -63.416 -22.947  1.00  0.00     0.009 A 
ATOM     27  C   UNL     1       9.009 -62.358 -25.119  1.00  0.00     0.009 A 
ATOM     28  C   UNL     1       7.894 -64.030 -23.183  1.00  0.00     0.001 A 
ATOM     29  C   UNL     1       7.778 -62.974 -25.349  1.00  0.00     0.001 A 
ATOM     30  C   UNL     1       7.222 -63.807 -24.383  1.00  0.00     0.000 A 
ENDBRANCH  24  25
ENDBRANCH  22  24
ENDBRANCH  16  17
ENDBRANCH   1  16
TORSDOF 6
ENDMDL
MODEL 3
REMARK VINA RESULT:   -11.022      1.509      1.870
REMARK INTER + INTRA:         -14.945
REMARK INTER:                 -15.151
REMARK INTRA:                   0.206
REMARK UNBOUND:                -0.378
REMARK SMILES O=c1nc2cc(Cl)ccc2c(O)n1CC[C@H]1CC[N@H+](Cc2ccccc2)CC1
REMARK SMILES IDX 14 1 13 2 11 3 10 4 9 5 4 6 2 7 8 8 5 9 3 10 6 11 1 12 7 13
REMARK SMILES IDX 12 14 15 16 16 17 17 18 28 19 18 20 27 21 19 22 20 24 21 25
REMARK SMILES IDX 22 26 26 27 23 28 25 29 24 30
REMARK H PARENT 12 15 19 23
ROOT
ATOM      1  C   UNL     1      11.015 -55.116 -23.372  1.00  0.00     0.131 C 
ENDROOT
BRANCH   1   2
ATOM      2  N   UNL     1      10.890 -53.684 -23.109  1.00  0.00    -0.262 N 
ATOM      3  C   UNL     1      11.784 -52.780 -23.646  1.00  0.00     0.204 A 
ATOM      4  C   UNL     1      11.686 -51.463 -23.395  1.00  0.00     0.061 A 
ATOM      5  C   UNL     1      12.553 -50.403 -23.877  1.00  0.00     0.017 A 
ATOM      6  C   UNL     1      10.537 -51.112 -22.506  1.00  0.00     0.083 A 
ATOM      7  C   UNL     1       9.870 -53.288 -22.236  1.00  0.00     0.350 A 
ATOM      8  C   UNL     1      12.313 -49.125 -23.552  1.00  0.00     0.021 A 
ATOM      9  C   UNL     1      10.349 -49.665 -22.214  1.00  0.00     0.049 A 
ATOM     10  N   UNL     1       9.712 -51.954 -21.979  1.00  0.00    -0.193 NA
ATOM     11  C   UNL     1      11.194 -48.757 -22.717  1.00  0.00     0.043 A 
ATOM     12  O   UNL     1       9.136 -54.121 -21.703  1.00  0.00    -0.246 OA
ATOM     13  Cl  UNL     1      10.972 -47.081 -22.371  1.00  0.00    -0.084 Cl
BRANCH   3  14
ATOM     14  O   UNL     1      12.767 -53.340 -24.439  1.00  0.00    -0.494 OA
ATOM     15  H   UNL     1      12.384 -54.059 -24.967  1.00  0.00     0.295 HD
ENDBRANCH   3  14
ENDBRANCH   1   2
BRANCH   1  16
ATOM     16  C   UNL     1      11.057 -55.929 -22.072  1.00  0.00     0.026 C 
BRANCH  16  17
ATOM     17  C   UNL     1      11.445 -57.402 -22.289  1.00  0.00     0.002 C 
ATOM     18  C   UNL     1      11.783 -57.645 -23.767  1.00  0.00     0.065 C 
ATOM     19  C   UNL     1      10.349 -58.376 -21.840  1.00  0.00     0.065 C 
ATOM     20  C   UNL     1      12.167 -59.093 -24.034  1.00  0.00     0.262 C 
ATOM     21  C   UNL     1      10.734 -59.824 -22.116  1.00  0.00     0.262 C 
ATOM     22  N   UNL     1      11.049 -60.001 -23.578  1.00  0.00    -0.331 N 
ATOM     23  H   UNL     1      10.213 -59.740 -24.116  1.00  0.00     0.348 HD
BRANCH  22  24
ATOM     24  C   UNL     1      11.314 -61.457 -23.910  1.00  0.00     0.299 C 
BRANCH  24  25
ATOM     25  C   UNL     1      10.069 -62.302 -23.896  1.00  0.00     0.006 A 
ATOM     26  C   UNL     1       9.777 -63.119 -22.792  1.00  0.00     0.009 A 
ATOM     27  C   UNL     1       9.173 -62.271 -24.974  1.00  0.00     0.009 A 
ATOM     28  C   UNL     1       8.609 -63.882 -22.767  1.00  0.00     0.001 A 
ATOM     29  C   UNL     1       8.006 -63.036 -24.944  1.00  0.00     0.001 A 
ATOM     30  C   UNL     1       7.725 -63.839 -23.842  1.00  0.00     0.000 A 
ENDBRANCH  24  25
ENDBRANCH  22  24
ENDBRANCH  16  17
ENDBRANCH   1  16
TORSDOF 6
ENDMDL
MODEL 4
REMARK VINA RESULT:   -10.774      1.363      1.851
REMARK INTER + INTRA:         -14.616
REMARK INTER:                 -14.647
REMARK INTRA:                   0.031
REMARK UNBOUND:                -0.378
REMARK SMILES O=c1nc2cc(Cl)ccc2c(O)n1CC[C@H]1CC[N@H+](Cc2ccccc2)CC1
REMARK SMILES IDX 14 1 13 2 11 3 10 4 9 5 4 6 2 7 8 8 5 9 3 10 6 11 1 12 7 13
REMARK SMILES IDX 12 14 15 16 16 17 17 18 28 19 18 20 27 21 19 22 20 24 21 25
REMARK SMILES IDX 22 26 26 27 23 28 25 29 24 30
REMARK H PARENT 12 15 19 23
ROOT
ATOM      1  C   UNL     1      10.546 -55.885 -22.261  1.00  0.00     0.131 C 
ENDROOT
BRANCH   1   2
ATOM      2  N   UNL     1      11.027 -54.563 -22.657  1.00  0.00    -0.262 N 
ATOM      3  C   UNL     1      11.729 -54.384 -23.832  1.00  0.00     0.204 A 
ATOM      4  C   UNL     1      12.191 -53.175 -24.195  1.00  0.00     0.061 A 
ATOM      5  C   UNL     1      12.949 -52.839 -25.386  1.00  0.00     0.017 A 
ATOM      6  C   UNL     1      11.860 -52.095 -23.216  1.00  0.00     0.083 A 
ATOM      7  C   UNL     1      10.804 -53.513 -21.758  1.00  0.00     0.350 A 
ATOM      8  C   UNL     1      13.326 -51.573 -25.620  1.00  0.00     0.021 A 
ATOM      9  C   UNL     1      12.313 -50.723 -23.573  1.00  0.00     0.049 A 
ATOM     10  N   UNL     1      11.226 -52.259 -22.104  1.00  0.00    -0.193 NA
ATOM     11  C   UNL     1      12.995 -50.507 -24.704  1.00  0.00     0.043 A 
ATOM     12  O   UNL     1      10.248 -53.714 -20.679  1.00  0.00    -0.246 OA
ATOM     13  Cl  UNL     1      13.520 -48.914 -25.110  1.00  0.00    -0.084 Cl
BRANCH   3  14
ATOM     14  O   UNL     1      11.915 -55.533 -24.576  1.00  0.00    -0.494 OA
ATOM     15  H   UNL     1      12.170 -56.261 -23.986  1.00  0.00     0.295 HD
ENDBRANCH   3  14
ENDBRANCH   1   2
BRANCH   1  16
ATOM     16  C   UNL     1       9.257 -56.265 -23.001  1.00  0.00     0.026 C 
BRANCH  16  17
ATOM     17  C   UNL     1       9.221 -57.740 -23.440  1.00  0.00     0.002 C 
ATOM     18  C   UNL     1       7.783 -58.273 -23.373  1.00  0.00     0.065 C 
ATOM     19  C   UNL     1      10.146 -58.631 -22.601  1.00  0.00     0.065 C 
ATOM     20  C   UNL     1       7.697 -59.734 -23.791  1.00  0.00     0.262 C 
ATOM     21  C   UNL     1      10.050 -60.093 -23.018  1.00  0.00     0.262 C 
ATOM     22  N   UNL     1       8.621 -60.560 -22.928  1.00  0.00    -0.331 N 
ATOM     23  H   UNL     1       8.309 -60.440 -21.956  1.00  0.00     0.348 HD
BRANCH  22  24
ATOM     24  C   UNL     1       8.510 -62.045 -23.216  1.00  0.00     0.299 C 
BRANCH  24  25
ATOM     25  C   UNL     1       8.486 -62.361 -24.687  1.00  0.00     0.006 A 
ATOM     26  C   UNL     1       7.528 -63.244 -25.208  1.00  0.00     0.009 A 
ATOM     27  C   UNL     1       9.407 -61.763 -25.560  1.00  0.00     0.009 A 
ATOM     28  C   UNL     1       7.489 -63.516 -26.576  1.00  0.00     0.001 A 
ATOM     29  C   UNL     1       9.364 -62.039 -26.927  1.00  0.00     0.001 A 
ATOM     30  C   UNL     1       8.406 -62.913 -27.434  1.00  0.00     0.000 A 
ENDBRANCH  24  25
ENDBRANCH  22  24
ENDBRANCH  16  17
ENDBRANCH   1  16
TORSDOF 6
ENDMDL
MODEL 5
REMARK VINA RESULT:   -10.281      3.787     10.075
REMARK INTER + INTRA:         -13.965
REMARK INTER:                 -13.575
REMARK INTRA:                  -0.390
REMARK UNBOUND:                -0.378
REMARK SMILES O=c1nc2cc(Cl)ccc2c(O)n1CC[C@H]1CC[N@H+](Cc2ccccc2)CC1
REMARK SMILES IDX 14 1 13 2 11 3 10 4 9 5 4 6 2 7 8 8 5 9 3 10 6 11 1 12 7 13
REMARK SMILES IDX 12 14 15 16 16 17 17 18 28 19 18 20 27 21 19 22 20 24 21 25
REMARK SMILES IDX 22 26 26 27 23 28 25 29 24 30
REMARK H PARENT 12 15 19 23
ROOT
ATOM      1  C   UNL     1      11.571 -57.913 -23.539  1.00  0.00     0.131 C 
ENDROOT
BRANCH   1   2
ATOM      2  N   UNL     1      10.921 -59.218 -23.631  1.00  0.00    -0.262 N 
ATOM      3  C   UNL     1       9.547 -59.326 -23.715  1.00  0.00     0.204 A 
ATOM      4  C   UNL     1       8.941 -60.523 -23.783  1.00  0.00     0.061 A 
ATOM      5  C   UNL     1       7.516 -60.790 -23.863  1.00  0.00     0.017 A 
ATOM      6  C   UNL     1       9.894 -61.674 -23.760  1.00  0.00     0.083 A 
ATOM      7  C   UNL     1      11.750 -60.344 -23.556  1.00  0.00     0.350 A 
ATOM      8  C   UNL     1       7.061 -62.049 -23.943  1.00  0.00     0.021 A 
ATOM      9  C   UNL     1       9.290 -63.030 -23.865  1.00  0.00     0.049 A 
ATOM     10  N   UNL     1      11.177 -61.583 -23.655  1.00  0.00    -0.193 NA
ATOM     11  C   UNL     1       7.963 -63.176 -23.950  1.00  0.00     0.043 A 
ATOM     12  O   UNL     1      12.964 -60.225 -23.398  1.00  0.00    -0.246 OA
ATOM     13  Cl  UNL     1       7.270 -64.752 -24.069  1.00  0.00    -0.084 Cl
BRANCH   3  14
ATOM     14  O   UNL     1       8.873 -58.121 -23.718  1.00  0.00    -0.494 OA
ATOM     15  H   UNL     1       7.916 -58.287 -23.712  1.00  0.00     0.295 HD
ENDBRANCH   3  14
ENDBRANCH   1   2
BRANCH   1  16
ATOM     16  C   UNL     1      11.433 -57.308 -22.136  1.00  0.00     0.026 C 
BRANCH  16  17
ATOM     17  C   UNL     1      10.732 -55.938 -22.132  1.00  0.00     0.002 C 
ATOM     18  C   UNL     1      11.088 -55.161 -23.408  1.00  0.00     0.065 C 
ATOM     19  C   UNL     1      11.081 -55.098 -20.897  1.00  0.00     0.065 C 
ATOM     20  C   UNL     1      10.424 -53.793 -23.446  1.00  0.00     0.262 C 
ATOM     21  C   UNL     1      10.420 -53.726 -20.944  1.00  0.00     0.262 C 
ATOM     22  N   UNL     1      10.809 -53.012 -22.211  1.00  0.00    -0.331 N 
ATOM     23  H   UNL     1      11.832 -52.920 -22.222  1.00  0.00     0.348 HD
BRANCH  22  24
ATOM     24  C   UNL     1      10.269 -51.594 -22.230  1.00  0.00     0.299 C 
BRANCH  24  25
ATOM     25  C   UNL     1      11.266 -50.589 -22.739  1.00  0.00     0.006 A 
ATOM     26  C   UNL     1      10.967 -49.218 -22.717  1.00  0.00     0.009 A 
ATOM     27  C   UNL     1      12.515 -51.005 -23.223  1.00  0.00     0.009 A 
ATOM     28  C   UNL     1      11.903 -48.284 -23.164  1.00  0.00     0.001 A 
ATOM     29  C   UNL     1      13.447 -50.067 -23.668  1.00  0.00     0.001 A 
ATOM     30  C   UNL     1      13.142 -48.709 -23.637  1.00  0.00     0.000 A 
ENDBRANCH  24  25
ENDBRANCH  22  24
ENDBRANCH  16  17
ENDBRANCH   1  16
TORSDOF 6
ENDMDL
MODEL 6
REMARK VINA RESULT:   -10.280      2.467      3.839
REMARK INTER + INTRA:         -13.963
REMARK INTER:                 -14.011
REMARK INTRA:                   0.048
REMARK UNBOUND:                -0.378
REMARK SMILES O=c1nc2cc(Cl)ccc2c(O)n1CC[C@H]1CC[N@H+](Cc2ccccc2)CC1
REMARK SMILES IDX 14 1 13 2 11 3 10 4 9 5 4 6 2 7 8 8 5 9 3 10 6 11 1 12 7 13
REMARK SMILES IDX 12 14 15 16 16 17 17 18 28 19 18 20 27 21 19 22 20 24 21 25
REMARK SMILES IDX 22 26 26 27 23 28 25 29 24 30
REMARK H PARENT 12 15 19 23
ROOT
ATOM      1  C   UNL     1      10.676 -52.235 -21.593  1.00  0.00     0.131 C 
ENDROOT
BRANCH   1   2
ATOM      2  N   UNL     1      10.872 -50.912 -22.183  1.00  0.00    -0.262 N 
ATOM      3  C   UNL     1      12.074 -50.564 -22.765  1.00  0.00     0.204 A 
ATOM      4  C   UNL     1      12.268 -49.343 -23.294  1.00  0.00     0.061 A 
ATOM      5  C   UNL     1      13.472 -48.834 -23.925  1.00  0.00     0.017 A 
ATOM      6  C   UNL     1      11.074 -48.451 -23.182  1.00  0.00     0.083 A 
ATOM      7  C   UNL     1       9.814 -50.003 -22.062  1.00  0.00     0.350 A 
ATOM      8  C   UNL     1      13.507 -47.590 -24.424  1.00  0.00     0.021 A 
ATOM      9  C   UNL     1      11.210 -47.094 -23.778  1.00  0.00     0.049 A 
ATOM     10  N   UNL     1       9.956 -48.761 -22.617  1.00  0.00    -0.193 NA
ATOM     11  C   UNL     1      12.358 -46.718 -24.354  1.00  0.00     0.043 A 
ATOM     12  O   UNL     1       8.783 -50.310 -21.465  1.00  0.00    -0.246 OA
ATOM     13  Cl  UNL     1      12.509 -45.141 -25.040  1.00  0.00    -0.084 Cl
BRANCH   3  14
ATOM     14  O   UNL     1      13.034 -51.556 -22.749  1.00  0.00    -0.494 OA
ATOM     15  H   UNL     1      13.513 -51.555 -23.593  1.00  0.00     0.295 HD
ENDBRANCH   3  14
ENDBRANCH   1   2
BRANCH   1  16
ATOM     16  C   UNL     1      10.164 -53.246 -22.627  1.00  0.00     0.026 C 
BRANCH  16  17
ATOM     17  C   UNL     1      11.022 -54.521 -22.706  1.00  0.00     0.002 C 
ATOM     18  C   UNL     1      11.084 -55.024 -24.156  1.00  0.00     0.065 C 
ATOM     19  C   UNL     1      10.509 -55.639 -21.790  1.00  0.00     0.065 C 
ATOM     20  C   UNL     1      11.917 -56.291 -24.285  1.00  0.00     0.262 C 
ATOM     21  C   UNL     1      11.342 -56.908 -21.929  1.00  0.00     0.262 C 
ATOM     22  N   UNL     1      11.361 -57.354 -23.367  1.00  0.00    -0.331 N 
ATOM     23  H   UNL     1      10.391 -57.524 -23.659  1.00  0.00     0.348 HD
BRANCH  22  24
ATOM     24  C   UNL     1      12.077 -58.683 -23.519  1.00  0.00     0.299 C 
BRANCH  24  25
ATOM     25  C   UNL     1      11.288 -59.843 -22.976  1.00  0.00     0.006 A 
ATOM     26  C   UNL     1      10.557 -59.709 -21.784  1.00  0.00     0.009 A 
ATOM     27  C   UNL     1      11.256 -61.067 -23.659  1.00  0.00     0.009 A 
ATOM     28  C   UNL     1       9.805 -60.777 -21.294  1.00  0.00     0.001 A 
ATOM     29  C   UNL     1      10.502 -62.132 -23.165  1.00  0.00     0.001 A 
ATOM     30  C   UNL     1       9.777 -61.986 -21.985  1.00  0.00     0.000 A 
ENDBRANCH  24  25
ENDBRANCH  22  24
ENDBRANCH  16  17
ENDBRANCH   1  16
TORSDOF 6
ENDMDL
MODEL 7
REMARK VINA RESULT:   -10.159      2.802      4.719
REMARK INTER + INTRA:         -13.803
REMARK INTER:                 -13.251
REMARK INTRA:                  -0.552
REMARK UNBOUND:                -0.378
REMARK SMILES O=c1nc2cc(Cl)ccc2c(O)n1CC[C@H]1CC[N@H+](Cc2ccccc2)CC1
REMARK SMILES IDX 14 1 13 2 11 3 10 4 9 5 4 6 2 7 8 8 5 9 3 10 6 11 1 12 7 13
REMARK SMILES IDX 12 14 15 16 16 17 17 18 28 19 18 20 27 21 19 22 20 24 21 25
REMARK SMILES IDX 22 26 26 27 23 28 25 29 24 30
REMARK H PARENT 12 15 19 23
ROOT
ATOM      1  C   UNL     1      11.294 -51.341 -21.734  1.00  0.00     0.131 C 
ENDROOT
BRANCH   1   2
ATOM      2  N   UNL     1      11.750 -50.199 -22.524  1.00  0.00    -0.262 N 
ATOM      3  C   UNL     1      10.983 -49.056 -22.631  1.00  0.00     0.204 A 
ATOM      4  C   UNL     1      11.388 -48.008 -23.369  1.00  0.00     0.061 A 
ATOM      5  C   UNL     1      10.688 -46.754 -23.583  1.00  0.00     0.017 A 
ATOM      6  C   UNL     1      12.713 -48.221 -24.027  1.00  0.00     0.083 A 
ATOM      7  C   UNL     1      12.957 -50.351 -23.216  1.00  0.00     0.350 A 
ATOM      8  C   UNL     1      11.233 -45.789 -24.338  1.00  0.00     0.021 A 
ATOM      9  C   UNL     1      13.237 -47.085 -24.834  1.00  0.00     0.049 A 
ATOM     10  N   UNL     1      13.424 -49.296 -23.952  1.00  0.00    -0.193 NA
ATOM     11  C   UNL     1      12.525 -45.959 -24.962  1.00  0.00     0.043 A 
ATOM     12  O   UNL     1      13.582 -51.410 -23.171  1.00  0.00    -0.246 OA
ATOM     13  Cl  UNL     1      13.137 -44.648 -25.901  1.00  0.00    -0.084 Cl
BRANCH   3  14
ATOM     14  O   UNL     1       9.792 -49.091 -21.934  1.00  0.00    -0.494 OA
ATOM     15  H   UNL     1       9.514 -50.014 -21.818  1.00  0.00     0.295 HD
ENDBRANCH   3  14
ENDBRANCH   1   2
BRANCH   1  16
ATOM     16  C   UNL     1      10.499 -52.338 -22.587  1.00  0.00     0.026 C 
BRANCH  16  17
ATOM     17  C   UNL     1      11.152 -53.730 -22.662  1.00  0.00     0.002 C 
ATOM     18  C   UNL     1      11.171 -54.224 -24.117  1.00  0.00     0.065 C 
ATOM     19  C   UNL     1      10.452 -54.763 -21.772  1.00  0.00     0.065 C 
ATOM     20  C   UNL     1      11.802 -55.603 -24.241  1.00  0.00     0.262 C 
ATOM     21  C   UNL     1      11.081 -56.143 -21.906  1.00  0.00     0.262 C 
ATOM     22  N   UNL     1      11.067 -56.575 -23.349  1.00  0.00    -0.331 N 
ATOM     23  H   UNL     1      10.090 -56.592 -23.665  1.00  0.00     0.348 HD
BRANCH  22  24
ATOM     24  C   UNL     1      11.573 -57.997 -23.501  1.00  0.00     0.299 C 
BRANCH  24  25
ATOM     25  C   UNL     1      10.573 -59.030 -23.057  1.00  0.00     0.006 A 
ATOM     26  C   UNL     1       9.278 -59.044 -23.601  1.00  0.00     0.009 A 
ATOM     27  C   UNL     1      10.924 -60.003 -22.111  1.00  0.00     0.009 A 
ATOM     28  C   UNL     1       8.359 -60.018 -23.209  1.00  0.00     0.001 A 
ATOM     29  C   UNL     1      10.001 -60.975 -21.722  1.00  0.00     0.001 A 
ATOM     30  C   UNL     1       8.721 -60.983 -22.272  1.00  0.00     0.000 A 
ENDBRANCH  24  25
ENDBRANCH  22  24
ENDBRANCH  16  17
ENDBRANCH   1  16
TORSDOF 6
ENDMDL
MODEL 8
REMARK VINA RESULT:   -10.096      3.521      8.366
REMARK INTER + INTRA:         -13.721
REMARK INTER:                 -13.393
REMARK INTRA:                  -0.327
REMARK UNBOUND:                -0.378
REMARK SMILES O=c1nc2cc(Cl)ccc2c(O)n1CC[C@H]1CC[N@H+](Cc2ccccc2)CC1
REMARK SMILES IDX 14 1 13 2 11 3 10 4 9 5 4 6 2 7 8 8 5 9 3 10 6 11 1 12 7 13
REMARK SMILES IDX 12 14 15 16 16 17 17 18 28 19 18 20 27 21 19 22 20 24 21 25
REMARK SMILES IDX 22 26 26 27 23 28 25 29 24 30
REMARK H PARENT 12 15 19 23
ROOT
ATOM      1  C   UNL     1      10.605 -61.314 -22.497  1.00  0.00     0.131 C 
ENDROOT
BRANCH   1   2
ATOM      2  N   UNL     1      10.642 -61.089 -23.941  1.00  0.00    -0.262 N 
ATOM      3  C   UNL     1      11.812 -60.724 -24.575  1.00  0.00     0.204 A 
ATOM      4  C   UNL     1      11.851 -60.497 -25.899  1.00  0.00     0.061 A 
ATOM      5  C   UNL     1      12.997 -60.099 -26.696  1.00  0.00     0.017 A 
ATOM      6  C   UNL     1      10.529 -60.685 -26.572  1.00  0.00     0.083 A 
ATOM      7  C   UNL     1       9.426 -61.191 -24.628  1.00  0.00     0.350 A 
ATOM      8  C   UNL     1      12.880 -59.927 -28.020  1.00  0.00     0.021 A 
ATOM      9  C   UNL     1      10.508 -60.483 -28.046  1.00  0.00     0.049 A 
ATOM     10  N   UNL     1       9.426 -61.002 -25.982  1.00  0.00    -0.193 NA
ATOM     11  C   UNL     1      11.622 -60.130 -28.699  1.00  0.00     0.043 A 
ATOM     12  O   UNL     1       8.381 -61.436 -24.027  1.00  0.00    -0.246 OA
ATOM     13  Cl  UNL     1      11.588 -59.894 -30.408  1.00  0.00    -0.084 Cl
BRANCH   3  14
ATOM     14  O   UNL     1      12.909 -60.609 -23.743  1.00  0.00    -0.494 OA
ATOM     15  H   UNL     1      13.078 -59.671 -23.560  1.00  0.00     0.295 HD
ENDBRANCH   3  14
ENDBRANCH   1   2
BRANCH   1  16
ATOM     16  C   UNL     1      10.417 -60.003 -21.723  1.00  0.00     0.026 C 
BRANCH  16  17
ATOM     17  C   UNL     1      10.372 -58.762 -22.631  1.00  0.00     0.002 C 
ATOM     18  C   UNL     1      11.382 -57.714 -22.140  1.00  0.00     0.065 C 
ATOM     19  C   UNL     1       8.974 -58.138 -22.714  1.00  0.00     0.065 C 
ATOM     20  C   UNL     1      11.368 -56.461 -23.004  1.00  0.00     0.262 C 
ATOM     21  C   UNL     1       8.968 -56.880 -23.573  1.00  0.00     0.262 C 
ATOM     22  N   UNL     1       9.971 -55.890 -23.041  1.00  0.00    -0.331 N 
ATOM     23  H   UNL     1       9.712 -55.667 -22.072  1.00  0.00     0.348 HD
BRANCH  22  24
ATOM     24  C   UNL     1       9.901 -54.578 -23.798  1.00  0.00     0.299 C 
BRANCH  24  25
ATOM     25  C   UNL     1      10.676 -53.472 -23.134  1.00  0.00     0.006 A 
ATOM     26  C   UNL     1      11.784 -52.897 -23.777  1.00  0.00     0.009 A 
ATOM     27  C   UNL     1      10.292 -52.987 -21.876  1.00  0.00     0.009 A 
ATOM     28  C   UNL     1      12.487 -51.853 -23.173  1.00  0.00     0.001 A 
ATOM     29  C   UNL     1      10.998 -51.943 -21.277  1.00  0.00     0.001 A 
ATOM     30  C   UNL     1      12.093 -51.377 -21.925  1.00  0.00     0.000 A 
ENDBRANCH  24  25
ENDBRANCH  22  24
ENDBRANCH  16  17
ENDBRANCH   1  16
TORSDOF 6
ENDMDL
MODEL 9
REMARK VINA RESULT:   -10.065      3.522      9.660
REMARK INTER + INTRA:         -13.679
REMARK INTER:                 -13.591
REMARK INTRA:                  -0.088
REMARK UNBOUND:                -0.378
REMARK SMILES O=c1nc2cc(Cl)ccc2c(O)n1CC[C@H]1CC[N@H+](Cc2ccccc2)CC1
REMARK SMILES IDX 14 1 13 2 11 3 10 4 9 5 4 6 2 7 8 8 5 9 3 10 6 11 1 12 7 13
REMARK SMILES IDX 12 14 15 16 16 17 17 18 28 19 18 20 27 21 19 22 20 24 21 25
REMARK SMILES IDX 22 26 26 27 23 28 25 29 24 30
REMARK H PARENT 12 15 19 23
ROOT
ATOM      1  C   UNL     1      10.727 -58.032 -22.653  1.00  0.00     0.131 C 
ENDROOT
BRANCH   1   2
ATOM      2  N   UNL     1      10.440 -58.933 -23.767  1.00  0.00    -0.262 N 
ATOM      3  C   UNL     1       9.476 -59.915 -23.659  1.00  0.00     0.204 A 
ATOM      4  C   UNL     1       9.219 -60.759 -24.673  1.00  0.00     0.061 A 
ATOM      5  C   UNL     1       8.249 -61.839 -24.701  1.00  0.00     0.017 A 
ATOM      6  C   UNL     1      10.065 -60.512 -25.880  1.00  0.00     0.083 A 
ATOM      7  C   UNL     1      11.236 -58.797 -24.911  1.00  0.00     0.350 A 
ATOM      8  C   UNL     1       8.095 -62.590 -25.801  1.00  0.00     0.021 A 
ATOM      9  C   UNL     1       9.809 -61.391 -27.054  1.00  0.00     0.049 A 
ATOM     10  N   UNL     1      10.986 -59.614 -25.980  1.00  0.00    -0.193 NA
ATOM     11  C   UNL     1       8.881 -62.354 -26.990  1.00  0.00     0.043 A 
ATOM     12  O   UNL     1      12.145 -57.969 -24.953  1.00  0.00    -0.246 OA
ATOM     13  Cl  UNL     1       8.592 -63.372 -28.353  1.00  0.00    -0.084 Cl
BRANCH   3  14
ATOM     14  O   UNL     1       8.822 -59.952 -22.444  1.00  0.00    -0.494 OA
ATOM     15  H   UNL     1       8.934 -60.829 -22.044  1.00  0.00     0.295 HD
ENDBRANCH   3  14
ENDBRANCH   1   2
BRANCH   1  16
ATOM     16  C   UNL     1       9.912 -56.736 -22.749  1.00  0.00     0.026 C 
BRANCH  16  17
ATOM     17  C   UNL     1      10.772 -55.466 -22.617  1.00  0.00     0.002 C 
ATOM     18  C   UNL     1      10.025 -54.409 -21.790  1.00  0.00     0.065 C 
ATOM     19  C   UNL     1      11.170 -54.877 -23.976  1.00  0.00     0.065 C 
ATOM     20  C   UNL     1      10.834 -53.129 -21.639  1.00  0.00     0.262 C 
ATOM     21  C   UNL     1      11.972 -53.591 -23.819  1.00  0.00     0.262 C 
ATOM     22  N   UNL     1      11.190 -52.594 -23.006  1.00  0.00    -0.331 N 
ATOM     23  H   UNL     1      10.305 -52.410 -23.495  1.00  0.00     0.348 HD
BRANCH  22  24
ATOM     24  C   UNL     1      11.907 -51.259 -22.937  1.00  0.00     0.299 C 
BRANCH  24  25
ATOM     25  C   UNL     1      13.129 -51.200 -23.813  1.00  0.00     0.006 A 
ATOM     26  C   UNL     1      14.412 -51.206 -23.245  1.00  0.00     0.009 A 
ATOM     27  C   UNL     1      13.004 -51.157 -25.210  1.00  0.00     0.009 A 
ATOM     28  C   UNL     1      15.545 -51.178 -24.059  1.00  0.00     0.001 A 
ATOM     29  C   UNL     1      14.140 -51.129 -26.019  1.00  0.00     0.001 A 
ATOM     30  C   UNL     1      15.408 -51.141 -25.444  1.00  0.00     0.000 A 
ENDBRANCH  24  25
ENDBRANCH  22  24
ENDBRANCH  16  17
ENDBRANCH   1  16
TORSDOF 6
ENDMDL
