MODEL 1
REMARK VINA RESULT:   -10.488      0.000      0.000
REMARK INTER + INTRA:         -10.795
REMARK INTER:                 -10.795
REMARK INTRA:                   0.000
REMARK UNBOUND:                 0.000
REMARK SMILES CC1=C[C@H]2Cc3nc4cc(Cl)ccc4c(N)c3[C@@H](C1)C2
REMARK SMILES IDX 1 1 2 2 3 3 4 4 5 5 6 6 7 7 8 8 9 9 10 10 11 11 12 12 13 13
REMARK SMILES IDX 14 14 15 15 17 16 18 17 19 18 20 19 16 20
REMARK H PARENT 16 21 16 22
ROOT
ATOM      1  C   UNL     1      11.380 -56.039 -23.179  1.00  0.00     0.039 C 
ATOM      2  C   UNL     1      10.899 -57.457 -22.995  1.00  0.00    -0.076 C 
ATOM      3  C   UNL     1       9.575 -57.561 -22.772  1.00  0.00    -0.024 C 
ATOM      4  C   UNL     1       9.053 -60.257 -22.529  1.00  0.00     0.018 C 
ATOM      5  C   UNL     1       9.075 -59.080 -23.449  1.00  0.00     0.064 C 
ATOM      6  C   UNL     1      10.245 -59.424 -24.284  1.00  0.00     0.047 A 
ATOM      7  N   UNL     1      10.091 -59.380 -25.615  1.00  0.00    -0.252 NA
ATOM      8  C   UNL     1      11.135 -59.686 -26.415  1.00  0.00     0.074 A 
ATOM      9  C   UNL     1      10.995 -59.647 -27.780  1.00  0.00     0.049 A 
ATOM     10  C   UNL     1      12.033 -59.952 -28.639  1.00  0.00     0.043 A 
ATOM     11  Cl  UNL     1      11.841 -59.897 -30.380  1.00  0.00    -0.084 Cl
ATOM     12  C   UNL     1      13.224 -60.299 -28.042  1.00  0.00     0.021 A 
ATOM     13  C   UNL     1      13.439 -60.360 -26.680  1.00  0.00     0.014 A 
ATOM     14  C   UNL     1      12.358 -60.043 -25.886  1.00  0.00     0.024 A 
ATOM     15  C   UNL     1      12.508 -60.085 -24.521  1.00  0.00     0.046 A 
ATOM     16  C   UNL     1      11.449 -59.774 -23.693  1.00  0.00     0.001 A 
ATOM     17  C   UNL     1      11.427 -59.766 -22.202  1.00  0.00     0.028 C 
ATOM     18  C   UNL     1      11.825 -58.612 -23.061  1.00  0.00     0.039 C 
ATOM     19  C   UNL     1      10.150 -60.227 -21.489  1.00  0.00     0.017 C 
ENDROOT
BRANCH  15  20
ATOM     20  N   UNL     1      13.708 -60.434 -23.854  1.00  0.00    -0.398 N 
ATOM     21  H   UNL     1      14.038 -61.234 -24.458  1.00  0.00     0.156 HD
ATOM     22  H   UNL     1      14.252 -60.136 -23.039  1.00  0.00     0.156 HD
ENDBRANCH  15  20
TORSDOF 1
ENDMDL
MODEL 2
REMARK VINA RESULT:   -10.084      2.045      2.742
REMARK INTER + INTRA:         -10.379
REMARK INTER:                 -10.379
REMARK INTRA:                   0.000
REMARK UNBOUND:                 0.000
REMARK SMILES CC1=C[C@H]2Cc3nc4cc(Cl)ccc4c(N)c3[C@@H](C1)C2
REMARK SMILES IDX 1 1 2 2 3 3 4 4 5 5 6 6 7 7 8 8 9 9 10 10 11 11 12 12 13 13
REMARK SMILES IDX 14 14 15 15 17 16 18 17 19 18 20 19 16 20
REMARK H PARENT 16 21 16 22
ROOT
ATOM      1  C   UNL     1       7.476 -58.905 -23.134  1.00  0.00     0.039 C 
ATOM      2  C   UNL     1       7.986 -60.320 -23.253  1.00  0.00    -0.076 C 
ATOM      3  C   UNL     1       7.024 -61.229 -23.503  1.00  0.00    -0.024 C 
ATOM      4  C   UNL     1       8.305 -63.661 -23.695  1.00  0.00     0.018 C 
ATOM      5  C   UNL     1       7.761 -62.488 -24.443  1.00  0.00     0.064 C 
ATOM      6  C   UNL     1       9.021 -61.838 -24.859  1.00  0.00     0.047 A 
ATOM      7  N   UNL     1       9.155 -61.516 -26.154  1.00  0.00    -0.252 NA
ATOM      8  C   UNL     1      10.290 -60.920 -26.577  1.00  0.00     0.074 A 
ATOM      9  C   UNL     1      10.444 -60.584 -27.899  1.00  0.00     0.049 A 
ATOM     10  C   UNL     1      11.587 -59.974 -28.379  1.00  0.00     0.043 A 
ATOM     11  Cl  UNL     1      11.771 -59.550 -30.070  1.00  0.00    -0.084 Cl
ATOM     12  C   UNL     1      12.568 -59.720 -27.447  1.00  0.00     0.021 A 
ATOM     13  C   UNL     1      12.485 -60.027 -26.105  1.00  0.00     0.014 A 
ATOM     14  C   UNL     1      11.316 -60.636 -25.699  1.00  0.00     0.024 A 
ATOM     15  C   UNL     1      11.172 -60.967 -24.374  1.00  0.00     0.046 A 
ATOM     16  C   UNL     1      10.016 -61.577 -23.929  1.00  0.00     0.001 A 
ATOM     17  C   UNL     1       9.686 -62.005 -22.540  1.00  0.00     0.028 C 
ATOM     18  C   UNL     1       9.423 -60.648 -23.106  1.00  0.00     0.039 C 
ATOM     19  C   UNL     1       8.884 -63.299 -22.347  1.00  0.00     0.017 C 
ENDROOT
BRANCH  15  20
ATOM     20  N   UNL     1      12.146 -60.729 -23.374  1.00  0.00    -0.398 N 
ATOM     21  H   UNL     1      12.443 -61.718 -23.155  1.00  0.00     0.156 HD
ATOM     22  H   UNL     1      12.569 -59.936 -22.884  1.00  0.00     0.156 HD
ENDBRANCH  15  20
TORSDOF 1
ENDMDL
MODEL 3
REMARK VINA RESULT:    -9.598      5.929      8.946
REMARK INTER + INTRA:          -9.879
REMARK INTER:                  -9.879
REMARK INTRA:                   0.000
REMARK UNBOUND:                 0.000
REMARK SMILES CC1=C[C@H]2Cc3nc4cc(Cl)ccc4c(N)c3[C@@H](C1)C2
REMARK SMILES IDX 1 1 2 2 3 3 4 4 5 5 6 6 7 7 8 8 9 9 10 10 11 11 12 12 13 13
REMARK SMILES IDX 14 14 15 15 17 16 18 17 19 18 20 19 16 20
REMARK H PARENT 16 21 16 22
ROOT
ATOM      1  C   UNL     1      16.527 -52.222 -22.984  1.00  0.00     0.039 C 
ATOM      2  C   UNL     1      15.495 -51.463 -23.781  1.00  0.00    -0.076 C 
ATOM      3  C   UNL     1      15.736 -51.440 -25.106  1.00  0.00    -0.024 C 
ATOM      4  C   UNL     1      13.657 -50.024 -26.233  1.00  0.00     0.018 C 
ATOM      5  C   UNL     1      14.189 -51.378 -25.892  1.00  0.00     0.064 C 
ATOM      6  C   UNL     1      13.285 -51.740 -24.780  1.00  0.00     0.047 A 
ATOM      7  N   UNL     1      12.679 -52.933 -24.838  1.00  0.00    -0.252 NA
ATOM      8  C   UNL     1      11.844 -53.305 -23.843  1.00  0.00     0.074 A 
ATOM      9  C   UNL     1      11.214 -54.524 -23.887  1.00  0.00     0.049 A 
ATOM     10  C   UNL     1      10.353 -54.946 -22.893  1.00  0.00     0.043 A 
ATOM     11  Cl  UNL     1       9.554 -56.506 -22.962  1.00  0.00    -0.084 Cl
ATOM     12  C   UNL     1      10.163 -54.069 -21.850  1.00  0.00     0.021 A 
ATOM     13  C   UNL     1      10.761 -52.831 -21.737  1.00  0.00     0.014 A 
ATOM     14  C   UNL     1      11.606 -52.476 -22.766  1.00  0.00     0.024 A 
ATOM     15  C   UNL     1      12.233 -51.254 -22.713  1.00  0.00     0.046 A 
ATOM     16  C   UNL     1      13.087 -50.864 -23.724  1.00  0.00     0.001 A 
ATOM     17  C   UNL     1      13.847 -49.586 -23.834  1.00  0.00     0.028 C 
ATOM     18  C   UNL     1      14.329 -50.815 -23.135  1.00  0.00     0.039 C 
ATOM     19  C   UNL     1      14.025 -48.961 -25.224  1.00  0.00     0.017 C 
ENDROOT
BRANCH  15  20
ATOM     20  N   UNL     1      12.075 -50.314 -21.665  1.00  0.00    -0.398 N 
ATOM     21  H   UNL     1      11.995 -49.420 -22.219  1.00  0.00     0.156 HD
ATOM     22  H   UNL     1      12.027 -50.301 -20.643  1.00  0.00     0.156 HD
ENDBRANCH  15  20
TORSDOF 1
ENDMDL
MODEL 4
REMARK VINA RESULT:    -9.092      3.032      5.239
REMARK INTER + INTRA:          -9.357
REMARK INTER:                  -9.357
REMARK INTRA:                   0.000
REMARK UNBOUND:                 0.000
REMARK SMILES CC1=C[C@H]2Cc3nc4cc(Cl)ccc4c(N)c3[C@@H](C1)C2
REMARK SMILES IDX 1 1 2 2 3 3 4 4 5 5 6 6 7 7 8 8 9 9 10 10 11 11 12 12 13 13
REMARK SMILES IDX 14 14 15 15 17 16 18 17 19 18 20 19 16 20
REMARK H PARENT 16 21 16 22
ROOT
ATOM      1  C   UNL     1       8.077 -59.674 -24.613  1.00  0.00     0.039 C 
ATOM      2  C   UNL     1       9.569 -59.817 -24.436  1.00  0.00    -0.076 C 
ATOM      3  C   UNL     1      10.231 -60.099 -25.575  1.00  0.00    -0.024 C 
ATOM      4  C   UNL     1      12.896 -60.248 -24.890  1.00  0.00     0.018 C 
ATOM      5  C   UNL     1      11.804 -59.380 -25.425  1.00  0.00     0.064 C 
ATOM      6  C   UNL     1      11.601 -58.476 -24.274  1.00  0.00     0.047 A 
ATOM      7  N   UNL     1      11.601 -57.158 -24.514  1.00  0.00    -0.252 NA
ATOM      8  C   UNL     1      11.419 -56.295 -23.491  1.00  0.00     0.074 A 
ATOM      9  C   UNL     1      11.416 -54.942 -23.718  1.00  0.00     0.049 A 
ATOM     10  C   UNL     1      11.233 -54.022 -22.704  1.00  0.00     0.043 A 
ATOM     11  Cl  UNL     1      11.232 -52.295 -23.009  1.00  0.00    -0.084 Cl
ATOM     12  C   UNL     1      11.052 -54.545 -21.444  1.00  0.00     0.021 A 
ATOM     13  C   UNL     1      11.042 -55.891 -21.139  1.00  0.00     0.014 A 
ATOM     14  C   UNL     1      11.232 -56.749 -22.201  1.00  0.00     0.024 A 
ATOM     15  C   UNL     1      11.233 -58.102 -21.963  1.00  0.00     0.046 A 
ATOM     16  C   UNL     1      11.418 -58.993 -23.000  1.00  0.00     0.001 A 
ATOM     17  C   UNL     1      11.449 -60.482 -22.931  1.00  0.00     0.028 C 
ATOM     18  C   UNL     1      10.218 -59.656 -23.114  1.00  0.00     0.039 C 
ATOM     19  C   UNL     1      12.423 -61.234 -23.846  1.00  0.00     0.017 C 
ENDROOT
BRANCH  15  20
ATOM     20  N   UNL     1      11.051 -58.695 -20.690  1.00  0.00    -0.398 N 
ATOM     21  H   UNL     1      10.575 -59.596 -20.962  1.00  0.00     0.156 HD
ATOM     22  H   UNL     1      11.246 -58.484 -19.707  1.00  0.00     0.156 HD
ENDBRANCH  15  20
TORSDOF 1
ENDMDL
MODEL 5
REMARK VINA RESULT:    -8.992      2.636      3.448
REMARK INTER + INTRA:          -9.255
REMARK INTER:                  -9.255
REMARK INTRA:                   0.000
REMARK UNBOUND:                 0.000
REMARK SMILES CC1=C[C@H]2Cc3nc4cc(Cl)ccc4c(N)c3[C@@H](C1)C2
REMARK SMILES IDX 1 1 2 2 3 3 4 4 5 5 6 6 7 7 8 8 9 9 10 10 11 11 12 12 13 13
REMARK SMILES IDX 14 14 15 15 17 16 18 17 19 18 20 19 16 20
REMARK H PARENT 16 21 16 22
ROOT
ATOM      1  C   UNL     1       7.044 -58.125 -23.876  1.00  0.00     0.039 C 
ATOM      2  C   UNL     1       8.190 -59.027 -23.487  1.00  0.00    -0.076 C 
ATOM      3  C   UNL     1       7.970 -59.739 -22.365  1.00  0.00    -0.024 C 
ATOM      4  C   UNL     1      10.223 -61.280 -21.987  1.00  0.00     0.018 C 
ATOM      5  C   UNL     1       8.838 -61.231 -22.545  1.00  0.00     0.064 C 
ATOM      6  C   UNL     1       9.141 -61.217 -23.992  1.00  0.00     0.047 A 
ATOM      7  N   UNL     1       8.503 -62.104 -24.768  1.00  0.00    -0.252 NA
ATOM      8  C   UNL     1       8.750 -62.125 -26.095  1.00  0.00     0.074 A 
ATOM      9  C   UNL     1       8.106 -63.028 -26.905  1.00  0.00     0.049 A 
ATOM     10  C   UNL     1       8.326 -63.087 -28.267  1.00  0.00     0.043 A 
ATOM     11  Cl  UNL     1       7.497 -64.245 -29.290  1.00  0.00    -0.084 Cl
ATOM     12  C   UNL     1       9.234 -62.182 -28.769  1.00  0.00     0.021 A 
ATOM     13  C   UNL     1       9.918 -61.247 -28.019  1.00  0.00     0.014 A 
ATOM     14  C   UNL     1       9.648 -61.247 -26.667  1.00  0.00     0.024 A 
ATOM     15  C   UNL     1      10.298 -60.340 -25.866  1.00  0.00     0.046 A 
ATOM     16  C   UNL     1      10.053 -60.309 -24.508  1.00  0.00     0.001 A 
ATOM     17  C   UNL     1      10.659 -59.402 -23.492  1.00  0.00     0.028 C 
ATOM     18  C   UNL     1       9.434 -59.101 -24.289  1.00  0.00     0.039 C 
ATOM     19  C   UNL     1      10.963 -59.967 -22.098  1.00  0.00     0.017 C 
ENDROOT
BRANCH  15  20
ATOM     20  N   UNL     1      11.239 -59.388 -26.327  1.00  0.00    -0.398 N 
ATOM     21  H   UNL     1      11.652 -59.066 -25.411  1.00  0.00     0.156 HD
ATOM     22  H   UNL     1      11.565 -58.994 -27.214  1.00  0.00     0.156 HD
ENDBRANCH  15  20
TORSDOF 1
ENDMDL
MODEL 6
REMARK VINA RESULT:    -8.431      2.975      4.533
REMARK INTER + INTRA:          -8.677
REMARK INTER:                  -8.677
REMARK INTRA:                   0.000
REMARK UNBOUND:                 0.000
REMARK SMILES CC1=C[C@H]2Cc3nc4cc(Cl)ccc4c(N)c3[C@@H](C1)C2
REMARK SMILES IDX 1 1 2 2 3 3 4 4 5 5 6 6 7 7 8 8 9 9 10 10 11 11 12 12 13 13
REMARK SMILES IDX 14 14 15 15 17 16 18 17 19 18 20 19 16 20
REMARK H PARENT 16 21 16 22
ROOT
ATOM      1  C   UNL     1      13.444 -60.723 -24.342  1.00  0.00     0.039 C 
ATOM      2  C   UNL     1      12.321 -59.905 -23.755  1.00  0.00    -0.076 C 
ATOM      3  C   UNL     1      12.110 -58.734 -24.386  1.00  0.00    -0.024 C 
ATOM      4  C   UNL     1       9.990 -57.541 -23.089  1.00  0.00     0.018 C 
ATOM      5  C   UNL     1      10.414 -58.391 -24.243  1.00  0.00     0.064 C 
ATOM      6  C   UNL     1       9.889 -59.702 -23.808  1.00  0.00     0.047 A 
ATOM      7  N   UNL     1       9.140 -60.390 -24.680  1.00  0.00    -0.252 NA
ATOM      8  C   UNL     1       8.640 -61.594 -24.324  1.00  0.00     0.074 A 
ATOM      9  C   UNL     1       7.870 -62.312 -25.204  1.00  0.00     0.049 A 
ATOM     10  C   UNL     1       7.338 -63.546 -24.885  1.00  0.00     0.043 A 
ATOM     11  Cl  UNL     1       6.356 -64.453 -26.019  1.00  0.00    -0.084 Cl
ATOM     12  C   UNL     1       7.628 -64.016 -23.624  1.00  0.00     0.021 A 
ATOM     13  C   UNL     1       8.393 -63.353 -22.687  1.00  0.00     0.014 A 
ATOM     14  C   UNL     1       8.889 -62.127 -23.076  1.00  0.00     0.024 A 
ATOM     15  C   UNL     1       9.659 -61.416 -22.187  1.00  0.00     0.046 A 
ATOM     16  C   UNL     1      10.175 -60.186 -22.540  1.00  0.00     0.001 A 
ATOM     17  C   UNL     1      11.023 -59.280 -21.714  1.00  0.00     0.028 C 
ATOM     18  C   UNL     1      11.536 -60.376 -22.589  1.00  0.00     0.039 C 
ATOM     19  C   UNL     1      10.814 -57.766 -21.842  1.00  0.00     0.017 C 
ENDROOT
BRANCH  15  20
ATOM     20  N   UNL     1       9.988 -61.851 -20.880  1.00  0.00    -0.398 N 
ATOM     21  H   UNL     1       9.429 -62.745 -20.828  1.00  0.00     0.156 HD
ATOM     22  H   UNL     1      10.560 -61.546 -20.087  1.00  0.00     0.156 HD
ENDBRANCH  15  20
TORSDOF 1
ENDMDL
MODEL 7
REMARK VINA RESULT:    -8.210      7.495     10.326
REMARK INTER + INTRA:          -8.450
REMARK INTER:                  -8.450
REMARK INTRA:                   0.000
REMARK UNBOUND:                 0.000
REMARK SMILES CC1=C[C@H]2Cc3nc4cc(Cl)ccc4c(N)c3[C@@H](C1)C2
REMARK SMILES IDX 1 1 2 2 3 3 4 4 5 5 6 6 7 7 8 8 9 9 10 10 11 11 12 12 13 13
REMARK SMILES IDX 14 14 15 15 17 16 18 17 19 18 20 19 16 20
REMARK H PARENT 16 21 16 22
ROOT
ATOM      1  C   UNL     1      15.466 -48.325 -21.714  1.00  0.00     0.039 C 
ATOM      2  C   UNL     1      14.232 -47.976 -22.508  1.00  0.00    -0.076 C 
ATOM      3  C   UNL     1      14.458 -47.116 -23.520  1.00  0.00    -0.024 C 
ATOM      4  C   UNL     1      12.024 -46.743 -24.759  1.00  0.00     0.018 C 
ATOM      5  C   UNL     1      13.311 -47.502 -24.765  1.00  0.00     0.064 C 
ATOM      6  C   UNL     1      12.833 -48.827 -24.318  1.00  0.00     0.047 A 
ATOM      7  N   UNL     1      13.190 -49.894 -25.047  1.00  0.00    -0.252 NA
ATOM      8  C   UNL     1      12.775 -51.124 -24.674  1.00  0.00     0.074 A 
ATOM      9  C   UNL     1      13.130 -52.227 -25.409  1.00  0.00     0.049 A 
ATOM     10  C   UNL     1      12.731 -53.504 -25.067  1.00  0.00     0.043 A 
ATOM     11  Cl  UNL     1      13.192 -54.904 -26.015  1.00  0.00    -0.084 Cl
ATOM     12  C   UNL     1      11.951 -53.606 -23.937  1.00  0.00     0.021 A 
ATOM     13  C   UNL     1      11.555 -52.545 -23.149  1.00  0.00     0.014 A 
ATOM     14  C   UNL     1      11.991 -51.301 -23.553  1.00  0.00     0.024 A 
ATOM     15  C   UNL     1      11.630 -50.204 -22.809  1.00  0.00     0.046 A 
ATOM     16  C   UNL     1      12.047 -48.942 -23.181  1.00  0.00     0.001 A 
ATOM     17  C   UNL     1      11.756 -47.647 -22.502  1.00  0.00     0.028 C 
ATOM     18  C   UNL     1      12.904 -48.546 -22.180  1.00  0.00     0.039 C 
ATOM     19  C   UNL     1      11.533 -46.402 -23.371  1.00  0.00     0.017 C 
ENDROOT
BRANCH  15  20
ATOM     20  N   UNL     1      10.831 -50.251 -21.640  1.00  0.00    -0.398 N 
ATOM     21  H   UNL     1      10.158 -51.021 -21.898  1.00  0.00     0.156 HD
ATOM     22  H   UNL     1      10.764 -49.780 -20.734  1.00  0.00     0.156 HD
ENDBRANCH  15  20
TORSDOF 1
ENDMDL
MODEL 8
REMARK VINA RESULT:    -7.908      8.176     11.314
REMARK INTER + INTRA:          -8.140
REMARK INTER:                  -8.140
REMARK INTRA:                   0.000
REMARK UNBOUND:                 0.000
REMARK SMILES CC1=C[C@H]2Cc3nc4cc(Cl)ccc4c(N)c3[C@@H](C1)C2
REMARK SMILES IDX 1 1 2 2 3 3 4 4 5 5 6 6 7 7 8 8 9 9 10 10 11 11 12 12 13 13
REMARK SMILES IDX 14 14 15 15 17 16 18 17 19 18 20 19 16 20
REMARK H PARENT 16 21 16 22
ROOT
ATOM      1  C   UNL     1      15.136 -47.658 -21.082  1.00  0.00     0.039 C 
ATOM      2  C   UNL     1      14.403 -47.515 -22.393  1.00  0.00    -0.076 C 
ATOM      3  C   UNL     1      15.209 -47.497 -23.472  1.00  0.00    -0.024 C 
ATOM      4  C   UNL     1      13.548 -47.270 -25.659  1.00  0.00     0.018 C 
ATOM      5  C   UNL     1      14.309 -48.205 -24.777  1.00  0.00     0.064 C 
ATOM      6  C   UNL     1      13.192 -48.840 -24.046  1.00  0.00     0.047 A 
ATOM      7  N   UNL     1      13.165 -50.179 -23.999  1.00  0.00    -0.252 NA
ATOM      8  C   UNL     1      12.163 -50.802 -23.342  1.00  0.00     0.074 A 
ATOM      9  C   UNL     1      12.119 -52.173 -23.284  1.00  0.00     0.049 A 
ATOM     10  C   UNL     1      11.115 -52.853 -22.624  1.00  0.00     0.043 A 
ATOM     11  Cl  UNL     1      11.071 -54.604 -22.558  1.00  0.00    -0.084 Cl
ATOM     12  C   UNL     1      10.154 -52.071 -22.024  1.00  0.00     0.021 A 
ATOM     13  C   UNL     1      10.132 -50.692 -22.039  1.00  0.00     0.014 A 
ATOM     14  C   UNL     1      11.165 -50.082 -22.717  1.00  0.00     0.024 A 
ATOM     15  C   UNL     1      11.200 -48.709 -22.769  1.00  0.00     0.046 A 
ATOM     16  C   UNL     1      12.219 -48.062 -23.438  1.00  0.00     0.001 A 
ATOM     17  C   UNL     1      12.418 -46.594 -23.598  1.00  0.00     0.028 C 
ATOM     18  C   UNL     1      12.926 -47.409 -22.455  1.00  0.00     0.039 C 
ATOM     19  C   UNL     1      12.984 -46.074 -24.925  1.00  0.00     0.017 C 
ENDROOT
BRANCH  15  20
ATOM     20  N   UNL     1      10.240 -47.857 -22.171  1.00  0.00    -0.398 N 
ATOM     21  H   UNL     1      10.538 -46.925 -22.564  1.00  0.00     0.156 HD
ATOM     22  H   UNL     1       9.439 -47.924 -21.536  1.00  0.00     0.156 HD
ENDBRANCH  15  20
TORSDOF 1
ENDMDL
MODEL 9
REMARK VINA RESULT:    -7.590      2.390      3.838
REMARK INTER + INTRA:          -7.812
REMARK INTER:                  -7.812
REMARK INTRA:                   0.000
REMARK UNBOUND:                 0.000
REMARK SMILES CC1=C[C@H]2Cc3nc4cc(Cl)ccc4c(N)c3[C@@H](C1)C2
REMARK SMILES IDX 1 1 2 2 3 3 4 4 5 5 6 6 7 7 8 8 9 9 10 10 11 11 12 12 13 13
REMARK SMILES IDX 14 14 15 15 17 16 18 17 19 18 20 19 16 20
REMARK H PARENT 16 21 16 22
ROOT
ATOM      1  C   UNL     1      10.634 -62.974 -22.614  1.00  0.00     0.039 C 
ATOM      2  C   UNL     1       9.483 -62.078 -22.998  1.00  0.00    -0.076 C 
ATOM      3  C   UNL     1       9.351 -60.991 -22.213  1.00  0.00    -0.024 C 
ATOM      4  C   UNL     1       7.205 -59.582 -23.217  1.00  0.00     0.018 C 
ATOM      5  C   UNL     1       8.691 -59.733 -23.212  1.00  0.00     0.064 C 
ATOM      6  C   UNL     1       8.900 -60.297 -24.562  1.00  0.00     0.047 A 
ATOM      7  N   UNL     1       9.819 -59.712 -25.343  1.00  0.00    -0.252 NA
ATOM      8  C   UNL     1      10.042 -60.195 -26.584  1.00  0.00     0.074 A 
ATOM      9  C   UNL     1      10.978 -59.608 -27.398  1.00  0.00     0.049 A 
ATOM     10  C   UNL     1      11.241 -60.066 -28.674  1.00  0.00     0.043 A 
ATOM     11  Cl  UNL     1      12.440 -59.307 -29.703  1.00  0.00    -0.084 Cl
ATOM     12  C   UNL     1      10.505 -61.154 -29.084  1.00  0.00     0.021 A 
ATOM     13  C   UNL     1       9.549 -61.797 -28.324  1.00  0.00     0.014 A 
ATOM     14  C   UNL     1       9.340 -61.283 -27.062  1.00  0.00     0.024 A 
ATOM     15  C   UNL     1       8.401 -61.879 -26.256  1.00  0.00     0.046 A 
ATOM     16  C   UNL     1       8.164 -61.393 -24.986  1.00  0.00     0.001 A 
ATOM     17  C   UNL     1       7.192 -61.907 -23.979  1.00  0.00     0.028 C 
ATOM     18  C   UNL     1       8.595 -62.391 -24.142  1.00  0.00     0.039 C 
ATOM     19  C   UNL     1       6.467 -60.895 -23.083  1.00  0.00     0.017 C 
ENDROOT
BRANCH  15  20
ATOM     20  N   UNL     1       7.616 -62.998 -26.625  1.00  0.00    -0.398 N 
ATOM     21  H   UNL     1       8.308 -63.779 -26.465  1.00  0.00     0.156 HD
ATOM     22  H   UNL     1       6.671 -63.199 -26.964  1.00  0.00     0.156 HD
ENDBRANCH  15  20
TORSDOF 1
ENDMDL
