MODEL 1
REMARK VINA RESULT:   -12.520      0.000      0.000
REMARK INTER + INTRA:         -15.334
REMARK INTER:                 -15.448
REMARK INTRA:                   0.114
REMARK UNBOUND:                 0.114
REMARK SMILES Cc1cccc(C(=O)N2Cc3cc(NC(=O)c4ccccc4)ccc3CC2=O)c1
REMARK SMILES IDX 9 1 10 2 11 3 12 4 13 5 23 6 24 7 25 8 26 9 27 10 28 11 7 12
REMARK SMILES IDX 8 13 6 14 2 15 3 16 29 17 4 18 5 19 1 20 14 21 15 22 16 24
REMARK SMILES IDX 17 25 18 26 22 27 19 28 21 29 20 30
REMARK H PARENT 14 23
ROOT
ATOM      1  N   UNL     1       8.712 -61.007 -23.568  1.00  0.00    -0.274 N 
ATOM      2  C   UNL     1       9.632 -60.023 -24.116  1.00  0.00     0.164 C 
ATOM      3  C   UNL     1      10.213 -59.150 -23.042  1.00  0.00    -0.022 A 
ATOM      4  C   UNL     1      10.491 -57.792 -23.257  1.00  0.00     0.032 A 
ATOM      5  C   UNL     1      11.065 -57.012 -22.246  1.00  0.00     0.041 A 
ATOM      6  C   UNL     1      11.376 -57.612 -21.025  1.00  0.00     0.026 A 
ATOM      7  C   UNL     1      11.114 -58.969 -20.812  1.00  0.00     0.007 A 
ATOM      8  C   UNL     1      10.524 -59.740 -21.816  1.00  0.00    -0.033 A 
ATOM      9  C   UNL     1      10.269 -61.210 -21.632  1.00  0.00     0.136 C 
ATOM     10  C   UNL     1       9.154 -61.786 -22.498  1.00  0.00     0.234 C 
ATOM     11  O   UNL     1       8.698 -62.897 -22.221  1.00  0.00    -0.274 OA
ENDROOT
BRANCH   1  12
ATOM     12  C   UNL     1       7.781 -61.510 -24.479  1.00  0.00     0.260 C 
ATOM     13  O   UNL     1       6.594 -61.670 -24.192  1.00  0.00    -0.269 OA
BRANCH  12  14
ATOM     14  C   UNL     1       8.247 -61.897 -25.842  1.00  0.00     0.040 A 
ATOM     15  C   UNL     1       9.652 -61.543 -27.795  1.00  0.00    -0.050 A 
ATOM     16  C   UNL     1       9.162 -62.735 -28.344  1.00  0.00     0.003 A 
ATOM     17  C   UNL     1       9.204 -61.138 -26.530  1.00  0.00     0.017 A 
ATOM     18  C   UNL     1       8.224 -63.502 -27.652  1.00  0.00     0.001 A 
ATOM     19  C   UNL     1       7.770 -63.087 -26.400  1.00  0.00     0.014 A 
ATOM     20  C   UNL     1      10.689 -60.741 -28.525  1.00  0.00     0.044 C 
ENDBRANCH  12  14
ENDBRANCH   1  12
BRANCH   5  21
ATOM     21  N   UNL     1      11.309 -55.653 -22.541  1.00  0.00    -0.322 N 
ATOM     22  C   UNL     1      10.563 -54.560 -22.138  1.00  0.00     0.255 C 
ATOM     23  H   UNL     1      12.073 -55.472 -23.178  1.00  0.00     0.170 HD
ATOM     24  O   UNL     1       9.514 -54.577 -21.506  1.00  0.00    -0.269 OA
BRANCH  22  25
ATOM     25  C   UNL     1      11.103 -53.241 -22.574  1.00  0.00     0.040 A 
ATOM     26  C   UNL     1      10.777 -52.105 -21.825  1.00  0.00     0.014 A 
ATOM     27  C   UNL     1      11.943 -53.122 -23.689  1.00  0.00     0.014 A 
ATOM     28  C   UNL     1      11.263 -50.853 -22.205  1.00  0.00     0.001 A 
ATOM     29  C   UNL     1      12.427 -51.867 -24.065  1.00  0.00     0.001 A 
ATOM     30  C   UNL     1      12.084 -50.735 -23.326  1.00  0.00     0.000 A 
ENDBRANCH  22  25
ENDBRANCH   5  21
TORSDOF 4
ENDMDL
MODEL 2
REMARK VINA RESULT:   -12.368      3.299      9.904
REMARK INTER + INTRA:         -15.146
REMARK INTER:                 -14.489
REMARK INTRA:                  -0.658
REMARK UNBOUND:                 0.114
REMARK SMILES Cc1cccc(C(=O)N2Cc3cc(NC(=O)c4ccccc4)ccc3CC2=O)c1
REMARK SMILES IDX 9 1 10 2 11 3 12 4 13 5 23 6 24 7 25 8 26 9 27 10 28 11 7 12
REMARK SMILES IDX 8 13 6 14 2 15 3 16 29 17 4 18 5 19 1 20 14 21 15 22 16 24
REMARK SMILES IDX 17 25 18 26 22 27 19 28 21 29 20 30
REMARK H PARENT 14 23
ROOT
ATOM      1  N   UNL     1      12.884 -51.787 -24.104  1.00  0.00    -0.274 N 
ATOM      2  C   UNL     1      12.194 -52.940 -24.661  1.00  0.00     0.164 C 
ATOM      3  C   UNL     1      11.541 -53.765 -23.591  1.00  0.00    -0.022 A 
ATOM      4  C   UNL     1      11.465 -55.163 -23.672  1.00  0.00     0.032 A 
ATOM      5  C   UNL     1      10.819 -55.903 -22.674  1.00  0.00     0.041 A 
ATOM      6  C   UNL     1      10.232 -55.225 -21.605  1.00  0.00     0.026 A 
ATOM      7  C   UNL     1      10.294 -53.830 -21.527  1.00  0.00     0.007 A 
ATOM      8  C   UNL     1      10.955 -53.097 -22.514  1.00  0.00    -0.033 A 
ATOM      9  C   UNL     1      11.002 -51.595 -22.481  1.00  0.00     0.136 C 
ATOM     10  C   UNL     1      12.176 -50.967 -23.225  1.00  0.00     0.234 C 
ATOM     11  O   UNL     1      12.444 -49.782 -23.023  1.00  0.00    -0.274 OA
ENDROOT
BRANCH   1  12
ATOM     12  C   UNL     1      13.894 -51.262 -24.912  1.00  0.00     0.260 C 
ATOM     13  O   UNL     1      13.658 -50.667 -25.965  1.00  0.00    -0.269 OA
BRANCH  12  14
ATOM     14  C   UNL     1      15.315 -51.452 -24.501  1.00  0.00     0.040 A 
ATOM     15  C   UNL     1      17.649 -51.882 -25.033  1.00  0.00    -0.050 A 
ATOM     16  C   UNL     1      17.976 -51.688 -23.686  1.00  0.00     0.003 A 
ATOM     17  C   UNL     1      16.315 -51.742 -25.441  1.00  0.00     0.017 A 
ATOM     18  C   UNL     1      16.985 -51.379 -22.752  1.00  0.00     0.001 A 
ATOM     19  C   UNL     1      15.657 -51.257 -23.159  1.00  0.00     0.014 A 
ATOM     20  C   UNL     1      18.722 -52.175 -26.040  1.00  0.00     0.044 C 
ENDBRANCH  12  14
ENDBRANCH   1  12
BRANCH   5  21
ATOM     21  N   UNL     1      10.789 -57.306 -22.829  1.00  0.00    -0.322 N 
ATOM     22  C   UNL     1      11.095 -58.261 -21.876  1.00  0.00     0.255 C 
ATOM     23  H   UNL     1      10.592 -57.642 -23.762  1.00  0.00     0.170 HD
ATOM     24  O   UNL     1      11.514 -58.063 -20.742  1.00  0.00    -0.269 OA
BRANCH  22  25
ATOM     25  C   UNL     1      10.925 -59.671 -22.330  1.00  0.00     0.040 A 
ATOM     26  C   UNL     1      10.003 -60.483 -21.658  1.00  0.00     0.014 A 
ATOM     27  C   UNL     1      11.641 -60.185 -23.420  1.00  0.00     0.014 A 
ATOM     28  C   UNL     1       9.820 -61.808 -22.054  1.00  0.00     0.001 A 
ATOM     29  C   UNL     1      11.452 -61.512 -23.813  1.00  0.00     0.001 A 
ATOM     30  C   UNL     1      10.547 -62.322 -23.128  1.00  0.00     0.000 A 
ENDBRANCH  22  25
ENDBRANCH   5  21
TORSDOF 4
ENDMDL
MODEL 3
REMARK VINA RESULT:   -11.773      2.166      3.393
REMARK INTER + INTRA:         -14.412
REMARK INTER:                 -13.635
REMARK INTRA:                  -0.777
REMARK UNBOUND:                 0.114
REMARK SMILES Cc1cccc(C(=O)N2Cc3cc(NC(=O)c4ccccc4)ccc3CC2=O)c1
REMARK SMILES IDX 9 1 10 2 11 3 12 4 13 5 23 6 24 7 25 8 26 9 27 10 28 11 7 12
REMARK SMILES IDX 8 13 6 14 2 15 3 16 29 17 4 18 5 19 1 20 14 21 15 22 16 24
REMARK SMILES IDX 17 25 18 26 22 27 19 28 21 29 20 30
REMARK H PARENT 14 23
ROOT
ATOM      1  N   UNL     1      11.016 -59.311 -23.875  1.00  0.00    -0.274 N 
ATOM      2  C   UNL     1      12.001 -58.249 -23.752  1.00  0.00     0.164 C 
ATOM      3  C   UNL     1      11.352 -56.910 -23.555  1.00  0.00    -0.022 A 
ATOM      4  C   UNL     1      11.889 -55.735 -24.101  1.00  0.00     0.032 A 
ATOM      5  C   UNL     1      11.278 -54.496 -23.871  1.00  0.00     0.041 A 
ATOM      6  C   UNL     1      10.136 -54.445 -23.071  1.00  0.00     0.026 A 
ATOM      7  C   UNL     1       9.606 -55.613 -22.512  1.00  0.00     0.007 A 
ATOM      8  C   UNL     1      10.206 -56.849 -22.760  1.00  0.00    -0.033 A 
ATOM      9  C   UNL     1       9.685 -58.115 -22.139  1.00  0.00     0.136 C 
ATOM     10  C   UNL     1      10.023 -59.394 -22.898  1.00  0.00     0.234 C 
ATOM     11  O   UNL     1       9.416 -60.429 -22.621  1.00  0.00    -0.274 OA
ENDROOT
BRANCH   1  12
ATOM     12  C   UNL     1      11.468 -60.457 -24.531  1.00  0.00     0.260 C 
ATOM     13  O   UNL     1      12.420 -61.123 -24.119  1.00  0.00    -0.269 OA
BRANCH  12  14
ATOM     14  C   UNL     1      10.795 -60.876 -25.794  1.00  0.00     0.040 A 
ATOM     15  C   UNL     1       9.108 -62.160 -26.985  1.00  0.00    -0.050 A 
ATOM     16  C   UNL     1       9.497 -61.536 -28.177  1.00  0.00     0.003 A 
ATOM     17  C   UNL     1       9.749 -61.810 -25.789  1.00  0.00     0.017 A 
ATOM     18  C   UNL     1      10.524 -60.591 -28.181  1.00  0.00     0.001 A 
ATOM     19  C   UNL     1      11.170 -60.257 -26.990  1.00  0.00     0.014 A 
ATOM     20  C   UNL     1       7.977 -63.147 -26.979  1.00  0.00     0.044 C 
ENDBRANCH  12  14
ENDBRANCH   1  12
BRANCH   5  21
ATOM     21  N   UNL     1      11.879 -53.362 -24.460  1.00  0.00    -0.322 N 
ATOM     22  C   UNL     1      12.341 -52.229 -23.815  1.00  0.00     0.255 C 
ATOM     23  H   UNL     1      11.905 -53.353 -25.471  1.00  0.00     0.170 HD
ATOM     24  O   UNL     1      12.251 -51.973 -22.620  1.00  0.00    -0.269 OA
BRANCH  22  25
ATOM     25  C   UNL     1      12.970 -51.215 -24.709  1.00  0.00     0.040 A 
ATOM     26  C   UNL     1      12.921 -49.868 -24.331  1.00  0.00     0.014 A 
ATOM     27  C   UNL     1      13.627 -51.584 -25.891  1.00  0.00     0.014 A 
ATOM     28  C   UNL     1      13.498 -48.892 -25.145  1.00  0.00     0.001 A 
ATOM     29  C   UNL     1      14.204 -50.602 -26.701  1.00  0.00     0.001 A 
ATOM     30  C   UNL     1      14.135 -49.260 -26.330  1.00  0.00     0.000 A 
ENDBRANCH  22  25
ENDBRANCH   5  21
TORSDOF 4
ENDMDL
MODEL 4
REMARK VINA RESULT:   -11.685      1.813      2.621
REMARK INTER + INTRA:         -14.304
REMARK INTER:                 -15.434
REMARK INTRA:                   1.130
REMARK UNBOUND:                 0.114
REMARK SMILES Cc1cccc(C(=O)N2Cc3cc(NC(=O)c4ccccc4)ccc3CC2=O)c1
REMARK SMILES IDX 9 1 10 2 11 3 12 4 13 5 23 6 24 7 25 8 26 9 27 10 28 11 7 12
REMARK SMILES IDX 8 13 6 14 2 15 3 16 29 17 4 18 5 19 1 20 14 21 15 22 16 24
REMARK SMILES IDX 17 25 18 26 22 27 19 28 21 29 20 30
REMARK H PARENT 14 23
ROOT
ATOM      1  N   UNL     1      11.089 -59.980 -24.996  1.00  0.00    -0.274 N 
ATOM      2  C   UNL     1      11.817 -58.721 -24.998  1.00  0.00     0.164 C 
ATOM      3  C   UNL     1      11.587 -57.947 -23.733  1.00  0.00    -0.022 A 
ATOM      4  C   UNL     1      11.512 -56.546 -23.720  1.00  0.00     0.032 A 
ATOM      5  C   UNL     1      11.330 -55.850 -22.519  1.00  0.00     0.041 A 
ATOM      6  C   UNL     1      11.245 -56.573 -21.328  1.00  0.00     0.026 A 
ATOM      7  C   UNL     1      11.333 -57.969 -21.334  1.00  0.00     0.007 A 
ATOM      8  C   UNL     1      11.495 -58.660 -22.536  1.00  0.00    -0.033 A 
ATOM      9  C   UNL     1      11.635 -60.156 -22.570  1.00  0.00     0.136 C 
ATOM     10  C   UNL     1      11.233 -60.813 -23.887  1.00  0.00     0.234 C 
ATOM     11  O   UNL     1      11.055 -62.032 -23.914  1.00  0.00    -0.274 OA
ENDROOT
BRANCH   1  12
ATOM     12  C   UNL     1      10.842 -60.515 -26.262  1.00  0.00     0.260 C 
ATOM     13  O   UNL     1      11.470 -60.166 -27.263  1.00  0.00    -0.269 OA
BRANCH  12  14
ATOM     14  C   UNL     1       9.755 -61.525 -26.415  1.00  0.00     0.040 A 
ATOM     15  C   UNL     1       7.869 -62.777 -25.527  1.00  0.00    -0.050 A 
ATOM     16  C   UNL     1       7.668 -63.343 -26.793  1.00  0.00     0.003 A 
ATOM     17  C   UNL     1       8.905 -61.851 -25.348  1.00  0.00     0.017 A 
ATOM     18  C   UNL     1       8.501 -63.004 -27.861  1.00  0.00     0.001 A 
ATOM     19  C   UNL     1       9.541 -62.094 -27.674  1.00  0.00     0.014 A 
ATOM     20  C   UNL     1       6.947 -63.114 -24.391  1.00  0.00     0.044 C 
ENDBRANCH  12  14
ENDBRANCH   1  12
BRANCH   5  21
ATOM     21  N   UNL     1      11.262 -54.443 -22.593  1.00  0.00    -0.322 N 
ATOM     22  C   UNL     1      10.250 -53.626 -22.122  1.00  0.00     0.255 C 
ATOM     23  H   UNL     1      12.003 -53.993 -23.114  1.00  0.00     0.170 HD
ATOM     24  O   UNL     1       9.194 -53.981 -21.613  1.00  0.00    -0.269 OA
BRANCH  22  25
ATOM     25  C   UNL     1      10.487 -52.166 -22.310  1.00  0.00     0.040 A 
ATOM     26  C   UNL     1      11.703 -51.753 -22.866  1.00  0.00     0.014 A 
ATOM     27  C   UNL     1       9.517 -51.213 -21.971  1.00  0.00     0.014 A 
ATOM     28  C   UNL     1      11.960 -50.395 -23.055  1.00  0.00     0.001 A 
ATOM     29  C   UNL     1       9.780 -49.855 -22.163  1.00  0.00     0.001 A 
ATOM     30  C   UNL     1      11.001 -49.447 -22.700  1.00  0.00     0.000 A 
ENDBRANCH  22  25
ENDBRANCH   5  21
TORSDOF 4
ENDMDL
MODEL 5
REMARK VINA RESULT:   -11.541      1.287      2.223
REMARK INTER + INTRA:         -14.126
REMARK INTER:                 -13.871
REMARK INTRA:                  -0.255
REMARK UNBOUND:                 0.114
REMARK SMILES Cc1cccc(C(=O)N2Cc3cc(NC(=O)c4ccccc4)ccc3CC2=O)c1
REMARK SMILES IDX 9 1 10 2 11 3 12 4 13 5 23 6 24 7 25 8 26 9 27 10 28 11 7 12
REMARK SMILES IDX 8 13 6 14 2 15 3 16 29 17 4 18 5 19 1 20 14 21 15 22 16 24
REMARK SMILES IDX 17 25 18 26 22 27 19 28 21 29 20 30
REMARK H PARENT 14 23
ROOT
ATOM      1  N   UNL     1       8.551 -60.106 -23.090  1.00  0.00    -0.274 N 
ATOM      2  C   UNL     1       9.148 -58.970 -23.773  1.00  0.00     0.164 C 
ATOM      3  C   UNL     1       9.962 -58.126 -22.837  1.00  0.00    -0.022 A 
ATOM      4  C   UNL     1      10.028 -56.730 -22.960  1.00  0.00     0.032 A 
ATOM      5  C   UNL     1      10.824 -55.972 -22.091  1.00  0.00     0.041 A 
ATOM      6  C   UNL     1      11.568 -56.631 -21.112  1.00  0.00     0.026 A 
ATOM      7  C   UNL     1      11.516 -58.024 -20.994  1.00  0.00     0.007 A 
ATOM      8  C   UNL     1      10.707 -58.774 -21.849  1.00  0.00    -0.033 A 
ATOM      9  C   UNL     1      10.663 -60.275 -21.775  1.00  0.00     0.136 C 
ATOM     10  C   UNL     1       9.385 -60.911 -22.314  1.00  0.00     0.234 C 
ATOM     11  O   UNL     1       9.148 -62.090 -22.046  1.00  0.00    -0.274 OA
ENDROOT
BRANCH   1  12
ATOM     12  C   UNL     1       7.426 -60.643 -23.719  1.00  0.00     0.260 C 
ATOM     13  O   UNL     1       6.279 -60.286 -23.444  1.00  0.00    -0.269 OA
BRANCH  12  14
ATOM     14  C   UNL     1       7.617 -61.711 -24.742  1.00  0.00     0.040 A 
ATOM     15  C   UNL     1       7.047 -63.874 -25.697  1.00  0.00    -0.050 A 
ATOM     16  C   UNL     1       7.938 -63.626 -26.750  1.00  0.00     0.003 A 
ATOM     17  C   UNL     1       6.875 -62.901 -24.704  1.00  0.00     0.017 A 
ATOM     18  C   UNL     1       8.662 -62.434 -26.800  1.00  0.00     0.001 A 
ATOM     19  C   UNL     1       8.499 -61.475 -25.801  1.00  0.00     0.014 A 
ATOM     20  C   UNL     1       6.242 -65.140 -25.667  1.00  0.00     0.044 C 
ENDBRANCH  12  14
ENDBRANCH   1  12
BRANCH   5  21
ATOM     21  N   UNL     1      10.833 -54.574 -22.280  1.00  0.00    -0.322 N 
ATOM     22  C   UNL     1      10.752 -53.596 -21.305  1.00  0.00     0.255 C 
ATOM     23  H   UNL     1      10.824 -54.259 -23.241  1.00  0.00     0.170 HD
ATOM     24  O   UNL     1      10.589 -53.766 -20.103  1.00  0.00    -0.269 OA
BRANCH  22  25
ATOM     25  C   UNL     1      10.832 -52.197 -21.816  1.00  0.00     0.040 A 
ATOM     26  C   UNL     1      12.055 -51.739 -22.319  1.00  0.00     0.014 A 
ATOM     27  C   UNL     1       9.713 -51.354 -21.830  1.00  0.00     0.014 A 
ATOM     28  C   UNL     1      12.167 -50.435 -22.804  1.00  0.00     0.001 A 
ATOM     29  C   UNL     1       9.831 -50.050 -22.317  1.00  0.00     0.001 A 
ATOM     30  C   UNL     1      11.057 -49.591 -22.799  1.00  0.00     0.000 A 
ENDBRANCH  22  25
ENDBRANCH   5  21
TORSDOF 4
ENDMDL
MODEL 6
REMARK VINA RESULT:   -11.341      3.842     10.572
REMARK INTER + INTRA:         -13.879
REMARK INTER:                 -13.704
REMARK INTRA:                  -0.175
REMARK UNBOUND:                 0.114
REMARK SMILES Cc1cccc(C(=O)N2Cc3cc(NC(=O)c4ccccc4)ccc3CC2=O)c1
REMARK SMILES IDX 9 1 10 2 11 3 12 4 13 5 23 6 24 7 25 8 26 9 27 10 28 11 7 12
REMARK SMILES IDX 8 13 6 14 2 15 3 16 29 17 4 18 5 19 1 20 14 21 15 22 16 24
REMARK SMILES IDX 17 25 18 26 22 27 19 28 21 29 20 30
REMARK H PARENT 14 23
ROOT
ATOM      1  N   UNL     1      13.801 -50.684 -24.729  1.00  0.00    -0.274 N 
ATOM      2  C   UNL     1      12.869 -51.764 -25.013  1.00  0.00     0.164 C 
ATOM      3  C   UNL     1      12.106 -52.173 -23.787  1.00  0.00    -0.022 A 
ATOM      4  C   UNL     1      11.744 -53.507 -23.548  1.00  0.00     0.032 A 
ATOM      5  C   UNL     1      11.002 -53.853 -22.411  1.00  0.00     0.041 A 
ATOM      6  C   UNL     1      10.610 -52.845 -21.529  1.00  0.00     0.026 A 
ATOM      7  C   UNL     1      10.957 -51.512 -21.772  1.00  0.00     0.007 A 
ATOM      8  C   UNL     1      11.713 -51.174 -22.896  1.00  0.00    -0.033 A 
ATOM      9  C   UNL     1      12.065 -49.746 -23.205  1.00  0.00     0.136 C 
ATOM     10  C   UNL     1      13.311 -49.559 -24.066  1.00  0.00     0.234 C 
ATOM     11  O   UNL     1      13.824 -48.441 -24.137  1.00  0.00    -0.274 OA
ENDROOT
BRANCH   1  12
ATOM     12  C   UNL     1      14.863 -50.575 -25.629  1.00  0.00     0.260 C 
ATOM     13  O   UNL     1      14.692 -50.415 -26.838  1.00  0.00    -0.269 OA
BRANCH  12  14
ATOM     14  C   UNL     1      16.257 -50.687 -25.111  1.00  0.00     0.040 A 
ATOM     15  C   UNL     1      17.852 -50.745 -23.276  1.00  0.00    -0.050 A 
ATOM     16  C   UNL     1      18.875 -51.016 -24.193  1.00  0.00     0.003 A 
ATOM     17  C   UNL     1      16.537 -50.601 -23.740  1.00  0.00     0.017 A 
ATOM     18  C   UNL     1      18.595 -51.122 -25.556  1.00  0.00     0.001 A 
ATOM     19  C   UNL     1      17.288 -50.962 -26.016  1.00  0.00     0.014 A 
ATOM     20  C   UNL     1      18.150 -50.671 -21.807  1.00  0.00     0.044 C 
ENDBRANCH  12  14
ENDBRANCH   1  12
BRANCH   5  21
ATOM     21  N   UNL     1      10.681 -55.217 -22.242  1.00  0.00    -0.322 N 
ATOM     22  C   UNL     1      11.075 -56.276 -23.040  1.00  0.00     0.255 C 
ATOM     23  H   UNL     1      10.031 -55.427 -21.496  1.00  0.00     0.170 HD
ATOM     24  O   UNL     1      11.720 -56.215 -24.079  1.00  0.00    -0.269 OA
BRANCH  22  25
ATOM     25  C   UNL     1      10.609 -57.614 -22.575  1.00  0.00     0.040 A 
ATOM     26  C   UNL     1      11.291 -58.229 -21.519  1.00  0.00     0.014 A 
ATOM     27  C   UNL     1       9.498 -58.247 -23.149  1.00  0.00     0.014 A 
ATOM     28  C   UNL     1      10.884 -59.482 -21.059  1.00  0.00     0.001 A 
ATOM     29  C   UNL     1       9.095 -59.501 -22.685  1.00  0.00     0.001 A 
ATOM     30  C   UNL     1       9.790 -60.119 -21.645  1.00  0.00     0.000 A 
ENDBRANCH  22  25
ENDBRANCH   5  21
TORSDOF 4
ENDMDL
MODEL 7
REMARK VINA RESULT:   -11.194      3.485      6.284
REMARK INTER + INTRA:         -13.698
REMARK INTER:                 -13.757
REMARK INTRA:                   0.060
REMARK UNBOUND:                 0.114
REMARK SMILES Cc1cccc(C(=O)N2Cc3cc(NC(=O)c4ccccc4)ccc3CC2=O)c1
REMARK SMILES IDX 9 1 10 2 11 3 12 4 13 5 23 6 24 7 25 8 26 9 27 10 28 11 7 12
REMARK SMILES IDX 8 13 6 14 2 15 3 16 29 17 4 18 5 19 1 20 14 21 15 22 16 24
REMARK SMILES IDX 17 25 18 26 22 27 19 28 21 29 20 30
REMARK H PARENT 14 23
ROOT
ATOM      1  N   UNL     1      11.499 -55.729 -23.210  1.00  0.00    -0.274 N 
ATOM      2  C   UNL     1      10.866 -54.420 -23.210  1.00  0.00     0.164 C 
ATOM      3  C   UNL     1      11.732 -53.385 -23.866  1.00  0.00    -0.022 A 
ATOM      4  C   UNL     1      11.777 -52.058 -23.415  1.00  0.00     0.032 A 
ATOM      5  C   UNL     1      12.570 -51.107 -24.068  1.00  0.00     0.041 A 
ATOM      6  C   UNL     1      13.302 -51.496 -25.191  1.00  0.00     0.026 A 
ATOM      7  C   UNL     1      13.250 -52.815 -25.652  1.00  0.00     0.007 A 
ATOM      8  C   UNL     1      12.472 -53.765 -24.987  1.00  0.00    -0.033 A 
ATOM      9  C   UNL     1      12.363 -55.180 -25.483  1.00  0.00     0.136 C 
ATOM     10  C   UNL     1      11.996 -56.211 -24.421  1.00  0.00     0.234 C 
ATOM     11  O   UNL     1      12.153 -57.407 -24.673  1.00  0.00    -0.274 OA
ENDROOT
BRANCH   1  12
ATOM     12  C   UNL     1      11.029 -56.608 -22.233  1.00  0.00     0.260 C 
ATOM     13  O   UNL     1      11.420 -56.571 -21.065  1.00  0.00    -0.269 OA
BRANCH  12  14
ATOM     14  C   UNL     1      10.036 -57.651 -22.622  1.00  0.00     0.040 A 
ATOM     15  C   UNL     1       9.284 -59.963 -22.676  1.00  0.00    -0.050 A 
ATOM     16  C   UNL     1       8.090 -59.544 -23.276  1.00  0.00     0.003 A 
ATOM     17  C   UNL     1      10.249 -59.006 -22.331  1.00  0.00     0.017 A 
ATOM     18  C   UNL     1       7.868 -58.193 -23.548  1.00  0.00     0.001 A 
ATOM     19  C   UNL     1       8.838 -57.246 -23.218  1.00  0.00     0.014 A 
ATOM     20  C   UNL     1       9.502 -61.412 -22.350  1.00  0.00     0.044 C 
ENDBRANCH  12  14
ENDBRANCH   1  12
BRANCH   5  21
ATOM     21  N   UNL     1      12.562 -49.794 -23.549  1.00  0.00    -0.322 N 
ATOM     22  C   UNL     1      11.526 -49.163 -22.884  1.00  0.00     0.255 C 
ATOM     23  H   UNL     1      13.378 -49.234 -23.754  1.00  0.00     0.170 HD
ATOM     24  O   UNL     1      10.402 -49.605 -22.682  1.00  0.00    -0.269 OA
BRANCH  22  25
ATOM     25  C   UNL     1      11.836 -47.782 -22.415  1.00  0.00     0.040 A 
ATOM     26  C   UNL     1      10.867 -46.786 -22.582  1.00  0.00     0.014 A 
ATOM     27  C   UNL     1      13.053 -47.473 -21.791  1.00  0.00     0.014 A 
ATOM     28  C   UNL     1      11.124 -45.482 -22.156  1.00  0.00     0.001 A 
ATOM     29  C   UNL     1      13.304 -46.166 -21.366  1.00  0.00     0.001 A 
ATOM     30  C   UNL     1      12.343 -45.172 -21.553  1.00  0.00     0.000 A 
ENDBRANCH  22  25
ENDBRANCH   5  21
TORSDOF 4
ENDMDL
MODEL 8
REMARK VINA RESULT:   -11.022      4.071     11.454
REMARK INTER + INTRA:         -13.486
REMARK INTER:                 -12.692
REMARK INTRA:                  -0.793
REMARK UNBOUND:                 0.114
REMARK SMILES Cc1cccc(C(=O)N2Cc3cc(NC(=O)c4ccccc4)ccc3CC2=O)c1
REMARK SMILES IDX 9 1 10 2 11 3 12 4 13 5 23 6 24 7 25 8 26 9 27 10 28 11 7 12
REMARK SMILES IDX 8 13 6 14 2 15 3 16 29 17 4 18 5 19 1 20 14 21 15 22 16 24
REMARK SMILES IDX 17 25 18 26 22 27 19 28 21 29 20 30
REMARK H PARENT 14 23
ROOT
ATOM      1  N   UNL     1      13.721 -49.344 -23.302  1.00  0.00    -0.274 N 
ATOM      2  C   UNL     1      13.287 -50.617 -23.855  1.00  0.00     0.164 C 
ATOM      3  C   UNL     1      12.106 -51.169 -23.112  1.00  0.00    -0.022 A 
ATOM      4  C   UNL     1      11.937 -52.546 -22.901  1.00  0.00     0.032 A 
ATOM      5  C   UNL     1      10.806 -53.033 -22.234  1.00  0.00     0.041 A 
ATOM      6  C   UNL     1       9.838 -52.128 -21.799  1.00  0.00     0.026 A 
ATOM      7  C   UNL     1       9.995 -50.756 -22.020  1.00  0.00     0.007 A 
ATOM      8  C   UNL     1      11.133 -50.272 -22.669  1.00  0.00    -0.033 A 
ATOM      9  C   UNL     1      11.311 -48.808 -22.958  1.00  0.00     0.136 C 
ATOM     10  C   UNL     1      12.757 -48.352 -23.120  1.00  0.00     0.234 C 
ATOM     11  O   UNL     1      13.009 -47.146 -23.084  1.00  0.00    -0.274 OA
ENDROOT
BRANCH   1  12
ATOM     12  C   UNL     1      15.047 -49.007 -23.578  1.00  0.00     0.260 C 
ATOM     13  O   UNL     1      15.390 -48.477 -24.636  1.00  0.00    -0.269 OA
BRANCH  12  14
ATOM     14  C   UNL     1      16.095 -49.327 -22.566  1.00  0.00     0.040 A 
ATOM     15  C   UNL     1      17.417 -48.745 -20.609  1.00  0.00    -0.050 A 
ATOM     16  C   UNL     1      17.983 -50.026 -20.630  1.00  0.00     0.003 A 
ATOM     17  C   UNL     1      16.455 -48.406 -21.571  1.00  0.00     0.017 A 
ATOM     18  C   UNL     1      17.611 -50.950 -21.607  1.00  0.00     0.001 A 
ATOM     19  C   UNL     1      16.665 -50.603 -22.572  1.00  0.00     0.014 A 
ATOM     20  C   UNL     1      17.790 -47.767 -19.533  1.00  0.00     0.044 C 
ENDBRANCH  12  14
ENDBRANCH   1  12
BRANCH   5  21
ATOM     21  N   UNL     1      10.714 -54.431 -22.059  1.00  0.00    -0.322 N 
ATOM     22  C   UNL     1      10.485 -55.384 -23.035  1.00  0.00     0.255 C 
ATOM     23  H   UNL     1      10.746 -54.758 -21.103  1.00  0.00     0.170 HD
ATOM     24  O   UNL     1      10.254 -55.183 -24.221  1.00  0.00    -0.269 OA
BRANCH  22  25
ATOM     25  C   UNL     1      10.485 -56.792 -22.545  1.00  0.00     0.040 A 
ATOM     26  C   UNL     1      11.372 -57.142 -21.519  1.00  0.00     0.014 A 
ATOM     27  C   UNL     1       9.606 -57.752 -23.063  1.00  0.00     0.014 A 
ATOM     28  C   UNL     1      11.401 -58.451 -21.037  1.00  0.00     0.001 A 
ATOM     29  C   UNL     1       9.639 -59.061 -22.576  1.00  0.00     0.001 A 
ATOM     30  C   UNL     1      10.538 -59.409 -21.567  1.00  0.00     0.000 A 
ENDBRANCH  22  25
ENDBRANCH   5  21
TORSDOF 4
ENDMDL
MODEL 9
REMARK VINA RESULT:   -10.842      3.957     10.914
REMARK INTER + INTRA:         -13.263
REMARK INTER:                 -12.621
REMARK INTRA:                  -0.641
REMARK UNBOUND:                 0.114
REMARK SMILES Cc1cccc(C(=O)N2Cc3cc(NC(=O)c4ccccc4)ccc3CC2=O)c1
REMARK SMILES IDX 9 1 10 2 11 3 12 4 13 5 23 6 24 7 25 8 26 9 27 10 28 11 7 12
REMARK SMILES IDX 8 13 6 14 2 15 3 16 29 17 4 18 5 19 1 20 14 21 15 22 16 24
REMARK SMILES IDX 17 25 18 26 22 27 19 28 21 29 20 30
REMARK H PARENT 14 23
ROOT
ATOM      1  N   UNL     1      13.487 -49.313 -22.921  1.00  0.00    -0.274 N 
ATOM      2  C   UNL     1      13.154 -50.595 -23.523  1.00  0.00     0.164 C 
ATOM      3  C   UNL     1      11.930 -51.198 -22.899  1.00  0.00    -0.022 A 
ATOM      4  C   UNL     1      11.794 -52.582 -22.717  1.00  0.00     0.032 A 
ATOM      5  C   UNL     1      10.625 -53.119 -22.162  1.00  0.00     0.041 A 
ATOM      6  C   UNL     1       9.587 -52.254 -21.811  1.00  0.00     0.026 A 
ATOM      7  C   UNL     1       9.714 -50.874 -22.004  1.00  0.00     0.007 A 
ATOM      8  C   UNL     1      10.888 -50.342 -22.539  1.00  0.00    -0.033 A 
ATOM      9  C   UNL     1      11.037 -48.869 -22.798  1.00  0.00     0.136 C 
ATOM     10  C   UNL     1      12.475 -48.359 -22.820  1.00  0.00     0.234 C 
ATOM     11  O   UNL     1      12.678 -47.146 -22.750  1.00  0.00    -0.274 OA
ENDROOT
BRANCH   1  12
ATOM     12  C   UNL     1      14.820 -48.926 -23.069  1.00  0.00     0.260 C 
ATOM     13  O   UNL     1      15.478 -48.448 -22.143  1.00  0.00    -0.269 OA
BRANCH  12  14
ATOM     14  C   UNL     1      15.465 -49.067 -24.406  1.00  0.00     0.040 A 
ATOM     15  C   UNL     1      17.030 -50.161 -25.913  1.00  0.00    -0.050 A 
ATOM     16  C   UNL     1      16.557 -49.360 -26.960  1.00  0.00     0.003 A 
ATOM     17  C   UNL     1      16.464 -50.024 -24.637  1.00  0.00     0.017 A 
ATOM     18  C   UNL     1      15.549 -48.422 -26.736  1.00  0.00     0.001 A 
ATOM     19  C   UNL     1      15.000 -48.277 -25.462  1.00  0.00     0.014 A 
ATOM     20  C   UNL     1      18.087 -51.196 -26.166  1.00  0.00     0.044 C 
ENDBRANCH  12  14
ENDBRANCH   1  12
BRANCH   5  21
ATOM     21  N   UNL     1      10.568 -54.521 -22.010  1.00  0.00    -0.322 N 
ATOM     22  C   UNL     1      10.648 -55.476 -23.007  1.00  0.00     0.255 C 
ATOM     23  H   UNL     1      10.374 -54.854 -21.075  1.00  0.00     0.170 HD
ATOM     24  O   UNL     1      10.715 -55.277 -24.214  1.00  0.00    -0.269 OA
BRANCH  22  25
ATOM     25  C   UNL     1      10.601 -56.886 -22.525  1.00  0.00     0.040 A 
ATOM     26  C   UNL     1      11.393 -57.244 -21.427  1.00  0.00     0.014 A 
ATOM     27  C   UNL     1       9.769 -57.841 -23.124  1.00  0.00     0.014 A 
ATOM     28  C   UNL     1      11.376 -58.555 -20.950  1.00  0.00     0.001 A 
ATOM     29  C   UNL     1       9.755 -59.152 -22.642  1.00  0.00     0.001 A 
ATOM     30  C   UNL     1      10.560 -59.508 -21.560  1.00  0.00     0.000 A 
ENDBRANCH  22  25
ENDBRANCH   5  21
TORSDOF 4
ENDMDL
