MODEL 1
REMARK VINA RESULT:   -11.198      0.000      0.000
REMARK INTER + INTRA:         -17.732
REMARK INTER:                 -17.090
REMARK INTRA:                  -0.642
REMARK UNBOUND:                -0.642
REMARK SMILES O=C(Nc1cncc(OC[C@H]2CC[N@H+](Cc3ccccc3)CC2)c1)c1ccnc(NC(=O)C2CC2)c1
REMARK SMILES IDX 8 1 7 2 24 3 6 4 4 5 5 6 9 7 10 8 11 9 13 10 14 11 12 12
REMARK SMILES IDX 22 13 23 14 15 16 16 17 17 18 21 19 18 20 20 21 19 22 3 23
REMARK SMILES IDX 2 24 1 26 25 27 26 28 36 29 27 30 29 31 28 32 30 33 31 34
REMARK SMILES IDX 32 36 33 37 34 38 35 39
REMARK H PARENT 14 15 3 25 30 35
ROOT
ATOM      1  C   UNL     1      10.347 -54.279 -22.589  1.00  0.00     0.139 A 
ATOM      2  C   UNL     1       9.509 -53.475 -21.828  1.00  0.00     0.157 A 
ATOM      3  C   UNL     1      11.377 -53.654 -23.293  1.00  0.00     0.075 A 
ATOM      4  N   UNL     1       9.627 -52.132 -21.744  1.00  0.00    -0.259 NA
ATOM      5  C   UNL     1      11.528 -52.264 -23.246  1.00  0.00     0.063 A 
ATOM      6  C   UNL     1      10.628 -51.554 -22.456  1.00  0.00     0.137 A 
ENDROOT
BRANCH   1   7
ATOM      7  O   UNL     1      10.278 -55.638 -22.720  1.00  0.00    -0.492 OA
BRANCH   7   8
ATOM      8  C   UNL     1      11.381 -56.265 -23.375  1.00  0.00     0.233 C 
BRANCH   8   9
ATOM      9  C   UNL     1      11.400 -57.745 -22.962  1.00  0.00     0.038 C 
ATOM     10  C   UNL     1       9.989 -59.756 -22.362  1.00  0.00     0.262 C 
ATOM     11  N   UNL     1      10.705 -60.547 -23.427  1.00  0.00    -0.331 N 
ATOM     12  C   UNL     1       9.979 -58.281 -22.734  1.00  0.00     0.069 C 
ATOM     13  C   UNL     1      12.127 -60.075 -23.628  1.00  0.00     0.262 C 
ATOM     14  C   UNL     1      12.125 -58.599 -24.006  1.00  0.00     0.069 C 
ATOM     15  H   UNL     1      10.208 -60.404 -24.316  1.00  0.00     0.348 HD
BRANCH  11  16
ATOM     16  C   UNL     1      10.617 -62.036 -23.146  1.00  0.00     0.299 C 
BRANCH  16  17
ATOM     17  C   UNL     1       9.418 -62.694 -23.773  1.00  0.00     0.006 A 
ATOM     18  C   UNL     1       8.663 -63.639 -23.058  1.00  0.00     0.009 A 
ATOM     19  C   UNL     1       9.024 -62.356 -25.078  1.00  0.00     0.009 A 
ATOM     20  C   UNL     1       7.533 -64.221 -23.636  1.00  0.00     0.001 A 
ATOM     21  C   UNL     1       7.894 -62.942 -25.651  1.00  0.00     0.001 A 
ATOM     22  C   UNL     1       7.149 -63.871 -24.928  1.00  0.00     0.000 A 
ENDBRANCH  16  17
ENDBRANCH  11  16
ENDBRANCH   8   9
ENDBRANCH   7   8
ENDBRANCH   1   7
BRANCH   5  23
ATOM     23  N   UNL     1      12.575 -51.688 -23.999  1.00  0.00    -0.320 N 
ATOM     24  C   UNL     1      13.151 -52.226 -25.136  1.00  0.00     0.255 C 
ATOM     25  H   UNL     1      13.004 -50.857 -23.613  1.00  0.00     0.170 HD
ATOM     26  O   UNL     1      12.862 -53.287 -25.671  1.00  0.00    -0.269 OA
BRANCH  24  27
ATOM     27  C   UNL     1      14.251 -51.416 -25.710  1.00  0.00     0.045 A 
ATOM     28  C   UNL     1      13.980 -50.363 -26.580  1.00  0.00     0.034 A 
ATOM     29  C   UNL     1      15.566 -51.749 -25.385  1.00  0.00     0.061 A 
ATOM     30  C   UNL     1      15.062 -49.670 -27.083  1.00  0.00     0.114 A 
ATOM     31  C   UNL     1      16.584 -50.983 -25.926  1.00  0.00     0.133 A 
ATOM     32  N   UNL     1      16.345 -49.953 -26.768  1.00  0.00    -0.239 NA
BRANCH  31  33
ATOM     33  N   UNL     1      17.939 -51.184 -25.674  1.00  0.00    -0.310 N 
ATOM     34  C   UNL     1      18.758 -52.166 -26.169  1.00  0.00     0.228 C 
ATOM     35  H   UNL     1      18.310 -50.519 -25.012  1.00  0.00     0.171 HD
ATOM     36  O   UNL     1      18.423 -53.082 -26.908  1.00  0.00    -0.274 OA
BRANCH  34  37
ATOM     37  C   UNL     1      20.189 -52.104 -25.734  1.00  0.00     0.079 C 
ATOM     38  C   UNL     1      20.808 -50.835 -25.192  1.00  0.00     0.014 C 
ATOM     39  C   UNL     1      21.262 -51.381 -26.517  1.00  0.00     0.014 C 
ENDBRANCH  34  37
ENDBRANCH  31  33
ENDBRANCH  24  27
ENDBRANCH   5  23
TORSDOF 9
ENDMDL
MODEL 2
REMARK VINA RESULT:   -11.085      2.158      3.602
REMARK INTER + INTRA:         -17.560
REMARK INTER:                 -16.716
REMARK INTRA:                  -0.843
REMARK UNBOUND:                -0.642
REMARK SMILES O=C(Nc1cncc(OC[C@H]2CC[N@H+](Cc3ccccc3)CC2)c1)c1ccnc(NC(=O)C2CC2)c1
REMARK SMILES IDX 8 1 7 2 24 3 6 4 4 5 5 6 9 7 10 8 11 9 13 10 14 11 12 12
REMARK SMILES IDX 22 13 23 14 15 16 16 17 17 18 21 19 18 20 20 21 19 22 3 23
REMARK SMILES IDX 2 24 1 26 25 27 26 28 36 29 27 30 29 31 28 32 30 33 31 34
REMARK SMILES IDX 32 36 33 37 34 38 35 39
REMARK H PARENT 14 15 3 25 30 35
ROOT
ATOM      1  C   UNL     1      10.738 -53.629 -22.847  1.00  0.00     0.139 A 
ATOM      2  C   UNL     1      10.180 -52.708 -21.971  1.00  0.00     0.157 A 
ATOM      3  C   UNL     1      11.766 -53.186 -23.680  1.00  0.00     0.075 A 
ATOM      4  N   UNL     1      10.565 -51.416 -21.891  1.00  0.00    -0.259 NA
ATOM      5  C   UNL     1      12.187 -51.852 -23.641  1.00  0.00     0.063 A 
ATOM      6  C   UNL     1      11.554 -51.014 -22.728  1.00  0.00     0.137 A 
ENDROOT
BRANCH   1   7
ATOM      7  O   UNL     1      10.391 -54.945 -22.980  1.00  0.00    -0.492 OA
BRANCH   7   8
ATOM      8  C   UNL     1      10.995 -55.852 -22.057  1.00  0.00     0.233 C 
BRANCH   8   9
ATOM      9  C   UNL     1      10.865 -57.271 -22.632  1.00  0.00     0.038 C 
ATOM     10  C   UNL     1      11.677 -58.881 -24.405  1.00  0.00     0.262 C 
ATOM     11  N   UNL     1      12.004 -59.875 -23.319  1.00  0.00    -0.331 N 
ATOM     12  C   UNL     1      11.774 -57.466 -23.854  1.00  0.00     0.069 C 
ATOM     13  C   UNL     1      11.082 -59.741 -22.129  1.00  0.00     0.262 C 
ATOM     14  C   UNL     1      11.177 -58.327 -21.568  1.00  0.00     0.069 C 
ATOM     15  H   UNL     1      12.958 -59.682 -22.989  1.00  0.00     0.348 HD
BRANCH  11  16
ATOM     16  C   UNL     1      12.041 -61.288 -23.874  1.00  0.00     0.299 C 
BRANCH  16  17
ATOM     17  C   UNL     1      10.708 -61.985 -23.826  1.00  0.00     0.006 A 
ATOM     18  C   UNL     1       9.781 -61.829 -24.870  1.00  0.00     0.009 A 
ATOM     19  C   UNL     1      10.382 -62.820 -22.745  1.00  0.00     0.009 A 
ATOM     20  C   UNL     1       8.559 -62.505 -24.834  1.00  0.00     0.001 A 
ATOM     21  C   UNL     1       9.158 -63.492 -22.714  1.00  0.00     0.001 A 
ATOM     22  C   UNL     1       8.251 -63.336 -23.758  1.00  0.00     0.000 A 
ENDBRANCH  16  17
ENDBRANCH  11  16
ENDBRANCH   8   9
ENDBRANCH   7   8
ENDBRANCH   1   7
BRANCH   5  23
ATOM     23  N   UNL     1      13.217 -51.459 -24.525  1.00  0.00    -0.320 N 
ATOM     24  C   UNL     1      14.534 -51.214 -24.182  1.00  0.00     0.255 C 
ATOM     25  H   UNL     1      12.939 -51.246 -25.474  1.00  0.00     0.170 HD
ATOM     26  O   UNL     1      15.024 -51.282 -23.064  1.00  0.00    -0.269 OA
BRANCH  24  27
ATOM     27  C   UNL     1      15.395 -50.792 -25.311  1.00  0.00     0.045 A 
ATOM     28  C   UNL     1      16.756 -51.084 -25.317  1.00  0.00     0.034 A 
ATOM     29  C   UNL     1      14.819 -50.069 -26.357  1.00  0.00     0.061 A 
ATOM     30  C   UNL     1      17.490 -50.641 -26.398  1.00  0.00     0.114 A 
ATOM     31  C   UNL     1      15.634 -49.683 -27.407  1.00  0.00     0.133 A 
ATOM     32  N   UNL     1      16.957 -49.961 -27.436  1.00  0.00    -0.239 NA
BRANCH  31  33
ATOM     33  N   UNL     1      15.195 -48.979 -28.527  1.00  0.00    -0.310 N 
ATOM     34  C   UNL     1      15.006 -47.627 -28.658  1.00  0.00     0.228 C 
ATOM     35  H   UNL     1      14.969 -49.587 -29.299  1.00  0.00     0.171 HD
ATOM     36  O   UNL     1      15.158 -46.788 -27.780  1.00  0.00    -0.274 OA
BRANCH  34  37
ATOM     37  C   UNL     1      14.550 -47.160 -30.004  1.00  0.00     0.079 C 
ATOM     38  C   UNL     1      14.709 -48.010 -31.245  1.00  0.00     0.014 C 
ATOM     39  C   UNL     1      15.502 -46.742 -31.102  1.00  0.00     0.014 C 
ENDBRANCH  34  37
ENDBRANCH  31  33
ENDBRANCH  24  27
ENDBRANCH   5  23
TORSDOF 9
ENDMDL
MODEL 3
REMARK VINA RESULT:   -10.966      1.281      1.880
REMARK INTER + INTRA:         -17.378
REMARK INTER:                 -16.989
REMARK INTRA:                  -0.388
REMARK UNBOUND:                -0.642
REMARK SMILES O=C(Nc1cncc(OC[C@H]2CC[N@H+](Cc3ccccc3)CC2)c1)c1ccnc(NC(=O)C2CC2)c1
REMARK SMILES IDX 8 1 7 2 24 3 6 4 4 5 5 6 9 7 10 8 11 9 13 10 14 11 12 12
REMARK SMILES IDX 22 13 23 14 15 16 16 17 17 18 21 19 18 20 20 21 19 22 3 23
REMARK SMILES IDX 2 24 1 26 25 27 26 28 36 29 27 30 29 31 28 32 30 33 31 34
REMARK SMILES IDX 32 36 33 37 34 38 35 39
REMARK H PARENT 14 15 3 25 30 35
ROOT
ATOM      1  C   UNL     1      10.850 -53.359 -22.729  1.00  0.00     0.139 A 
ATOM      2  C   UNL     1      10.353 -52.432 -21.824  1.00  0.00     0.157 A 
ATOM      3  C   UNL     1      11.872 -52.943 -23.584  1.00  0.00     0.075 A 
ATOM      4  N   UNL     1      10.791 -51.157 -21.736  1.00  0.00    -0.259 NA
ATOM      5  C   UNL     1      12.346 -51.628 -23.537  1.00  0.00     0.063 A 
ATOM      6  C   UNL     1      11.772 -50.780 -22.595  1.00  0.00     0.137 A 
ENDROOT
BRANCH   1   7
ATOM      7  O   UNL     1      10.448 -54.658 -22.872  1.00  0.00    -0.492 OA
BRANCH   7   8
ATOM      8  C   UNL     1      10.970 -55.587 -21.921  1.00  0.00     0.233 C 
BRANCH   8   9
ATOM      9  C   UNL     1      10.932 -56.987 -22.556  1.00  0.00     0.038 C 
ATOM     10  C   UNL     1      11.829 -58.458 -24.407  1.00  0.00     0.262 C 
ATOM     11  N   UNL     1      12.243 -59.471 -23.370  1.00  0.00    -0.331 N 
ATOM     12  C   UNL     1      11.833 -57.064 -23.797  1.00  0.00     0.069 C 
ATOM     13  C   UNL     1      11.334 -59.454 -22.163  1.00  0.00     0.262 C 
ATOM     14  C   UNL     1      11.337 -58.062 -21.542  1.00  0.00     0.069 C 
ATOM     15  H   UNL     1      13.187 -59.223 -23.044  1.00  0.00     0.348 HD
BRANCH  11  16
ATOM     16  C   UNL     1      12.373 -60.852 -23.985  1.00  0.00     0.299 C 
BRANCH  16  17
ATOM     17  C   UNL     1      11.063 -61.587 -24.086  1.00  0.00     0.006 A 
ATOM     18  C   UNL     1      10.256 -61.459 -25.229  1.00  0.00     0.009 A 
ATOM     19  C   UNL     1      10.641 -62.431 -23.046  1.00  0.00     0.009 A 
ATOM     20  C   UNL     1       9.058 -62.170 -25.328  1.00  0.00     0.001 A 
ATOM     21  C   UNL     1       9.442 -63.138 -23.150  1.00  0.00     0.001 A 
ATOM     22  C   UNL     1       8.654 -63.009 -24.292  1.00  0.00     0.000 A 
ENDBRANCH  16  17
ENDBRANCH  11  16
ENDBRANCH   8   9
ENDBRANCH   7   8
ENDBRANCH   1   7
BRANCH   5  23
ATOM     23  N   UNL     1      13.365 -51.262 -24.444  1.00  0.00    -0.320 N 
ATOM     24  C   UNL     1      13.525 -50.019 -25.029  1.00  0.00     0.255 C 
ATOM     25  H   UNL     1      13.972 -52.005 -24.765  1.00  0.00     0.170 HD
ATOM     26  O   UNL     1      12.812 -49.038 -24.871  1.00  0.00    -0.269 OA
BRANCH  24  27
ATOM     27  C   UNL     1      14.672 -49.921 -25.962  1.00  0.00     0.045 A 
ATOM     28  C   UNL     1      14.518 -49.349 -27.222  1.00  0.00     0.034 A 
ATOM     29  C   UNL     1      15.903 -50.443 -25.564  1.00  0.00     0.061 A 
ATOM     30  C   UNL     1      15.631 -49.312 -28.036  1.00  0.00     0.114 A 
ATOM     31  C   UNL     1      16.967 -50.343 -26.444  1.00  0.00     0.133 A 
ATOM     32  N   UNL     1      16.842 -49.786 -27.670  1.00  0.00    -0.239 NA
BRANCH  31  33
ATOM     33  N   UNL     1      18.257 -50.797 -26.176  1.00  0.00    -0.310 N 
ATOM     34  C   UNL     1      18.775 -52.050 -26.383  1.00  0.00     0.228 C 
ATOM     35  H   UNL     1      18.832 -50.091 -25.744  1.00  0.00     0.171 HD
ATOM     36  O   UNL     1      18.169 -53.020 -26.817  1.00  0.00    -0.274 OA
BRANCH  34  37
ATOM     37  C   UNL     1      20.215 -52.229 -26.018  1.00  0.00     0.079 C 
ATOM     38  C   UNL     1      20.957 -51.225 -25.164  1.00  0.00     0.014 C 
ATOM     39  C   UNL     1      21.330 -51.395 -26.610  1.00  0.00     0.014 C 
ENDBRANCH  34  37
ENDBRANCH  31  33
ENDBRANCH  24  27
ENDBRANCH   5  23
TORSDOF 9
ENDMDL
MODEL 4
REMARK VINA RESULT:   -10.905      2.744      3.190
REMARK INTER + INTRA:         -17.284
REMARK INTER:                 -16.403
REMARK INTRA:                  -0.881
REMARK UNBOUND:                -0.642
REMARK SMILES O=C(Nc1cncc(OC[C@H]2CC[N@H+](Cc3ccccc3)CC2)c1)c1ccnc(NC(=O)C2CC2)c1
REMARK SMILES IDX 8 1 7 2 24 3 6 4 4 5 5 6 9 7 10 8 11 9 13 10 14 11 12 12
REMARK SMILES IDX 22 13 23 14 15 16 16 17 17 18 21 19 18 20 20 21 19 22 3 23
REMARK SMILES IDX 2 24 1 26 25 27 26 28 36 29 27 30 29 31 28 32 30 33 31 34
REMARK SMILES IDX 32 36 33 37 34 38 35 39
REMARK H PARENT 14 15 3 25 30 35
ROOT
ATOM      1  C   UNL     1      10.105 -53.720 -22.457  1.00  0.00     0.139 A 
ATOM      2  C   UNL     1       9.122 -52.798 -22.126  1.00  0.00     0.157 A 
ATOM      3  C   UNL     1      11.399 -53.239 -22.663  1.00  0.00     0.075 A 
ATOM      4  N   UNL     1       9.344 -51.471 -22.008  1.00  0.00    -0.259 NA
ATOM      5  C   UNL     1      11.671 -51.870 -22.565  1.00  0.00     0.063 A 
ATOM      6  C   UNL     1      10.609 -51.034 -22.233  1.00  0.00     0.137 A 
ENDROOT
BRANCH   1   7
ATOM      7  O   UNL     1       9.945 -55.071 -22.597  1.00  0.00    -0.492 OA
BRANCH   7   8
ATOM      8  C   UNL     1      10.956 -55.890 -22.008  1.00  0.00     0.233 C 
BRANCH   8   9
ATOM      9  C   UNL     1      10.833 -57.300 -22.607  1.00  0.00     0.038 C 
ATOM     10  C   UNL     1      11.694 -58.894 -24.370  1.00  0.00     0.262 C 
ATOM     11  N   UNL     1      11.972 -59.906 -23.288  1.00  0.00    -0.331 N 
ATOM     12  C   UNL     1      11.784 -57.487 -23.798  1.00  0.00     0.069 C 
ATOM     13  C   UNL     1      11.008 -59.778 -22.130  1.00  0.00     0.262 C 
ATOM     14  C   UNL     1      11.096 -58.373 -21.546  1.00  0.00     0.069 C 
ATOM     15  H   UNL     1      12.915 -59.727 -22.920  1.00  0.00     0.348 HD
BRANCH  11  16
ATOM     16  C   UNL     1      12.016 -61.311 -23.860  1.00  0.00     0.299 C 
BRANCH  16  17
ATOM     17  C   UNL     1      10.672 -61.989 -23.885  1.00  0.00     0.006 A 
ATOM     18  C   UNL     1       9.791 -61.793 -24.962  1.00  0.00     0.009 A 
ATOM     19  C   UNL     1      10.290 -62.846 -22.841  1.00  0.00     0.009 A 
ATOM     20  C   UNL     1       8.560 -62.451 -24.994  1.00  0.00     0.001 A 
ATOM     21  C   UNL     1       9.057 -63.501 -22.878  1.00  0.00     0.001 A 
ATOM     22  C   UNL     1       8.196 -63.305 -23.955  1.00  0.00     0.000 A 
ENDBRANCH  16  17
ENDBRANCH  11  16
ENDBRANCH   8   9
ENDBRANCH   7   8
ENDBRANCH   1   7
BRANCH   5  23
ATOM     23  N   UNL     1      12.996 -51.442 -22.808  1.00  0.00    -0.320 N 
ATOM     24  C   UNL     1      13.570 -51.240 -24.049  1.00  0.00     0.255 C 
ATOM     25  H   UNL     1      13.602 -51.373 -22.001  1.00  0.00     0.170 HD
ATOM     26  O   UNL     1      13.039 -51.407 -25.138  1.00  0.00    -0.269 OA
BRANCH  24  27
ATOM     27  C   UNL     1      14.988 -50.811 -24.008  1.00  0.00     0.045 A 
ATOM     28  C   UNL     1      15.555 -50.121 -25.075  1.00  0.00     0.034 A 
ATOM     29  C   UNL     1      15.753 -51.141 -22.888  1.00  0.00     0.061 A 
ATOM     30  C   UNL     1      16.885 -49.773 -24.964  1.00  0.00     0.114 A 
ATOM     31  C   UNL     1      17.075 -50.732 -22.861  1.00  0.00     0.133 A 
ATOM     32  N   UNL     1      17.645 -50.055 -23.884  1.00  0.00    -0.239 NA
BRANCH  31  33
ATOM     33  N   UNL     1      17.951 -50.968 -21.803  1.00  0.00    -0.310 N 
ATOM     34  C   UNL     1      18.074 -50.266 -20.631  1.00  0.00     0.228 C 
ATOM     35  H   UNL     1      18.574 -51.740 -21.983  1.00  0.00     0.171 HD
ATOM     36  O   UNL     1      17.446 -49.262 -20.321  1.00  0.00    -0.274 OA
BRANCH  34  37
ATOM     37  C   UNL     1      19.094 -50.781 -19.666  1.00  0.00     0.079 C 
ATOM     38  C   UNL     1      19.551 -49.973 -18.472  1.00  0.00     0.014 C 
ATOM     39  C   UNL     1      20.509 -50.252 -19.596  1.00  0.00     0.014 C 
ENDBRANCH  34  37
ENDBRANCH  31  33
ENDBRANCH  24  27
ENDBRANCH   5  23
TORSDOF 9
ENDMDL
MODEL 5
REMARK VINA RESULT:   -10.786      1.726      2.357
REMARK INTER + INTRA:         -17.104
REMARK INTER:                 -16.240
REMARK INTRA:                  -0.864
REMARK UNBOUND:                -0.642
REMARK SMILES O=C(Nc1cncc(OC[C@H]2CC[N@H+](Cc3ccccc3)CC2)c1)c1ccnc(NC(=O)C2CC2)c1
REMARK SMILES IDX 8 1 7 2 24 3 6 4 4 5 5 6 9 7 10 8 11 9 13 10 14 11 12 12
REMARK SMILES IDX 22 13 23 14 15 16 16 17 17 18 21 19 18 20 20 21 19 22 3 23
REMARK SMILES IDX 2 24 1 26 25 27 26 28 36 29 27 30 29 31 28 32 30 33 31 34
REMARK SMILES IDX 32 36 33 37 34 38 35 39
REMARK H PARENT 14 15 3 25 30 35
ROOT
ATOM      1  C   UNL     1      10.202 -53.677 -22.540  1.00  0.00     0.139 A 
ATOM      2  C   UNL     1       9.240 -52.759 -22.141  1.00  0.00     0.157 A 
ATOM      3  C   UNL     1      11.488 -53.196 -22.792  1.00  0.00     0.075 A 
ATOM      4  N   UNL     1       9.475 -51.437 -21.998  1.00  0.00    -0.259 NA
ATOM      5  C   UNL     1      11.773 -51.832 -22.670  1.00  0.00     0.063 A 
ATOM      6  C   UNL     1      10.732 -51.000 -22.269  1.00  0.00     0.137 A 
ENDROOT
BRANCH   1   7
ATOM      7  O   UNL     1      10.028 -55.023 -22.708  1.00  0.00    -0.492 OA
BRANCH   7   8
ATOM      8  C   UNL     1      10.956 -55.868 -22.026  1.00  0.00     0.233 C 
BRANCH   8   9
ATOM      9  C   UNL     1      10.846 -57.277 -22.631  1.00  0.00     0.038 C 
ATOM     10  C   UNL     1      11.729 -58.861 -24.393  1.00  0.00     0.262 C 
ATOM     11  N   UNL     1      12.005 -59.874 -23.311  1.00  0.00    -0.331 N 
ATOM     12  C   UNL     1      11.807 -57.455 -23.815  1.00  0.00     0.069 C 
ATOM     13  C   UNL     1      11.033 -59.756 -22.159  1.00  0.00     0.262 C 
ATOM     14  C   UNL     1      11.108 -58.352 -21.571  1.00  0.00     0.069 C 
ATOM     15  H   UNL     1      12.945 -59.690 -22.936  1.00  0.00     0.348 HD
BRANCH  11  16
ATOM     16  C   UNL     1      12.062 -61.278 -23.887  1.00  0.00     0.299 C 
BRANCH  16  17
ATOM     17  C   UNL     1      10.727 -61.972 -23.905  1.00  0.00     0.006 A 
ATOM     18  C   UNL     1       9.858 -61.825 -24.999  1.00  0.00     0.009 A 
ATOM     19  C   UNL     1      10.341 -62.795 -22.834  1.00  0.00     0.009 A 
ATOM     20  C   UNL     1       8.635 -62.499 -25.022  1.00  0.00     0.001 A 
ATOM     21  C   UNL     1       9.116 -63.464 -22.863  1.00  0.00     0.001 A 
ATOM     22  C   UNL     1       8.267 -63.318 -23.957  1.00  0.00     0.000 A 
ENDBRANCH  16  17
ENDBRANCH  11  16
ENDBRANCH   8   9
ENDBRANCH   7   8
ENDBRANCH   1   7
BRANCH   5  23
ATOM     23  N   UNL     1      13.087 -51.404 -22.960  1.00  0.00    -0.320 N 
ATOM     24  C   UNL     1      13.593 -51.127 -24.217  1.00  0.00     0.255 C 
ATOM     25  H   UNL     1      13.740 -51.395 -22.187  1.00  0.00     0.170 HD
ATOM     26  O   UNL     1      12.998 -51.216 -25.282  1.00  0.00    -0.269 OA
BRANCH  24  27
ATOM     27  C   UNL     1      15.017 -50.718 -24.230  1.00  0.00     0.045 A 
ATOM     28  C   UNL     1      15.739 -50.612 -23.044  1.00  0.00     0.034 A 
ATOM     29  C   UNL     1      15.613 -50.411 -25.454  1.00  0.00     0.061 A 
ATOM     30  C   UNL     1      17.054 -50.209 -23.142  1.00  0.00     0.114 A 
ATOM     31  C   UNL     1      16.944 -50.033 -25.453  1.00  0.00     0.133 A 
ATOM     32  N   UNL     1      17.666 -49.929 -24.314  1.00  0.00    -0.239 NA
BRANCH  31  33
ATOM     33  N   UNL     1      17.675 -49.720 -26.597  1.00  0.00    -0.310 N 
ATOM     34  C   UNL     1      18.370 -50.571 -27.419  1.00  0.00     0.228 C 
ATOM     35  H   UNL     1      17.695 -48.729 -26.783  1.00  0.00     0.171 HD
ATOM     36  O   UNL     1      18.501 -51.778 -27.264  1.00  0.00    -0.274 OA
BRANCH  34  37
ATOM     37  C   UNL     1      19.039 -49.938 -28.598  1.00  0.00     0.079 C 
ATOM     38  C   UNL     1      18.644 -48.569 -29.105  1.00  0.00     0.014 C 
ATOM     39  C   UNL     1      18.371 -49.784 -29.946  1.00  0.00     0.014 C 
ENDBRANCH  34  37
ENDBRANCH  31  33
ENDBRANCH  24  27
ENDBRANCH   5  23
TORSDOF 9
ENDMDL
MODEL 6
REMARK VINA RESULT:   -10.737      1.955      3.135
REMARK INTER + INTRA:         -17.028
REMARK INTER:                 -16.393
REMARK INTRA:                  -0.634
REMARK UNBOUND:                -0.642
REMARK SMILES O=C(Nc1cncc(OC[C@H]2CC[N@H+](Cc3ccccc3)CC2)c1)c1ccnc(NC(=O)C2CC2)c1
REMARK SMILES IDX 8 1 7 2 24 3 6 4 4 5 5 6 9 7 10 8 11 9 13 10 14 11 12 12
REMARK SMILES IDX 22 13 23 14 15 16 16 17 17 18 21 19 18 20 20 21 19 22 3 23
REMARK SMILES IDX 2 24 1 26 25 27 26 28 36 29 27 30 29 31 28 32 30 33 31 34
REMARK SMILES IDX 32 36 33 37 34 38 35 39
REMARK H PARENT 14 15 3 25 30 35
ROOT
ATOM      1  C   UNL     1      10.355 -54.840 -22.692  1.00  0.00     0.139 A 
ATOM      2  C   UNL     1       9.359 -54.169 -21.998  1.00  0.00     0.157 A 
ATOM      3  C   UNL     1      11.384 -54.076 -23.246  1.00  0.00     0.075 A 
ATOM      4  N   UNL     1       9.323 -52.828 -21.842  1.00  0.00    -0.259 NA
ATOM      5  C   UNL     1      11.379 -52.683 -23.121  1.00  0.00     0.063 A 
ATOM      6  C   UNL     1      10.328 -52.113 -22.408  1.00  0.00     0.137 A 
ENDROOT
BRANCH   1   7
ATOM      7  O   UNL     1      10.446 -56.190 -22.890  1.00  0.00    -0.492 OA
BRANCH   7   8
ATOM      8  C   UNL     1      11.738 -56.690 -23.241  1.00  0.00     0.233 C 
BRANCH   8   9
ATOM      9  C   UNL     1      11.745 -58.205 -22.985  1.00  0.00     0.038 C 
ATOM     10  C   UNL     1      10.476 -60.155 -21.994  1.00  0.00     0.262 C 
ATOM     11  N   UNL     1      10.585 -60.869 -23.318  1.00  0.00    -0.331 N 
ATOM     12  C   UNL     1      10.492 -58.650 -22.217  1.00  0.00     0.069 C 
ATOM     13  C   UNL     1      11.843 -60.491 -24.066  1.00  0.00     0.262 C 
ATOM     14  C   UNL     1      11.864 -58.985 -24.298  1.00  0.00     0.069 C 
ATOM     15  H   UNL     1       9.787 -60.583 -23.899  1.00  0.00     0.348 HD
BRANCH  11  16
ATOM     16  C   UNL     1      10.441 -62.369 -23.136  1.00  0.00     0.299 C 
BRANCH  16  17
ATOM     17  C   UNL     1       9.240 -62.944 -23.836  1.00  0.00     0.006 A 
ATOM     18  C   UNL     1       8.409 -63.873 -23.187  1.00  0.00     0.009 A 
ATOM     19  C   UNL     1       8.920 -62.542 -25.143  1.00  0.00     0.009 A 
ATOM     20  C   UNL     1       7.278 -64.378 -23.832  1.00  0.00     0.001 A 
ATOM     21  C   UNL     1       7.788 -63.051 -25.783  1.00  0.00     0.001 A 
ATOM     22  C   UNL     1       6.967 -63.965 -25.126  1.00  0.00     0.000 A 
ENDBRANCH  16  17
ENDBRANCH  11  16
ENDBRANCH   8   9
ENDBRANCH   7   8
ENDBRANCH   1   7
BRANCH   5  23
ATOM     23  N   UNL     1      12.436 -51.963 -23.722  1.00  0.00    -0.320 N 
ATOM     24  C   UNL     1      13.062 -52.282 -24.913  1.00  0.00     0.255 C 
ATOM     25  H   UNL     1      12.829 -51.204 -23.182  1.00  0.00     0.170 HD
ATOM     26  O   UNL     1      12.819 -53.238 -25.635  1.00  0.00    -0.269 OA
BRANCH  24  27
ATOM     27  C   UNL     1      14.158 -51.362 -25.296  1.00  0.00     0.045 A 
ATOM     28  C   UNL     1      15.150 -51.015 -24.382  1.00  0.00     0.034 A 
ATOM     29  C   UNL     1      14.161 -50.825 -26.585  1.00  0.00     0.061 A 
ATOM     30  C   UNL     1      16.125 -50.140 -24.814  1.00  0.00     0.114 A 
ATOM     31  C   UNL     1      15.192 -49.969 -26.931  1.00  0.00     0.133 A 
ATOM     32  N   UNL     1      16.168 -49.623 -26.061  1.00  0.00    -0.239 NA
BRANCH  31  33
ATOM     33  N   UNL     1      15.337 -49.378 -28.184  1.00  0.00    -0.310 N 
ATOM     34  C   UNL     1      15.112 -48.071 -28.537  1.00  0.00     0.228 C 
ATOM     35  H   UNL     1      15.610 -50.040 -28.893  1.00  0.00     0.171 HD
ATOM     36  O   UNL     1      14.697 -47.186 -27.801  1.00  0.00    -0.274 OA
BRANCH  34  37
ATOM     37  C   UNL     1      15.384 -47.726 -29.966  1.00  0.00     0.079 C 
ATOM     38  C   UNL     1      14.542 -46.724 -30.725  1.00  0.00     0.014 C 
ATOM     39  C   UNL     1      14.504 -48.176 -31.110  1.00  0.00     0.014 C 
ENDBRANCH  34  37
ENDBRANCH  31  33
ENDBRANCH  24  27
ENDBRANCH   5  23
TORSDOF 9
ENDMDL
MODEL 7
REMARK VINA RESULT:   -10.608      3.164     10.965
REMARK INTER + INTRA:         -16.832
REMARK INTER:                 -15.975
REMARK INTRA:                  -0.857
REMARK UNBOUND:                -0.642
REMARK SMILES O=C(Nc1cncc(OC[C@H]2CC[N@H+](Cc3ccccc3)CC2)c1)c1ccnc(NC(=O)C2CC2)c1
REMARK SMILES IDX 8 1 7 2 24 3 6 4 4 5 5 6 9 7 10 8 11 9 13 10 14 11 12 12
REMARK SMILES IDX 22 13 23 14 15 16 16 17 17 18 21 19 18 20 20 21 19 22 3 23
REMARK SMILES IDX 2 24 1 26 25 27 26 28 36 29 27 30 29 31 28 32 30 33 31 34
REMARK SMILES IDX 32 36 33 37 34 38 35 39
REMARK H PARENT 14 15 3 25 30 35
ROOT
ATOM      1  C   UNL     1      11.565 -51.566 -22.824  1.00  0.00     0.139 A 
ATOM      2  C   UNL     1      10.363 -51.132 -22.282  1.00  0.00     0.157 A 
ATOM      3  C   UNL     1      11.696 -52.929 -23.096  1.00  0.00     0.075 A 
ATOM      4  N   UNL     1       9.328 -51.951 -21.995  1.00  0.00    -0.259 NA
ATOM      5  C   UNL     1      10.655 -53.816 -22.801  1.00  0.00     0.063 A 
ATOM      6  C   UNL     1       9.496 -53.273 -22.254  1.00  0.00     0.137 A 
ENDROOT
BRANCH   1   7
ATOM      7  O   UNL     1      12.649 -50.792 -23.133  1.00  0.00    -0.492 OA
BRANCH   7   8
ATOM      8  C   UNL     1      13.707 -51.442 -23.838  1.00  0.00     0.233 C 
BRANCH   8   9
ATOM      9  C   UNL     1      14.499 -50.368 -24.599  1.00  0.00     0.038 C 
ATOM     10  C   UNL     1      16.312 -49.940 -26.310  1.00  0.00     0.262 C 
ATOM     11  N   UNL     1      15.344 -49.085 -27.088  1.00  0.00    -0.331 N 
ATOM     12  C   UNL     1      15.550 -50.998 -25.525  1.00  0.00     0.069 C 
ATOM     13  C   UNL     1      14.335 -48.407 -26.190  1.00  0.00     0.262 C 
ATOM     14  C   UNL     1      13.563 -49.460 -25.404  1.00  0.00     0.069 C 
ATOM     15  H   UNL     1      14.820 -49.698 -27.726  1.00  0.00     0.348 HD
BRANCH  11  16
ATOM     16  C   UNL     1      16.084 -48.105 -27.980  1.00  0.00     0.299 C 
BRANCH  16  17
ATOM     17  C   UNL     1      15.828 -48.319 -29.447  1.00  0.00     0.006 A 
ATOM     18  C   UNL     1      16.778 -48.969 -30.253  1.00  0.00     0.009 A 
ATOM     19  C   UNL     1      14.622 -47.891 -30.027  1.00  0.00     0.009 A 
ATOM     20  C   UNL     1      16.518 -49.192 -31.607  1.00  0.00     0.001 A 
ATOM     21  C   UNL     1      14.369 -48.117 -31.381  1.00  0.00     0.001 A 
ATOM     22  C   UNL     1      15.315 -48.769 -32.168  1.00  0.00     0.000 A 
ENDBRANCH  16  17
ENDBRANCH  11  16
ENDBRANCH   8   9
ENDBRANCH   7   8
ENDBRANCH   1   7
BRANCH   5  23
ATOM     23  N   UNL     1      10.857 -55.186 -23.078  1.00  0.00    -0.320 N 
ATOM     24  C   UNL     1      11.170 -56.165 -22.153  1.00  0.00     0.255 C 
ATOM     25  H   UNL     1      10.868 -55.452 -24.054  1.00  0.00     0.170 HD
ATOM     26  O   UNL     1      11.335 -56.012 -20.951  1.00  0.00    -0.269 OA
BRANCH  24  27
ATOM     27  C   UNL     1      11.348 -57.519 -22.728  1.00  0.00     0.045 A 
ATOM     28  C   UNL     1      11.118 -58.656 -21.958  1.00  0.00     0.034 A 
ATOM     29  C   UNL     1      11.782 -57.632 -24.050  1.00  0.00     0.061 A 
ATOM     30  C   UNL     1      11.324 -59.878 -22.564  1.00  0.00     0.114 A 
ATOM     31  C   UNL     1      11.942 -58.902 -24.576  1.00  0.00     0.133 A 
ATOM     32  N   UNL     1      11.719 -60.020 -23.848  1.00  0.00    -0.239 NA
BRANCH  31  33
ATOM     33  N   UNL     1      12.345 -59.168 -25.882  1.00  0.00    -0.310 N 
ATOM     34  C   UNL     1      11.560 -59.432 -26.975  1.00  0.00     0.228 C 
ATOM     35  H   UNL     1      13.349 -59.193 -25.978  1.00  0.00     0.171 HD
ATOM     36  O   UNL     1      10.339 -59.518 -26.984  1.00  0.00    -0.274 OA
BRANCH  34  37
ATOM     37  C   UNL     1      12.288 -59.653 -28.264  1.00  0.00     0.079 C 
ATOM     38  C   UNL     1      12.262 -58.638 -29.384  1.00  0.00     0.014 C 
ATOM     39  C   UNL     1      11.588 -59.968 -29.567  1.00  0.00     0.014 C 
ENDBRANCH  34  37
ENDBRANCH  31  33
ENDBRANCH  24  27
ENDBRANCH   5  23
TORSDOF 9
ENDMDL
MODEL 8
REMARK VINA RESULT:   -10.382      2.681     12.058
REMARK INTER + INTRA:         -16.487
REMARK INTER:                 -15.528
REMARK INTRA:                  -0.959
REMARK UNBOUND:                -0.642
REMARK SMILES O=C(Nc1cncc(OC[C@H]2CC[N@H+](Cc3ccccc3)CC2)c1)c1ccnc(NC(=O)C2CC2)c1
REMARK SMILES IDX 8 1 7 2 24 3 6 4 4 5 5 6 9 7 10 8 11 9 13 10 14 11 12 12
REMARK SMILES IDX 22 13 23 14 15 16 16 17 17 18 21 19 18 20 20 21 19 22 3 23
REMARK SMILES IDX 2 24 1 26 25 27 26 28 36 29 27 30 29 31 28 32 30 33 31 34
REMARK SMILES IDX 32 36 33 37 34 38 35 39
REMARK H PARENT 14 15 3 25 30 35
ROOT
ATOM      1  C   UNL     1      11.708 -52.193 -23.051  1.00  0.00     0.139 A 
ATOM      2  C   UNL     1      10.631 -51.760 -22.290  1.00  0.00     0.157 A 
ATOM      3  C   UNL     1      11.726 -53.532 -23.442  1.00  0.00     0.075 A 
ATOM      4  N   UNL     1       9.615 -52.561 -21.901  1.00  0.00    -0.259 NA
ATOM      5  C   UNL     1      10.702 -54.401 -23.049  1.00  0.00     0.063 A 
ATOM      6  C   UNL     1       9.673 -53.862 -22.283  1.00  0.00     0.137 A 
ENDROOT
BRANCH   1   7
ATOM      7  O   UNL     1      12.767 -51.437 -23.472  1.00  0.00    -0.492 OA
BRANCH   7   8
ATOM      8  C   UNL     1      12.446 -50.170 -24.048  1.00  0.00     0.233 C 
BRANCH   8   9
ATOM      9  C   UNL     1      13.676 -49.680 -24.830  1.00  0.00     0.038 C 
ATOM     10  C   UNL     1      15.105 -50.021 -26.887  1.00  0.00     0.262 C 
ATOM     11  N   UNL     1      14.908 -48.567 -27.237  1.00  0.00    -0.331 N 
ATOM     12  C   UNL     1      13.912 -50.525 -26.090  1.00  0.00     0.069 C 
ATOM     13  C   UNL     1      14.733 -47.705 -26.007  1.00  0.00     0.262 C 
ATOM     14  C   UNL     1      13.536 -48.201 -25.205  1.00  0.00     0.069 C 
ATOM     15  H   UNL     1      14.046 -48.487 -27.790  1.00  0.00     0.348 HD
BRANCH  11  16
ATOM     16  C   UNL     1      16.022 -48.073 -28.142  1.00  0.00     0.299 C 
BRANCH  16  17
ATOM     17  C   UNL     1      15.768 -48.337 -29.602  1.00  0.00     0.006 A 
ATOM     18  C   UNL     1      14.537 -47.998 -30.188  1.00  0.00     0.009 A 
ATOM     19  C   UNL     1      16.769 -48.907 -30.405  1.00  0.00     0.009 A 
ATOM     20  C   UNL     1      14.320 -48.216 -31.550  1.00  0.00     0.001 A 
ATOM     21  C   UNL     1      16.547 -49.124 -31.766  1.00  0.00     0.001 A 
ATOM     22  C   UNL     1      15.325 -48.776 -32.337  1.00  0.00     0.000 A 
ENDBRANCH  16  17
ENDBRANCH  11  16
ENDBRANCH   8   9
ENDBRANCH   7   8
ENDBRANCH   1   7
BRANCH   5  23
ATOM     23  N   UNL     1      10.789 -55.750 -23.458  1.00  0.00    -0.320 N 
ATOM     24  C   UNL     1      11.093 -56.828 -22.646  1.00  0.00     0.255 C 
ATOM     25  H   UNL     1      10.716 -55.926 -24.452  1.00  0.00     0.170 HD
ATOM     26  O   UNL     1      11.348 -56.795 -21.451  1.00  0.00    -0.269 OA
BRANCH  24  27
ATOM     27  C   UNL     1      11.138 -58.132 -23.348  1.00  0.00     0.045 A 
ATOM     28  C   UNL     1      12.139 -58.409 -24.274  1.00  0.00     0.034 A 
ATOM     29  C   UNL     1      10.137 -59.068 -23.083  1.00  0.00     0.061 A 
ATOM     30  C   UNL     1      12.099 -59.640 -24.895  1.00  0.00     0.114 A 
ATOM     31  C   UNL     1      10.192 -60.284 -23.742  1.00  0.00     0.133 A 
ATOM     32  N   UNL     1      11.158 -60.576 -24.642  1.00  0.00    -0.239 NA
BRANCH  31  33
ATOM     33  N   UNL     1       9.278 -61.319 -23.562  1.00  0.00    -0.310 N 
ATOM     34  C   UNL     1       7.934 -61.323 -23.837  1.00  0.00     0.228 C 
ATOM     35  H   UNL     1       9.697 -62.135 -23.142  1.00  0.00     0.171 HD
ATOM     36  O   UNL     1       7.282 -60.379 -24.264  1.00  0.00    -0.274 OA
BRANCH  34  37
ATOM     37  C   UNL     1       7.214 -62.605 -23.559  1.00  0.00     0.079 C 
ATOM     38  C   UNL     1       7.952 -63.888 -23.250  1.00  0.00     0.014 C 
ATOM     39  C   UNL     1       7.178 -63.762 -24.533  1.00  0.00     0.014 C 
ENDBRANCH  34  37
ENDBRANCH  31  33
ENDBRANCH  24  27
ENDBRANCH   5  23
TORSDOF 9
ENDMDL
MODEL 9
REMARK VINA RESULT:   -10.287      4.496     12.287
REMARK INTER + INTRA:         -16.342
REMARK INTER:                 -15.398
REMARK INTRA:                  -0.944
REMARK UNBOUND:                -0.642
REMARK SMILES O=C(Nc1cncc(OC[C@H]2CC[N@H+](Cc3ccccc3)CC2)c1)c1ccnc(NC(=O)C2CC2)c1
REMARK SMILES IDX 8 1 7 2 24 3 6 4 4 5 5 6 9 7 10 8 11 9 13 10 14 11 12 12
REMARK SMILES IDX 22 13 23 14 15 16 16 17 17 18 21 19 18 20 20 21 19 22 3 23
REMARK SMILES IDX 2 24 1 26 25 27 26 28 36 29 27 30 29 31 28 32 30 33 31 34
REMARK SMILES IDX 32 36 33 37 34 38 35 39
REMARK H PARENT 14 15 3 25 30 35
ROOT
ATOM      1  C   UNL     1      11.735 -52.324 -23.222  1.00  0.00     0.139 A 
ATOM      2  C   UNL     1      11.084 -51.836 -22.097  1.00  0.00     0.157 A 
ATOM      3  C   UNL     1      11.655 -53.695 -23.471  1.00  0.00     0.075 A 
ATOM      4  N   UNL     1      10.396 -52.611 -21.231  1.00  0.00    -0.259 NA
ATOM      5  C   UNL     1      10.964 -54.537 -22.593  1.00  0.00     0.063 A 
ATOM      6  C   UNL     1      10.353 -53.942 -21.492  1.00  0.00     0.137 A 
ENDROOT
BRANCH   1   7
ATOM      7  O   UNL     1      12.451 -51.596 -24.131  1.00  0.00    -0.492 OA
BRANCH   7   8
ATOM      8  C   UNL     1      13.266 -50.551 -23.600  1.00  0.00     0.233 C 
BRANCH   8   9
ATOM      9  C   UNL     1      12.857 -49.236 -24.284  1.00  0.00     0.038 C 
ATOM     10  C   UNL     1      11.588 -47.064 -24.028  1.00  0.00     0.262 C 
ATOM     11  N   UNL     1      12.836 -46.315 -24.422  1.00  0.00    -0.331 N 
ATOM     12  C   UNL     1      11.965 -48.384 -23.370  1.00  0.00     0.069 C 
ATOM     13  C   UNL     1      13.703 -47.113 -25.370  1.00  0.00     0.262 C 
ATOM     14  C   UNL     1      14.089 -48.435 -24.716  1.00  0.00     0.069 C 
ATOM     15  H   UNL     1      13.388 -46.149 -23.571  1.00  0.00     0.348 HD
BRANCH  11  16
ATOM     16  C   UNL     1      12.492 -44.939 -24.963  1.00  0.00     0.299 C 
BRANCH  16  17
ATOM     17  C   UNL     1      12.260 -43.914 -23.886  1.00  0.00     0.006 A 
ATOM     18  C   UNL     1      13.224 -43.691 -22.889  1.00  0.00     0.009 A 
ATOM     19  C   UNL     1      11.081 -43.150 -23.876  1.00  0.00     0.009 A 
ATOM     20  C   UNL     1      13.015 -42.715 -21.911  1.00  0.00     0.001 A 
ATOM     21  C   UNL     1      10.877 -42.177 -22.895  1.00  0.00     0.001 A 
ATOM     22  C   UNL     1      11.845 -41.959 -21.917  1.00  0.00     0.000 A 
ENDBRANCH  16  17
ENDBRANCH  11  16
ENDBRANCH   8   9
ENDBRANCH   7   8
ENDBRANCH   1   7
BRANCH   5  23
ATOM     23  N   UNL     1      10.938 -55.918 -22.887  1.00  0.00    -0.320 N 
ATOM     24  C   UNL     1      11.188 -56.945 -21.995  1.00  0.00     0.255 C 
ATOM     25  H   UNL     1      10.821 -56.170 -23.860  1.00  0.00     0.170 HD
ATOM     26  O   UNL     1      11.482 -56.832 -20.813  1.00  0.00    -0.269 OA
BRANCH  24  27
ATOM     27  C   UNL     1      11.114 -58.302 -22.583  1.00  0.00     0.045 A 
ATOM     28  C   UNL     1      10.800 -59.405 -21.793  1.00  0.00     0.034 A 
ATOM     29  C   UNL     1      11.396 -58.458 -23.941  1.00  0.00     0.061 A 
ATOM     30  C   UNL     1      10.769 -60.636 -22.415  1.00  0.00     0.114 A 
ATOM     31  C   UNL     1      11.321 -59.731 -24.479  1.00  0.00     0.133 A 
ATOM     32  N   UNL     1      11.012 -60.816 -23.732  1.00  0.00    -0.239 NA
BRANCH  31  33
ATOM     33  N   UNL     1      11.552 -60.035 -25.819  1.00  0.00    -0.310 N 
ATOM     34  C   UNL     1      10.690 -59.911 -26.878  1.00  0.00     0.228 C 
ATOM     35  H   UNL     1      12.470 -60.423 -25.973  1.00  0.00     0.171 HD
ATOM     36  O   UNL     1       9.526 -59.538 -26.821  1.00  0.00    -0.274 OA
BRANCH  34  37
ATOM     37  C   UNL     1      11.240 -60.294 -28.215  1.00  0.00     0.079 C 
ATOM     38  C   UNL     1      12.715 -60.201 -28.533  1.00  0.00     0.014 C 
ATOM     39  C   UNL     1      11.743 -59.286 -29.224  1.00  0.00     0.014 C 
ENDBRANCH  34  37
ENDBRANCH  31  33
ENDBRANCH  24  27
ENDBRANCH   5  23
TORSDOF 9
ENDMDL
