MODEL 1
REMARK VINA RESULT:   -12.475      0.000      0.000
REMARK INTER + INTRA:         -17.645
REMARK INTER:                 -17.580
REMARK INTRA:                  -0.064
REMARK UNBOUND:                -0.064
REMARK SMILES C=C(O)c1c[n+](Cc2cccc(Cl)c2)ccc1C[C@H]1Cc2cc(OC)c(O)cc2C1=O
REMARK SMILES IDX 4 1 5 2 6 3 15 4 16 5 17 6 2 7 1 8 3 9 18 11 19 12 20 13
REMARK SMILES IDX 30 14 21 15 29 16 22 17 28 18 23 19 26 20 31 21 24 22 25 23
REMARK SMILES IDX 27 24 7 26 8 27 9 28 14 29 10 30 12 31 11 32 13 33
REMARK H PARENT 3 10 27 25
ROOT
ATOM      1  C   UNL     1       9.380 -58.120 -22.877  1.00  0.00     0.083 A 
ATOM      2  C   UNL     1       9.353 -56.734 -23.063  1.00  0.00     0.320 A 
ATOM      3  N   UNL     1      10.308 -55.932 -22.544  1.00  0.00    -0.200 N 
ATOM      4  C   UNL     1      11.328 -56.455 -21.829  1.00  0.00     0.308 A 
ATOM      5  C   UNL     1      11.401 -57.824 -21.600  1.00  0.00     0.075 A 
ATOM      6  C   UNL     1      10.419 -58.682 -22.113  1.00  0.00    -0.024 A 
ENDROOT
BRANCH   1   7
ATOM      7  C   UNL     1       8.257 -58.874 -23.454  1.00  0.00     0.121 C 
ATOM      8  C   UNL     1       7.399 -59.605 -22.735  1.00  0.00     0.059 C 
BRANCH   7   9
ATOM      9  O   UNL     1       8.197 -58.815 -24.826  1.00  0.00    -0.508 OA
ATOM     10  H   UNL     1       8.229 -59.727 -25.175  1.00  0.00     0.293 HD
ENDBRANCH   7   9
ENDBRANCH   1   7
BRANCH   6  11
ATOM     11  C   UNL     1      10.498 -60.163 -21.786  1.00  0.00     0.049 C 
BRANCH  11  12
ATOM     12  C   UNL     1      11.099 -60.992 -22.929  1.00  0.00     0.070 C 
ATOM     13  C   UNL     1      10.055 -61.803 -23.733  1.00  0.00     0.048 C 
ATOM     14  C   UNL     1      11.748 -60.084 -23.957  1.00  0.00     0.167 C 
ATOM     15  C   UNL     1      10.237 -61.355 -25.150  1.00  0.00    -0.032 A 
ATOM     16  C   UNL     1      11.201 -60.365 -25.275  1.00  0.00     0.025 A 
ATOM     17  C   UNL     1       9.560 -61.810 -26.274  1.00  0.00     0.055 A 
ATOM     18  C   UNL     1      11.539 -59.784 -26.482  1.00  0.00     0.062 A 
ATOM     19  C   UNL     1       9.871 -61.251 -27.523  1.00  0.00     0.160 A 
ATOM     20  C   UNL     1      10.858 -60.242 -27.609  1.00  0.00     0.158 A 
ATOM     21  O   UNL     1      12.611 -59.252 -23.736  1.00  0.00    -0.294 OA
BRANCH  19  22
ATOM     22  O   UNL     1       9.279 -61.607 -28.706  1.00  0.00    -0.493 OA
ATOM     23  C   UNL     1       8.772 -62.929 -28.824  1.00  0.00     0.278 C 
ENDBRANCH  19  22
BRANCH  20  24
ATOM     24  O   UNL     1      11.147 -59.705 -28.837  1.00  0.00    -0.504 OA
ATOM     25  H   UNL     1      12.079 -59.438 -28.869  1.00  0.00     0.293 HD
ENDBRANCH  20  24
ENDBRANCH  11  12
ENDBRANCH   6  11
BRANCH   3  26
ATOM     26  C   UNL     1      10.231 -54.465 -22.756  1.00  0.00     0.393 C 
BRANCH  26  27
ATOM     27  C   UNL     1      11.292 -54.003 -23.723  1.00  0.00     0.018 A 
ATOM     28  C   UNL     1      11.737 -54.840 -24.760  1.00  0.00     0.010 A 
ATOM     29  C   UNL     1      11.854 -52.722 -23.599  1.00  0.00     0.030 A 
ATOM     30  C   UNL     1      12.713 -54.399 -25.658  1.00  0.00     0.002 A 
ATOM     31  C   UNL     1      12.828 -52.290 -24.502  1.00  0.00     0.041 A 
ATOM     32  C   UNL     1      13.257 -53.122 -25.530  1.00  0.00     0.020 A 
ATOM     33  Cl  UNL     1      13.492 -50.712 -24.339  1.00  0.00    -0.084 Cl
ENDBRANCH  26  27
ENDBRANCH   3  26
TORSDOF 8
ENDMDL
MODEL 2
REMARK VINA RESULT:   -12.035      4.230      8.657
REMARK INTER + INTRA:         -17.024
REMARK INTER:                 -16.435
REMARK INTRA:                  -0.589
REMARK UNBOUND:                -0.064
REMARK SMILES C=C(O)c1c[n+](Cc2cccc(Cl)c2)ccc1C[C@H]1Cc2cc(OC)c(O)cc2C1=O
REMARK SMILES IDX 4 1 5 2 6 3 15 4 16 5 17 6 2 7 1 8 3 9 18 11 19 12 20 13
REMARK SMILES IDX 30 14 21 15 29 16 22 17 28 18 23 19 26 20 31 21 24 22 25 23
REMARK SMILES IDX 27 24 7 26 8 27 9 28 14 29 10 30 12 31 11 32 13 33
REMARK H PARENT 3 10 27 25
ROOT
ATOM      1  C   UNL     1       9.055 -58.469 -23.373  1.00  0.00     0.083 A 
ATOM      2  C   UNL     1       9.435 -59.793 -23.620  1.00  0.00     0.320 A 
ATOM      3  N   UNL     1      10.727 -60.182 -23.549  1.00  0.00    -0.200 N 
ATOM      4  C   UNL     1      11.694 -59.295 -23.227  1.00  0.00     0.308 A 
ATOM      5  C   UNL     1      11.378 -57.963 -22.984  1.00  0.00     0.075 A 
ATOM      6  C   UNL     1      10.050 -57.524 -23.063  1.00  0.00    -0.024 A 
ENDROOT
BRANCH   1   7
ATOM      7  C   UNL     1       7.625 -58.166 -23.531  1.00  0.00     0.121 C 
ATOM      8  C   UNL     1       6.681 -58.542 -22.662  1.00  0.00     0.059 C 
BRANCH   7   9
ATOM      9  O   UNL     1       7.324 -57.506 -24.699  1.00  0.00    -0.508 OA
ATOM     10  H   UNL     1       6.730 -58.073 -25.229  1.00  0.00     0.293 HD
ENDBRANCH   7   9
ENDBRANCH   1   7
BRANCH   6  11
ATOM     11  C   UNL     1       9.754 -56.049 -22.856  1.00  0.00     0.049 C 
BRANCH  11  12
ATOM     12  C   UNL     1      11.009 -55.235 -22.513  1.00  0.00     0.070 C 
ATOM     13  C   UNL     1      11.695 -54.588 -23.740  1.00  0.00     0.048 C 
ATOM     14  C   UNL     1      10.653 -54.064 -21.616  1.00  0.00     0.167 C 
ATOM     15  C   UNL     1      11.742 -53.126 -23.420  1.00  0.00    -0.032 A 
ATOM     16  C   UNL     1      11.137 -52.827 -22.207  1.00  0.00     0.025 A 
ATOM     17  C   UNL     1      12.294 -52.110 -24.189  1.00  0.00     0.055 A 
ATOM     18  C   UNL     1      11.045 -51.544 -21.703  1.00  0.00     0.062 A 
ATOM     19  C   UNL     1      12.226 -50.791 -23.716  1.00  0.00     0.160 A 
ATOM     20  C   UNL     1      11.599 -50.526 -22.476  1.00  0.00     0.158 A 
ATOM     21  O   UNL     1      10.066 -54.130 -20.550  1.00  0.00    -0.294 OA
BRANCH  19  22
ATOM     22  O   UNL     1      12.729 -49.699 -24.374  1.00  0.00    -0.493 OA
ATOM     23  C   UNL     1      13.635 -49.928 -25.443  1.00  0.00     0.278 C 
ENDBRANCH  19  22
BRANCH  20  24
ATOM     24  O   UNL     1      11.541 -49.232 -22.030  1.00  0.00    -0.504 OA
ATOM     25  H   UNL     1      10.802 -48.769 -22.456  1.00  0.00     0.293 HD
ENDBRANCH  20  24
ENDBRANCH  11  12
ENDBRANCH   6  11
BRANCH   3  26
ATOM     26  C   UNL     1      11.086 -61.594 -23.831  1.00  0.00     0.393 C 
BRANCH  26  27
ATOM     27  C   UNL     1       9.885 -62.496 -23.688  1.00  0.00     0.018 A 
ATOM     28  C   UNL     1       9.583 -63.105 -22.459  1.00  0.00     0.010 A 
ATOM     29  C   UNL     1       9.049 -62.741 -24.789  1.00  0.00     0.030 A 
ATOM     30  C   UNL     1       8.462 -63.931 -22.333  1.00  0.00     0.002 A 
ATOM     31  C   UNL     1       7.930 -63.567 -24.653  1.00  0.00     0.041 A 
ATOM     32  C   UNL     1       7.634 -64.160 -23.431  1.00  0.00     0.020 A 
ATOM     33  Cl  UNL     1       6.912 -63.841 -26.011  1.00  0.00    -0.084 Cl
ENDBRANCH  26  27
ENDBRANCH   3  26
TORSDOF 8
ENDMDL
MODEL 3
REMARK VINA RESULT:   -11.425      3.854      8.565
REMARK INTER + INTRA:         -16.165
REMARK INTER:                 -15.334
REMARK INTRA:                  -0.830
REMARK UNBOUND:                -0.064
REMARK SMILES C=C(O)c1c[n+](Cc2cccc(Cl)c2)ccc1C[C@H]1Cc2cc(OC)c(O)cc2C1=O
REMARK SMILES IDX 4 1 5 2 6 3 15 4 16 5 17 6 2 7 1 8 3 9 18 11 19 12 20 13
REMARK SMILES IDX 30 14 21 15 29 16 22 17 28 18 23 19 26 20 31 21 24 22 25 23
REMARK SMILES IDX 27 24 7 26 8 27 9 28 14 29 10 30 12 31 11 32 13 33
REMARK H PARENT 3 10 27 25
ROOT
ATOM      1  C   UNL     1      10.274 -58.404 -22.335  1.00  0.00     0.083 A 
ATOM      2  C   UNL     1       9.306 -59.397 -22.514  1.00  0.00     0.320 A 
ATOM      3  N   UNL     1       8.128 -59.135 -23.121  1.00  0.00    -0.200 N 
ATOM      4  C   UNL     1       7.856 -57.896 -23.584  1.00  0.00     0.308 A 
ATOM      5  C   UNL     1       8.775 -56.865 -23.425  1.00  0.00     0.075 A 
ATOM      6  C   UNL     1      10.000 -57.100 -22.786  1.00  0.00    -0.024 A 
ENDROOT
BRANCH   1   7
ATOM      7  C   UNL     1      11.492 -58.807 -21.616  1.00  0.00     0.121 C 
ATOM      8  C   UNL     1      11.699 -58.588 -20.314  1.00  0.00     0.059 C 
BRANCH   7   9
ATOM      9  O   UNL     1      12.446 -59.383 -22.422  1.00  0.00    -0.508 OA
ATOM     10  H   UNL     1      13.287 -58.901 -22.297  1.00  0.00     0.293 HD
ENDBRANCH   7   9
ENDBRANCH   1   7
BRANCH   6  11
ATOM     11  C   UNL     1      10.948 -55.933 -22.573  1.00  0.00     0.049 C 
BRANCH  11  12
ATOM     12  C   UNL     1      10.455 -54.639 -23.235  1.00  0.00     0.070 C 
ATOM     13  C   UNL     1      10.177 -53.489 -22.238  1.00  0.00     0.048 C 
ATOM     14  C   UNL     1      11.516 -54.085 -24.168  1.00  0.00     0.167 C 
ATOM     15  C   UNL     1      11.033 -52.358 -22.716  1.00  0.00    -0.032 A 
ATOM     16  C   UNL     1      11.806 -52.703 -23.816  1.00  0.00     0.025 A 
ATOM     17  C   UNL     1      11.122 -51.079 -22.180  1.00  0.00     0.055 A 
ATOM     18  C   UNL     1      12.684 -51.831 -24.429  1.00  0.00     0.062 A 
ATOM     19  C   UNL     1      11.999 -50.158 -22.771  1.00  0.00     0.160 A 
ATOM     20  C   UNL     1      12.771 -50.549 -23.890  1.00  0.00     0.158 A 
ATOM     21  O   UNL     1      12.044 -54.683 -25.088  1.00  0.00    -0.294 OA
BRANCH  19  22
ATOM     22  O   UNL     1      12.182 -48.870 -22.343  1.00  0.00    -0.493 OA
ATOM     23  C   UNL     1      11.177 -47.917 -22.656  1.00  0.00     0.278 C 
ENDBRANCH  19  22
BRANCH  20  24
ATOM     24  O   UNL     1      13.625 -49.637 -24.453  1.00  0.00    -0.504 OA
ATOM     25  H   UNL     1      14.062 -49.121 -23.758  1.00  0.00     0.293 HD
ENDBRANCH  20  24
ENDBRANCH  11  12
ENDBRANCH   6  11
BRANCH   3  26
ATOM     26  C   UNL     1       7.124 -60.218 -23.277  1.00  0.00     0.393 C 
BRANCH  26  27
ATOM     27  C   UNL     1       7.555 -61.207 -24.331  1.00  0.00     0.018 A 
ATOM     28  C   UNL     1       7.054 -62.519 -24.337  1.00  0.00     0.010 A 
ATOM     29  C   UNL     1       8.471 -60.828 -25.326  1.00  0.00     0.030 A 
ATOM     30  C   UNL     1       7.451 -63.426 -25.323  1.00  0.00     0.002 A 
ATOM     31  C   UNL     1       8.861 -61.741 -26.309  1.00  0.00     0.041 A 
ATOM     32  C   UNL     1       8.354 -63.036 -26.312  1.00  0.00     0.020 A 
ATOM     33  Cl  UNL     1       9.972 -61.250 -27.525  1.00  0.00    -0.084 Cl
ENDBRANCH  26  27
ENDBRANCH   3  26
TORSDOF 8
ENDMDL
MODEL 4
REMARK VINA RESULT:   -11.349      4.536      8.930
REMARK INTER + INTRA:         -16.058
REMARK INTER:                 -14.959
REMARK INTRA:                  -1.099
REMARK UNBOUND:                -0.064
REMARK SMILES C=C(O)c1c[n+](Cc2cccc(Cl)c2)ccc1C[C@H]1Cc2cc(OC)c(O)cc2C1=O
REMARK SMILES IDX 4 1 5 2 6 3 15 4 16 5 17 6 2 7 1 8 3 9 18 11 19 12 20 13
REMARK SMILES IDX 30 14 21 15 29 16 22 17 28 18 23 19 26 20 31 21 24 22 25 23
REMARK SMILES IDX 27 24 7 26 8 27 9 28 14 29 10 30 12 31 11 32 13 33
REMARK H PARENT 3 10 27 25
ROOT
ATOM      1  C   UNL     1      10.985 -55.507 -22.206  1.00  0.00     0.083 A 
ATOM      2  C   UNL     1      11.004 -56.793 -21.655  1.00  0.00     0.320 A 
ATOM      3  N   UNL     1      11.400 -57.865 -22.376  1.00  0.00    -0.200 N 
ATOM      4  C   UNL     1      11.798 -57.720 -23.659  1.00  0.00     0.308 A 
ATOM      5  C   UNL     1      11.789 -56.468 -24.264  1.00  0.00     0.075 A 
ATOM      6  C   UNL     1      11.371 -55.339 -23.548  1.00  0.00    -0.024 A 
ENDROOT
BRANCH   1   7
ATOM      7  C   UNL     1      10.488 -54.435 -21.332  1.00  0.00     0.121 C 
ATOM      8  C   UNL     1      10.968 -54.184 -20.109  1.00  0.00     0.059 C 
BRANCH   7   9
ATOM      9  O   UNL     1       9.426 -53.738 -21.858  1.00  0.00    -0.508 OA
ATOM     10  H   UNL     1       9.391 -53.910 -22.820  1.00  0.00     0.293 HD
ENDBRANCH   7   9
ENDBRANCH   1   7
BRANCH   6  11
ATOM     11  C   UNL     1      11.311 -54.001 -24.265  1.00  0.00     0.049 C 
BRANCH  11  12
ATOM     12  C   UNL     1      12.597 -53.180 -24.095  1.00  0.00     0.070 C 
ATOM     13  C   UNL     1      13.319 -52.858 -25.425  1.00  0.00     0.048 C 
ATOM     14  C   UNL     1      12.282 -51.822 -23.496  1.00  0.00     0.167 C 
ATOM     15  C   UNL     1      13.424 -51.365 -25.448  1.00  0.00    -0.032 A 
ATOM     16  C   UNL     1      12.822 -50.772 -24.346  1.00  0.00     0.025 A 
ATOM     17  C   UNL     1      14.024 -50.574 -26.419  1.00  0.00     0.055 A 
ATOM     18  C   UNL     1      12.780 -49.406 -24.149  1.00  0.00     0.062 A 
ATOM     19  C   UNL     1      14.008 -49.180 -26.260  1.00  0.00     0.160 A 
ATOM     20  C   UNL     1      13.383 -48.614 -25.124  1.00  0.00     0.158 A 
ATOM     21  O   UNL     1      11.685 -51.619 -22.453  1.00  0.00    -0.294 OA
BRANCH  19  22
ATOM     22  O   UNL     1      14.561 -48.288 -27.142  1.00  0.00    -0.493 OA
ATOM     23  C   UNL     1      15.162 -48.805 -28.320  1.00  0.00     0.278 C 
ENDBRANCH  19  22
BRANCH  20  24
ATOM     24  O   UNL     1      13.375 -47.250 -24.987  1.00  0.00    -0.504 OA
ATOM     25  H   UNL     1      14.266 -46.935 -24.768  1.00  0.00     0.293 HD
ENDBRANCH  20  24
ENDBRANCH  11  12
ENDBRANCH   6  11
BRANCH   3  26
ATOM     26  C   UNL     1      11.392 -59.213 -21.754  1.00  0.00     0.393 C 
BRANCH  26  27
ATOM     27  C   UNL     1      10.536 -60.169 -22.547  1.00  0.00     0.018 A 
ATOM     28  C   UNL     1      11.096 -61.304 -23.156  1.00  0.00     0.010 A 
ATOM     29  C   UNL     1       9.158 -59.935 -22.689  1.00  0.00     0.030 A 
ATOM     30  C   UNL     1      10.293 -62.190 -23.880  1.00  0.00     0.002 A 
ATOM     31  C   UNL     1       8.364 -60.826 -23.414  1.00  0.00     0.041 A 
ATOM     32  C   UNL     1       8.925 -61.952 -24.007  1.00  0.00     0.020 A 
ATOM     33  Cl  UNL     1       6.678 -60.526 -23.563  1.00  0.00    -0.084 Cl
ENDBRANCH  26  27
ENDBRANCH   3  26
TORSDOF 8
ENDMDL
MODEL 5
REMARK VINA RESULT:   -11.253      4.741      9.494
REMARK INTER + INTRA:         -15.922
REMARK INTER:                 -15.495
REMARK INTRA:                  -0.428
REMARK UNBOUND:                -0.064
REMARK SMILES C=C(O)c1c[n+](Cc2cccc(Cl)c2)ccc1C[C@H]1Cc2cc(OC)c(O)cc2C1=O
REMARK SMILES IDX 4 1 5 2 6 3 15 4 16 5 17 6 2 7 1 8 3 9 18 11 19 12 20 13
REMARK SMILES IDX 30 14 21 15 29 16 22 17 28 18 23 19 26 20 31 21 24 22 25 23
REMARK SMILES IDX 27 24 7 26 8 27 9 28 14 29 10 30 12 31 11 32 13 33
REMARK H PARENT 3 10 27 25
ROOT
ATOM      1  C   UNL     1      11.842 -56.122 -24.531  1.00  0.00     0.083 A 
ATOM      2  C   UNL     1      12.199 -57.443 -24.238  1.00  0.00     0.320 A 
ATOM      3  N   UNL     1      11.672 -58.100 -23.183  1.00  0.00    -0.200 N 
ATOM      4  C   UNL     1      10.772 -57.495 -22.378  1.00  0.00     0.308 A 
ATOM      5  C   UNL     1      10.388 -56.179 -22.611  1.00  0.00     0.075 A 
ATOM      6  C   UNL     1      10.927 -55.465 -23.689  1.00  0.00    -0.024 A 
ENDROOT
BRANCH   1   7
ATOM      7  C   UNL     1      12.524 -55.505 -25.678  1.00  0.00     0.121 C 
ATOM      8  C   UNL     1      12.970 -54.245 -25.695  1.00  0.00     0.059 C 
BRANCH   7   9
ATOM      9  O   UNL     1      12.611 -56.327 -26.778  1.00  0.00    -0.508 OA
ATOM     10  H   UNL     1      12.315 -57.221 -26.518  1.00  0.00     0.293 HD
ENDBRANCH   7   9
ENDBRANCH   1   7
BRANCH   6  11
ATOM     11  C   UNL     1      10.533 -54.009 -23.871  1.00  0.00     0.049 C 
BRANCH  11  12
ATOM     12  C   UNL     1      11.031 -53.112 -22.730  1.00  0.00     0.070 C 
ATOM     13  C   UNL     1      12.258 -52.245 -23.101  1.00  0.00     0.048 C 
ATOM     14  C   UNL     1       9.962 -52.110 -22.338  1.00  0.00     0.167 C 
ATOM     15  C   UNL     1      11.824 -50.839 -22.827  1.00  0.00    -0.032 A 
ATOM     16  C   UNL     1      10.506 -50.762 -22.398  1.00  0.00     0.025 A 
ATOM     17  C   UNL     1      12.576 -49.679 -22.966  1.00  0.00     0.055 A 
ATOM     18  C   UNL     1       9.876 -49.571 -22.093  1.00  0.00     0.062 A 
ATOM     19  C   UNL     1      11.979 -48.446 -22.665  1.00  0.00     0.160 A 
ATOM     20  C   UNL     1      10.633 -48.410 -22.233  1.00  0.00     0.158 A 
ATOM     21  O   UNL     1       8.820 -52.373 -22.004  1.00  0.00    -0.294 OA
BRANCH  19  22
ATOM     22  O   UNL     1      12.607 -47.232 -22.760  1.00  0.00    -0.493 OA
ATOM     23  C   UNL     1      12.877 -46.724 -24.059  1.00  0.00     0.278 C 
ENDBRANCH  19  22
BRANCH  20  24
ATOM     24  O   UNL     1      10.065 -47.196 -21.946  1.00  0.00    -0.504 OA
ATOM     25  H   UNL     1       9.140 -47.186 -22.239  1.00  0.00     0.293 HD
ENDBRANCH  20  24
ENDBRANCH  11  12
ENDBRANCH   6  11
BRANCH   3  26
ATOM     26  C   UNL     1      12.090 -59.497 -22.903  1.00  0.00     0.393 C 
BRANCH  26  27
ATOM     27  C   UNL     1      11.163 -60.482 -23.571  1.00  0.00     0.018 A 
ATOM     28  C   UNL     1      10.860 -60.374 -24.938  1.00  0.00     0.010 A 
ATOM     29  C   UNL     1      10.587 -61.526 -22.830  1.00  0.00     0.030 A 
ATOM     30  C   UNL     1      10.009 -61.298 -25.550  1.00  0.00     0.002 A 
ATOM     31  C   UNL     1       9.738 -62.446 -23.451  1.00  0.00     0.041 A 
ATOM     32  C   UNL     1       9.449 -62.336 -24.807  1.00  0.00     0.020 A 
ATOM     33  Cl  UNL     1       9.055 -63.724 -22.527  1.00  0.00    -0.084 Cl
ENDBRANCH  26  27
ENDBRANCH   3  26
TORSDOF 8
ENDMDL
MODEL 6
REMARK VINA RESULT:   -10.652      2.823      4.781
REMARK INTER + INTRA:         -15.075
REMARK INTER:                 -15.537
REMARK INTRA:                   0.462
REMARK UNBOUND:                -0.064
REMARK SMILES C=C(O)c1c[n+](Cc2cccc(Cl)c2)ccc1C[C@H]1Cc2cc(OC)c(O)cc2C1=O
REMARK SMILES IDX 4 1 5 2 6 3 15 4 16 5 17 6 2 7 1 8 3 9 18 11 19 12 20 13
REMARK SMILES IDX 30 14 21 15 29 16 22 17 28 18 23 19 26 20 31 21 24 22 25 23
REMARK SMILES IDX 27 24 7 26 8 27 9 28 14 29 10 30 12 31 11 32 13 33
REMARK H PARENT 3 10 27 25
ROOT
ATOM      1  C   UNL     1      11.789 -53.921 -23.760  1.00  0.00     0.083 A 
ATOM      2  C   UNL     1      11.813 -52.607 -23.280  1.00  0.00     0.320 A 
ATOM      3  N   UNL     1      11.262 -52.279 -22.091  1.00  0.00    -0.200 N 
ATOM      4  C   UNL     1      10.674 -53.222 -21.324  1.00  0.00     0.308 A 
ATOM      5  C   UNL     1      10.609 -54.543 -21.754  1.00  0.00     0.075 A 
ATOM      6  C   UNL     1      11.158 -54.913 -22.988  1.00  0.00    -0.024 A 
ENDROOT
BRANCH   1   7
ATOM      7  C   UNL     1      12.381 -54.136 -25.088  1.00  0.00     0.121 C 
ATOM      8  C   UNL     1      13.057 -53.203 -25.766  1.00  0.00     0.059 C 
BRANCH   7   9
ATOM      9  O   UNL     1      12.123 -55.380 -25.615  1.00  0.00    -0.508 OA
ATOM     10  H   UNL     1      12.554 -55.440 -26.490  1.00  0.00     0.293 HD
ENDBRANCH   7   9
ENDBRANCH   1   7
BRANCH   6  11
ATOM     11  C   UNL     1      11.008 -56.352 -23.452  1.00  0.00     0.049 C 
BRANCH  11  12
ATOM     12  C   UNL     1       9.997 -57.144 -22.611  1.00  0.00     0.070 C 
ATOM     13  C   UNL     1       8.844 -57.765 -23.435  1.00  0.00     0.048 C 
ATOM     14  C   UNL     1      10.673 -58.330 -21.950  1.00  0.00     0.167 C 
ATOM     15  C   UNL     1       8.904 -59.229 -23.127  1.00  0.00    -0.032 A 
ATOM     16  C   UNL     1       9.957 -59.552 -22.282  1.00  0.00     0.025 A 
ATOM     17  C   UNL     1       8.057 -60.226 -23.591  1.00  0.00     0.055 A 
ATOM     18  C   UNL     1      10.225 -60.841 -21.864  1.00  0.00     0.062 A 
ATOM     19  C   UNL     1       8.288 -61.551 -23.191  1.00  0.00     0.160 A 
ATOM     20  C   UNL     1       9.374 -61.840 -22.331  1.00  0.00     0.158 A 
ATOM     21  O   UNL     1      11.656 -58.286 -21.231  1.00  0.00    -0.294 OA
BRANCH  19  22
ATOM     22  O   UNL     1       7.531 -62.626 -23.576  1.00  0.00    -0.493 OA
ATOM     23  C   UNL     1       7.497 -62.953 -24.958  1.00  0.00     0.278 C 
ENDBRANCH  19  22
BRANCH  20  24
ATOM     24  O   UNL     1       9.587 -63.140 -21.952  1.00  0.00    -0.504 OA
ATOM     25  H   UNL     1       8.768 -63.651 -22.052  1.00  0.00     0.293 HD
ENDBRANCH  20  24
ENDBRANCH  11  12
ENDBRANCH   6  11
BRANCH   3  26
ATOM     26  C   UNL     1      11.299 -50.869 -21.628  1.00  0.00     0.393 C 
BRANCH  26  27
ATOM     27  C   UNL     1      11.954 -49.979 -22.655  1.00  0.00     0.018 A 
ATOM     28  C   UNL     1      13.215 -50.297 -23.185  1.00  0.00     0.010 A 
ATOM     29  C   UNL     1      11.307 -48.814 -23.098  1.00  0.00     0.030 A 
ATOM     30  C   UNL     1      13.809 -49.472 -24.144  1.00  0.00     0.002 A 
ATOM     31  C   UNL     1      11.909 -47.996 -24.057  1.00  0.00     0.041 A 
ATOM     32  C   UNL     1      13.155 -48.322 -24.582  1.00  0.00     0.020 A 
ATOM     33  Cl  UNL     1      11.093 -46.582 -24.594  1.00  0.00    -0.084 Cl
ENDBRANCH  26  27
ENDBRANCH   3  26
TORSDOF 8
ENDMDL
MODEL 7
REMARK VINA RESULT:   -10.433      3.084      5.307
REMARK INTER + INTRA:         -14.766
REMARK INTER:                 -13.996
REMARK INTRA:                  -0.770
REMARK UNBOUND:                -0.064
REMARK SMILES C=C(O)c1c[n+](Cc2cccc(Cl)c2)ccc1C[C@H]1Cc2cc(OC)c(O)cc2C1=O
REMARK SMILES IDX 4 1 5 2 6 3 15 4 16 5 17 6 2 7 1 8 3 9 18 11 19 12 20 13
REMARK SMILES IDX 30 14 21 15 29 16 22 17 28 18 23 19 26 20 31 21 24 22 25 23
REMARK SMILES IDX 27 24 7 26 8 27 9 28 14 29 10 30 12 31 11 32 13 33
REMARK H PARENT 3 10 27 25
ROOT
ATOM      1  C   UNL     1      11.310 -52.908 -23.116  1.00  0.00     0.083 A 
ATOM      2  C   UNL     1      12.129 -51.797 -23.342  1.00  0.00     0.320 A 
ATOM      3  N   UNL     1      13.004 -51.762 -24.371  1.00  0.00    -0.200 N 
ATOM      4  C   UNL     1      13.105 -52.807 -25.221  1.00  0.00     0.308 A 
ATOM      5  C   UNL     1      12.326 -53.944 -25.039  1.00  0.00     0.075 A 
ATOM      6  C   UNL     1      11.419 -54.018 -23.973  1.00  0.00    -0.024 A 
ENDROOT
BRANCH   1   7
ATOM      7  C   UNL     1      10.437 -52.839 -21.934  1.00  0.00     0.121 C 
ATOM      8  C   UNL     1      10.681 -53.479 -20.786  1.00  0.00     0.059 C 
BRANCH   7   9
ATOM      9  O   UNL     1       9.295 -52.100 -22.132  1.00  0.00    -0.508 OA
ATOM     10  H   UNL     1       9.549 -51.232 -22.501  1.00  0.00     0.293 HD
ENDBRANCH   7   9
ENDBRANCH   1   7
BRANCH   6  11
ATOM     11  C   UNL     1      10.634 -55.302 -23.769  1.00  0.00     0.049 C 
BRANCH  11  12
ATOM     12  C   UNL     1      11.452 -56.390 -23.060  1.00  0.00     0.070 C 
ATOM     13  C   UNL     1      10.683 -57.124 -21.936  1.00  0.00     0.048 C 
ATOM     14  C   UNL     1      11.833 -57.487 -24.037  1.00  0.00     0.167 C 
ATOM     15  C   UNL     1      10.746 -58.570 -22.314  1.00  0.00    -0.032 A 
ATOM     16  C   UNL     1      11.397 -58.776 -23.523  1.00  0.00     0.025 A 
ATOM     17  C   UNL     1      10.232 -59.652 -21.611  1.00  0.00     0.055 A 
ATOM     18  C   UNL     1      11.571 -60.025 -24.087  1.00  0.00     0.062 A 
ATOM     19  C   UNL     1      10.387 -60.940 -22.144  1.00  0.00     0.160 A 
ATOM     20  C   UNL     1      11.055 -61.109 -23.379  1.00  0.00     0.158 A 
ATOM     21  O   UNL     1      12.428 -57.335 -25.089  1.00  0.00    -0.294 OA
BRANCH  19  22
ATOM     22  O   UNL     1       9.928 -62.089 -21.554  1.00  0.00    -0.493 OA
ATOM     23  C   UNL     1       8.784 -62.714 -22.118  1.00  0.00     0.278 C 
ENDBRANCH  19  22
BRANCH  20  24
ATOM     24  O   UNL     1      11.195 -62.374 -23.886  1.00  0.00    -0.504 OA
ATOM     25  H   UNL     1      11.482 -62.330 -24.812  1.00  0.00     0.293 HD
ENDBRANCH  20  24
ENDBRANCH  11  12
ENDBRANCH   6  11
BRANCH   3  26
ATOM     26  C   UNL     1      13.862 -50.567 -24.566  1.00  0.00     0.393 C 
BRANCH  26  27
ATOM     27  C   UNL     1      15.070 -50.617 -23.664  1.00  0.00     0.018 A 
ATOM     28  C   UNL     1      15.853 -51.779 -23.571  1.00  0.00     0.010 A 
ATOM     29  C   UNL     1      15.431 -49.495 -22.900  1.00  0.00     0.030 A 
ATOM     30  C   UNL     1      16.977 -51.813 -22.741  1.00  0.00     0.002 A 
ATOM     31  C   UNL     1      16.556 -49.538 -22.074  1.00  0.00     0.041 A 
ATOM     32  C   UNL     1      17.330 -50.690 -21.993  1.00  0.00     0.020 A 
ATOM     33  Cl  UNL     1      16.986 -48.148 -21.158  1.00  0.00    -0.084 Cl
ENDBRANCH  26  27
ENDBRANCH   3  26
TORSDOF 8
ENDMDL
MODEL 8
REMARK VINA RESULT:   -10.385      5.730     10.516
REMARK INTER + INTRA:         -14.699
REMARK INTER:                 -13.715
REMARK INTRA:                  -0.984
REMARK UNBOUND:                -0.064
REMARK SMILES C=C(O)c1c[n+](Cc2cccc(Cl)c2)ccc1C[C@H]1Cc2cc(OC)c(O)cc2C1=O
REMARK SMILES IDX 4 1 5 2 6 3 15 4 16 5 17 6 2 7 1 8 3 9 18 11 19 12 20 13
REMARK SMILES IDX 30 14 21 15 29 16 22 17 28 18 23 19 26 20 31 21 24 22 25 23
REMARK SMILES IDX 27 24 7 26 8 27 9 28 14 29 10 30 12 31 11 32 13 33
REMARK H PARENT 3 10 27 25
ROOT
ATOM      1  C   UNL     1      11.213 -52.307 -22.781  1.00  0.00     0.083 A 
ATOM      2  C   UNL     1      10.295 -53.361 -22.710  1.00  0.00     0.320 A 
ATOM      3  N   UNL     1      10.431 -54.469 -23.470  1.00  0.00    -0.200 N 
ATOM      4  C   UNL     1      11.473 -54.594 -24.321  1.00  0.00     0.308 A 
ATOM      5  C   UNL     1      12.411 -53.575 -24.444  1.00  0.00     0.075 A 
ATOM      6  C   UNL     1      12.290 -52.406 -23.681  1.00  0.00    -0.024 A 
ENDROOT
BRANCH   1   7
ATOM      7  C   UNL     1      10.925 -51.138 -21.938  1.00  0.00     0.121 C 
ATOM      8  C   UNL     1       9.863 -50.343 -22.100  1.00  0.00     0.059 C 
BRANCH   7   9
ATOM      9  O   UNL     1      11.888 -50.888 -20.989  1.00  0.00    -0.508 OA
ATOM     10  H   UNL     1      12.761 -51.106 -21.371  1.00  0.00     0.293 HD
ENDBRANCH   7   9
ENDBRANCH   1   7
BRANCH   6  11
ATOM     11  C   UNL     1      13.297 -51.288 -23.892  1.00  0.00     0.049 C 
BRANCH  11  12
ATOM     12  C   UNL     1      12.829 -50.256 -24.926  1.00  0.00     0.070 C 
ATOM     13  C   UNL     1      12.699 -48.819 -24.367  1.00  0.00     0.048 C 
ATOM     14  C   UNL     1      13.842 -50.135 -26.050  1.00  0.00     0.167 C 
ATOM     15  C   UNL     1      13.578 -47.988 -25.248  1.00  0.00    -0.032 A 
ATOM     16  C   UNL     1      14.239 -48.745 -26.206  1.00  0.00     0.025 A 
ATOM     17  C   UNL     1      13.784 -46.616 -25.186  1.00  0.00     0.055 A 
ATOM     18  C   UNL     1      15.115 -48.204 -27.127  1.00  0.00     0.062 A 
ATOM     19  C   UNL     1      14.663 -46.022 -26.103  1.00  0.00     0.160 A 
ATOM     20  C   UNL     1      15.320 -46.828 -27.063  1.00  0.00     0.158 A 
ATOM     21  O   UNL     1      14.259 -51.049 -26.740  1.00  0.00    -0.294 OA
BRANCH  19  22
ATOM     22  O   UNL     1      14.955 -44.684 -26.149  1.00  0.00    -0.493 OA
ATOM     23  C   UNL     1      15.720 -44.134 -25.087  1.00  0.00     0.278 C 
ENDBRANCH  19  22
BRANCH  20  24
ATOM     24  O   UNL     1      16.177 -46.230 -27.950  1.00  0.00    -0.504 OA
ATOM     25  H   UNL     1      16.040 -45.270 -27.946  1.00  0.00     0.293 HD
ENDBRANCH  20  24
ENDBRANCH  11  12
ENDBRANCH   6  11
BRANCH   3  26
ATOM     26  C   UNL     1       9.425 -55.556 -23.372  1.00  0.00     0.393 C 
BRANCH  26  27
ATOM     27  C   UNL     1      10.015 -56.780 -22.716  1.00  0.00     0.018 A 
ATOM     28  C   UNL     1      11.021 -56.663 -21.743  1.00  0.00     0.010 A 
ATOM     29  C   UNL     1       9.563 -58.061 -23.072  1.00  0.00     0.030 A 
ATOM     30  C   UNL     1      11.554 -57.803 -21.133  1.00  0.00     0.002 A 
ATOM     31  C   UNL     1      10.100 -59.194 -22.456  1.00  0.00     0.041 A 
ATOM     32  C   UNL     1      11.091 -59.069 -21.488  1.00  0.00     0.020 A 
ATOM     33  Cl  UNL     1       9.522 -60.751 -22.898  1.00  0.00    -0.084 Cl
ENDBRANCH  26  27
ENDBRANCH   3  26
TORSDOF 8
ENDMDL
MODEL 9
REMARK VINA RESULT:   -10.261      5.232      9.577
REMARK INTER + INTRA:         -14.525
REMARK INTER:                 -13.683
REMARK INTRA:                  -0.842
REMARK UNBOUND:                -0.064
REMARK SMILES C=C(O)c1c[n+](Cc2cccc(Cl)c2)ccc1C[C@H]1Cc2cc(OC)c(O)cc2C1=O
REMARK SMILES IDX 4 1 5 2 6 3 15 4 16 5 17 6 2 7 1 8 3 9 18 11 19 12 20 13
REMARK SMILES IDX 30 14 21 15 29 16 22 17 28 18 23 19 26 20 31 21 24 22 25 23
REMARK SMILES IDX 27 24 7 26 8 27 9 28 14 29 10 30 12 31 11 32 13 33
REMARK H PARENT 3 10 27 25
ROOT
ATOM      1  C   UNL     1      11.059 -52.444 -22.687  1.00  0.00     0.083 A 
ATOM      2  C   UNL     1      10.155 -53.504 -22.552  1.00  0.00     0.320 A 
ATOM      3  N   UNL     1      10.263 -54.623 -23.300  1.00  0.00    -0.200 N 
ATOM      4  C   UNL     1      11.261 -54.753 -24.202  1.00  0.00     0.308 A 
ATOM      5  C   UNL     1      12.181 -53.728 -24.388  1.00  0.00     0.075 A 
ATOM      6  C   UNL     1      12.089 -52.548 -23.639  1.00  0.00    -0.024 A 
ENDROOT
BRANCH   1   7
ATOM      7  C   UNL     1      10.802 -51.264 -21.848  1.00  0.00     0.121 C 
ATOM      8  C   UNL     1       9.769 -50.433 -22.022  1.00  0.00     0.059 C 
BRANCH   7   9
ATOM      9  O   UNL     1      11.765 -51.044 -20.892  1.00  0.00    -0.508 OA
ATOM     10  H   UNL     1      11.478 -50.296 -20.332  1.00  0.00     0.293 HD
ENDBRANCH   7   9
ENDBRANCH   1   7
BRANCH   6  11
ATOM     11  C   UNL     1      13.073 -51.425 -23.919  1.00  0.00     0.049 C 
BRANCH  11  12
ATOM     12  C   UNL     1      14.017 -51.741 -25.087  1.00  0.00     0.070 C 
ATOM     13  C   UNL     1      13.662 -51.003 -26.400  1.00  0.00     0.048 C 
ATOM     14  C   UNL     1      15.428 -51.288 -24.765  1.00  0.00     0.167 C 
ATOM     15  C   UNL     1      14.907 -50.253 -26.760  1.00  0.00    -0.032 A 
ATOM     16  C   UNL     1      15.914 -50.410 -25.818  1.00  0.00     0.025 A 
ATOM     17  C   UNL     1      15.121 -49.457 -27.878  1.00  0.00     0.055 A 
ATOM     18  C   UNL     1      17.152 -49.806 -25.925  1.00  0.00     0.062 A 
ATOM     19  C   UNL     1      16.364 -48.825 -28.030  1.00  0.00     0.160 A 
ATOM     20  C   UNL     1      17.365 -49.008 -27.047  1.00  0.00     0.158 A 
ATOM     21  O   UNL     1      16.080 -51.611 -23.788  1.00  0.00    -0.294 OA
BRANCH  19  22
ATOM     22  O   UNL     1      16.704 -48.015 -29.082  1.00  0.00    -0.493 OA
ATOM     23  C   UNL     1      16.486 -48.507 -30.396  1.00  0.00     0.278 C 
ENDBRANCH  19  22
BRANCH  20  24
ATOM     24  O   UNL     1      18.572 -48.381 -27.211  1.00  0.00    -0.504 OA
ATOM     25  H   UNL     1      19.151 -48.576 -26.457  1.00  0.00     0.293 HD
ENDBRANCH  20  24
ENDBRANCH  11  12
ENDBRANCH   6  11
BRANCH   3  26
ATOM     26  C   UNL     1       9.274 -55.718 -23.133  1.00  0.00     0.393 C 
BRANCH  26  27
ATOM     27  C   UNL     1       9.941 -56.979 -22.644  1.00  0.00     0.018 A 
ATOM     28  C   UNL     1      11.005 -56.924 -21.729  1.00  0.00     0.010 A 
ATOM     29  C   UNL     1       9.506 -58.233 -23.101  1.00  0.00     0.030 A 
ATOM     30  C   UNL     1      11.610 -58.099 -21.273  1.00  0.00     0.002 A 
ATOM     31  C   UNL     1      10.116 -59.402 -22.640  1.00  0.00     0.041 A 
ATOM     32  C   UNL     1      11.164 -59.339 -21.728  1.00  0.00     0.020 A 
ATOM     33  Cl  UNL     1       9.557 -60.927 -23.203  1.00  0.00    -0.084 Cl
ENDBRANCH  26  27
ENDBRANCH   3  26
TORSDOF 8
ENDMDL
