MODEL 1
REMARK VINA RESULT:   -11.525      0.000      0.000
REMARK INTER + INTRA:         -16.315
REMARK INTER:                 -15.568
REMARK INTRA:                  -0.747
REMARK UNBOUND:                -0.747
REMARK SMILES NC(=O)c1ccc2c(CC[C@H]3CC[N@@H+](Cc4ccccc4)CC3)noc2c1
REMARK SMILES IDX 10 1 11 2 13 3 14 4 12 5 22 6 23 7 15 9 16 10 17 11 21 12
REMARK SMILES IDX 18 13 20 14 19 15 9 16 8 17 7 18 24 19 6 20 26 21 25 22 5 23
REMARK SMILES IDX 27 24 4 25 2 26 1 27 3 28
REMARK H PARENT 14 8 1 29 1 30
ROOT
ATOM      1  C   UNL     1      11.372 -56.714 -22.702  1.00  0.00     0.010 C 
ENDROOT
BRANCH   1   2
ATOM      2  C   UNL     1      10.417 -57.822 -22.214  1.00  0.00     0.000 C 
ATOM      3  C   UNL     1      10.253 -60.160 -21.217  1.00  0.00     0.262 C 
ATOM      4  N   UNL     1       9.481 -60.613 -22.425  1.00  0.00    -0.331 N 
ATOM      5  C   UNL     1      11.172 -58.995 -21.565  1.00  0.00     0.065 C 
ATOM      6  C   UNL     1       8.670 -59.491 -23.021  1.00  0.00     0.262 C 
ATOM      7  C   UNL     1       9.563 -58.317 -23.395  1.00  0.00     0.065 C 
ATOM      8  H   UNL     1       8.792 -61.295 -22.086  1.00  0.00     0.348 HD
BRANCH   4   9
ATOM      9  C   UNL     1      10.321 -61.398 -23.417  1.00  0.00     0.299 C 
BRANCH   9  10
ATOM     10  C   UNL     1       9.513 -61.970 -24.548  1.00  0.00     0.006 A 
ATOM     11  C   UNL     1       8.449 -62.850 -24.291  1.00  0.00     0.009 A 
ATOM     12  C   UNL     1       9.796 -61.618 -25.877  1.00  0.00     0.009 A 
ATOM     13  C   UNL     1       7.682 -63.358 -25.340  1.00  0.00     0.001 A 
ATOM     14  C   UNL     1       9.025 -62.128 -26.923  1.00  0.00     0.001 A 
ATOM     15  C   UNL     1       7.969 -62.996 -26.654  1.00  0.00     0.000 A 
ENDBRANCH   9  10
ENDBRANCH   4   9
ENDBRANCH   1   2
BRANCH   1  16
ATOM     16  C   UNL     1      10.671 -55.548 -23.413  1.00  0.00     0.061 C 
BRANCH  16  17
ATOM     17  C   UNL     1      10.721 -54.296 -22.607  1.00  0.00     0.091 A 
ATOM     18  C   UNL     1      11.375 -53.071 -22.896  1.00  0.00     0.045 A 
ATOM     19  N   UNL     1      10.074 -54.246 -21.434  1.00  0.00    -0.084 NA
ATOM     20  C   UNL     1      12.166 -52.534 -23.926  1.00  0.00     0.015 A 
ATOM     21  C   UNL     1      11.069 -52.272 -21.807  1.00  0.00     0.167 A 
ATOM     22  O   UNL     1      10.295 -52.973 -20.936  1.00  0.00    -0.356 OA
ATOM     23  C   UNL     1      12.616 -51.209 -23.803  1.00  0.00     0.015 A 
ATOM     24  C   UNL     1      11.494 -50.957 -21.648  1.00  0.00     0.064 A 
ATOM     25  C   UNL     1      12.294 -50.433 -22.676  1.00  0.00     0.043 A 
BRANCH  25  26
ATOM     26  C   UNL     1      12.748 -49.024 -22.538  1.00  0.00     0.248 C 
ATOM     27  N   UNL     1      13.063 -48.576 -21.286  1.00  0.00    -0.366 N 
ATOM     28  O   UNL     1      12.809 -48.277 -23.505  1.00  0.00    -0.270 OA
ATOM     29  H   UNL     1      13.252 -47.583 -21.213  1.00  0.00     0.159 HD
ATOM     30  H   UNL     1      12.759 -49.045 -20.446  1.00  0.00     0.159 HD
ENDBRANCH  25  26
ENDBRANCH  16  17
ENDBRANCH   1  16
TORSDOF 6
ENDMDL
MODEL 2
REMARK VINA RESULT:   -11.519      1.568      2.142
REMARK INTER + INTRA:         -16.306
REMARK INTER:                 -15.563
REMARK INTRA:                  -0.744
REMARK UNBOUND:                -0.747
REMARK SMILES NC(=O)c1ccc2c(CC[C@H]3CC[N@@H+](Cc4ccccc4)CC3)noc2c1
REMARK SMILES IDX 10 1 11 2 13 3 14 4 12 5 22 6 23 7 15 9 16 10 17 11 21 12
REMARK SMILES IDX 18 13 20 14 19 15 9 16 8 17 7 18 24 19 6 20 26 21 25 22 5 23
REMARK SMILES IDX 27 24 4 25 2 26 1 27 3 28
REMARK H PARENT 14 8 1 29 1 30
ROOT
ATOM      1  C   UNL     1      11.376 -57.664 -21.599  1.00  0.00     0.010 C 
ENDROOT
BRANCH   1   2
ATOM      2  C   UNL     1      11.398 -59.144 -22.033  1.00  0.00     0.000 C 
ATOM      3  C   UNL     1      12.046 -60.779 -23.874  1.00  0.00     0.262 C 
ATOM      4  N   UNL     1      10.608 -61.204 -23.992  1.00  0.00    -0.331 N 
ATOM      5  C   UNL     1      12.148 -59.348 -23.361  1.00  0.00     0.065 C 
ATOM      6  C   UNL     1       9.884 -61.088 -22.675  1.00  0.00     0.262 C 
ATOM      7  C   UNL     1       9.954 -59.664 -22.143  1.00  0.00     0.065 C 
ATOM      8  H   UNL     1      10.623 -62.210 -24.205  1.00  0.00     0.348 HD
BRANCH   4   9
ATOM      9  C   UNL     1       9.892 -60.585 -25.179  1.00  0.00     0.299 C 
BRANCH   9  10
ATOM     10  C   UNL     1       9.228 -61.606 -26.061  1.00  0.00     0.006 A 
ATOM     11  C   UNL     1       8.289 -62.505 -25.530  1.00  0.00     0.009 A 
ATOM     12  C   UNL     1       9.521 -61.661 -27.433  1.00  0.00     0.009 A 
ATOM     13  C   UNL     1       7.652 -63.432 -26.357  1.00  0.00     0.001 A 
ATOM     14  C   UNL     1       8.881 -62.589 -28.255  1.00  0.00     0.001 A 
ATOM     15  C   UNL     1       7.947 -63.473 -27.718  1.00  0.00     0.000 A 
ENDBRANCH   9  10
ENDBRANCH   4   9
ENDBRANCH   1   2
BRANCH   1  16
ATOM     16  C   UNL     1      10.336 -56.808 -22.336  1.00  0.00     0.061 C 
BRANCH  16  17
ATOM     17  C   UNL     1      10.970 -55.684 -23.081  1.00  0.00     0.091 A 
ATOM     18  C   UNL     1      11.086 -54.319 -22.714  1.00  0.00     0.045 A 
ATOM     19  N   UNL     1      11.536 -55.925 -24.272  1.00  0.00    -0.084 NA
ATOM     20  C   UNL     1      10.716 -53.500 -21.633  1.00  0.00     0.015 A 
ATOM     21  C   UNL     1      11.772 -53.751 -23.774  1.00  0.00     0.167 A 
ATOM     22  O   UNL     1      12.039 -54.708 -24.703  1.00  0.00    -0.356 OA
ATOM     23  C   UNL     1      11.055 -52.137 -21.679  1.00  0.00     0.015 A 
ATOM     24  C   UNL     1      12.126 -52.409 -23.857  1.00  0.00     0.064 A 
ATOM     25  C   UNL     1      11.742 -51.596 -22.779  1.00  0.00     0.043 A 
BRANCH  25  26
ATOM     26  C   UNL     1      12.123 -50.160 -22.836  1.00  0.00     0.248 C 
ATOM     27  N   UNL     1      12.201 -49.474 -21.656  1.00  0.00    -0.366 N 
ATOM     28  O   UNL     1      12.329 -49.597 -23.904  1.00  0.00    -0.270 OA
ATOM     29  H   UNL     1      12.345 -48.474 -21.742  1.00  0.00     0.159 HD
ATOM     30  H   UNL     1      11.770 -49.801 -20.805  1.00  0.00     0.159 HD
ENDBRANCH  25  26
ENDBRANCH  16  17
ENDBRANCH   1  16
TORSDOF 6
ENDMDL
MODEL 3
REMARK VINA RESULT:   -11.287      1.687      2.194
REMARK INTER + INTRA:         -15.993
REMARK INTER:                 -15.303
REMARK INTRA:                  -0.690
REMARK UNBOUND:                -0.747
REMARK SMILES NC(=O)c1ccc2c(CC[C@H]3CC[N@@H+](Cc4ccccc4)CC3)noc2c1
REMARK SMILES IDX 10 1 11 2 13 3 14 4 12 5 22 6 23 7 15 9 16 10 17 11 21 12
REMARK SMILES IDX 18 13 20 14 19 15 9 16 8 17 7 18 24 19 6 20 26 21 25 22 5 23
REMARK SMILES IDX 27 24 4 25 2 26 1 27 3 28
REMARK H PARENT 14 8 1 29 1 30
ROOT
ATOM      1  C   UNL     1      11.171 -56.674 -22.202  1.00  0.00     0.010 C 
ENDROOT
BRANCH   1   2
ATOM      2  C   UNL     1      10.656 -58.127 -22.190  1.00  0.00     0.000 C 
ATOM      3  C   UNL     1      11.166 -60.538 -22.831  1.00  0.00     0.262 C 
ATOM      4  N   UNL     1       9.942 -60.557 -23.704  1.00  0.00    -0.331 N 
ATOM      5  C   UNL     1      11.714 -59.123 -22.695  1.00  0.00     0.065 C 
ATOM      6  C   UNL     1       8.864 -59.648 -23.172  1.00  0.00     0.262 C 
ATOM      7  C   UNL     1       9.376 -58.221 -23.041  1.00  0.00     0.065 C 
ATOM      8  H   UNL     1       9.555 -61.506 -23.634  1.00  0.00     0.348 HD
BRANCH   4   9
ATOM      9  C   UNL     1      10.253 -60.393 -25.181  1.00  0.00     0.299 C 
BRANCH   9  10
ATOM     10  C   UNL     1       9.490 -61.351 -26.053  1.00  0.00     0.006 A 
ATOM     11  C   UNL     1       9.664 -61.342 -27.446  1.00  0.00     0.009 A 
ATOM     12  C   UNL     1       8.606 -62.283 -25.485  1.00  0.00     0.009 A 
ATOM     13  C   UNL     1       8.976 -62.252 -28.250  1.00  0.00     0.001 A 
ATOM     14  C   UNL     1       7.921 -63.190 -26.293  1.00  0.00     0.001 A 
ATOM     15  C   UNL     1       8.107 -63.175 -27.674  1.00  0.00     0.000 A 
ENDBRANCH   9  10
ENDBRANCH   4   9
ENDBRANCH   1   2
BRANCH   1  16
ATOM     16  C   UNL     1      10.075 -55.619 -22.402  1.00  0.00     0.061 C 
BRANCH  16  17
ATOM     17  C   UNL     1      10.639 -54.244 -22.499  1.00  0.00     0.091 A 
ATOM     18  C   UNL     1      11.456 -53.681 -23.513  1.00  0.00     0.045 A 
ATOM     19  N   UNL     1      10.373 -53.356 -21.530  1.00  0.00    -0.084 NA
ATOM     20  C   UNL     1      12.034 -54.090 -24.726  1.00  0.00     0.015 A 
ATOM     21  C   UNL     1      11.660 -52.380 -23.085  1.00  0.00     0.167 A 
ATOM     22  O   UNL     1      11.016 -52.188 -21.903  1.00  0.00    -0.356 OA
ATOM     23  C   UNL     1      12.800 -53.161 -25.450  1.00  0.00     0.015 A 
ATOM     24  C   UNL     1      12.410 -51.431 -23.772  1.00  0.00     0.064 A 
ATOM     25  C   UNL     1      12.994 -51.852 -24.977  1.00  0.00     0.043 A 
BRANCH  25  26
ATOM     26  C   UNL     1      13.787 -50.852 -25.739  1.00  0.00     0.248 C 
ATOM     27  N   UNL     1      13.616 -49.532 -25.428  1.00  0.00    -0.366 N 
ATOM     28  O   UNL     1      14.544 -51.191 -26.639  1.00  0.00    -0.270 OA
ATOM     29  H   UNL     1      14.079 -48.875 -26.044  1.00  0.00     0.159 HD
ATOM     30  H   UNL     1      12.815 -49.191 -24.916  1.00  0.00     0.159 HD
ENDBRANCH  25  26
ENDBRANCH  16  17
ENDBRANCH   1  16
TORSDOF 6
ENDMDL
MODEL 4
REMARK VINA RESULT:   -11.115      4.284      9.928
REMARK INTER + INTRA:         -15.761
REMARK INTER:                 -15.005
REMARK INTRA:                  -0.757
REMARK UNBOUND:                -0.747
REMARK SMILES NC(=O)c1ccc2c(CC[C@H]3CC[N@@H+](Cc4ccccc4)CC3)noc2c1
REMARK SMILES IDX 10 1 11 2 13 3 14 4 12 5 22 6 23 7 15 9 16 10 17 11 21 12
REMARK SMILES IDX 18 13 20 14 19 15 9 16 8 17 7 18 24 19 6 20 26 21 25 22 5 23
REMARK SMILES IDX 27 24 4 25 2 26 1 27 3 28
REMARK H PARENT 14 8 1 29 1 30
ROOT
ATOM      1  C   UNL     1       9.601 -60.652 -21.335  1.00  0.00     0.010 C 
ENDROOT
BRANCH   1   2
ATOM      2  C   UNL     1      10.049 -59.678 -22.444  1.00  0.00     0.000 C 
ATOM      3  C   UNL     1      11.616 -57.762 -23.043  1.00  0.00     0.262 C 
ATOM      4  N   UNL     1      10.426 -56.894 -23.346  1.00  0.00    -0.331 N 
ATOM      5  C   UNL     1      11.260 -58.831 -22.017  1.00  0.00     0.065 C 
ATOM      6  C   UNL     1       9.258 -57.704 -23.846  1.00  0.00     0.262 C 
ATOM      7  C   UNL     1       8.867 -58.772 -22.834  1.00  0.00     0.065 C 
ATOM      8  H   UNL     1      10.701 -56.298 -24.136  1.00  0.00     0.348 HD
BRANCH   4   9
ATOM      9  C   UNL     1      10.101 -55.910 -22.236  1.00  0.00     0.299 C 
BRANCH   9  10
ATOM     10  C   UNL     1      10.693 -54.547 -22.467  1.00  0.00     0.006 A 
ATOM     11  C   UNL     1      11.358 -54.253 -23.668  1.00  0.00     0.009 A 
ATOM     12  C   UNL     1      10.572 -53.543 -21.494  1.00  0.00     0.009 A 
ATOM     13  C   UNL     1      11.882 -52.979 -23.892  1.00  0.00     0.001 A 
ATOM     14  C   UNL     1      11.097 -52.271 -21.723  1.00  0.00     0.001 A 
ATOM     15  C   UNL     1      11.750 -51.989 -22.921  1.00  0.00     0.000 A 
ENDBRANCH   9  10
ENDBRANCH   4   9
ENDBRANCH   1   2
BRANCH   1  16
ATOM     16  C   UNL     1       9.885 -62.129 -21.643  1.00  0.00     0.061 C 
BRANCH  16  17
ATOM     17  C   UNL     1       9.013 -62.646 -22.735  1.00  0.00     0.091 A 
ATOM     18  C   UNL     1       9.109 -62.433 -24.134  1.00  0.00     0.045 A 
ATOM     19  N   UNL     1       7.975 -63.435 -22.426  1.00  0.00    -0.084 NA
ATOM     20  C   UNL     1       9.947 -61.739 -25.023  1.00  0.00     0.015 A 
ATOM     21  C   UNL     1       8.050 -63.160 -24.650  1.00  0.00     0.167 A 
ATOM     22  O   UNL     1       7.373 -63.756 -23.631  1.00  0.00    -0.356 OA
ATOM     23  C   UNL     1       9.669 -61.810 -26.399  1.00  0.00     0.015 A 
ATOM     24  C   UNL     1       7.742 -63.256 -26.003  1.00  0.00     0.064 A 
ATOM     25  C   UNL     1       8.577 -62.550 -26.883  1.00  0.00     0.043 A 
BRANCH  25  26
ATOM     26  C   UNL     1       8.279 -62.649 -28.336  1.00  0.00     0.248 C 
ATOM     27  N   UNL     1       7.625 -63.765 -28.777  1.00  0.00    -0.366 N 
ATOM     28  O   UNL     1       8.635 -61.779 -29.120  1.00  0.00    -0.270 OA
ATOM     29  H   UNL     1       7.546 -63.854 -29.784  1.00  0.00     0.159 HD
ATOM     30  H   UNL     1       7.573 -64.617 -28.239  1.00  0.00     0.159 HD
ENDBRANCH  25  26
ENDBRANCH  16  17
ENDBRANCH   1  16
TORSDOF 6
ENDMDL
MODEL 5
REMARK VINA RESULT:   -10.881      3.986      8.434
REMARK INTER + INTRA:         -15.445
REMARK INTER:                 -14.075
REMARK INTRA:                  -1.370
REMARK UNBOUND:                -0.747
REMARK SMILES NC(=O)c1ccc2c(CC[C@H]3CC[N@@H+](Cc4ccccc4)CC3)noc2c1
REMARK SMILES IDX 10 1 11 2 13 3 14 4 12 5 22 6 23 7 15 9 16 10 17 11 21 12
REMARK SMILES IDX 18 13 20 14 19 15 9 16 8 17 7 18 24 19 6 20 26 21 25 22 5 23
REMARK SMILES IDX 27 24 4 25 2 26 1 27 3 28
REMARK H PARENT 14 8 1 29 1 30
ROOT
ATOM      1  C   UNL     1       9.558 -61.418 -22.422  1.00  0.00     0.010 C 
ENDROOT
BRANCH   1   2
ATOM      2  C   UNL     1       9.629 -59.937 -21.999  1.00  0.00     0.000 C 
ATOM      3  C   UNL     1       9.241 -57.528 -22.727  1.00  0.00     0.262 C 
ATOM      4  N   UNL     1      10.694 -57.228 -22.485  1.00  0.00    -0.331 N 
ATOM      5  C   UNL     1       9.039 -58.999 -23.066  1.00  0.00     0.065 C 
ATOM      6  C   UNL     1      11.263 -58.083 -21.382  1.00  0.00     0.262 C 
ATOM      7  C   UNL     1      11.092 -59.562 -21.700  1.00  0.00     0.065 C 
ATOM      8  H   UNL     1      10.733 -56.265 -22.129  1.00  0.00     0.348 HD
BRANCH   4   9
ATOM      9  C   UNL     1      11.520 -57.186 -23.759  1.00  0.00     0.299 C 
BRANCH   9  10
ATOM     10  C   UNL     1      11.830 -55.785 -24.211  1.00  0.00     0.006 A 
ATOM     11  C   UNL     1      11.383 -54.680 -23.469  1.00  0.00     0.009 A 
ATOM     12  C   UNL     1      12.588 -55.562 -25.372  1.00  0.00     0.009 A 
ATOM     13  C   UNL     1      11.696 -53.383 -23.875  1.00  0.00     0.001 A 
ATOM     14  C   UNL     1      12.899 -54.263 -25.773  1.00  0.00     0.001 A 
ATOM     15  C   UNL     1      12.455 -53.174 -25.025  1.00  0.00     0.000 A 
ENDBRANCH   9  10
ENDBRANCH   4   9
ENDBRANCH   1   2
BRANCH   1  16
ATOM     16  C   UNL     1      10.693 -61.860 -23.357  1.00  0.00     0.061 C 
BRANCH  16  17
ATOM     17  C   UNL     1      10.345 -61.648 -24.790  1.00  0.00     0.091 A 
ATOM     18  C   UNL     1      11.006 -60.857 -25.764  1.00  0.00     0.045 A 
ATOM     19  N   UNL     1       9.270 -62.265 -25.301  1.00  0.00    -0.084 NA
ATOM     20  C   UNL     1      12.136 -60.024 -25.832  1.00  0.00     0.015 A 
ATOM     21  C   UNL     1      10.251 -61.048 -26.909  1.00  0.00     0.167 A 
ATOM     22  O   UNL     1       9.216 -61.886 -26.632  1.00  0.00    -0.356 OA
ATOM     23  C   UNL     1      12.447 -59.417 -27.060  1.00  0.00     0.015 A 
ATOM     24  C   UNL     1      10.526 -60.466 -28.142  1.00  0.00     0.064 A 
ATOM     25  C   UNL     1      11.649 -59.626 -28.198  1.00  0.00     0.043 A 
BRANCH  25  26
ATOM     26  C   UNL     1      11.973 -59.004 -29.509  1.00  0.00     0.248 C 
ATOM     27  N   UNL     1      11.959 -59.806 -30.616  1.00  0.00    -0.366 N 
ATOM     28  O   UNL     1      12.276 -57.821 -29.595  1.00  0.00    -0.270 OA
ATOM     29  H   UNL     1      12.300 -59.378 -31.468  1.00  0.00     0.159 HD
ATOM     30  H   UNL     1      12.004 -60.813 -30.561  1.00  0.00     0.159 HD
ENDBRANCH  25  26
ENDBRANCH  16  17
ENDBRANCH   1  16
TORSDOF 6
ENDMDL
MODEL 6
REMARK VINA RESULT:   -10.588      3.555     10.324
REMARK INTER + INTRA:         -15.048
REMARK INTER:                 -14.217
REMARK INTRA:                  -0.831
REMARK UNBOUND:                -0.747
REMARK SMILES NC(=O)c1ccc2c(CC[C@H]3CC[N@@H+](Cc4ccccc4)CC3)noc2c1
REMARK SMILES IDX 10 1 11 2 13 3 14 4 12 5 22 6 23 7 15 9 16 10 17 11 21 12
REMARK SMILES IDX 18 13 20 14 19 15 9 16 8 17 7 18 24 19 6 20 26 21 25 22 5 23
REMARK SMILES IDX 27 24 4 25 2 26 1 27 3 28
REMARK H PARENT 14 8 1 29 1 30
ROOT
ATOM      1  C   UNL     1      11.372 -57.137 -22.187  1.00  0.00     0.010 C 
ENDROOT
BRANCH   1   2
ATOM      2  C   UNL     1      10.579 -55.820 -22.296  1.00  0.00     0.000 C 
ATOM      3  C   UNL     1      10.106 -53.770 -23.732  1.00  0.00     0.262 C 
ATOM      4  N   UNL     1      10.602 -52.887 -22.622  1.00  0.00    -0.331 N 
ATOM      5  C   UNL     1      10.761 -55.144 -23.667  1.00  0.00     0.065 C 
ATOM      6  C   UNL     1      10.352 -53.500 -21.268  1.00  0.00     0.262 C 
ATOM      7  C   UNL     1      11.010 -54.869 -21.165  1.00  0.00     0.065 C 
ATOM      8  H   UNL     1      10.020 -52.040 -22.647  1.00  0.00     0.348 HD
BRANCH   4   9
ATOM      9  C   UNL     1      12.013 -52.372 -22.847  1.00  0.00     0.299 C 
BRANCH   9  10
ATOM     10  C   UNL     1      12.054 -50.919 -23.229  1.00  0.00     0.006 A 
ATOM     11  C   UNL     1      11.220 -49.989 -22.588  1.00  0.00     0.009 A 
ATOM     12  C   UNL     1      12.941 -50.466 -24.218  1.00  0.00     0.009 A 
ATOM     13  C   UNL     1      11.280 -48.636 -22.925  1.00  0.00     0.001 A 
ATOM     14  C   UNL     1      12.998 -49.112 -24.551  1.00  0.00     0.001 A 
ATOM     15  C   UNL     1      12.169 -48.198 -23.904  1.00  0.00     0.000 A 
ENDBRANCH   9  10
ENDBRANCH   4   9
ENDBRANCH   1   2
BRANCH   1  16
ATOM     16  C   UNL     1      11.854 -57.695 -23.533  1.00  0.00     0.061 C 
BRANCH  16  17
ATOM     17  C   UNL     1      11.572 -59.152 -23.663  1.00  0.00     0.091 A 
ATOM     18  C   UNL     1      10.323 -59.818 -23.756  1.00  0.00     0.045 A 
ATOM     19  N   UNL     1      12.596 -60.016 -23.710  1.00  0.00    -0.084 NA
ATOM     20  C   UNL     1       8.961 -59.471 -23.771  1.00  0.00     0.015 A 
ATOM     21  C   UNL     1      10.670 -61.153 -23.870  1.00  0.00     0.167 A 
ATOM     22  O   UNL     1      12.025 -61.271 -23.841  1.00  0.00    -0.356 OA
ATOM     23  C   UNL     1       8.010 -60.498 -23.895  1.00  0.00     0.015 A 
ATOM     24  C   UNL     1       9.760 -62.197 -23.995  1.00  0.00     0.064 A 
ATOM     25  C   UNL     1       8.402 -61.844 -23.997  1.00  0.00     0.043 A 
BRANCH  25  26
ATOM     26  C   UNL     1       7.410 -62.941 -24.145  1.00  0.00     0.248 C 
ATOM     27  N   UNL     1       6.550 -63.166 -23.108  1.00  0.00    -0.366 N 
ATOM     28  O   UNL     1       7.382 -63.643 -25.148  1.00  0.00    -0.270 OA
ATOM     29  H   UNL     1       5.971 -63.994 -23.194  1.00  0.00     0.159 HD
ATOM     30  H   UNL     1       6.718 -62.823 -22.174  1.00  0.00     0.159 HD
ENDBRANCH  25  26
ENDBRANCH  16  17
ENDBRANCH   1  16
TORSDOF 6
ENDMDL
MODEL 7
REMARK VINA RESULT:   -10.448      3.485      9.227
REMARK INTER + INTRA:         -14.860
REMARK INTER:                 -14.212
REMARK INTRA:                  -0.648
REMARK UNBOUND:                -0.747
REMARK SMILES NC(=O)c1ccc2c(CC[C@H]3CC[N@@H+](Cc4ccccc4)CC3)noc2c1
REMARK SMILES IDX 10 1 11 2 13 3 14 4 12 5 22 6 23 7 15 9 16 10 17 11 21 12
REMARK SMILES IDX 18 13 20 14 19 15 9 16 8 17 7 18 24 19 6 20 26 21 25 22 5 23
REMARK SMILES IDX 27 24 4 25 2 26 1 27 3 28
REMARK H PARENT 14 8 1 29 1 30
ROOT
ATOM      1  C   UNL     1      11.481 -57.438 -21.869  1.00  0.00     0.010 C 
ENDROOT
BRANCH   1   2
ATOM      2  C   UNL     1      10.724 -56.244 -22.485  1.00  0.00     0.000 C 
ATOM      3  C   UNL     1      10.794 -54.396 -24.235  1.00  0.00     0.262 C 
ATOM      4  N   UNL     1      10.670 -53.368 -23.145  1.00  0.00    -0.331 N 
ATOM      5  C   UNL     1      11.451 -55.667 -23.712  1.00  0.00     0.065 C 
ATOM      6  C   UNL     1       9.886 -53.895 -21.970  1.00  0.00     0.262 C 
ATOM      7  C   UNL     1      10.529 -55.157 -21.413  1.00  0.00     0.065 C 
ATOM      8  H   UNL     1      10.099 -52.607 -23.532  1.00  0.00     0.348 HD
BRANCH   4   9
ATOM      9  C   UNL     1      11.988 -52.702 -22.794  1.00  0.00     0.299 C 
BRANCH   9  10
ATOM     10  C   UNL     1      12.573 -51.918 -23.936  1.00  0.00     0.006 A 
ATOM     11  C   UNL     1      12.618 -50.515 -23.890  1.00  0.00     0.009 A 
ATOM     12  C   UNL     1      13.100 -52.578 -25.058  1.00  0.00     0.009 A 
ATOM     13  C   UNL     1      13.187 -49.791 -24.939  1.00  0.00     0.001 A 
ATOM     14  C   UNL     1      13.668 -51.849 -26.103  1.00  0.00     0.001 A 
ATOM     15  C   UNL     1      13.713 -50.458 -26.043  1.00  0.00     0.000 A 
ENDBRANCH   9  10
ENDBRANCH   4   9
ENDBRANCH   1   2
BRANCH   1  16
ATOM     16  C   UNL     1      10.627 -58.701 -21.693  1.00  0.00     0.061 C 
BRANCH  16  17
ATOM     17  C   UNL     1       9.977 -59.113 -22.969  1.00  0.00     0.091 A 
ATOM     18  C   UNL     1      10.569 -59.381 -24.230  1.00  0.00     0.045 A 
ATOM     19  N   UNL     1       8.647 -59.279 -23.003  1.00  0.00    -0.084 NA
ATOM     20  C   UNL     1      11.857 -59.388 -24.791  1.00  0.00     0.015 A 
ATOM     21  C   UNL     1       9.493 -59.728 -25.030  1.00  0.00     0.167 A 
ATOM     22  O   UNL     1       8.348 -59.665 -24.299  1.00  0.00    -0.356 OA
ATOM     23  C   UNL     1      11.996 -59.742 -26.144  1.00  0.00     0.015 A 
ATOM     24  C   UNL     1       9.589 -60.085 -26.371  1.00  0.00     0.064 A 
ATOM     25  C   UNL     1      10.878 -60.077 -26.927  1.00  0.00     0.043 A 
BRANCH  25  26
ATOM     26  C   UNL     1      11.009 -60.470 -28.355  1.00  0.00     0.248 C 
ATOM     27  N   UNL     1      12.148 -60.101 -29.014  1.00  0.00    -0.366 N 
ATOM     28  O   UNL     1      10.116 -61.074 -28.934  1.00  0.00    -0.270 OA
ATOM     29  H   UNL     1      12.151 -60.280 -30.012  1.00  0.00     0.159 HD
ATOM     30  H   UNL     1      12.762 -59.374 -28.680  1.00  0.00     0.159 HD
ENDBRANCH  25  26
ENDBRANCH  16  17
ENDBRANCH   1  16
TORSDOF 6
ENDMDL
MODEL 8
REMARK VINA RESULT:   -10.376      3.864      8.705
REMARK INTER + INTRA:         -14.763
REMARK INTER:                 -14.082
REMARK INTRA:                  -0.681
REMARK UNBOUND:                -0.747
REMARK SMILES NC(=O)c1ccc2c(CC[C@H]3CC[N@@H+](Cc4ccccc4)CC3)noc2c1
REMARK SMILES IDX 10 1 11 2 13 3 14 4 12 5 22 6 23 7 15 9 16 10 17 11 21 12
REMARK SMILES IDX 18 13 20 14 19 15 9 16 8 17 7 18 24 19 6 20 26 21 25 22 5 23
REMARK SMILES IDX 27 24 4 25 2 26 1 27 3 28
REMARK H PARENT 14 8 1 29 1 30
ROOT
ATOM      1  C   UNL     1       9.772 -60.518 -23.165  1.00  0.00     0.010 C 
ENDROOT
BRANCH   1   2
ATOM      2  C   UNL     1       9.718 -59.111 -22.535  1.00  0.00     0.000 C 
ATOM      3  C   UNL     1       9.097 -56.670 -22.908  1.00  0.00     0.262 C 
ATOM      4  N   UNL     1      10.522 -56.274 -22.639  1.00  0.00    -0.331 N 
ATOM      5  C   UNL     1       9.022 -58.091 -23.452  1.00  0.00     0.065 C 
ATOM      6  C   UNL     1      11.190 -57.219 -21.675  1.00  0.00     0.262 C 
ATOM      7  C   UNL     1      11.147 -58.648 -22.199  1.00  0.00     0.065 C 
ATOM      8  H   UNL     1      10.481 -55.371 -22.150  1.00  0.00     0.348 HD
BRANCH   4   9
ATOM      9  C   UNL     1      11.312 -55.975 -23.901  1.00  0.00     0.299 C 
BRANCH   9  10
ATOM     10  C   UNL     1      11.727 -54.533 -24.007  1.00  0.00     0.006 A 
ATOM     11  C   UNL     1      12.491 -54.089 -25.098  1.00  0.00     0.009 A 
ATOM     12  C   UNL     1      11.339 -53.606 -23.027  1.00  0.00     0.009 A 
ATOM     13  C   UNL     1      12.850 -52.745 -25.209  1.00  0.00     0.001 A 
ATOM     14  C   UNL     1      11.700 -52.263 -23.143  1.00  0.00     0.001 A 
ATOM     15  C   UNL     1      12.454 -51.833 -24.233  1.00  0.00     0.000 A 
ENDBRANCH   9  10
ENDBRANCH   4   9
ENDBRANCH   1   2
BRANCH   1  16
ATOM     16  C   UNL     1      11.145 -61.197 -23.068  1.00  0.00     0.061 C 
BRANCH  16  17
ATOM     17  C   UNL     1      12.026 -60.835 -24.213  1.00  0.00     0.091 A 
ATOM     18  C   UNL     1      11.671 -60.494 -25.544  1.00  0.00     0.045 A 
ATOM     19  N   UNL     1      13.354 -60.800 -24.033  1.00  0.00    -0.084 NA
ATOM     20  C   UNL     1      10.495 -60.353 -26.300  1.00  0.00     0.015 A 
ATOM     21  C   UNL     1      12.888 -60.243 -26.155  1.00  0.00     0.167 A 
ATOM     22  O   UNL     1      13.890 -60.428 -25.254  1.00  0.00    -0.356 OA
ATOM     23  C   UNL     1      10.607 -59.970 -27.647  1.00  0.00     0.015 A 
ATOM     24  C   UNL     1      13.041 -59.862 -27.483  1.00  0.00     0.064 A 
ATOM     25  C   UNL     1      11.862 -59.736 -28.235  1.00  0.00     0.043 A 
BRANCH  25  26
ATOM     26  C   UNL     1      11.997 -59.314 -29.654  1.00  0.00     0.248 C 
ATOM     27  N   UNL     1      11.611 -60.198 -30.621  1.00  0.00    -0.366 N 
ATOM     28  O   UNL     1      12.470 -58.224 -29.952  1.00  0.00    -0.270 OA
ATOM     29  H   UNL     1      11.828 -59.926 -31.573  1.00  0.00     0.159 HD
ATOM     30  H   UNL     1      11.496 -61.185 -30.444  1.00  0.00     0.159 HD
ENDBRANCH  25  26
ENDBRANCH  16  17
ENDBRANCH   1  16
TORSDOF 6
ENDMDL
MODEL 9
REMARK VINA RESULT:   -10.231      3.202     10.120
REMARK INTER + INTRA:         -14.567
REMARK INTER:                 -14.633
REMARK INTRA:                   0.066
REMARK UNBOUND:                -0.747
REMARK SMILES NC(=O)c1ccc2c(CC[C@H]3CC[N@@H+](Cc4ccccc4)CC3)noc2c1
REMARK SMILES IDX 10 1 11 2 13 3 14 4 12 5 22 6 23 7 15 9 16 10 17 11 21 12
REMARK SMILES IDX 18 13 20 14 19 15 9 16 8 17 7 18 24 19 6 20 26 21 25 22 5 23
REMARK SMILES IDX 27 24 4 25 2 26 1 27 3 28
REMARK H PARENT 14 8 1 29 1 30
ROOT
ATOM      1  C   UNL     1      11.274 -56.859 -21.771  1.00  0.00     0.010 C 
ENDROOT
BRANCH   1   2
ATOM      2  C   UNL     1      10.618 -55.583 -22.335  1.00  0.00     0.000 C 
ATOM      3  C   UNL     1      10.765 -53.756 -24.103  1.00  0.00     0.262 C 
ATOM      4  N   UNL     1      10.855 -52.722 -23.016  1.00  0.00    -0.331 N 
ATOM      5  C   UNL     1      11.306 -55.097 -23.623  1.00  0.00     0.065 C 
ATOM      6  C   UNL     1      10.112 -53.150 -21.777  1.00  0.00     0.262 C 
ATOM      7  C   UNL     1      10.642 -54.480 -21.261  1.00  0.00     0.065 C 
ATOM      8  H   UNL     1      10.349 -51.897 -23.363  1.00  0.00     0.348 HD
BRANCH   4   9
ATOM      9  C   UNL     1      12.267 -52.218 -22.780  1.00  0.00     0.299 C 
BRANCH   9  10
ATOM     10  C   UNL     1      12.854 -51.529 -23.982  1.00  0.00     0.006 A 
ATOM     11  C   UNL     1      13.360 -52.278 -25.056  1.00  0.00     0.009 A 
ATOM     12  C   UNL     1      12.885 -50.128 -24.056  1.00  0.00     0.009 A 
ATOM     13  C   UNL     1      13.878 -51.637 -26.182  1.00  0.00     0.001 A 
ATOM     14  C   UNL     1      13.404 -49.492 -25.185  1.00  0.00     0.001 A 
ATOM     15  C   UNL     1      13.898 -50.246 -26.247  1.00  0.00     0.000 A 
ENDBRANCH   9  10
ENDBRANCH   4   9
ENDBRANCH   1   2
BRANCH   1  16
ATOM     16  C   UNL     1      11.450 -57.984 -22.800  1.00  0.00     0.061 C 
BRANCH  16  17
ATOM     17  C   UNL     1      10.150 -58.616 -23.160  1.00  0.00     0.091 A 
ATOM     18  C   UNL     1       9.812 -59.992 -23.232  1.00  0.00     0.045 A 
ATOM     19  N   UNL     1       9.104 -57.834 -23.464  1.00  0.00    -0.084 NA
ATOM     20  C   UNL     1      10.447 -61.228 -23.028  1.00  0.00     0.015 A 
ATOM     21  C   UNL     1       8.477 -59.983 -23.599  1.00  0.00     0.167 A 
ATOM     22  O   UNL     1       8.056 -58.697 -23.738  1.00  0.00    -0.356 OA
ATOM     23  C   UNL     1       9.699 -62.403 -23.210  1.00  0.00     0.015 A 
ATOM     24  C   UNL     1       7.703 -61.122 -23.788  1.00  0.00     0.064 A 
ATOM     25  C   UNL     1       8.348 -62.353 -23.594  1.00  0.00     0.043 A 
BRANCH  25  26
ATOM     26  C   UNL     1       7.538 -63.587 -23.775  1.00  0.00     0.248 C 
ATOM     27  N   UNL     1       6.492 -63.539 -24.654  1.00  0.00    -0.366 N 
ATOM     28  O   UNL     1       7.774 -64.604 -23.135  1.00  0.00    -0.270 OA
ATOM     29  H   UNL     1       5.892 -64.355 -24.662  1.00  0.00     0.159 HD
ATOM     30  H   UNL     1       6.087 -62.672 -24.974  1.00  0.00     0.159 HD
ENDBRANCH  25  26
ENDBRANCH  16  17
ENDBRANCH   1  16
TORSDOF 6
ENDMDL
