MODEL 1
REMARK VINA RESULT:   -12.191      0.000      0.000
REMARK INTER + INTRA:         -16.700
REMARK INTER:                 -16.111
REMARK INTRA:                  -0.589
REMARK UNBOUND:                -0.589
REMARK SMILES O=c1c2ccc(Cl)cc2nc(O)n1CC[C@H]1CC[N@H+](Cc2ccccc2)CC1
REMARK SMILES IDX 14 1 13 2 11 3 10 4 9 5 2 6 8 7 3 8 6 9 4 10 5 11 1 12 7 13
REMARK SMILES IDX 12 14 15 16 16 17 17 18 28 19 18 20 27 21 19 22 20 24 21 25
REMARK SMILES IDX 22 26 26 27 23 28 25 29 24 30
REMARK H PARENT 12 15 19 23
ROOT
ATOM      1  C   UNL     1      10.475 -55.651 -22.854  1.00  0.00     0.131 C 
ENDROOT
BRANCH   1   2
ATOM      2  N   UNL     1      11.074 -54.359 -23.161  1.00  0.00    -0.262 N 
ATOM      3  C   UNL     1      10.858 -53.257 -22.378  1.00  0.00     0.297 A 
ATOM      4  N   UNL     1      11.319 -52.076 -22.581  1.00  0.00    -0.197 NA
ATOM      5  C   UNL     1      12.122 -51.887 -23.715  1.00  0.00     0.083 A 
ATOM      6  C   UNL     1      11.797 -54.245 -24.342  1.00  0.00     0.264 A 
ATOM      7  C   UNL     1      12.667 -50.624 -23.952  1.00  0.00     0.049 A 
ATOM      8  C   UNL     1      12.388 -52.919 -24.618  1.00  0.00     0.066 A 
ATOM      9  C   UNL     1      13.464 -50.405 -25.077  1.00  0.00     0.043 A 
ATOM     10  C   UNL     1      13.185 -52.706 -25.749  1.00  0.00     0.017 A 
ATOM     11  C   UNL     1      13.725 -51.439 -25.976  1.00  0.00     0.021 A 
ATOM     12  O   UNL     1      11.941 -55.167 -25.143  1.00  0.00    -0.268 OA
ATOM     13  Cl  UNL     1      14.130 -48.845 -25.360  1.00  0.00    -0.084 Cl
BRANCH   3  14
ATOM     14  O   UNL     1      10.084 -53.443 -21.299  1.00  0.00    -0.480 OA
ATOM     15  H   UNL     1      10.124 -52.618 -20.781  1.00  0.00     0.296 HD
ENDBRANCH   3  14
ENDBRANCH   1   2
BRANCH   1  16
ATOM     16  C   UNL     1      11.299 -56.415 -21.807  1.00  0.00     0.026 C 
BRANCH  16  17
ATOM     17  C   UNL     1      11.536 -57.907 -22.109  1.00  0.00     0.002 C 
ATOM     18  C   UNL     1      11.739 -58.197 -23.601  1.00  0.00     0.065 C 
ATOM     19  C   UNL     1      10.414 -58.790 -21.543  1.00  0.00     0.065 C 
ATOM     20  C   UNL     1      11.991 -59.679 -23.856  1.00  0.00     0.262 C 
ATOM     21  C   UNL     1      10.675 -60.267 -21.806  1.00  0.00     0.262 C 
ATOM     22  N   UNL     1      10.852 -60.492 -23.285  1.00  0.00    -0.331 N 
ATOM     23  H   UNL     1       9.992 -60.179 -23.753  1.00  0.00     0.348 HD
BRANCH  22  24
ATOM     24  C   UNL     1      10.975 -61.971 -23.602  1.00  0.00     0.299 C 
BRANCH  24  25
ATOM     25  C   UNL     1       9.664 -62.603 -23.981  1.00  0.00     0.006 A 
ATOM     26  C   UNL     1       9.073 -62.331 -25.225  1.00  0.00     0.009 A 
ATOM     27  C   UNL     1       9.003 -63.460 -23.088  1.00  0.00     0.009 A 
ATOM     28  C   UNL     1       7.844 -62.899 -25.562  1.00  0.00     0.001 A 
ATOM     29  C   UNL     1       7.774 -64.026 -23.429  1.00  0.00     0.001 A 
ATOM     30  C   UNL     1       7.195 -63.742 -24.664  1.00  0.00     0.000 A 
ENDBRANCH  24  25
ENDBRANCH  22  24
ENDBRANCH  16  17
ENDBRANCH   1  16
TORSDOF 6
ENDMDL
MODEL 2
REMARK VINA RESULT:   -11.379      0.945      2.225
REMARK INTER + INTRA:         -15.627
REMARK INTER:                 -15.304
REMARK INTRA:                  -0.323
REMARK UNBOUND:                -0.589
REMARK SMILES O=c1c2ccc(Cl)cc2nc(O)n1CC[C@H]1CC[N@H+](Cc2ccccc2)CC1
REMARK SMILES IDX 14 1 13 2 11 3 10 4 9 5 2 6 8 7 3 8 6 9 4 10 5 11 1 12 7 13
REMARK SMILES IDX 12 14 15 16 16 17 17 18 28 19 18 20 27 21 19 22 20 24 21 25
REMARK SMILES IDX 22 26 26 27 23 28 25 29 24 30
REMARK H PARENT 12 15 19 23
ROOT
ATOM      1  C   UNL     1      10.389 -55.342 -23.064  1.00  0.00     0.131 C 
ENDROOT
BRANCH   1   2
ATOM      2  N   UNL     1      11.063 -54.090 -23.380  1.00  0.00    -0.262 N 
ATOM      3  C   UNL     1      11.889 -53.967 -24.464  1.00  0.00     0.297 A 
ATOM      4  N   UNL     1      12.545 -52.917 -24.808  1.00  0.00    -0.197 NA
ATOM      5  C   UNL     1      12.407 -51.781 -23.997  1.00  0.00     0.083 A 
ATOM      6  C   UNL     1      10.926 -53.036 -22.484  1.00  0.00     0.264 A 
ATOM      7  C   UNL     1      13.079 -50.611 -24.355  1.00  0.00     0.049 A 
ATOM      8  C   UNL     1      11.625 -51.784 -22.839  1.00  0.00     0.066 A 
ATOM      9  C   UNL     1      12.966 -49.467 -23.563  1.00  0.00     0.043 A 
ATOM     10  C   UNL     1      11.509 -50.641 -22.040  1.00  0.00     0.017 A 
ATOM     11  C   UNL     1      12.184 -49.477 -22.408  1.00  0.00     0.021 A 
ATOM     12  O   UNL     1      10.284 -53.113 -21.438  1.00  0.00    -0.268 OA
ATOM     13  Cl  UNL     1      13.799 -48.032 -24.014  1.00  0.00    -0.084 Cl
BRANCH   3  14
ATOM     14  O   UNL     1      12.023 -55.058 -25.232  1.00  0.00    -0.480 OA
ATOM     15  H   UNL     1      12.361 -55.766 -24.654  1.00  0.00     0.296 HD
ENDBRANCH   3  14
ENDBRANCH   1   2
BRANCH   1  16
ATOM     16  C   UNL     1      11.124 -56.108 -21.954  1.00  0.00     0.026 C 
BRANCH  16  17
ATOM     17  C   UNL     1      11.438 -57.584 -22.264  1.00  0.00     0.002 C 
ATOM     18  C   UNL     1      11.783 -57.832 -23.737  1.00  0.00     0.065 C 
ATOM     19  C   UNL     1      10.302 -58.516 -21.818  1.00  0.00     0.065 C 
ATOM     20  C   UNL     1      12.107 -59.299 -23.999  1.00  0.00     0.262 C 
ATOM     21  C   UNL     1      10.636 -59.977 -22.086  1.00  0.00     0.262 C 
ATOM     22  N   UNL     1      10.951 -60.163 -23.549  1.00  0.00    -0.331 N 
ATOM     23  H   UNL     1      10.125 -59.867 -24.085  1.00  0.00     0.348 HD
BRANCH  22  24
ATOM     24  C   UNL     1      11.154 -61.628 -23.883  1.00  0.00     0.299 C 
BRANCH  24  25
ATOM     25  C   UNL     1       9.866 -62.403 -23.932  1.00  0.00     0.006 A 
ATOM     26  C   UNL     1       9.476 -63.211 -22.852  1.00  0.00     0.009 A 
ATOM     27  C   UNL     1       9.042 -62.345 -25.067  1.00  0.00     0.009 A 
ATOM     28  C   UNL     1       8.293 -63.949 -22.912  1.00  0.00     0.001 A 
ATOM     29  C   UNL     1       7.860 -63.084 -25.123  1.00  0.00     0.001 A 
ATOM     30  C   UNL     1       7.489 -63.887 -24.047  1.00  0.00     0.000 A 
ENDBRANCH  24  25
ENDBRANCH  22  24
ENDBRANCH  16  17
ENDBRANCH   1  16
TORSDOF 6
ENDMDL
MODEL 3
REMARK VINA RESULT:   -10.967      1.619      2.106
REMARK INTER + INTRA:         -15.082
REMARK INTER:                 -14.565
REMARK INTRA:                  -0.517
REMARK UNBOUND:                -0.589
REMARK SMILES O=c1c2ccc(Cl)cc2nc(O)n1CC[C@H]1CC[N@H+](Cc2ccccc2)CC1
REMARK SMILES IDX 14 1 13 2 11 3 10 4 9 5 2 6 8 7 3 8 6 9 4 10 5 11 1 12 7 13
REMARK SMILES IDX 12 14 15 16 16 17 17 18 28 19 18 20 27 21 19 22 20 24 21 25
REMARK SMILES IDX 22 26 26 27 23 28 25 29 24 30
REMARK H PARENT 12 15 19 23
ROOT
ATOM      1  C   UNL     1      10.647 -55.747 -22.269  1.00  0.00     0.131 C 
ENDROOT
BRANCH   1   2
ATOM      2  N   UNL     1      11.184 -54.485 -22.762  1.00  0.00    -0.262 N 
ATOM      3  C   UNL     1      10.996 -53.307 -22.091  1.00  0.00     0.297 A 
ATOM      4  N   UNL     1      11.406 -52.146 -22.458  1.00  0.00    -0.197 NA
ATOM      5  C   UNL     1      12.116 -52.070 -23.664  1.00  0.00     0.083 A 
ATOM      6  C   UNL     1      11.813 -54.489 -24.000  1.00  0.00     0.264 A 
ATOM      7  C   UNL     1      12.606 -50.831 -24.081  1.00  0.00     0.049 A 
ATOM      8  C   UNL     1      12.344 -53.192 -24.466  1.00  0.00     0.066 A 
ATOM      9  C   UNL     1      13.310 -50.723 -25.282  1.00  0.00     0.043 A 
ATOM     10  C   UNL     1      13.047 -53.090 -25.672  1.00  0.00     0.017 A 
ATOM     11  C   UNL     1      13.533 -51.847 -26.078  1.00  0.00     0.021 A 
ATOM     12  O   UNL     1      11.924 -55.492 -24.703  1.00  0.00    -0.268 OA
ATOM     13  Cl  UNL     1      13.908 -49.192 -25.786  1.00  0.00    -0.084 Cl
BRANCH   3  14
ATOM     14  O   UNL     1      10.310 -53.386 -20.941  1.00  0.00    -0.480 OA
ATOM     15  H   UNL     1       9.942 -54.286 -20.896  1.00  0.00     0.296 HD
ENDBRANCH   3  14
ENDBRANCH   1   2
BRANCH   1  16
ATOM     16  C   UNL     1       9.378 -56.151 -23.033  1.00  0.00     0.026 C 
BRANCH  16  17
ATOM     17  C   UNL     1       9.053 -57.657 -23.029  1.00  0.00     0.002 C 
ATOM     18  C   UNL     1      10.243 -58.533 -23.438  1.00  0.00     0.065 C 
ATOM     19  C   UNL     1       7.829 -57.981 -23.898  1.00  0.00     0.065 C 
ATOM     20  C   UNL     1       9.888 -60.015 -23.402  1.00  0.00     0.262 C 
ATOM     21  C   UNL     1       7.486 -59.463 -23.856  1.00  0.00     0.262 C 
ATOM     22  N   UNL     1       8.685 -60.271 -24.281  1.00  0.00    -0.331 N 
ATOM     23  H   UNL     1       8.938 -59.976 -25.233  1.00  0.00     0.348 HD
BRANCH  22  24
ATOM     24  C   UNL     1       8.342 -61.745 -24.386  1.00  0.00     0.299 C 
BRANCH  24  25
ATOM     25  C   UNL     1       8.427 -62.270 -25.793  1.00  0.00     0.006 A 
ATOM     26  C   UNL     1       9.268 -61.656 -26.734  1.00  0.00     0.009 A 
ATOM     27  C   UNL     1       7.653 -63.372 -26.189  1.00  0.00     0.009 A 
ATOM     28  C   UNL     1       9.324 -62.130 -28.046  1.00  0.00     0.001 A 
ATOM     29  C   UNL     1       7.713 -63.842 -27.502  1.00  0.00     0.001 A 
ATOM     30  C   UNL     1       8.545 -63.219 -28.428  1.00  0.00     0.000 A 
ENDBRANCH  24  25
ENDBRANCH  22  24
ENDBRANCH  16  17
ENDBRANCH   1  16
TORSDOF 6
ENDMDL
MODEL 4
REMARK VINA RESULT:   -10.452      2.432      3.804
REMARK INTER + INTRA:         -14.402
REMARK INTER:                 -14.473
REMARK INTRA:                   0.071
REMARK UNBOUND:                -0.589
REMARK SMILES O=c1c2ccc(Cl)cc2nc(O)n1CC[C@H]1CC[N@H+](Cc2ccccc2)CC1
REMARK SMILES IDX 14 1 13 2 11 3 10 4 9 5 2 6 8 7 3 8 6 9 4 10 5 11 1 12 7 13
REMARK SMILES IDX 12 14 15 16 16 17 17 18 28 19 18 20 27 21 19 22 20 24 21 25
REMARK SMILES IDX 22 26 26 27 23 28 25 29 24 30
REMARK H PARENT 12 15 19 23
ROOT
ATOM      1  C   UNL     1      10.631 -52.086 -21.597  1.00  0.00     0.131 C 
ENDROOT
BRANCH   1   2
ATOM      2  N   UNL     1      10.852 -50.768 -22.177  1.00  0.00    -0.262 N 
ATOM      3  C   UNL     1       9.897 -49.789 -22.133  1.00  0.00     0.297 A 
ATOM      4  N   UNL     1       9.989 -48.611 -22.637  1.00  0.00    -0.197 NA
ATOM      5  C   UNL     1      11.182 -48.289 -23.300  1.00  0.00     0.083 A 
ATOM      6  C   UNL     1      12.034 -50.559 -22.877  1.00  0.00     0.264 A 
ATOM      7  C   UNL     1      11.333 -47.007 -23.833  1.00  0.00     0.049 A 
ATOM      8  C   UNL     1      12.222 -49.211 -23.450  1.00  0.00     0.066 A 
ATOM      9  C   UNL     1      12.507 -46.661 -24.505  1.00  0.00     0.043 A 
ATOM     10  C   UNL     1      13.400 -48.871 -24.124  1.00  0.00     0.017 A 
ATOM     11  C   UNL     1      13.540 -47.587 -24.653  1.00  0.00     0.021 A 
ATOM     12  O   UNL     1      12.888 -51.428 -23.044  1.00  0.00    -0.268 OA
ATOM     13  Cl  UNL     1      12.681 -45.080 -25.158  1.00  0.00    -0.084 Cl
BRANCH   3  14
ATOM     14  O   UNL     1       8.756 -50.104 -21.503  1.00  0.00    -0.480 OA
ATOM     15  H   UNL     1       8.724 -49.563 -20.694  1.00  0.00     0.296 HD
ENDBRANCH   3  14
ENDBRANCH   1   2
BRANCH   1  16
ATOM     16  C   UNL     1      10.124 -53.083 -22.651  1.00  0.00     0.026 C 
BRANCH  16  17
ATOM     17  C   UNL     1      10.969 -54.360 -22.815  1.00  0.00     0.002 C 
ATOM     18  C   UNL     1      11.038 -54.858 -24.264  1.00  0.00     0.065 C 
ATOM     19  C   UNL     1      10.491 -55.486 -21.887  1.00  0.00     0.065 C 
ATOM     20  C   UNL     1      11.898 -56.110 -24.388  1.00  0.00     0.262 C 
ATOM     21  C   UNL     1      11.357 -56.731 -22.021  1.00  0.00     0.262 C 
ATOM     22  N   UNL     1      11.374 -57.181 -23.460  1.00  0.00    -0.331 N 
ATOM     23  H   UNL     1      10.403 -57.373 -23.737  1.00  0.00     0.348 HD
BRANCH  22  24
ATOM     24  C   UNL     1      12.112 -58.497 -23.612  1.00  0.00     0.299 C 
BRANCH  24  25
ATOM     25  C   UNL     1      11.342 -59.670 -23.069  1.00  0.00     0.006 A 
ATOM     26  C   UNL     1      11.340 -60.899 -23.747  1.00  0.00     0.009 A 
ATOM     27  C   UNL     1      10.599 -59.546 -21.884  1.00  0.00     0.009 A 
ATOM     28  C   UNL     1      10.603 -61.976 -23.253  1.00  0.00     0.001 A 
ATOM     29  C   UNL     1       9.864 -60.627 -21.395  1.00  0.00     0.001 A 
ATOM     30  C   UNL     1       9.864 -61.838 -22.081  1.00  0.00     0.000 A 
ENDBRANCH  24  25
ENDBRANCH  22  24
ENDBRANCH  16  17
ENDBRANCH   1  16
TORSDOF 6
ENDMDL
MODEL 5
REMARK VINA RESULT:   -10.374      3.870     10.213
REMARK INTER + INTRA:         -14.299
REMARK INTER:                 -13.771
REMARK INTRA:                  -0.528
REMARK UNBOUND:                -0.589
REMARK SMILES O=c1c2ccc(Cl)cc2nc(O)n1CC[C@H]1CC[N@H+](Cc2ccccc2)CC1
REMARK SMILES IDX 14 1 13 2 11 3 10 4 9 5 2 6 8 7 3 8 6 9 4 10 5 11 1 12 7 13
REMARK SMILES IDX 12 14 15 16 16 17 17 18 28 19 18 20 27 21 19 22 20 24 21 25
REMARK SMILES IDX 22 26 26 27 23 28 25 29 24 30
REMARK H PARENT 12 15 19 23
ROOT
ATOM      1  C   UNL     1      11.552 -57.894 -23.548  1.00  0.00     0.131 C 
ENDROOT
BRANCH   1   2
ATOM      2  N   UNL     1      10.966 -59.228 -23.538  1.00  0.00    -0.262 N 
ATOM      3  C   UNL     1      11.738 -60.357 -23.487  1.00  0.00     0.297 A 
ATOM      4  N   UNL     1      11.316 -61.571 -23.500  1.00  0.00    -0.197 NA
ATOM      5  C   UNL     1       9.929 -61.766 -23.574  1.00  0.00     0.083 A 
ATOM      6  C   UNL     1       9.588 -59.331 -23.685  1.00  0.00     0.264 A 
ATOM      7  C   UNL     1       9.430 -63.070 -23.559  1.00  0.00     0.049 A 
ATOM      8  C   UNL     1       9.032 -60.699 -23.670  1.00  0.00     0.066 A 
ATOM      9  C   UNL     1       8.055 -63.295 -23.638  1.00  0.00     0.043 A 
ATOM     10  C   UNL     1       7.652 -60.918 -23.752  1.00  0.00     0.017 A 
ATOM     11  C   UNL     1       7.164 -62.226 -23.735  1.00  0.00     0.021 A 
ATOM     12  O   UNL     1       8.847 -58.362 -23.841  1.00  0.00    -0.268 OA
ATOM     13  Cl  UNL     1       7.452 -64.905 -23.619  1.00  0.00    -0.084 Cl
BRANCH   3  14
ATOM     14  O   UNL     1      13.063 -60.164 -23.423  1.00  0.00    -0.480 OA
ATOM     15  H   UNL     1      13.361 -59.967 -24.330  1.00  0.00     0.296 HD
ENDBRANCH   3  14
ENDBRANCH   1   2
BRANCH   1  16
ATOM     16  C   UNL     1      11.424 -57.217 -22.176  1.00  0.00     0.026 C 
BRANCH  16  17
ATOM     17  C   UNL     1      10.764 -55.824 -22.184  1.00  0.00     0.002 C 
ATOM     18  C   UNL     1      11.085 -55.010 -23.443  1.00  0.00     0.065 C 
ATOM     19  C   UNL     1      11.114 -55.018 -20.924  1.00  0.00     0.065 C 
ATOM     20  C   UNL     1      10.398 -53.649 -23.422  1.00  0.00     0.262 C 
ATOM     21  C   UNL     1      10.425 -53.661 -20.915  1.00  0.00     0.262 C 
ATOM     22  N   UNL     1      10.788 -52.903 -22.167  1.00  0.00    -0.331 N 
ATOM     23  H   UNL     1      11.810 -52.798 -22.181  1.00  0.00     0.348 HD
BRANCH  22  24
ATOM     24  C   UNL     1      10.233 -51.492 -22.131  1.00  0.00     0.299 C 
BRANCH  24  25
ATOM     25  C   UNL     1      11.193 -50.468 -22.671  1.00  0.00     0.006 A 
ATOM     26  C   UNL     1      10.857 -49.105 -22.673  1.00  0.00     0.009 A 
ATOM     27  C   UNL     1      12.433 -50.863 -23.199  1.00  0.00     0.009 A 
ATOM     28  C   UNL     1      11.740 -48.161 -23.200  1.00  0.00     0.001 A 
ATOM     29  C   UNL     1      13.312 -49.915 -23.724  1.00  0.00     0.001 A 
ATOM     30  C   UNL     1      12.963 -48.567 -23.726  1.00  0.00     0.000 A 
ENDBRANCH  24  25
ENDBRANCH  22  24
ENDBRANCH  16  17
ENDBRANCH   1  16
TORSDOF 6
ENDMDL
MODEL 6
REMARK VINA RESULT:   -10.238      3.643      9.417
REMARK INTER + INTRA:         -14.119
REMARK INTER:                 -14.503
REMARK INTRA:                   0.385
REMARK UNBOUND:                -0.589
REMARK SMILES O=c1c2ccc(Cl)cc2nc(O)n1CC[C@H]1CC[N@H+](Cc2ccccc2)CC1
REMARK SMILES IDX 14 1 13 2 11 3 10 4 9 5 2 6 8 7 3 8 6 9 4 10 5 11 1 12 7 13
REMARK SMILES IDX 12 14 15 16 16 17 17 18 28 19 18 20 27 21 19 22 20 24 21 25
REMARK SMILES IDX 22 26 26 27 23 28 25 29 24 30
REMARK H PARENT 12 15 19 23
ROOT
ATOM      1  C   UNL     1      11.902 -58.646 -22.921  1.00  0.00     0.131 C 
ENDROOT
BRANCH   1   2
ATOM      2  N   UNL     1      11.144 -59.596 -23.723  1.00  0.00    -0.262 N 
ATOM      3  C   UNL     1      10.455 -60.634 -23.156  1.00  0.00     0.297 A 
ATOM      4  N   UNL     1       9.783 -61.534 -23.779  1.00  0.00    -0.197 NA
ATOM      5  C   UNL     1       9.746 -61.453 -25.179  1.00  0.00     0.083 A 
ATOM      6  C   UNL     1      11.220 -59.483 -25.106  1.00  0.00     0.264 A 
ATOM      7  C   UNL     1       9.000 -62.394 -25.890  1.00  0.00     0.049 A 
ATOM      8  C   UNL     1      10.439 -60.465 -25.885  1.00  0.00     0.066 A 
ATOM      9  C   UNL     1       8.952 -62.342 -27.285  1.00  0.00     0.043 A 
ATOM     10  C   UNL     1      10.396 -60.408 -27.282  1.00  0.00     0.017 A 
ATOM     11  C   UNL     1       9.646 -61.353 -27.983  1.00  0.00     0.021 A 
ATOM     12  O   UNL     1      11.905 -58.638 -25.682  1.00  0.00    -0.268 OA
ATOM     13  Cl  UNL     1       8.030 -63.507 -28.150  1.00  0.00    -0.084 Cl
BRANCH   3  14
ATOM     14  O   UNL     1      10.499 -60.711 -21.818  1.00  0.00    -0.480 OA
ATOM     15  H   UNL     1      10.178 -59.856 -21.479  1.00  0.00     0.296 HD
ENDBRANCH   3  14
ENDBRANCH   1   2
BRANCH   1  16
ATOM     16  C   UNL     1      10.994 -57.896 -21.936  1.00  0.00     0.026 C 
BRANCH  16  17
ATOM     17  C   UNL     1      10.721 -56.418 -22.279  1.00  0.00     0.002 C 
ATOM     18  C   UNL     1      11.405 -55.962 -23.573  1.00  0.00     0.065 C 
ATOM     19  C   UNL     1      11.095 -55.483 -21.119  1.00  0.00     0.065 C 
ATOM     20  C   UNL     1      11.095 -54.503 -23.888  1.00  0.00     0.262 C 
ATOM     21  C   UNL     1      10.783 -54.030 -21.446  1.00  0.00     0.262 C 
ATOM     22  N   UNL     1      11.493 -53.635 -22.716  1.00  0.00    -0.331 N 
ATOM     23  H   UNL     1      12.500 -53.772 -22.565  1.00  0.00     0.348 HD
BRANCH  22  24
ATOM     24  C   UNL     1      11.320 -52.155 -23.001  1.00  0.00     0.299 C 
BRANCH  24  25
ATOM     25  C   UNL     1      12.291 -51.636 -24.026  1.00  0.00     0.006 A 
ATOM     26  C   UNL     1      12.606 -50.269 -24.082  1.00  0.00     0.009 A 
ATOM     27  C   UNL     1      12.882 -52.508 -24.953  1.00  0.00     0.009 A 
ATOM     28  C   UNL     1      13.488 -49.788 -25.051  1.00  0.00     0.001 A 
ATOM     29  C   UNL     1      13.763 -52.022 -25.919  1.00  0.00     0.001 A 
ATOM     30  C   UNL     1      14.062 -50.663 -25.969  1.00  0.00     0.000 A 
ENDBRANCH  24  25
ENDBRANCH  22  24
ENDBRANCH  16  17
ENDBRANCH   1  16
TORSDOF 6
ENDMDL
MODEL 7
REMARK VINA RESULT:   -10.170      3.507      9.610
REMARK INTER + INTRA:         -14.029
REMARK INTER:                 -13.928
REMARK INTRA:                  -0.101
REMARK UNBOUND:                -0.589
REMARK SMILES O=c1c2ccc(Cl)cc2nc(O)n1CC[C@H]1CC[N@H+](Cc2ccccc2)CC1
REMARK SMILES IDX 14 1 13 2 11 3 10 4 9 5 2 6 8 7 3 8 6 9 4 10 5 11 1 12 7 13
REMARK SMILES IDX 12 14 15 16 16 17 17 18 28 19 18 20 27 21 19 22 20 24 21 25
REMARK SMILES IDX 22 26 26 27 23 28 25 29 24 30
REMARK H PARENT 12 15 19 23
ROOT
ATOM      1  C   UNL     1      11.308 -58.038 -22.511  1.00  0.00     0.131 C 
ENDROOT
BRANCH   1   2
ATOM      2  N   UNL     1      10.983 -58.882 -23.653  1.00  0.00    -0.262 N 
ATOM      3  C   UNL     1      11.615 -58.741 -24.859  1.00  0.00     0.297 A 
ATOM      4  N   UNL     1      11.381 -59.417 -25.927  1.00  0.00    -0.197 NA
ATOM      5  C   UNL     1      10.380 -60.396 -25.858  1.00  0.00     0.083 A 
ATOM      6  C   UNL     1       9.930 -59.778 -23.518  1.00  0.00     0.264 A 
ATOM      7  C   UNL     1      10.117 -61.173 -26.988  1.00  0.00     0.049 A 
ATOM      8  C   UNL     1       9.631 -60.615 -24.698  1.00  0.00     0.066 A 
ATOM      9  C   UNL     1       9.121 -62.150 -26.951  1.00  0.00     0.043 A 
ATOM     10  C   UNL     1       8.630 -61.591 -24.655  1.00  0.00     0.017 A 
ATOM     11  C   UNL     1       8.377 -62.362 -25.790  1.00  0.00     0.021 A 
ATOM     12  O   UNL     1       9.252 -59.881 -22.497  1.00  0.00    -0.268 OA
ATOM     13  Cl  UNL     1       8.806 -63.100 -28.349  1.00  0.00    -0.084 Cl
BRANCH   3  14
ATOM     14  O   UNL     1      12.567 -57.799 -24.921  1.00  0.00    -0.480 OA
ATOM     15  H   UNL     1      12.522 -57.301 -24.085  1.00  0.00     0.296 HD
ENDBRANCH   3  14
ENDBRANCH   1   2
BRANCH   1  16
ATOM     16  C   UNL     1      10.366 -56.828 -22.425  1.00  0.00     0.026 C 
BRANCH  16  17
ATOM     17  C   UNL     1      11.055 -55.449 -22.449  1.00  0.00     0.002 C 
ATOM     18  C   UNL     1      10.390 -54.425 -21.522  1.00  0.00     0.065 C 
ATOM     19  C   UNL     1      11.161 -54.889 -23.875  1.00  0.00     0.065 C 
ATOM     20  C   UNL     1      11.111 -53.082 -21.560  1.00  0.00     0.262 C 
ATOM     21  C   UNL     1      11.881 -53.548 -23.899  1.00  0.00     0.262 C 
ATOM     22  N   UNL     1      11.176 -52.580 -22.984  1.00  0.00    -0.331 N 
ATOM     23  H   UNL     1      10.208 -52.486 -23.316  1.00  0.00     0.348 HD
BRANCH  22  24
ATOM     24  C   UNL     1      11.780 -51.192 -23.086  1.00  0.00     0.299 C 
BRANCH  24  25
ATOM     25  C   UNL     1      13.077 -51.169 -23.847  1.00  0.00     0.006 A 
ATOM     26  C   UNL     1      13.081 -51.145 -25.250  1.00  0.00     0.009 A 
ATOM     27  C   UNL     1      14.304 -51.190 -23.164  1.00  0.00     0.009 A 
ATOM     28  C   UNL     1      14.287 -51.151 -25.953  1.00  0.00     0.001 A 
ATOM     29  C   UNL     1      15.506 -51.195 -23.871  1.00  0.00     0.001 A 
ATOM     30  C   UNL     1      15.496 -51.179 -25.264  1.00  0.00     0.000 A 
ENDBRANCH  24  25
ENDBRANCH  22  24
ENDBRANCH  16  17
ENDBRANCH   1  16
TORSDOF 6
ENDMDL
MODEL 8
REMARK VINA RESULT:    -9.946      3.739      9.938
REMARK INTER + INTRA:         -13.733
REMARK INTER:                 -13.928
REMARK INTRA:                   0.195
REMARK UNBOUND:                -0.589
REMARK SMILES O=c1c2ccc(Cl)cc2nc(O)n1CC[C@H]1CC[N@H+](Cc2ccccc2)CC1
REMARK SMILES IDX 14 1 13 2 11 3 10 4 9 5 2 6 8 7 3 8 6 9 4 10 5 11 1 12 7 13
REMARK SMILES IDX 12 14 15 16 16 17 17 18 28 19 18 20 27 21 19 22 20 24 21 25
REMARK SMILES IDX 22 26 26 27 23 28 25 29 24 30
REMARK H PARENT 12 15 19 23
ROOT
ATOM      1  C   UNL     1      11.846 -58.909 -22.980  1.00  0.00     0.131 C 
ENDROOT
BRANCH   1   2
ATOM      2  N   UNL     1      10.942 -59.864 -23.607  1.00  0.00    -0.262 N 
ATOM      3  C   UNL     1      10.675 -59.833 -24.949  1.00  0.00     0.297 A 
ATOM      4  N   UNL     1       9.876 -60.612 -25.586  1.00  0.00    -0.197 NA
ATOM      5  C   UNL     1       9.208 -61.593 -24.840  1.00  0.00     0.083 A 
ATOM      6  C   UNL     1      10.268 -60.756 -22.783  1.00  0.00     0.264 A 
ATOM      7  C   UNL     1       8.355 -62.479 -25.501  1.00  0.00     0.049 A 
ATOM      8  C   UNL     1       9.361 -61.708 -23.455  1.00  0.00     0.066 A 
ATOM      9  C   UNL     1       7.671 -63.461 -24.782  1.00  0.00     0.043 A 
ATOM     10  C   UNL     1       8.676 -62.689 -22.729  1.00  0.00     0.017 A 
ATOM     11  C   UNL     1       7.827 -63.569 -23.401  1.00  0.00     0.021 A 
ATOM     12  O   UNL     1      10.382 -60.768 -21.558  1.00  0.00    -0.268 OA
ATOM     13  Cl  UNL     1       6.623 -64.547 -25.608  1.00  0.00    -0.084 Cl
BRANCH   3  14
ATOM     14  O   UNL     1      11.312 -58.888 -25.657  1.00  0.00    -0.480 OA
ATOM     15  H   UNL     1      11.793 -58.335 -25.015  1.00  0.00     0.296 HD
ENDBRANCH   3  14
ENDBRANCH   1   2
BRANCH   1  16
ATOM     16  C   UNL     1      11.138 -58.114 -21.872  1.00  0.00     0.026 C 
BRANCH  16  17
ATOM     17  C   UNL     1      10.796 -56.652 -22.221  1.00  0.00     0.002 C 
ATOM     18  C   UNL     1      11.440 -56.176 -23.527  1.00  0.00     0.065 C 
ATOM     19  C   UNL     1      11.146 -55.694 -21.073  1.00  0.00     0.065 C 
ATOM     20  C   UNL     1      11.062 -54.734 -23.847  1.00  0.00     0.262 C 
ATOM     21  C   UNL     1      10.765 -54.258 -21.404  1.00  0.00     0.262 C 
ATOM     22  N   UNL     1      11.438 -53.841 -22.687  1.00  0.00    -0.331 N 
ATOM     23  H   UNL     1      12.453 -53.933 -22.550  1.00  0.00     0.348 HD
BRANCH  22  24
ATOM     24  C   UNL     1      11.196 -52.372 -22.979  1.00  0.00     0.299 C 
BRANCH  24  25
ATOM     25  C   UNL     1      12.304 -51.740 -23.776  1.00  0.00     0.006 A 
ATOM     26  C   UNL     1      12.872 -50.524 -23.368  1.00  0.00     0.009 A 
ATOM     27  C   UNL     1      12.774 -52.350 -24.950  1.00  0.00     0.009 A 
ATOM     28  C   UNL     1      13.882 -49.927 -24.125  1.00  0.00     0.001 A 
ATOM     29  C   UNL     1      13.784 -51.750 -25.702  1.00  0.00     0.001 A 
ATOM     30  C   UNL     1      14.334 -50.539 -25.291  1.00  0.00     0.000 A 
ENDBRANCH  24  25
ENDBRANCH  22  24
ENDBRANCH  16  17
ENDBRANCH   1  16
TORSDOF 6
ENDMDL
MODEL 9
REMARK VINA RESULT:    -9.874      2.716      4.055
REMARK INTER + INTRA:         -13.637
REMARK INTER:                 -13.090
REMARK INTRA:                  -0.548
REMARK UNBOUND:                -0.589
REMARK SMILES O=c1c2ccc(Cl)cc2nc(O)n1CC[C@H]1CC[N@H+](Cc2ccccc2)CC1
REMARK SMILES IDX 14 1 13 2 11 3 10 4 9 5 2 6 8 7 3 8 6 9 4 10 5 11 1 12 7 13
REMARK SMILES IDX 12 14 15 16 16 17 17 18 28 19 18 20 27 21 19 22 20 24 21 25
REMARK SMILES IDX 22 26 26 27 23 28 25 29 24 30
REMARK H PARENT 12 15 19 23
ROOT
ATOM      1  C   UNL     1      10.777 -52.226 -21.649  1.00  0.00     0.131 C 
ENDROOT
BRANCH   1   2
ATOM      2  N   UNL     1      10.896 -50.865 -22.156  1.00  0.00    -0.262 N 
ATOM      3  C   UNL     1       9.865 -49.969 -22.073  1.00  0.00     0.297 A 
ATOM      4  N   UNL     1       9.866 -48.762 -22.512  1.00  0.00    -0.197 NA
ATOM      5  C   UNL     1      11.034 -48.310 -23.141  1.00  0.00     0.083 A 
ATOM      6  C   UNL     1      12.063 -50.524 -22.828  1.00  0.00     0.264 A 
ATOM      7  C   UNL     1      11.086 -46.994 -23.605  1.00  0.00     0.049 A 
ATOM      8  C   UNL     1      12.146 -49.136 -23.327  1.00  0.00     0.066 A 
ATOM      9  C   UNL     1      12.234 -46.519 -24.241  1.00  0.00     0.043 A 
ATOM     10  C   UNL     1      13.299 -48.667 -23.966  1.00  0.00     0.017 A 
ATOM     11  C   UNL     1      13.340 -47.349 -24.424  1.00  0.00     0.021 A 
ATOM     12  O   UNL     1      12.986 -51.311 -23.030  1.00  0.00    -0.268 OA
ATOM     13  Cl  UNL     1      12.285 -44.896 -24.808  1.00  0.00    -0.084 Cl
BRANCH   3  14
ATOM     14  O   UNL     1       8.747 -50.409 -21.476  1.00  0.00    -0.480 OA
ATOM     15  H   UNL     1       8.121 -50.634 -22.187  1.00  0.00     0.296 HD
ENDBRANCH   3  14
ENDBRANCH   1   2
BRANCH   1  16
ATOM     16  C   UNL     1      10.232 -53.177 -22.725  1.00  0.00     0.026 C 
BRANCH  16  17
ATOM     17  C   UNL     1      11.019 -54.489 -22.909  1.00  0.00     0.002 C 
ATOM     18  C   UNL     1      11.372 -54.782 -24.372  1.00  0.00     0.065 C 
ATOM     19  C   UNL     1      10.288 -55.687 -22.286  1.00  0.00     0.065 C 
ATOM     20  C   UNL     1      12.167 -56.076 -24.509  1.00  0.00     0.262 C 
ATOM     21  C   UNL     1      11.089 -56.973 -22.431  1.00  0.00     0.262 C 
ATOM     22  N   UNL     1      11.393 -57.216 -23.888  1.00  0.00    -0.331 N 
ATOM     23  H   UNL     1      10.496 -57.281 -24.386  1.00  0.00     0.348 HD
BRANCH  22  24
ATOM     24  C   UNL     1      12.070 -58.559 -24.088  1.00  0.00     0.299 C 
BRANCH  24  25
ATOM     25  C   UNL     1      11.494 -59.342 -25.235  1.00  0.00     0.006 A 
ATOM     26  C   UNL     1      10.373 -60.166 -25.046  1.00  0.00     0.009 A 
ATOM     27  C   UNL     1      12.081 -59.276 -26.509  1.00  0.00     0.009 A 
ATOM     28  C   UNL     1       9.858 -60.912 -26.108  1.00  0.00     0.001 A 
ATOM     29  C   UNL     1      11.562 -60.023 -27.567  1.00  0.00     0.001 A 
ATOM     30  C   UNL     1      10.453 -60.842 -27.364  1.00  0.00     0.000 A 
ENDBRANCH  24  25
ENDBRANCH  22  24
ENDBRANCH  16  17
ENDBRANCH   1  16
TORSDOF 6
ENDMDL
