MODEL 1
REMARK VINA RESULT:   -10.091      0.000      0.000
REMARK INTER + INTRA:         -13.306
REMARK INTER:                 -13.041
REMARK INTRA:                  -0.265
REMARK UNBOUND:                -0.265
REMARK SMILES COc1cccc2c1CC[C@H](NC(=O)OCc1ccccc1)C2
REMARK SMILES IDX 12 1 13 2 14 3 11 5 3 6 4 7 8 8 5 9 7 10 9 11 6 12 23 13
REMARK SMILES IDX 10 14 2 15 1 16 15 17 16 18 17 19 18 20 22 21 19 22 21 23
REMARK SMILES IDX 20 24
REMARK H PARENT 12 4
ROOT
ATOM      1  N   UNL     1       9.326 -56.163 -23.402  1.00  0.00    -0.318 N 
ATOM      2  C   UNL     1      10.267 -55.412 -22.766  1.00  0.00     0.407 C 
ATOM      3  O   UNL     1      10.945 -55.777 -21.818  1.00  0.00    -0.225 OA
ATOM      4  H   UNL     1       8.961 -55.759 -24.254  1.00  0.00     0.167 HD
ENDROOT
BRANCH   1   5
ATOM      5  C   UNL     1       9.117 -57.573 -23.109  1.00  0.00     0.090 C 
ATOM      6  C   UNL     1       8.639 -61.842 -23.433  1.00  0.00     0.122 A 
ATOM      7  C   UNL     1       9.759 -62.678 -23.411  1.00  0.00     0.047 A 
ATOM      8  C   UNL     1       8.810 -60.441 -23.465  1.00  0.00    -0.003 A 
ATOM      9  C   UNL     1      11.043 -62.136 -23.407  1.00  0.00     0.004 A 
ATOM     10  C   UNL     1      10.112 -59.897 -23.435  1.00  0.00    -0.039 A 
ATOM     11  C   UNL     1       7.597 -59.536 -23.463  1.00  0.00     0.042 C 
ATOM     12  C   UNL     1      11.219 -60.756 -23.420  1.00  0.00     0.004 A 
ATOM     13  C   UNL     1      10.354 -58.407 -23.470  1.00  0.00     0.061 C 
ATOM     14  C   UNL     1       7.901 -58.098 -23.869  1.00  0.00     0.030 C 
BRANCH   6  15
ATOM     15  O   UNL     1       7.340 -62.282 -23.426  1.00  0.00    -0.496 OA
ATOM     16  C   UNL     1       6.934 -63.143 -24.483  1.00  0.00     0.278 C 
ENDBRANCH   6  15
ENDBRANCH   1   5
BRANCH   2  17
ATOM     17  O   UNL     1      10.340 -54.202 -23.365  1.00  0.00    -0.445 OA
BRANCH  17  18
ATOM     18  C   UNL     1      11.248 -53.303 -22.726  1.00  0.00     0.270 C 
BRANCH  18  19
ATOM     19  C   UNL     1      12.070 -52.636 -23.799  1.00  0.00    -0.011 A 
ATOM     20  C   UNL     1      12.552 -53.377 -24.887  1.00  0.00     0.007 A 
ATOM     21  C   UNL     1      12.398 -51.277 -23.705  1.00  0.00     0.007 A 
ATOM     22  C   UNL     1      13.328 -52.765 -25.873  1.00  0.00     0.000 A 
ATOM     23  C   UNL     1      13.173 -50.667 -24.692  1.00  0.00     0.000 A 
ATOM     24  C   UNL     1      13.636 -51.410 -25.776  1.00  0.00     0.000 A 
ENDBRANCH  18  19
ENDBRANCH  17  18
ENDBRANCH   2  17
TORSDOF 5
ENDMDL
MODEL 2
REMARK VINA RESULT:   -10.076      2.273      9.621
REMARK INTER + INTRA:         -13.287
REMARK INTER:                 -12.880
REMARK INTRA:                  -0.407
REMARK UNBOUND:                -0.265
REMARK SMILES COc1cccc2c1CC[C@H](NC(=O)OCc1ccccc1)C2
REMARK SMILES IDX 12 1 13 2 14 3 11 5 3 6 4 7 8 8 5 9 7 10 9 11 6 12 23 13
REMARK SMILES IDX 10 14 2 15 1 16 15 17 16 18 17 19 18 20 22 21 19 22 21 23
REMARK SMILES IDX 20 24
REMARK H PARENT 12 4
ROOT
ATOM      1  N   UNL     1      11.145 -53.779 -22.309  1.00  0.00    -0.318 N 
ATOM      2  C   UNL     1      10.484 -54.828 -22.871  1.00  0.00     0.407 C 
ATOM      3  O   UNL     1       9.892 -54.804 -23.938  1.00  0.00    -0.225 OA
ATOM      4  H   UNL     1      11.700 -54.010 -21.495  1.00  0.00     0.167 HD
ENDROOT
BRANCH   1   5
ATOM      5  C   UNL     1      11.347 -52.516 -23.001  1.00  0.00     0.090 C 
ATOM      6  C   UNL     1      13.042 -48.875 -24.561  1.00  0.00     0.122 A 
ATOM      7  C   UNL     1      13.770 -48.894 -25.754  1.00  0.00     0.047 A 
ATOM      8  C   UNL     1      12.608 -50.089 -23.986  1.00  0.00    -0.003 A 
ATOM      9  C   UNL     1      14.059 -50.103 -26.385  1.00  0.00     0.004 A 
ATOM     10  C   UNL     1      12.881 -51.309 -24.642  1.00  0.00    -0.039 A 
ATOM     11  C   UNL     1      11.798 -50.066 -22.707  1.00  0.00     0.042 C 
ATOM     12  C   UNL     1      13.619 -51.302 -25.833  1.00  0.00     0.004 A 
ATOM     13  C   UNL     1      12.443 -52.636 -24.070  1.00  0.00     0.061 C 
ATOM     14  C   UNL     1      11.716 -51.419 -22.006  1.00  0.00     0.030 C 
BRANCH   6  15
ATOM     15  O   UNL     1      12.700 -47.737 -23.876  1.00  0.00    -0.496 OA
ATOM     16  C   UNL     1      11.933 -46.761 -24.570  1.00  0.00     0.278 C 
ENDBRANCH   6  15
ENDBRANCH   1   5
BRANCH   2  17
ATOM     17  O   UNL     1      10.605 -55.906 -22.063  1.00  0.00    -0.445 OA
BRANCH  17  18
ATOM     18  C   UNL     1      11.361 -56.971 -22.641  1.00  0.00     0.270 C 
BRANCH  18  19
ATOM     19  C   UNL     1      10.563 -58.240 -22.492  1.00  0.00    -0.011 A 
ATOM     20  C   UNL     1       9.406 -58.446 -23.256  1.00  0.00     0.007 A 
ATOM     21  C   UNL     1      10.942 -59.216 -21.560  1.00  0.00     0.007 A 
ATOM     22  C   UNL     1       8.656 -59.613 -23.107  1.00  0.00     0.000 A 
ATOM     23  C   UNL     1      10.191 -60.383 -21.412  1.00  0.00     0.000 A 
ATOM     24  C   UNL     1       9.050 -60.582 -22.187  1.00  0.00     0.000 A 
ENDBRANCH  18  19
ENDBRANCH  17  18
ENDBRANCH   2  17
TORSDOF 5
ENDMDL
MODEL 3
REMARK VINA RESULT:   -10.045      1.754      9.046
REMARK INTER + INTRA:         -13.246
REMARK INTER:                 -12.830
REMARK INTRA:                  -0.416
REMARK UNBOUND:                -0.265
REMARK SMILES COc1cccc2c1CC[C@H](NC(=O)OCc1ccccc1)C2
REMARK SMILES IDX 12 1 13 2 14 3 11 5 3 6 4 7 8 8 5 9 7 10 9 11 6 12 23 13
REMARK SMILES IDX 10 14 2 15 1 16 15 17 16 18 17 19 18 20 22 21 19 22 21 23
REMARK SMILES IDX 20 24
REMARK H PARENT 12 4
ROOT
ATOM      1  N   UNL     1      10.231 -56.986 -22.502  1.00  0.00    -0.318 N 
ATOM      2  C   UNL     1       9.304 -57.765 -23.124  1.00  0.00     0.407 C 
ATOM      3  O   UNL     1       8.415 -57.363 -23.858  1.00  0.00    -0.225 OA
ATOM      4  H   UNL     1      10.980 -57.492 -22.048  1.00  0.00     0.167 HD
ENDROOT
BRANCH   1   5
ATOM      5  C   UNL     1      10.360 -55.560 -22.762  1.00  0.00     0.090 C 
ATOM      6  C   UNL     1      11.837 -51.524 -23.063  1.00  0.00     0.122 A 
ATOM      7  C   UNL     1      12.576 -51.128 -24.181  1.00  0.00     0.047 A 
ATOM      8  C   UNL     1      11.475 -52.880 -22.906  1.00  0.00    -0.003 A 
ATOM      9  C   UNL     1      12.947 -52.062 -25.148  1.00  0.00     0.004 A 
ATOM     10  C   UNL     1      11.830 -53.816 -23.900  1.00  0.00    -0.039 A 
ATOM     11  C   UNL     1      10.652 -53.303 -21.708  1.00  0.00     0.042 C 
ATOM     12  C   UNL     1      12.577 -53.396 -25.009  1.00  0.00     0.004 A 
ATOM     13  C   UNL     1      11.471 -55.278 -23.783  1.00  0.00     0.061 C 
ATOM     14  C   UNL     1      10.649 -54.809 -21.465  1.00  0.00     0.030 C 
BRANCH   6  15
ATOM     15  O   UNL     1      11.418 -50.678 -22.068  1.00  0.00    -0.496 OA
ATOM     16  C   UNL     1      10.518 -49.638 -22.430  1.00  0.00     0.278 C 
ENDBRANCH   6  15
ENDBRANCH   1   5
BRANCH   2  17
ATOM     17  O   UNL     1       9.538 -59.059 -22.810  1.00  0.00    -0.445 OA
BRANCH  17  18
ATOM     18  C   UNL     1       9.755 -59.893 -23.950  1.00  0.00     0.270 C 
BRANCH  18  19
ATOM     19  C   UNL     1       9.168 -61.248 -23.651  1.00  0.00    -0.011 A 
ATOM     20  C   UNL     1       7.840 -61.539 -23.994  1.00  0.00     0.007 A 
ATOM     21  C   UNL     1       9.927 -62.225 -22.991  1.00  0.00     0.007 A 
ATOM     22  C   UNL     1       7.290 -62.788 -23.702  1.00  0.00     0.000 A 
ATOM     23  C   UNL     1       9.375 -63.473 -22.700  1.00  0.00     0.000 A 
ATOM     24  C   UNL     1       8.059 -63.754 -23.058  1.00  0.00     0.000 A 
ENDBRANCH  18  19
ENDBRANCH  17  18
ENDBRANCH   2  17
TORSDOF 5
ENDMDL
MODEL 4
REMARK VINA RESULT:   -10.008      2.109      9.060
REMARK INTER + INTRA:         -13.198
REMARK INTER:                 -13.835
REMARK INTRA:                   0.636
REMARK UNBOUND:                -0.265
REMARK SMILES COc1cccc2c1CC[C@H](NC(=O)OCc1ccccc1)C2
REMARK SMILES IDX 12 1 13 2 14 3 11 5 3 6 4 7 8 8 5 9 7 10 9 11 6 12 23 13
REMARK SMILES IDX 10 14 2 15 1 16 15 17 16 18 17 19 18 20 22 21 19 22 21 23
REMARK SMILES IDX 20 24
REMARK H PARENT 12 4
ROOT
ATOM      1  N   UNL     1      10.610 -55.902 -23.535  1.00  0.00    -0.318 N 
ATOM      2  C   UNL     1      10.848 -56.525 -22.349  1.00  0.00     0.407 C 
ATOM      3  O   UNL     1      11.375 -56.016 -21.372  1.00  0.00    -0.225 OA
ATOM      4  H   UNL     1      10.038 -56.424 -24.186  1.00  0.00     0.167 HD
ENDROOT
BRANCH   1   5
ATOM      5  C   UNL     1      10.832 -54.477 -23.732  1.00  0.00     0.090 C 
ATOM      6  C   UNL     1      12.533 -50.520 -23.773  1.00  0.00     0.122 A 
ATOM      7  C   UNL     1      13.378 -50.129 -24.815  1.00  0.00     0.047 A 
ATOM      8  C   UNL     1      12.091 -51.858 -23.693  1.00  0.00    -0.003 A 
ATOM      9  C   UNL     1      13.775 -51.049 -25.784  1.00  0.00     0.004 A 
ATOM     10  C   UNL     1      12.475 -52.780 -24.691  1.00  0.00    -0.039 A 
ATOM     11  C   UNL     1      11.155 -52.274 -22.578  1.00  0.00     0.042 C 
ATOM     12  C   UNL     1      13.328 -52.365 -25.722  1.00  0.00     0.004 A 
ATOM     13  C   UNL     1      12.033 -54.223 -24.654  1.00  0.00     0.061 C 
ATOM     14  C   UNL     1      11.056 -53.785 -22.391  1.00  0.00     0.030 C 
BRANCH   6  15
ATOM     15  O   UNL     1      12.081 -49.684 -22.783  1.00  0.00    -0.496 OA
ATOM     16  C   UNL     1      11.451 -48.474 -23.186  1.00  0.00     0.278 C 
ENDBRANCH   6  15
ENDBRANCH   1   5
BRANCH   2  17
ATOM     17  O   UNL     1      10.391 -57.796 -22.423  1.00  0.00    -0.445 OA
BRANCH  17  18
ATOM     18  C   UNL     1      11.155 -58.723 -21.649  1.00  0.00     0.270 C 
BRANCH  18  19
ATOM     19  C   UNL     1      10.808 -60.113 -22.117  1.00  0.00    -0.011 A 
ATOM     20  C   UNL     1      11.409 -60.645 -23.266  1.00  0.00     0.007 A 
ATOM     21  C   UNL     1       9.853 -60.878 -21.433  1.00  0.00     0.007 A 
ATOM     22  C   UNL     1      11.076 -61.926 -23.711  1.00  0.00     0.000 A 
ATOM     23  C   UNL     1       9.522 -62.158 -21.879  1.00  0.00     0.000 A 
ATOM     24  C   UNL     1      10.135 -62.682 -23.016  1.00  0.00     0.000 A 
ENDBRANCH  18  19
ENDBRANCH  17  18
ENDBRANCH   2  17
TORSDOF 5
ENDMDL
MODEL 5
REMARK VINA RESULT:    -9.815      1.900      2.498
REMARK INTER + INTRA:         -12.949
REMARK INTER:                 -12.609
REMARK INTRA:                  -0.340
REMARK UNBOUND:                -0.265
REMARK SMILES COc1cccc2c1CC[C@H](NC(=O)OCc1ccccc1)C2
REMARK SMILES IDX 12 1 13 2 14 3 11 5 3 6 4 7 8 8 5 9 7 10 9 11 6 12 23 13
REMARK SMILES IDX 10 14 2 15 1 16 15 17 16 18 17 19 18 20 22 21 19 22 21 23
REMARK SMILES IDX 20 24
REMARK H PARENT 12 4
ROOT
ATOM      1  N   UNL     1      11.336 -54.278 -22.298  1.00  0.00    -0.318 N 
ATOM      2  C   UNL     1      10.872 -53.035 -21.993  1.00  0.00     0.407 C 
ATOM      3  O   UNL     1       9.710 -52.751 -21.748  1.00  0.00    -0.225 OA
ATOM      4  H   UNL     1      12.344 -54.362 -22.332  1.00  0.00     0.167 HD
ENDROOT
BRANCH   1   5
ATOM      5  C   UNL     1      10.502 -55.467 -22.225  1.00  0.00     0.090 C 
ATOM      6  C   UNL     1       8.731 -59.331 -22.929  1.00  0.00     0.122 A 
ATOM      7  C   UNL     1       9.272 -60.472 -22.329  1.00  0.00     0.047 A 
ATOM      8  C   UNL     1       9.396 -58.092 -22.805  1.00  0.00    -0.003 A 
ATOM      9  C   UNL     1      10.457 -60.390 -21.599  1.00  0.00     0.004 A 
ATOM     10  C   UNL     1      10.581 -58.009 -22.043  1.00  0.00    -0.039 A 
ATOM     11  C   UNL     1       8.796 -56.853 -23.433  1.00  0.00     0.042 C 
ATOM     12  C   UNL     1      11.108 -59.168 -21.457  1.00  0.00     0.004 A 
ATOM     13  C   UNL     1      11.335 -56.711 -21.880  1.00  0.00     0.061 C 
ATOM     14  C   UNL     1       9.772 -55.686 -23.547  1.00  0.00     0.030 C 
BRANCH   6  15
ATOM     15  O   UNL     1       7.567 -59.312 -23.654  1.00  0.00    -0.496 OA
ATOM     16  C   UNL     1       6.443 -59.988 -23.105  1.00  0.00     0.278 C 
ENDBRANCH   6  15
ENDBRANCH   1   5
BRANCH   2  17
ATOM     17  O   UNL     1      11.910 -52.168 -21.990  1.00  0.00    -0.445 OA
BRANCH  17  18
ATOM     18  C   UNL     1      11.614 -50.921 -22.620  1.00  0.00     0.270 C 
BRANCH  18  19
ATOM     19  C   UNL     1      12.425 -50.839 -23.888  1.00  0.00    -0.011 A 
ATOM     20  C   UNL     1      12.736 -52.001 -24.608  1.00  0.00     0.007 A 
ATOM     21  C   UNL     1      12.913 -49.606 -24.344  1.00  0.00     0.007 A 
ATOM     22  C   UNL     1      13.501 -51.929 -25.773  1.00  0.00     0.000 A 
ATOM     23  C   UNL     1      13.677 -49.536 -25.509  1.00  0.00     0.000 A 
ATOM     24  C   UNL     1      13.969 -50.697 -26.224  1.00  0.00     0.000 A 
ENDBRANCH  18  19
ENDBRANCH  17  18
ENDBRANCH   2  17
TORSDOF 5
ENDMDL
MODEL 6
REMARK VINA RESULT:    -9.741      2.124      9.157
REMARK INTER + INTRA:         -12.853
REMARK INTER:                 -12.543
REMARK INTRA:                  -0.310
REMARK UNBOUND:                -0.265
REMARK SMILES COc1cccc2c1CC[C@H](NC(=O)OCc1ccccc1)C2
REMARK SMILES IDX 12 1 13 2 14 3 11 5 3 6 4 7 8 8 5 9 7 10 9 11 6 12 23 13
REMARK SMILES IDX 10 14 2 15 1 16 15 17 16 18 17 19 18 20 22 21 19 22 21 23
REMARK SMILES IDX 20 24
REMARK H PARENT 12 4
ROOT
ATOM      1  N   UNL     1      10.748 -57.268 -23.099  1.00  0.00    -0.318 N 
ATOM      2  C   UNL     1      11.395 -58.399 -23.492  1.00  0.00     0.407 C 
ATOM      3  O   UNL     1      12.494 -58.441 -24.023  1.00  0.00    -0.225 OA
ATOM      4  H   UNL     1       9.914 -57.422 -22.548  1.00  0.00     0.167 HD
ENDROOT
BRANCH   1   5
ATOM      5  C   UNL     1      11.371 -55.954 -23.136  1.00  0.00     0.090 C 
ATOM      6  C   UNL     1      12.118 -51.739 -23.628  1.00  0.00     0.122 A 
ATOM      7  C   UNL     1      11.826 -50.848 -22.591  1.00  0.00     0.047 A 
ATOM      8  C   UNL     1      11.745 -53.096 -23.513  1.00  0.00    -0.003 A 
ATOM      9  C   UNL     1      11.180 -51.294 -21.439  1.00  0.00     0.004 A 
ATOM     10  C   UNL     1      11.114 -53.547 -22.334  1.00  0.00    -0.039 A 
ATOM     11  C   UNL     1      12.084 -54.065 -24.625  1.00  0.00     0.042 C 
ATOM     12  C   UNL     1      10.825 -52.634 -21.311  1.00  0.00     0.004 A 
ATOM     13  C   UNL     1      10.690 -54.986 -22.158  1.00  0.00     0.061 C 
ATOM     14  C   UNL     1      11.316 -55.381 -24.550  1.00  0.00     0.030 C 
BRANCH   6  15
ATOM     15  O   UNL     1      12.761 -51.396 -24.791  1.00  0.00    -0.496 OA
ATOM     16  C   UNL     1      13.209 -50.053 -24.919  1.00  0.00     0.278 C 
ENDBRANCH   6  15
ENDBRANCH   1   5
BRANCH   2  17
ATOM     17  O   UNL     1      10.630 -59.471 -23.185  1.00  0.00    -0.445 OA
BRANCH  17  18
ATOM     18  C   UNL     1      11.260 -60.721 -23.466  1.00  0.00     0.270 C 
BRANCH  18  19
ATOM     19  C   UNL     1      10.182 -61.769 -23.574  1.00  0.00    -0.011 A 
ATOM     20  C   UNL     1       9.353 -61.821 -24.703  1.00  0.00     0.007 A 
ATOM     21  C   UNL     1       9.967 -62.681 -22.531  1.00  0.00     0.007 A 
ATOM     22  C   UNL     1       8.343 -62.780 -24.797  1.00  0.00     0.000 A 
ATOM     23  C   UNL     1       8.957 -63.639 -22.627  1.00  0.00     0.000 A 
ATOM     24  C   UNL     1       8.148 -63.690 -23.760  1.00  0.00     0.000 A 
ENDBRANCH  18  19
ENDBRANCH  17  18
ENDBRANCH   2  17
TORSDOF 5
ENDMDL
MODEL 7
REMARK VINA RESULT:    -9.698      1.782      2.948
REMARK INTER + INTRA:         -12.798
REMARK INTER:                 -12.498
REMARK INTRA:                  -0.300
REMARK UNBOUND:                -0.265
REMARK SMILES COc1cccc2c1CC[C@H](NC(=O)OCc1ccccc1)C2
REMARK SMILES IDX 12 1 13 2 14 3 11 5 3 6 4 7 8 8 5 9 7 10 9 11 6 12 23 13
REMARK SMILES IDX 10 14 2 15 1 16 15 17 16 18 17 19 18 20 22 21 19 22 21 23
REMARK SMILES IDX 20 24
REMARK H PARENT 12 4
ROOT
ATOM      1  N   UNL     1      11.189 -56.037 -22.378  1.00  0.00    -0.318 N 
ATOM      2  C   UNL     1      10.975 -54.886 -23.072  1.00  0.00     0.407 C 
ATOM      3  O   UNL     1      10.514 -54.812 -24.200  1.00  0.00    -0.225 OA
ATOM      4  H   UNL     1      11.441 -55.910 -21.406  1.00  0.00     0.167 HD
ENDROOT
BRANCH   1   5
ATOM      5  C   UNL     1      10.750 -57.337 -22.859  1.00  0.00     0.090 C 
ATOM      6  C   UNL     1       8.989 -61.257 -23.172  1.00  0.00     0.122 A 
ATOM      7  C   UNL     1       7.648 -61.397 -23.542  1.00  0.00     0.047 A 
ATOM      8  C   UNL     1       9.521 -59.970 -22.938  1.00  0.00    -0.003 A 
ATOM      9  C   UNL     1       6.837 -60.274 -23.693  1.00  0.00     0.004 A 
ATOM     10  C   UNL     1       8.702 -58.834 -23.118  1.00  0.00    -0.039 A 
ATOM     11  C   UNL     1      10.979 -59.817 -22.563  1.00  0.00     0.042 C 
ATOM     12  C   UNL     1       7.360 -59.001 -23.482  1.00  0.00     0.004 A 
ATOM     13  C   UNL     1       9.217 -57.435 -22.879  1.00  0.00     0.061 C 
ATOM     14  C   UNL     1      11.326 -58.449 -21.986  1.00  0.00     0.030 C 
BRANCH   6  15
ATOM     15  O   UNL     1       9.865 -62.300 -23.011  1.00  0.00    -0.496 OA
ATOM     16  C   UNL     1       9.348 -63.513 -22.479  1.00  0.00     0.278 C 
ENDBRANCH   6  15
ENDBRANCH   1   5
BRANCH   2  17
ATOM     17  O   UNL     1      11.339 -53.836 -22.301  1.00  0.00    -0.445 OA
BRANCH  17  18
ATOM     18  C   UNL     1      10.262 -52.945 -22.005  1.00  0.00     0.270 C 
BRANCH  18  19
ATOM     19  C   UNL     1      10.703 -51.549 -22.365  1.00  0.00    -0.011 A 
ATOM     20  C   UNL     1       9.863 -50.454 -22.119  1.00  0.00     0.007 A 
ATOM     21  C   UNL     1      11.941 -51.329 -22.985  1.00  0.00     0.007 A 
ATOM     22  C   UNL     1      10.262 -49.163 -22.467  1.00  0.00     0.000 A 
ATOM     23  C   UNL     1      12.338 -50.038 -23.332  1.00  0.00     0.000 A 
ATOM     24  C   UNL     1      11.500 -48.955 -23.071  1.00  0.00     0.000 A 
ENDBRANCH  18  19
ENDBRANCH  17  18
ENDBRANCH   2  17
TORSDOF 5
ENDMDL
MODEL 8
REMARK VINA RESULT:    -9.678      2.114      7.994
REMARK INTER + INTRA:         -12.772
REMARK INTER:                 -12.106
REMARK INTRA:                  -0.666
REMARK UNBOUND:                -0.265
REMARK SMILES COc1cccc2c1CC[C@H](NC(=O)OCc1ccccc1)C2
REMARK SMILES IDX 12 1 13 2 14 3 11 5 3 6 4 7 8 8 5 9 7 10 9 11 6 12 23 13
REMARK SMILES IDX 10 14 2 15 1 16 15 17 16 18 17 19 18 20 22 21 19 22 21 23
REMARK SMILES IDX 20 24
REMARK H PARENT 12 4
ROOT
ATOM      1  N   UNL     1      10.138 -57.147 -22.538  1.00  0.00    -0.318 N 
ATOM      2  C   UNL     1       9.180 -57.896 -23.148  1.00  0.00     0.407 C 
ATOM      3  O   UNL     1       8.282 -57.464 -23.853  1.00  0.00    -0.225 OA
ATOM      4  H   UNL     1      10.887 -57.676 -22.110  1.00  0.00     0.167 HD
ENDROOT
BRANCH   1   5
ATOM      5  C   UNL     1      10.292 -55.720 -22.780  1.00  0.00     0.090 C 
ATOM      6  C   UNL     1      11.841 -51.709 -23.040  1.00  0.00     0.122 A 
ATOM      7  C   UNL     1      12.577 -51.311 -24.160  1.00  0.00     0.047 A 
ATOM      8  C   UNL     1      11.455 -53.059 -22.898  1.00  0.00    -0.003 A 
ATOM      9  C   UNL     1      12.922 -52.238 -25.142  1.00  0.00     0.004 A 
ATOM     10  C   UNL     1      11.784 -53.988 -23.908  1.00  0.00    -0.039 A 
ATOM     11  C   UNL     1      10.635 -53.483 -21.699  1.00  0.00     0.042 C 
ATOM     12  C   UNL     1      12.529 -53.567 -25.018  1.00  0.00     0.004 A 
ATOM     13  C   UNL     1      11.399 -55.445 -23.807  1.00  0.00     0.061 C 
ATOM     14  C   UNL     1      10.606 -54.992 -21.475  1.00  0.00     0.030 C 
BRANCH   6  15
ATOM     15  O   UNL     1      11.446 -50.868 -22.030  1.00  0.00    -0.496 OA
ATOM     16  C   UNL     1      10.609 -49.773 -22.380  1.00  0.00     0.278 C 
ENDBRANCH   6  15
ENDBRANCH   1   5
BRANCH   2  17
ATOM     17  O   UNL     1       9.394 -59.200 -22.859  1.00  0.00    -0.445 OA
BRANCH  17  18
ATOM     18  C   UNL     1       9.156 -60.076 -23.963  1.00  0.00     0.270 C 
BRANCH  18  19
ATOM     19  C   UNL     1      10.408 -60.114 -24.801  1.00  0.00    -0.011 A 
ATOM     20  C   UNL     1      10.350 -59.844 -26.176  1.00  0.00     0.007 A 
ATOM     21  C   UNL     1      11.640 -60.457 -24.228  1.00  0.00     0.007 A 
ATOM     22  C   UNL     1      11.505 -59.896 -26.957  1.00  0.00     0.000 A 
ATOM     23  C   UNL     1      12.794 -60.508 -25.011  1.00  0.00     0.000 A 
ATOM     24  C   UNL     1      12.727 -60.225 -26.374  1.00  0.00     0.000 A 
ENDBRANCH  18  19
ENDBRANCH  17  18
ENDBRANCH   2  17
TORSDOF 5
ENDMDL
MODEL 9
REMARK VINA RESULT:    -8.886      2.325      8.402
REMARK INTER + INTRA:         -11.748
REMARK INTER:                 -11.303
REMARK INTRA:                  -0.445
REMARK UNBOUND:                -0.265
REMARK SMILES COc1cccc2c1CC[C@H](NC(=O)OCc1ccccc1)C2
REMARK SMILES IDX 12 1 13 2 14 3 11 5 3 6 4 7 8 8 5 9 7 10 9 11 6 12 23 13
REMARK SMILES IDX 10 14 2 15 1 16 15 17 16 18 17 19 18 20 22 21 19 22 21 23
REMARK SMILES IDX 20 24
REMARK H PARENT 12 4
ROOT
ATOM      1  N   UNL     1      10.931 -56.915 -23.661  1.00  0.00    -0.318 N 
ATOM      2  C   UNL     1      10.985 -57.842 -22.666  1.00  0.00     0.407 C 
ATOM      3  O   UNL     1      11.593 -57.720 -21.614  1.00  0.00    -0.225 OA
ATOM      4  H   UNL     1      10.268 -57.118 -24.399  1.00  0.00     0.167 HD
ENDROOT
BRANCH   1   5
ATOM      5  C   UNL     1      11.487 -55.579 -23.521  1.00  0.00     0.090 C 
ATOM      6  C   UNL     1      12.163 -51.330 -23.755  1.00  0.00     0.122 A 
ATOM      7  C   UNL     1      11.576 -50.473 -22.820  1.00  0.00     0.047 A 
ATOM      8  C   UNL     1      11.828 -52.702 -23.756  1.00  0.00    -0.003 A 
ATOM      9  C   UNL     1      10.672 -50.967 -21.880  1.00  0.00     0.004 A 
ATOM     10  C   UNL     1      10.932 -53.201 -22.786  1.00  0.00    -0.039 A 
ATOM     11  C   UNL     1      12.484 -53.634 -24.752  1.00  0.00     0.042 C 
ATOM     12  C   UNL     1      10.352 -52.321 -21.864  1.00  0.00     0.004 A 
ATOM     13  C   UNL     1      10.537 -54.658 -22.742  1.00  0.00     0.061 C 
ATOM     14  C   UNL     1      11.777 -54.978 -24.894  1.00  0.00     0.030 C 
BRANCH   6  15
ATOM     15  O   UNL     1      13.071 -50.939 -24.706  1.00  0.00    -0.496 OA
ATOM     16  C   UNL     1      13.413 -49.560 -24.757  1.00  0.00     0.278 C 
ENDBRANCH   6  15
ENDBRANCH   1   5
BRANCH   2  17
ATOM     17  O   UNL     1      10.243 -58.914 -23.025  1.00  0.00    -0.445 OA
BRANCH  17  18
ATOM     18  C   UNL     1      11.025 -60.041 -23.426  1.00  0.00     0.270 C 
BRANCH  18  19
ATOM     19  C   UNL     1      10.996 -60.113 -24.931  1.00  0.00    -0.011 A 
ATOM     20  C   UNL     1       9.929 -60.739 -25.591  1.00  0.00     0.007 A 
ATOM     21  C   UNL     1      12.051 -59.590 -25.691  1.00  0.00     0.007 A 
ATOM     22  C   UNL     1       9.908 -60.822 -26.984  1.00  0.00     0.000 A 
ATOM     23  C   UNL     1      12.028 -59.674 -27.084  1.00  0.00     0.000 A 
ATOM     24  C   UNL     1      10.956 -60.287 -27.729  1.00  0.00     0.000 A 
ENDBRANCH  18  19
ENDBRANCH  17  18
ENDBRANCH   2  17
TORSDOF 5
ENDMDL
