MODEL 1
REMARK VINA RESULT:    -9.742      0.000      0.000
REMARK INTER + INTRA:         -14.770
REMARK INTER:                 -13.443
REMARK INTRA:                  -1.327
REMARK UNBOUND:                -1.327
REMARK SMILES COc1ccc(OC)c([C@@H]2CC(c3cc(F)cc(F)c3)=NN2c2ccc(S(N)(=O)=O)cc2)c1
REMARK SMILES IDX 23 1 24 2 25 3 26 4 31 5 32 6 22 7 10 8 11 9 12 10 21 11
REMARK SMILES IDX 9 12 3 13 4 14 33 15 5 16 6 17 2 18 1 19 7 20 8 21 13 22
REMARK SMILES IDX 14 23 20 24 15 25 18 26 17 27 16 28 19 29 27 30 29 31 30 32
REMARK SMILES IDX 28 33
REMARK H PARENT 28 34 28 35
ROOT
ATOM      1  C   UNL     1      12.129 -52.306 -23.782  1.00  0.00     0.060 A 
ATOM      2  C   UNL     1      12.390 -53.328 -24.710  1.00  0.00     0.029 A 
ATOM      3  C   UNL     1      11.968 -54.646 -24.493  1.00  0.00     0.024 A 
ATOM      4  C   UNL     1      11.276 -54.962 -23.325  1.00  0.00     0.082 A 
ATOM      5  C   UNL     1      10.986 -53.975 -22.388  1.00  0.00     0.024 A 
ATOM      6  C   UNL     1      11.417 -52.664 -22.621  1.00  0.00     0.029 A 
ENDROOT
BRANCH   1   7
ATOM      7  N   UNL     1      12.549 -50.991 -23.981  1.00  0.00    -0.257 N 
ATOM      8  C   UNL     1      13.487 -50.541 -25.017  1.00  0.00     0.148 C 
ATOM      9  C   UNL     1      13.240 -49.031 -25.057  1.00  0.00     0.091 C 
ATOM     10  C   UNL     1      12.410 -48.860 -23.813  1.00  0.00     0.071 C 
ATOM     11  N   UNL     1      12.014 -49.964 -23.257  1.00  0.00    -0.176 NA
BRANCH   8  12
ATOM     12  C   UNL     1      14.948 -50.840 -24.691  1.00  0.00     0.023 A 
ATOM     13  C   UNL     1      16.695 -51.390 -23.074  1.00  0.00     0.119 A 
ATOM     14  C   UNL     1      17.637 -51.346 -24.099  1.00  0.00     0.050 A 
ATOM     15  C   UNL     1      15.359 -51.131 -23.371  1.00  0.00     0.056 A 
ATOM     16  C   UNL     1      17.255 -51.043 -25.409  1.00  0.00     0.050 A 
ATOM     17  C   UNL     1      15.917 -50.785 -25.713  1.00  0.00     0.124 A 
BRANCH  13  18
ATOM     18  O   UNL     1      17.203 -51.690 -21.841  1.00  0.00    -0.497 OA
ATOM     19  C   UNL     1      18.036 -50.709 -21.235  1.00  0.00     0.278 C 
ENDBRANCH  13  18
BRANCH  17  20
ATOM     20  O   UNL     1      15.452 -50.457 -26.959  1.00  0.00    -0.496 OA
ATOM     21  C   UNL     1      16.030 -49.323 -27.596  1.00  0.00     0.278 C 
ENDBRANCH  17  20
ENDBRANCH   8  12
BRANCH  10  22
ATOM     22  C   UNL     1      12.048 -47.523 -23.292  1.00  0.00     0.004 A 
ATOM     23  C   UNL     1      12.618 -47.088 -22.090  1.00  0.00     0.049 A 
ATOM     24  C   UNL     1      11.150 -46.693 -23.970  1.00  0.00     0.049 A 
ATOM     25  C   UNL     1      12.290 -45.834 -21.585  1.00  0.00     0.126 A 
ATOM     26  C   UNL     1      10.840 -45.442 -23.440  1.00  0.00     0.126 A 
ATOM     27  C   UNL     1      11.403 -45.001 -22.250  1.00  0.00     0.078 A 
ATOM     28  F   UNL     1      12.841 -45.421 -20.436  1.00  0.00    -0.207 F 
ATOM     29  F   UNL     1       9.980 -44.652 -24.094  1.00  0.00    -0.207 F 
ENDBRANCH  10  22
ENDBRANCH   1   7
BRANCH   4  30
ATOM     30  S   UNL     1      10.748 -56.629 -23.051  1.00  0.00     0.238 S 
ATOM     31  O   UNL     1       9.363 -56.744 -23.441  1.00  0.00    -0.207 OA
ATOM     32  O   UNL     1      11.230 -57.063 -21.759  1.00  0.00    -0.207 OA
BRANCH  30  33
ATOM     33  N   UNL     1      11.676 -57.465 -24.183  1.00  0.00    -0.225 NA
ATOM     34  H   UNL     1      11.864 -58.402 -23.823  1.00  0.00     0.137 HD
ATOM     35  H   UNL     1      12.536 -56.975 -24.432  1.00  0.00     0.137 HD
ENDBRANCH  30  33
ENDBRANCH   4  30
TORSDOF 7
ENDMDL
MODEL 2
REMARK VINA RESULT:    -9.597      0.587      1.022
REMARK INTER + INTRA:         -14.570
REMARK INTER:                 -13.219
REMARK INTRA:                  -1.351
REMARK UNBOUND:                -1.327
REMARK SMILES COc1ccc(OC)c([C@@H]2CC(c3cc(F)cc(F)c3)=NN2c2ccc(S(N)(=O)=O)cc2)c1
REMARK SMILES IDX 23 1 24 2 25 3 26 4 31 5 32 6 22 7 10 8 11 9 12 10 21 11
REMARK SMILES IDX 9 12 3 13 4 14 33 15 5 16 6 17 2 18 1 19 7 20 8 21 13 22
REMARK SMILES IDX 14 23 20 24 15 25 18 26 17 27 16 28 19 29 27 30 29 31 30 32
REMARK SMILES IDX 28 33
REMARK H PARENT 28 34 28 35
ROOT
ATOM      1  C   UNL     1      12.073 -52.306 -23.612  1.00  0.00     0.060 A 
ATOM      2  C   UNL     1      11.428 -52.707 -22.429  1.00  0.00     0.029 A 
ATOM      3  C   UNL     1      10.996 -54.025 -22.235  1.00  0.00     0.024 A 
ATOM      4  C   UNL     1      11.202 -54.970 -23.240  1.00  0.00     0.082 A 
ATOM      5  C   UNL     1      11.848 -54.615 -24.419  1.00  0.00     0.024 A 
ATOM      6  C   UNL     1      12.272 -53.293 -24.596  1.00  0.00     0.029 A 
ENDROOT
BRANCH   1   7
ATOM      7  N   UNL     1      12.500 -50.996 -23.821  1.00  0.00    -0.257 N 
ATOM      8  C   UNL     1      13.396 -50.548 -24.894  1.00  0.00     0.148 C 
ATOM      9  C   UNL     1      13.166 -49.036 -24.912  1.00  0.00     0.091 C 
ATOM     10  C   UNL     1      12.395 -48.864 -23.632  1.00  0.00     0.071 C 
ATOM     11  N   UNL     1      12.011 -49.968 -23.066  1.00  0.00    -0.176 NA
BRANCH   8  12
ATOM     12  C   UNL     1      14.866 -50.868 -24.636  1.00  0.00     0.023 A 
ATOM     13  C   UNL     1      16.683 -51.420 -23.098  1.00  0.00     0.119 A 
ATOM     14  C   UNL     1      17.573 -51.410 -24.170  1.00  0.00     0.050 A 
ATOM     15  C   UNL     1      15.338 -51.142 -23.333  1.00  0.00     0.056 A 
ATOM     16  C   UNL     1      17.131 -51.124 -25.464  1.00  0.00     0.050 A 
ATOM     17  C   UNL     1      15.784 -50.848 -25.706  1.00  0.00     0.124 A 
BRANCH  13  18
ATOM     18  O   UNL     1      17.247 -51.706 -21.886  1.00  0.00    -0.497 OA
ATOM     19  C   UNL     1      17.895 -50.634 -21.211  1.00  0.00     0.278 C 
ENDBRANCH  13  18
BRANCH  17  20
ATOM     20  O   UNL     1      15.262 -50.534 -26.933  1.00  0.00    -0.496 OA
ATOM     21  C   UNL     1      15.769 -49.373 -27.582  1.00  0.00     0.278 C 
ENDBRANCH  17  20
ENDBRANCH   8  12
BRANCH  10  22
ATOM     22  C   UNL     1      12.072 -47.527 -23.085  1.00  0.00     0.004 A 
ATOM     23  C   UNL     1      13.115 -46.713 -22.629  1.00  0.00     0.049 A 
ATOM     24  C   UNL     1      10.754 -47.066 -23.013  1.00  0.00     0.049 A 
ATOM     25  C   UNL     1      12.831 -45.452 -22.113  1.00  0.00     0.126 A 
ATOM     26  C   UNL     1      10.500 -45.799 -22.491  1.00  0.00     0.126 A 
ATOM     27  C   UNL     1      11.528 -44.983 -22.039  1.00  0.00     0.078 A 
ATOM     28  F   UNL     1      13.834 -44.676 -21.681  1.00  0.00    -0.207 F 
ATOM     29  F   UNL     1       9.237 -45.362 -22.425  1.00  0.00    -0.207 F 
ENDBRANCH  10  22
ENDBRANCH   1   7
BRANCH   4  30
ATOM     30  S   UNL     1      10.651 -56.634 -22.994  1.00  0.00     0.238 S 
ATOM     31  O   UNL     1       9.285 -56.739 -23.448  1.00  0.00    -0.207 OA
ATOM     32  O   UNL     1      11.071 -57.074 -21.683  1.00  0.00    -0.207 OA
BRANCH  30  33
ATOM     33  N   UNL     1      11.626 -57.473 -24.084  1.00  0.00    -0.225 NA
ATOM     34  H   UNL     1      12.451 -56.906 -24.287  1.00  0.00     0.137 HD
ATOM     35  H   UNL     1      11.132 -57.742 -24.935  1.00  0.00     0.137 HD
ENDBRANCH  30  33
ENDBRANCH   4  30
TORSDOF 7
ENDMDL
MODEL 3
REMARK VINA RESULT:    -9.470      1.417      1.649
REMARK INTER + INTRA:         -14.396
REMARK INTER:                 -12.831
REMARK INTRA:                  -1.564
REMARK UNBOUND:                -1.327
REMARK SMILES COc1ccc(OC)c([C@@H]2CC(c3cc(F)cc(F)c3)=NN2c2ccc(S(N)(=O)=O)cc2)c1
REMARK SMILES IDX 23 1 24 2 25 3 26 4 31 5 32 6 22 7 10 8 11 9 12 10 21 11
REMARK SMILES IDX 9 12 3 13 4 14 33 15 5 16 6 17 2 18 1 19 7 20 8 21 13 22
REMARK SMILES IDX 14 23 20 24 15 25 18 26 17 27 16 28 19 29 27 30 29 31 30 32
REMARK SMILES IDX 28 33
REMARK H PARENT 28 34 28 35
ROOT
ATOM      1  C   UNL     1      12.245 -52.024 -23.874  1.00  0.00     0.060 A 
ATOM      2  C   UNL     1      12.452 -53.085 -24.773  1.00  0.00     0.029 A 
ATOM      3  C   UNL     1      11.999 -54.381 -24.500  1.00  0.00     0.024 A 
ATOM      4  C   UNL     1      11.330 -54.638 -23.305  1.00  0.00     0.082 A 
ATOM      5  C   UNL     1      11.093 -53.612 -22.395  1.00  0.00     0.024 A 
ATOM      6  C   UNL     1      11.554 -52.323 -22.684  1.00  0.00     0.029 A 
ENDROOT
BRANCH   1   7
ATOM      7  N   UNL     1      12.697 -50.730 -24.128  1.00  0.00    -0.257 N 
ATOM      8  C   UNL     1      13.877 -50.377 -24.926  1.00  0.00     0.148 C 
ATOM      9  C   UNL     1      13.642 -48.897 -25.234  1.00  0.00     0.091 C 
ATOM     10  C   UNL     1      12.506 -48.603 -24.292  1.00  0.00     0.071 C 
ATOM     11  N   UNL     1      11.980 -49.642 -23.719  1.00  0.00    -0.176 NA
BRANCH   8  12
ATOM     12  C   UNL     1      15.197 -50.572 -24.184  1.00  0.00     0.023 A 
ATOM     13  C   UNL     1      16.762 -49.919 -22.426  1.00  0.00     0.119 A 
ATOM     14  C   UNL     1      17.640 -50.911 -22.859  1.00  0.00     0.050 A 
ATOM     15  C   UNL     1      15.551 -49.749 -23.093  1.00  0.00     0.056 A 
ATOM     16  C   UNL     1      17.317 -51.725 -23.949  1.00  0.00     0.050 A 
ATOM     17  C   UNL     1      16.104 -51.560 -24.619  1.00  0.00     0.124 A 
BRANCH  13  18
ATOM     18  O   UNL     1      17.203 -49.191 -21.357  1.00  0.00    -0.497 OA
ATOM     19  C   UNL     1      17.998 -49.878 -20.397  1.00  0.00     0.278 C 
ENDBRANCH  13  18
BRANCH  17  20
ATOM     20  O   UNL     1      15.711 -52.292 -25.709  1.00  0.00    -0.496 OA
ATOM     21  C   UNL     1      16.144 -53.646 -25.778  1.00  0.00     0.278 C 
ENDBRANCH  17  20
ENDBRANCH   8  12
BRANCH  10  22
ATOM     22  C   UNL     1      12.009 -47.226 -24.072  1.00  0.00     0.004 A 
ATOM     23  C   UNL     1      10.936 -47.026 -23.195  1.00  0.00     0.049 A 
ATOM     24  C   UNL     1      12.584 -46.129 -24.720  1.00  0.00     0.049 A 
ATOM     25  C   UNL     1      10.456 -45.739 -22.975  1.00  0.00     0.126 A 
ATOM     26  C   UNL     1      12.082 -44.851 -24.479  1.00  0.00     0.126 A 
ATOM     27  C   UNL     1      11.020 -44.643 -23.610  1.00  0.00     0.078 A 
ATOM     28  F   UNL     1       9.431 -45.553 -22.133  1.00  0.00    -0.207 F 
ATOM     29  F   UNL     1      12.637 -43.805 -25.103  1.00  0.00    -0.207 F 
ENDBRANCH  10  22
ENDBRANCH   1   7
BRANCH   4  30
ATOM     30  S   UNL     1      10.763 -56.279 -22.961  1.00  0.00     0.238 S 
ATOM     31  O   UNL     1       9.374 -56.375 -23.340  1.00  0.00    -0.207 OA
ATOM     32  O   UNL     1      11.241 -56.672 -21.655  1.00  0.00    -0.207 OA
BRANCH  30  33
ATOM     33  N   UNL     1      11.664 -57.183 -24.062  1.00  0.00    -0.225 NA
ATOM     34  H   UNL     1      12.052 -56.550 -24.764  1.00  0.00     0.137 HD
ATOM     35  H   UNL     1      11.130 -57.940 -24.489  1.00  0.00     0.137 HD
ENDBRANCH  30  33
ENDBRANCH   4  30
TORSDOF 7
ENDMDL
MODEL 4
REMARK VINA RESULT:    -8.702      4.639      7.633
REMARK INTER + INTRA:         -13.335
REMARK INTER:                 -12.136
REMARK INTRA:                  -1.198
REMARK UNBOUND:                -1.327
REMARK SMILES COc1ccc(OC)c([C@@H]2CC(c3cc(F)cc(F)c3)=NN2c2ccc(S(N)(=O)=O)cc2)c1
REMARK SMILES IDX 23 1 24 2 25 3 26 4 31 5 32 6 22 7 10 8 11 9 12 10 21 11
REMARK SMILES IDX 9 12 3 13 4 14 33 15 5 16 6 17 2 18 1 19 7 20 8 21 13 22
REMARK SMILES IDX 14 23 20 24 15 25 18 26 17 27 16 28 19 29 27 30 29 31 30 32
REMARK SMILES IDX 28 33
REMARK H PARENT 28 34 28 35
ROOT
ATOM      1  C   UNL     1      13.563 -49.099 -25.404  1.00  0.00     0.060 A 
ATOM      2  C   UNL     1      13.840 -47.732 -25.576  1.00  0.00     0.029 A 
ATOM      3  C   UNL     1      14.588 -47.262 -26.663  1.00  0.00     0.024 A 
ATOM      4  C   UNL     1      15.080 -48.168 -27.600  1.00  0.00     0.082 A 
ATOM      5  C   UNL     1      14.816 -49.528 -27.473  1.00  0.00     0.024 A 
ATOM      6  C   UNL     1      14.068 -49.979 -26.380  1.00  0.00     0.029 A 
ENDROOT
BRANCH   1   7
ATOM      7  N   UNL     1      12.826 -49.581 -24.323  1.00  0.00    -0.257 N 
ATOM      8  C   UNL     1      11.975 -48.775 -23.440  1.00  0.00     0.148 C 
ATOM      9  C   UNL     1      11.104 -49.833 -22.758  1.00  0.00     0.091 C 
ATOM     10  C   UNL     1      11.833 -51.085 -23.165  1.00  0.00     0.071 C 
ATOM     11  N   UNL     1      12.761 -50.920 -24.058  1.00  0.00    -0.176 NA
BRANCH   8  12
ATOM     12  C   UNL     1      12.757 -47.971 -22.404  1.00  0.00     0.023 A 
ATOM     13  C   UNL     1      14.763 -47.628 -21.053  1.00  0.00     0.119 A 
ATOM     14  C   UNL     1      14.163 -46.512 -20.473  1.00  0.00     0.050 A 
ATOM     15  C   UNL     1      14.057 -48.355 -22.008  1.00  0.00     0.056 A 
ATOM     16  C   UNL     1      12.870 -46.124 -20.837  1.00  0.00     0.050 A 
ATOM     17  C   UNL     1      12.160 -46.848 -21.796  1.00  0.00     0.124 A 
BRANCH  13  18
ATOM     18  O   UNL     1      16.024 -47.900 -20.602  1.00  0.00    -0.497 OA
ATOM     19  C   UNL     1      16.908 -48.540 -21.516  1.00  0.00     0.278 C 
ENDBRANCH  13  18
BRANCH  17  20
ATOM     20  O   UNL     1      10.882 -46.560 -22.199  1.00  0.00    -0.496 OA
ATOM     21  C   UNL     1      10.624 -45.238 -22.659  1.00  0.00     0.278 C 
ENDBRANCH  17  20
ENDBRANCH   8  12
BRANCH  10  22
ATOM     22  C   UNL     1      11.484 -52.411 -22.606  1.00  0.00     0.004 A 
ATOM     23  C   UNL     1      11.429 -53.514 -23.465  1.00  0.00     0.049 A 
ATOM     24  C   UNL     1      11.207 -52.580 -21.246  1.00  0.00     0.049 A 
ATOM     25  C   UNL     1      11.104 -54.768 -22.958  1.00  0.00     0.126 A 
ATOM     26  C   UNL     1      10.884 -53.848 -20.766  1.00  0.00     0.126 A 
ATOM     27  C   UNL     1      10.830 -54.949 -21.610  1.00  0.00     0.078 A 
ATOM     28  F   UNL     1      11.056 -55.821 -23.784  1.00  0.00    -0.207 F 
ATOM     29  F   UNL     1      10.620 -54.004 -19.463  1.00  0.00    -0.207 F 
ENDBRANCH  10  22
ENDBRANCH   1   7
BRANCH   4  30
ATOM     30  S   UNL     1      16.029 -47.572 -28.971  1.00  0.00     0.238 S 
ATOM     31  O   UNL     1      16.346 -48.687 -29.831  1.00  0.00    -0.207 OA
ATOM     32  O   UNL     1      17.036 -46.660 -28.477  1.00  0.00    -0.207 OA
BRANCH  30  33
ATOM     33  N   UNL     1      14.898 -46.608 -29.767  1.00  0.00    -0.225 NA
ATOM     34  H   UNL     1      15.187 -46.504 -30.741  1.00  0.00     0.137 HD
ATOM     35  H   UNL     1      14.756 -45.706 -29.314  1.00  0.00     0.137 HD
ENDBRANCH  30  33
ENDBRANCH   4  30
TORSDOF 7
ENDMDL
MODEL 5
REMARK VINA RESULT:    -8.635      4.645      7.889
REMARK INTER + INTRA:         -13.243
REMARK INTER:                 -11.839
REMARK INTRA:                  -1.404
REMARK UNBOUND:                -1.327
REMARK SMILES COc1ccc(OC)c([C@@H]2CC(c3cc(F)cc(F)c3)=NN2c2ccc(S(N)(=O)=O)cc2)c1
REMARK SMILES IDX 23 1 24 2 25 3 26 4 31 5 32 6 22 7 10 8 11 9 12 10 21 11
REMARK SMILES IDX 9 12 3 13 4 14 33 15 5 16 6 17 2 18 1 19 7 20 8 21 13 22
REMARK SMILES IDX 14 23 20 24 15 25 18 26 17 27 16 28 19 29 27 30 29 31 30 32
REMARK SMILES IDX 28 33
REMARK H PARENT 28 34 28 35
ROOT
ATOM      1  C   UNL     1      12.780 -47.418 -23.812  1.00  0.00     0.060 A 
ATOM      2  C   UNL     1      13.646 -46.397 -23.383  1.00  0.00     0.029 A 
ATOM      3  C   UNL     1      13.241 -45.057 -23.344  1.00  0.00     0.024 A 
ATOM      4  C   UNL     1      11.951 -44.717 -23.746  1.00  0.00     0.082 A 
ATOM      5  C   UNL     1      11.060 -45.701 -24.164  1.00  0.00     0.024 A 
ATOM      6  C   UNL     1      11.482 -47.035 -24.197  1.00  0.00     0.029 A 
ENDROOT
BRANCH   1   7
ATOM      7  N   UNL     1      13.172 -48.756 -23.863  1.00  0.00    -0.257 N 
ATOM      8  C   UNL     1      14.553 -49.247 -23.784  1.00  0.00     0.148 C 
ATOM      9  C   UNL     1      14.362 -50.727 -23.447  1.00  0.00     0.091 C 
ATOM     10  C   UNL     1      12.885 -50.872 -23.694  1.00  0.00     0.071 C 
ATOM     11  N   UNL     1      12.246 -49.759 -23.888  1.00  0.00    -0.176 NA
BRANCH   8  12
ATOM     12  C   UNL     1      15.335 -49.085 -25.085  1.00  0.00     0.023 A 
ATOM     13  C   UNL     1      15.389 -48.838 -27.515  1.00  0.00     0.119 A 
ATOM     14  C   UNL     1      16.781 -48.831 -27.468  1.00  0.00     0.050 A 
ATOM     15  C   UNL     1      14.673 -48.972 -26.327  1.00  0.00     0.056 A 
ATOM     16  C   UNL     1      17.457 -48.959 -26.251  1.00  0.00     0.050 A 
ATOM     17  C   UNL     1      16.744 -49.091 -25.058  1.00  0.00     0.124 A 
BRANCH  13  18
ATOM     18  O   UNL     1      14.856 -48.713 -28.767  1.00  0.00    -0.497 OA
ATOM     19  C   UNL     1      14.896 -47.418 -29.355  1.00  0.00     0.278 C 
ENDBRANCH  13  18
BRANCH  17  20
ATOM     20  O   UNL     1      17.317 -49.245 -23.823  1.00  0.00    -0.496 OA
ATOM     21  C   UNL     1      18.321 -50.245 -23.688  1.00  0.00     0.278 C 
ENDBRANCH  17  20
ENDBRANCH   8  12
BRANCH  10  22
ATOM     22  C   UNL     1      12.214 -52.191 -23.677  1.00  0.00     0.004 A 
ATOM     23  C   UNL     1      12.536 -53.127 -24.667  1.00  0.00     0.049 A 
ATOM     24  C   UNL     1      11.269 -52.518 -22.699  1.00  0.00     0.049 A 
ATOM     25  C   UNL     1      11.916 -54.373 -24.666  1.00  0.00     0.126 A 
ATOM     26  C   UNL     1      10.665 -53.773 -22.724  1.00  0.00     0.126 A 
ATOM     27  C   UNL     1      10.979 -54.708 -23.700  1.00  0.00     0.078 A 
ATOM     28  F   UNL     1      12.229 -55.265 -25.614  1.00  0.00    -0.207 F 
ATOM     29  F   UNL     1       9.761 -54.080 -21.786  1.00  0.00    -0.207 F 
ENDBRANCH  10  22
ENDBRANCH   1   7
BRANCH   4  30
ATOM     30  S   UNL     1      11.444 -43.021 -23.700  1.00  0.00     0.238 S 
ATOM     31  O   UNL     1      12.528 -42.203 -24.187  1.00  0.00    -0.207 OA
ATOM     32  O   UNL     1      10.784 -42.768 -22.440  1.00  0.00    -0.207 OA
BRANCH  30  33
ATOM     33  N   UNL     1      10.221 -43.006 -24.861  1.00  0.00    -0.225 NA
ATOM     34  H   UNL     1      10.600 -42.624 -25.729  1.00  0.00     0.137 HD
ATOM     35  H   UNL     1       9.389 -42.502 -24.556  1.00  0.00     0.137 HD
ENDBRANCH  30  33
ENDBRANCH   4  30
TORSDOF 7
ENDMDL
MODEL 6
REMARK VINA RESULT:    -8.625      3.283      6.017
REMARK INTER + INTRA:         -13.229
REMARK INTER:                 -11.949
REMARK INTRA:                  -1.280
REMARK UNBOUND:                -1.327
REMARK SMILES COc1ccc(OC)c([C@@H]2CC(c3cc(F)cc(F)c3)=NN2c2ccc(S(N)(=O)=O)cc2)c1
REMARK SMILES IDX 23 1 24 2 25 3 26 4 31 5 32 6 22 7 10 8 11 9 12 10 21 11
REMARK SMILES IDX 9 12 3 13 4 14 33 15 5 16 6 17 2 18 1 19 7 20 8 21 13 22
REMARK SMILES IDX 14 23 20 24 15 25 18 26 17 27 16 28 19 29 27 30 29 31 30 32
REMARK SMILES IDX 28 33
REMARK H PARENT 28 34 28 35
ROOT
ATOM      1  C   UNL     1      13.354 -51.665 -24.968  1.00  0.00     0.060 A 
ATOM      2  C   UNL     1      12.633 -51.562 -23.765  1.00  0.00     0.029 A 
ATOM      3  C   UNL     1      11.882 -52.631 -23.262  1.00  0.00     0.024 A 
ATOM      4  C   UNL     1      11.837 -53.831 -23.969  1.00  0.00     0.082 A 
ATOM      5  C   UNL     1      12.547 -53.977 -25.156  1.00  0.00     0.024 A 
ATOM      6  C   UNL     1      13.291 -52.897 -25.645  1.00  0.00     0.029 A 
ENDROOT
BRANCH   1   7
ATOM      7  N   UNL     1      14.099 -50.606 -25.485  1.00  0.00    -0.257 N 
ATOM      8  C   UNL     1      14.910 -49.667 -24.700  1.00  0.00     0.148 C 
ATOM      9  C   UNL     1      15.816 -49.040 -25.762  1.00  0.00     0.091 C 
ATOM     10  C   UNL     1      15.141 -49.529 -27.015  1.00  0.00     0.071 C 
ATOM     11  N   UNL     1      14.216 -50.421 -26.833  1.00  0.00    -0.176 NA
BRANCH   8  12
ATOM     12  C   UNL     1      14.087 -48.594 -23.991  1.00  0.00     0.023 A 
ATOM     13  C   UNL     1      12.234 -47.003 -23.974  1.00  0.00     0.119 A 
ATOM     14  C   UNL     1      12.613 -46.597 -22.696  1.00  0.00     0.050 A 
ATOM     15  C   UNL     1      12.974 -47.992 -24.618  1.00  0.00     0.056 A 
ATOM     16  C   UNL     1      13.721 -47.168 -22.064  1.00  0.00     0.050 A 
ATOM     17  C   UNL     1      14.465 -48.161 -22.704  1.00  0.00     0.124 A 
BRANCH  13  18
ATOM     18  O   UNL     1      11.138 -46.360 -24.478  1.00  0.00    -0.497 OA
ATOM     19  C   UNL     1      10.635 -45.263 -23.724  1.00  0.00     0.278 C 
ENDBRANCH  13  18
BRANCH  17  20
ATOM     20  O   UNL     1      15.579 -48.761 -22.176  1.00  0.00    -0.496 OA
ATOM     21  C   UNL     1      16.356 -48.002 -21.256  1.00  0.00     0.278 C 
ENDBRANCH  17  20
ENDBRANCH   8  12
BRANCH  10  22
ATOM     22  C   UNL     1      15.538 -49.046 -28.357  1.00  0.00     0.004 A 
ATOM     23  C   UNL     1      14.768 -48.054 -28.974  1.00  0.00     0.049 A 
ATOM     24  C   UNL     1      16.658 -49.561 -29.018  1.00  0.00     0.049 A 
ATOM     25  C   UNL     1      15.126 -47.587 -30.235  1.00  0.00     0.126 A 
ATOM     26  C   UNL     1      16.992 -49.074 -30.280  1.00  0.00     0.126 A 
ATOM     27  C   UNL     1      16.236 -48.088 -30.898  1.00  0.00     0.078 A 
ATOM     28  F   UNL     1      14.387 -46.635 -30.820  1.00  0.00    -0.207 F 
ATOM     29  F   UNL     1      18.065 -49.571 -30.907  1.00  0.00    -0.207 F 
ENDBRANCH  10  22
ENDBRANCH   1   7
BRANCH   4  30
ATOM     30  S   UNL     1      10.883 -55.180 -23.332  1.00  0.00     0.238 S 
ATOM     31  O   UNL     1       9.568 -55.134 -23.926  1.00  0.00    -0.207 OA
ATOM     32  O   UNL     1      11.089 -55.261 -21.904  1.00  0.00    -0.207 OA
BRANCH  30  33
ATOM     33  N   UNL     1      11.700 -56.503 -23.982  1.00  0.00    -0.225 NA
ATOM     34  H   UNL     1      11.919 -57.154 -23.227  1.00  0.00     0.137 HD
ATOM     35  H   UNL     1      12.532 -56.238 -24.509  1.00  0.00     0.137 HD
ENDBRANCH  30  33
ENDBRANCH   4  30
TORSDOF 7
ENDMDL
MODEL 7
REMARK VINA RESULT:    -8.534      2.142      2.705
REMARK INTER + INTRA:         -13.103
REMARK INTER:                 -11.563
REMARK INTRA:                  -1.540
REMARK UNBOUND:                -1.327
REMARK SMILES COc1ccc(OC)c([C@@H]2CC(c3cc(F)cc(F)c3)=NN2c2ccc(S(N)(=O)=O)cc2)c1
REMARK SMILES IDX 23 1 24 2 25 3 26 4 31 5 32 6 22 7 10 8 11 9 12 10 21 11
REMARK SMILES IDX 9 12 3 13 4 14 33 15 5 16 6 17 2 18 1 19 7 20 8 21 13 22
REMARK SMILES IDX 14 23 20 24 15 25 18 26 17 27 16 28 19 29 27 30 29 31 30 32
REMARK SMILES IDX 28 33
REMARK H PARENT 28 34 28 35
ROOT
ATOM      1  C   UNL     1      12.237 -50.703 -23.545  1.00  0.00     0.060 A 
ATOM      2  C   UNL     1      12.514 -51.907 -24.216  1.00  0.00     0.029 A 
ATOM      3  C   UNL     1      11.924 -53.117 -23.833  1.00  0.00     0.024 A 
ATOM      4  C   UNL     1      11.042 -53.140 -22.754  1.00  0.00     0.082 A 
ATOM      5  C   UNL     1      10.732 -51.968 -22.072  1.00  0.00     0.024 A 
ATOM      6  C   UNL     1      11.333 -50.768 -22.468  1.00  0.00     0.029 A 
ENDROOT
BRANCH   1   7
ATOM      7  N   UNL     1      12.824 -49.493 -23.910  1.00  0.00    -0.257 N 
ATOM      8  C   UNL     1      14.136 -49.335 -24.549  1.00  0.00     0.148 C 
ATOM      9  C   UNL     1      14.068 -47.911 -25.106  1.00  0.00     0.091 C 
ATOM     10  C   UNL     1      12.829 -47.410 -24.415  1.00  0.00     0.071 C 
ATOM     11  N   UNL     1      12.142 -48.315 -23.787  1.00  0.00    -0.176 NA
BRANCH   8  12
ATOM     12  C   UNL     1      15.308 -49.482 -23.583  1.00  0.00     0.023 A 
ATOM     13  C   UNL     1      16.526 -48.756 -21.594  1.00  0.00     0.119 A 
ATOM     14  C   UNL     1      17.486 -49.734 -21.842  1.00  0.00     0.050 A 
ATOM     15  C   UNL     1      15.448 -48.629 -22.466  1.00  0.00     0.056 A 
ATOM     16  C   UNL     1      17.377 -50.579 -22.951  1.00  0.00     0.050 A 
ATOM     17  C   UNL     1      16.297 -50.457 -23.827  1.00  0.00     0.124 A 
BRANCH  13  18
ATOM     18  O   UNL     1      16.757 -47.995 -20.482  1.00  0.00    -0.497 OA
ATOM     19  C   UNL     1      15.787 -47.002 -20.172  1.00  0.00     0.278 C 
ENDBRANCH  13  18
BRANCH  17  20
ATOM     20  O   UNL     1      16.117 -51.221 -24.951  1.00  0.00    -0.496 OA
ATOM     21  C   UNL     1      16.475 -52.596 -24.872  1.00  0.00     0.278 C 
ENDBRANCH  17  20
ENDBRANCH   8  12
BRANCH  10  22
ATOM     22  C   UNL     1      12.415 -45.991 -24.482  1.00  0.00     0.004 A 
ATOM     23  C   UNL     1      13.147 -45.110 -25.286  1.00  0.00     0.049 A 
ATOM     24  C   UNL     1      11.315 -45.516 -23.761  1.00  0.00     0.049 A 
ATOM     25  C   UNL     1      12.772 -43.772 -25.363  1.00  0.00     0.126 A 
ATOM     26  C   UNL     1      10.962 -44.171 -23.858  1.00  0.00     0.126 A 
ATOM     27  C   UNL     1      11.681 -43.290 -24.655  1.00  0.00     0.078 A 
ATOM     28  F   UNL     1      13.474 -42.934 -26.136  1.00  0.00    -0.207 F 
ATOM     29  F   UNL     1       9.908 -43.722 -23.166  1.00  0.00    -0.207 F 
ENDBRANCH  10  22
ENDBRANCH   1   7
BRANCH   4  30
ATOM     30  S   UNL     1      10.301 -54.673 -22.268  1.00  0.00     0.238 S 
ATOM     31  O   UNL     1       9.075 -54.388 -21.561  1.00  0.00    -0.207 OA
ATOM     32  O   UNL     1      11.327 -55.535 -21.729  1.00  0.00    -0.207 OA
BRANCH  30  33
ATOM     33  N   UNL     1       9.894 -55.336 -23.764  1.00  0.00    -0.225 NA
ATOM     34  H   UNL     1       9.018 -54.917 -24.080  1.00  0.00     0.137 HD
ATOM     35  H   UNL     1       9.843 -56.355 -23.747  1.00  0.00     0.137 HD
ENDBRANCH  30  33
ENDBRANCH   4  30
TORSDOF 7
ENDMDL
MODEL 8
REMARK VINA RESULT:    -8.339      3.730      6.304
REMARK INTER + INTRA:         -12.835
REMARK INTER:                 -11.555
REMARK INTRA:                  -1.280
REMARK UNBOUND:                -1.327
REMARK SMILES COc1ccc(OC)c([C@@H]2CC(c3cc(F)cc(F)c3)=NN2c2ccc(S(N)(=O)=O)cc2)c1
REMARK SMILES IDX 23 1 24 2 25 3 26 4 31 5 32 6 22 7 10 8 11 9 12 10 21 11
REMARK SMILES IDX 9 12 3 13 4 14 33 15 5 16 6 17 2 18 1 19 7 20 8 21 13 22
REMARK SMILES IDX 14 23 20 24 15 25 18 26 17 27 16 28 19 29 27 30 29 31 30 32
REMARK SMILES IDX 28 33
REMARK H PARENT 28 34 28 35
ROOT
ATOM      1  C   UNL     1      13.270 -50.763 -24.503  1.00  0.00     0.060 A 
ATOM      2  C   UNL     1      13.065 -52.120 -24.808  1.00  0.00     0.029 A 
ATOM      3  C   UNL     1      12.149 -52.904 -24.097  1.00  0.00     0.024 A 
ATOM      4  C   UNL     1      11.422 -52.336 -23.053  1.00  0.00     0.082 A 
ATOM      5  C   UNL     1      11.587 -50.993 -22.729  1.00  0.00     0.024 A 
ATOM      6  C   UNL     1      12.508 -50.224 -23.450  1.00  0.00     0.029 A 
ENDROOT
BRANCH   1   7
ATOM      7  N   UNL     1      14.184 -49.972 -25.197  1.00  0.00    -0.257 N 
ATOM      8  C   UNL     1      15.202 -49.106 -24.590  1.00  0.00     0.148 C 
ATOM      9  C   UNL     1      16.162 -48.851 -25.754  1.00  0.00     0.091 C 
ATOM     10  C   UNL     1      15.343 -49.382 -26.900  1.00  0.00     0.071 C 
ATOM     11  N   UNL     1      14.269 -50.028 -26.560  1.00  0.00    -0.176 NA
BRANCH   8  12
ATOM     12  C   UNL     1      14.644 -47.791 -24.052  1.00  0.00     0.023 A 
ATOM     13  C   UNL     1      13.345 -45.747 -24.369  1.00  0.00     0.119 A 
ATOM     14  C   UNL     1      13.662 -45.361 -23.068  1.00  0.00     0.050 A 
ATOM     15  C   UNL     1      13.841 -46.953 -24.857  1.00  0.00     0.056 A 
ATOM     16  C   UNL     1      14.469 -46.167 -22.260  1.00  0.00     0.050 A 
ATOM     17  C   UNL     1      14.967 -47.378 -22.743  1.00  0.00     0.124 A 
BRANCH  13  18
ATOM     18  O   UNL     1      12.555 -44.864 -25.052  1.00  0.00    -0.497 OA
ATOM     19  C   UNL     1      13.138 -44.224 -26.181  1.00  0.00     0.278 C 
ENDBRANCH  13  18
BRANCH  17  20
ATOM     20  O   UNL     1      15.783 -48.222 -22.036  1.00  0.00    -0.496 OA
ATOM     21  C   UNL     1      16.140 -47.831 -20.715  1.00  0.00     0.278 C 
ENDBRANCH  17  20
ENDBRANCH   8  12
BRANCH  10  22
ATOM     22  C   UNL     1      15.762 -49.207 -28.309  1.00  0.00     0.004 A 
ATOM     23  C   UNL     1      17.065 -49.559 -28.677  1.00  0.00     0.049 A 
ATOM     24  C   UNL     1      14.887 -48.695 -29.273  1.00  0.00     0.049 A 
ATOM     25  C   UNL     1      17.477 -49.402 -29.997  1.00  0.00     0.126 A 
ATOM     26  C   UNL     1      15.327 -48.549 -30.587  1.00  0.00     0.126 A 
ATOM     27  C   UNL     1      16.617 -48.898 -30.961  1.00  0.00     0.078 A 
ATOM     28  F   UNL     1      18.724 -49.744 -30.344  1.00  0.00    -0.207 F 
ATOM     29  F   UNL     1      14.485 -48.058 -31.505  1.00  0.00    -0.207 F 
ENDBRANCH  10  22
ENDBRANCH   1   7
BRANCH   4  30
ATOM     30  S   UNL     1      10.268 -53.331 -22.152  1.00  0.00     0.238 S 
ATOM     31  O   UNL     1      10.694 -53.399 -20.775  1.00  0.00    -0.207 OA
ATOM     32  O   UNL     1       9.965 -54.510 -22.932  1.00  0.00    -0.207 OA
BRANCH  30  33
ATOM     33  N   UNL     1       8.879 -52.377 -22.219  1.00  0.00    -0.225 NA
ATOM     34  H   UNL     1       8.711 -51.981 -21.293  1.00  0.00     0.137 HD
ATOM     35  H   UNL     1       8.066 -52.882 -22.569  1.00  0.00     0.137 HD
ENDBRANCH  30  33
ENDBRANCH   4  30
TORSDOF 7
ENDMDL
MODEL 9
REMARK VINA RESULT:    -8.328      4.418      7.172
REMARK INTER + INTRA:         -12.819
REMARK INTER:                 -11.281
REMARK INTRA:                  -1.538
REMARK UNBOUND:                -1.327
REMARK SMILES COc1ccc(OC)c([C@@H]2CC(c3cc(F)cc(F)c3)=NN2c2ccc(S(N)(=O)=O)cc2)c1
REMARK SMILES IDX 23 1 24 2 25 3 26 4 31 5 32 6 22 7 10 8 11 9 12 10 21 11
REMARK SMILES IDX 9 12 3 13 4 14 33 15 5 16 6 17 2 18 1 19 7 20 8 21 13 22
REMARK SMILES IDX 14 23 20 24 15 25 18 26 17 27 16 28 19 29 27 30 29 31 30 32
REMARK SMILES IDX 28 33
REMARK H PARENT 28 34 28 35
ROOT
ATOM      1  C   UNL     1      17.081 -51.193 -24.956  1.00  0.00     0.060 A 
ATOM      2  C   UNL     1      17.945 -51.915 -25.797  1.00  0.00     0.029 A 
ATOM      3  C   UNL     1      19.334 -51.897 -25.616  1.00  0.00     0.024 A 
ATOM      4  C   UNL     1      19.882 -51.141 -24.582  1.00  0.00     0.082 A 
ATOM      5  C   UNL     1      19.059 -50.424 -23.720  1.00  0.00     0.024 A 
ATOM      6  C   UNL     1      17.674 -50.452 -23.917  1.00  0.00     0.029 A 
ENDROOT
BRANCH   1   7
ATOM      7  N   UNL     1      15.697 -51.195 -25.129  1.00  0.00    -0.257 N 
ATOM      8  C   UNL     1      14.988 -50.825 -26.360  1.00  0.00     0.148 C 
ATOM      9  C   UNL     1      13.596 -51.420 -26.135  1.00  0.00     0.091 C 
ATOM     10  C   UNL     1      13.683 -51.766 -24.673  1.00  0.00     0.071 C 
ATOM     11  N   UNL     1      14.867 -51.663 -24.150  1.00  0.00    -0.176 NA
BRANCH   8  12
ATOM     12  C   UNL     1      14.901 -49.318 -26.586  1.00  0.00     0.023 A 
ATOM     13  C   UNL     1      14.090 -47.113 -25.916  1.00  0.00     0.119 A 
ATOM     14  C   UNL     1      14.712 -46.561 -27.034  1.00  0.00     0.050 A 
ATOM     15  C   UNL     1      14.180 -48.486 -25.701  1.00  0.00     0.056 A 
ATOM     16  C   UNL     1      15.416 -47.368 -27.933  1.00  0.00     0.050 A 
ATOM     17  C   UNL     1      15.512 -48.745 -27.719  1.00  0.00     0.124 A 
BRANCH  13  18
ATOM     18  O   UNL     1      13.430 -46.214 -25.126  1.00  0.00    -0.497 OA
ATOM     19  C   UNL     1      12.166 -46.618 -24.613  1.00  0.00     0.278 C 
ENDBRANCH  13  18
BRANCH  17  20
ATOM     20  O   UNL     1      16.158 -49.619 -28.555  1.00  0.00    -0.496 OA
ATOM     21  C   UNL     1      17.571 -49.493 -28.666  1.00  0.00     0.278 C 
ENDBRANCH  17  20
ENDBRANCH   8  12
BRANCH  10  22
ATOM     22  C   UNL     1      12.503 -52.223 -23.905  1.00  0.00     0.004 A 
ATOM     23  C   UNL     1      11.966 -51.382 -22.925  1.00  0.00     0.049 A 
ATOM     24  C   UNL     1      11.921 -53.474 -24.136  1.00  0.00     0.049 A 
ATOM     25  C   UNL     1      10.856 -51.794 -22.194  1.00  0.00     0.126 A 
ATOM     26  C   UNL     1      10.811 -53.860 -23.389  1.00  0.00     0.126 A 
ATOM     27  C   UNL     1      10.269 -53.031 -22.417  1.00  0.00     0.078 A 
ATOM     28  F   UNL     1      10.344 -50.984 -21.260  1.00  0.00    -0.207 F 
ATOM     29  F   UNL     1      10.258 -55.058 -23.615  1.00  0.00    -0.207 F 
ENDBRANCH  10  22
ENDBRANCH   1   7
BRANCH   4  30
ATOM     30  S   UNL     1      21.638 -51.117 -24.358  1.00  0.00     0.238 S 
ATOM     31  O   UNL     1      21.922 -51.069 -22.944  1.00  0.00    -0.207 OA
ATOM     32  O   UNL     1      22.213 -50.182 -25.299  1.00  0.00    -0.207 OA
BRANCH  30  33
ATOM     33  N   UNL     1      22.068 -52.646 -24.922  1.00  0.00    -0.225 NA
ATOM     34  H   UNL     1      21.526 -53.346 -24.413  1.00  0.00     0.137 HD
ATOM     35  H   UNL     1      23.071 -52.825 -24.862  1.00  0.00     0.137 HD
ENDBRANCH  30  33
ENDBRANCH   4  30
TORSDOF 7
ENDMDL
