MODEL 1
REMARK VINA RESULT:   -10.081      0.000      0.000
REMARK INTER + INTRA:         -10.081
REMARK INTER:                 -10.081
REMARK INTRA:                   0.000
REMARK UNBOUND:                 0.000
REMARK SMILES CC1=C[C@@H]2Cc3[nH]c4cc(Cl)ccc4c(=N)c3[C@H](C1)C2
REMARK SMILES IDX 7 1 6 2 17 3 15 4 14 5 13 6 12 7 10 8 11 9 9 10 8 11 18 12
REMARK SMILES IDX 19 13 2 14 1 15 3 16 4 17 5 18 20 19 16 21
REMARK H PARENT 7 20 16 22
ROOT
ATOM      1  N   UNL     1      10.637 -59.352 -21.655  1.00  0.00    -0.358 N 
ATOM      2  C   UNL     1      10.778 -61.031 -22.341  1.00  0.00     0.021 A 
ATOM      3  C   UNL     1      11.430 -61.297 -23.834  1.00  0.00     0.000 A 
ATOM      4  C   UNL     1      12.304 -59.808 -24.812  1.00  0.00     0.068 A 
ATOM      5  C   UNL     1      11.873 -58.049 -24.169  1.00  0.00     0.023 A 
ATOM      6  C   UNL     1      12.225 -56.904 -24.824  1.00  0.00     0.014 A 
ATOM      7  C   UNL     1      11.873 -55.704 -24.152  1.00  0.00     0.021 A 
ATOM      8  C   UNL     1      11.202 -55.596 -22.853  1.00  0.00     0.043 A 
ATOM      9  Cl  UNL     1      10.908 -53.989 -22.263  1.00  0.00    -0.084 Cl
ATOM     10  C   UNL     1      10.782 -56.664 -22.046  1.00  0.00     0.047 A 
ATOM     11  C   UNL     1      11.059 -57.873 -22.623  1.00  0.00     0.049 A 
ATOM     12  C   UNL     1      10.401 -61.669 -24.920  1.00  0.00     0.028 C 
ATOM     13  C   UNL     1      10.137 -60.234 -25.360  1.00  0.00     0.039 C 
ATOM     14  C   UNL     1      10.371 -59.515 -23.851  1.00  0.00    -0.076 C 
ATOM     15  C   UNL     1      12.251 -59.655 -22.833  1.00  0.00     0.039 C 
ATOM     16  C   UNL     1       9.015 -59.703 -23.443  1.00  0.00    -0.024 C 
ATOM     17  C   UNL     1       8.635 -61.233 -23.156  1.00  0.00     0.018 C 
ATOM     18  C   UNL     1       9.490 -61.718 -21.996  1.00  0.00     0.062 C 
ATOM     19  C   UNL     1       9.040 -62.140 -24.361  1.00  0.00     0.017 C 
ATOM     20  H   UNL     1       9.672 -59.185 -21.359  1.00  0.00     0.166 HD
ENDROOT
BRANCH   4  21
ATOM     21  N   UNL     1      13.113 -59.992 -25.807  1.00  0.00    -0.300 NA
ATOM     22  H   UNL     1      12.807 -60.799 -26.358  1.00  0.00     0.188 HD
ENDBRANCH   4  21
TORSDOF 1
ENDMDL
MODEL 2
REMARK VINA RESULT:    -9.923      3.017      5.575
REMARK INTER + INTRA:          -9.923
REMARK INTER:                  -9.923
REMARK INTRA:                   0.000
REMARK UNBOUND:                 0.000
REMARK SMILES CC1=C[C@@H]2Cc3[nH]c4cc(Cl)ccc4c(=N)c3[C@H](C1)C2
REMARK SMILES IDX 7 1 6 2 17 3 15 4 14 5 13 6 12 7 10 8 11 9 9 10 8 11 18 12
REMARK SMILES IDX 19 13 2 14 1 15 3 16 4 17 5 18 20 19 16 21
REMARK H PARENT 7 20 16 22
ROOT
ATOM      1  N   UNL     1      11.316 -60.558 -25.315  1.00  0.00    -0.358 N 
ATOM      2  C   UNL     1      11.815 -60.018 -23.651  1.00  0.00     0.021 A 
ATOM      3  C   UNL     1      11.054 -60.584 -22.300  1.00  0.00     0.000 A 
ATOM      4  C   UNL     1       9.737 -62.061 -22.451  1.00  0.00     0.068 A 
ATOM      5  C   UNL     1       9.067 -62.375 -24.225  1.00  0.00     0.023 A 
ATOM      6  C   UNL     1       8.026 -63.215 -24.495  1.00  0.00     0.014 A 
ATOM      7  C   UNL     1       7.726 -63.363 -25.875  1.00  0.00     0.021 A 
ATOM      8  C   UNL     1       8.426 -62.724 -26.993  1.00  0.00     0.043 A 
ATOM      9  Cl  UNL     1       7.848 -63.100 -28.587  1.00  0.00    -0.084 Cl
ATOM     10  C   UNL     1       9.516 -61.846 -26.896  1.00  0.00     0.047 A 
ATOM     11  C   UNL     1       9.868 -61.621 -25.593  1.00  0.00     0.049 A 
ATOM     12  C   UNL     1      10.126 -59.561 -21.618  1.00  0.00     0.028 C 
ATOM     13  C   UNL     1       8.882 -59.953 -22.406  1.00  0.00     0.039 C 
ATOM     14  C   UNL     1       9.675 -60.379 -23.834  1.00  0.00    -0.076 C 
ATOM     15  C   UNL     1      11.120 -61.961 -23.872  1.00  0.00     0.039 C 
ATOM     16  C   UNL     1       9.659 -59.049 -24.354  1.00  0.00    -0.024 C 
ATOM     17  C   UNL     1      10.637 -58.043 -23.580  1.00  0.00     0.018 C 
ATOM     18  C   UNL     1      12.061 -58.543 -23.761  1.00  0.00     0.062 C 
ATOM     19  C   UNL     1      10.385 -58.098 -22.041  1.00  0.00     0.017 C 
ATOM     20  H   UNL     1      11.135 -59.738 -25.899  1.00  0.00     0.166 HD
ENDROOT
BRANCH   4  21
ATOM     21  N   UNL     1       9.354 -62.774 -21.440  1.00  0.00    -0.300 NA
ATOM     22  H   UNL     1       9.685 -62.349 -20.570  1.00  0.00     0.188 HD
ENDBRANCH   4  21
TORSDOF 1
ENDMDL
MODEL 3
REMARK VINA RESULT:    -9.772      3.416      5.432
REMARK INTER + INTRA:          -9.772
REMARK INTER:                  -9.772
REMARK INTRA:                   0.000
REMARK UNBOUND:                 0.000
REMARK SMILES CC1=C[C@@H]2Cc3[nH]c4cc(Cl)ccc4c(=N)c3[C@H](C1)C2
REMARK SMILES IDX 7 1 6 2 17 3 15 4 14 5 13 6 12 7 10 8 11 9 9 10 8 11 18 12
REMARK SMILES IDX 19 13 2 14 1 15 3 16 4 17 5 18 20 19 16 21
REMARK H PARENT 7 20 16 22
ROOT
ATOM      1  N   UNL     1       8.415 -60.634 -23.395  1.00  0.00    -0.358 N 
ATOM      2  C   UNL     1       9.656 -59.303 -23.374  1.00  0.00     0.021 A 
ATOM      3  C   UNL     1      10.595 -58.985 -24.693  1.00  0.00     0.000 A 
ATOM      4  C   UNL     1      10.220 -59.888 -26.419  1.00  0.00     0.068 A 
ATOM      5  C   UNL     1       9.108 -61.451 -26.294  1.00  0.00     0.023 A 
ATOM      6  C   UNL     1       8.895 -62.305 -27.337  1.00  0.00     0.014 A 
ATOM      7  C   UNL     1       7.989 -63.364 -27.062  1.00  0.00     0.021 A 
ATOM      8  C   UNL     1       7.278 -63.597 -25.802  1.00  0.00     0.043 A 
ATOM      9  Cl  UNL     1       6.215 -64.970 -25.754  1.00  0.00    -0.084 Cl
ATOM     10  C   UNL     1       7.373 -62.817 -24.639  1.00  0.00     0.047 A 
ATOM     11  C   UNL     1       8.247 -61.777 -24.799  1.00  0.00     0.049 A 
ATOM     12  C   UNL     1      12.063 -59.434 -24.551  1.00  0.00     0.028 C 
ATOM     13  C   UNL     1      11.839 -60.827 -25.126  1.00  0.00     0.039 C 
ATOM     14  C   UNL     1      10.260 -61.026 -24.562  1.00  0.00    -0.076 C 
ATOM     15  C   UNL     1       8.690 -59.700 -25.167  1.00  0.00     0.039 C 
ATOM     16  C   UNL     1      10.674 -61.549 -23.299  1.00  0.00    -0.024 C 
ATOM     17  C   UNL     1      11.358 -60.458 -22.344  1.00  0.00     0.018 C 
ATOM     18  C   UNL     1      10.321 -59.392 -22.033  1.00  0.00     0.062 C 
ATOM     19  C   UNL     1      12.500 -59.703 -23.094  1.00  0.00     0.017 C 
ATOM     20  H   UNL     1       8.564 -61.251 -22.593  1.00  0.00     0.166 HD
ENDROOT
BRANCH   4  21
ATOM     21  N   UNL     1      10.675 -59.464 -27.555  1.00  0.00    -0.300 NA
ATOM     22  H   UNL     1      11.303 -60.162 -27.959  1.00  0.00     0.188 HD
ENDBRANCH   4  21
TORSDOF 1
ENDMDL
MODEL 4
REMARK VINA RESULT:    -9.767      3.040      4.204
REMARK INTER + INTRA:          -9.767
REMARK INTER:                  -9.767
REMARK INTRA:                   0.000
REMARK UNBOUND:                 0.000
REMARK SMILES CC1=C[C@@H]2Cc3[nH]c4cc(Cl)ccc4c(=N)c3[C@H](C1)C2
REMARK SMILES IDX 7 1 6 2 17 3 15 4 14 5 13 6 12 7 10 8 11 9 9 10 8 11 18 12
REMARK SMILES IDX 19 13 2 14 1 15 3 16 4 17 5 18 20 19 16 21
REMARK H PARENT 7 20 16 22
ROOT
ATOM      1  N   UNL     1       8.283 -60.615 -25.506  1.00  0.00    -0.358 N 
ATOM      2  C   UNL     1       7.963 -60.930 -23.743  1.00  0.00     0.021 A 
ATOM      3  C   UNL     1       9.162 -60.806 -22.616  1.00  0.00     0.000 A 
ATOM      4  C   UNL     1      10.930 -60.066 -23.129  1.00  0.00     0.068 A 
ATOM      5  C   UNL     1      11.278 -60.025 -25.019  1.00  0.00     0.023 A 
ATOM      6  C   UNL     1      12.499 -59.728 -25.551  1.00  0.00     0.014 A 
ATOM      7  C   UNL     1      12.534 -59.684 -26.970  1.00  0.00     0.021 A 
ATOM      8  C   UNL     1      11.405 -59.908 -27.877  1.00  0.00     0.043 A 
ATOM      9  Cl  UNL     1      11.737 -59.777 -29.577  1.00  0.00    -0.084 Cl
ATOM     10  C   UNL     1      10.087 -60.212 -27.502  1.00  0.00     0.047 A 
ATOM     11  C   UNL     1       9.956 -60.299 -26.143  1.00  0.00     0.049 A 
ATOM     12  C   UNL     1       9.665 -62.157 -22.071  1.00  0.00     0.028 C 
ATOM     13  C   UNL     1      10.755 -62.334 -23.121  1.00  0.00     0.039 C 
ATOM     14  C   UNL     1       9.949 -61.553 -24.382  1.00  0.00    -0.076 C 
ATOM     15  C   UNL     1       9.379 -59.494 -24.229  1.00  0.00     0.039 C 
ATOM     16  C   UNL     1       9.266 -62.734 -24.805  1.00  0.00    -0.024 C 
ATOM     17  C   UNL     1       8.133 -63.225 -23.784  1.00  0.00     0.018 C 
ATOM     18  C   UNL     1       7.074 -62.138 -23.703  1.00  0.00     0.062 C 
ATOM     19  C   UNL     1       8.704 -63.337 -22.335  1.00  0.00     0.017 C 
ATOM     20  H   UNL     1       7.956 -61.411 -26.059  1.00  0.00     0.166 HD
ENDROOT
BRANCH   4  21
ATOM     21  N   UNL     1      11.793 -59.631 -22.267  1.00  0.00    -0.300 NA
ATOM     22  H   UNL     1      11.960 -60.344 -21.553  1.00  0.00     0.188 HD
ENDBRANCH   4  21
TORSDOF 1
ENDMDL
MODEL 5
REMARK VINA RESULT:    -8.773      7.968     11.724
REMARK INTER + INTRA:          -8.773
REMARK INTER:                  -8.773
REMARK INTRA:                   0.000
REMARK UNBOUND:                 0.000
REMARK SMILES CC1=C[C@@H]2Cc3[nH]c4cc(Cl)ccc4c(=N)c3[C@H](C1)C2
REMARK SMILES IDX 7 1 6 2 17 3 15 4 14 5 13 6 12 7 10 8 11 9 9 10 8 11 18 12
REMARK SMILES IDX 19 13 2 14 1 15 3 16 4 17 5 18 20 19 16 21
REMARK H PARENT 7 20 16 22
ROOT
ATOM      1  N   UNL     1      14.095 -49.349 -22.980  1.00  0.00    -0.358 N 
ATOM      2  C   UNL     1      14.232 -47.541 -23.131  1.00  0.00     0.021 A 
ATOM      3  C   UNL     1      12.919 -46.561 -22.931  1.00  0.00     0.000 A 
ATOM      4  C   UNL     1      11.207 -47.320 -22.275  1.00  0.00     0.068 A 
ATOM      5  C   UNL     1      11.061 -49.231 -22.408  1.00  0.00     0.023 A 
ATOM      6  C   UNL     1       9.899 -49.912 -22.184  1.00  0.00     0.014 A 
ATOM      7  C   UNL     1      10.014 -51.325 -22.267  1.00  0.00     0.021 A 
ATOM      8  C   UNL     1      11.234 -52.086 -22.548  1.00  0.00     0.043 A 
ATOM      9  Cl  UNL     1      11.082 -53.816 -22.575  1.00  0.00    -0.084 Cl
ATOM     10  C   UNL     1      12.508 -51.550 -22.791  1.00  0.00     0.047 A 
ATOM     11  C   UNL     1      12.496 -50.182 -22.755  1.00  0.00     0.049 A 
ATOM     12  C   UNL     1      12.376 -45.952 -24.238  1.00  0.00     0.028 C 
ATOM     13  C   UNL     1      11.404 -47.088 -24.529  1.00  0.00     0.039 C 
ATOM     14  C   UNL     1      12.330 -48.324 -23.848  1.00  0.00    -0.076 C 
ATOM     15  C   UNL     1      12.859 -48.299 -21.772  1.00  0.00     0.039 C 
ATOM     16  C   UNL     1      13.067 -48.566 -25.048  1.00  0.00    -0.024 C 
ATOM     17  C   UNL     1      14.091 -47.392 -25.423  1.00  0.00     0.018 C 
ATOM     18  C   UNL     1      15.124 -47.300 -24.312  1.00  0.00     0.062 C 
ATOM     19  C   UNL     1      13.372 -46.006 -25.418  1.00  0.00     0.017 C 
ATOM     20  H   UNL     1      14.488 -49.791 -23.814  1.00  0.00     0.166 HD
ENDROOT
BRANCH   4  21
ATOM     21  N   UNL     1      10.253 -46.595 -21.783  1.00  0.00    -0.300 NA
ATOM     22  H   UNL     1       9.710 -46.175 -22.541  1.00  0.00     0.188 HD
ENDBRANCH   4  21
TORSDOF 1
ENDMDL
MODEL 6
REMARK VINA RESULT:    -8.679      3.577      6.017
REMARK INTER + INTRA:          -8.679
REMARK INTER:                  -8.679
REMARK INTRA:                   0.000
REMARK UNBOUND:                 0.000
REMARK SMILES CC1=C[C@@H]2Cc3[nH]c4cc(Cl)ccc4c(=N)c3[C@H](C1)C2
REMARK SMILES IDX 7 1 6 2 17 3 15 4 14 5 13 6 12 7 10 8 11 9 9 10 8 11 18 12
REMARK SMILES IDX 19 13 2 14 1 15 3 16 4 17 5 18 20 19 16 21
REMARK H PARENT 7 20 16 22
ROOT
ATOM      1  N   UNL     1      10.201 -60.476 -25.058  1.00  0.00    -0.358 N 
ATOM      2  C   UNL     1       9.704 -60.013 -23.370  1.00  0.00     0.021 A 
ATOM      3  C   UNL     1       8.435 -60.751 -22.616  1.00  0.00     0.000 A 
ATOM      4  C   UNL     1       7.578 -62.337 -23.443  1.00  0.00     0.068 A 
ATOM      5  C   UNL     1       7.958 -62.586 -25.311  1.00  0.00     0.023 A 
ATOM      6  C   UNL     1       7.317 -63.504 -26.091  1.00  0.00     0.014 A 
ATOM      7  C   UNL     1       7.789 -63.580 -27.428  1.00  0.00     0.021 A 
ATOM      8  C   UNL     1       8.877 -62.793 -28.014  1.00  0.00     0.043 A 
ATOM      9  Cl  UNL     1       9.251 -63.107 -29.681  1.00  0.00    -0.084 Cl
ATOM     10  C   UNL     1       9.644 -61.819 -27.357  1.00  0.00     0.047 A 
ATOM     11  C   UNL     1       9.247 -61.656 -26.058  1.00  0.00     0.049 A 
ATOM     12  C   UNL     1       7.169 -59.880 -22.502  1.00  0.00     0.028 C 
ATOM     13  C   UNL     1       6.566 -60.336 -23.825  1.00  0.00     0.039 C 
ATOM     14  C   UNL     1       8.026 -60.573 -24.640  1.00  0.00    -0.076 C 
ATOM     15  C   UNL     1       9.469 -61.994 -23.941  1.00  0.00     0.039 C 
ATOM     16  C   UNL     1       8.113 -59.217 -25.078  1.00  0.00    -0.024 C 
ATOM     17  C   UNL     1       8.421 -58.177 -23.898  1.00  0.00     0.018 C 
ATOM     18  C   UNL     1       9.786 -58.516 -23.321  1.00  0.00     0.062 C 
ATOM     19  C   UNL     1       7.424 -58.371 -22.714  1.00  0.00     0.017 C 
ATOM     20  H   UNL     1      10.245 -59.637 -25.642  1.00  0.00     0.166 HD
ENDROOT
BRANCH   4  21
ATOM     21  N   UNL     1       6.822 -63.158 -22.786  1.00  0.00    -0.300 NA
ATOM     22  H   UNL     1       6.910 -62.982 -21.781  1.00  0.00     0.188 HD
ENDBRANCH   4  21
TORSDOF 1
ENDMDL
MODEL 7
REMARK VINA RESULT:    -8.664      2.808      4.572
REMARK INTER + INTRA:          -8.664
REMARK INTER:                  -8.664
REMARK INTRA:                   0.000
REMARK UNBOUND:                 0.000
REMARK SMILES CC1=C[C@@H]2Cc3[nH]c4cc(Cl)ccc4c(=N)c3[C@H](C1)C2
REMARK SMILES IDX 7 1 6 2 17 3 15 4 14 5 13 6 12 7 10 8 11 9 9 10 8 11 18 12
REMARK SMILES IDX 19 13 2 14 1 15 3 16 4 17 5 18 20 19 16 21
REMARK H PARENT 7 20 16 22
ROOT
ATOM      1  N   UNL     1      12.604 -59.572 -24.614  1.00  0.00    -0.358 N 
ATOM      2  C   UNL     1      12.036 -60.039 -22.950  1.00  0.00     0.021 A 
ATOM      3  C   UNL     1      10.721 -61.012 -22.733  1.00  0.00     0.000 A 
ATOM      4  C   UNL     1       9.876 -61.898 -24.293  1.00  0.00     0.068 A 
ATOM      5  C   UNL     1      10.339 -61.151 -26.003  1.00  0.00     0.023 A 
ATOM      6  C   UNL     1       9.720 -61.500 -27.167  1.00  0.00     0.014 A 
ATOM      7  C   UNL     1      10.252 -60.885 -28.331  1.00  0.00     0.021 A 
ATOM      8  C   UNL     1      11.380 -59.952 -28.385  1.00  0.00     0.043 A 
ATOM      9  Cl  UNL     1      11.826 -59.364 -29.958  1.00  0.00    -0.084 Cl
ATOM     10  C   UNL     1      12.132 -59.495 -27.292  1.00  0.00     0.047 A 
ATOM     11  C   UNL     1      11.677 -60.019 -26.112  1.00  0.00     0.049 A 
ATOM     12  C   UNL     1       9.466 -60.279 -22.219  1.00  0.00     0.028 C 
ATOM     13  C   UNL     1       8.918 -59.953 -23.603  1.00  0.00     0.039 C 
ATOM     14  C   UNL     1      10.410 -59.788 -24.376  1.00  0.00    -0.076 C 
ATOM     15  C   UNL     1      11.794 -61.419 -24.480  1.00  0.00     0.039 C 
ATOM     16  C   UNL     1      10.541 -58.406 -24.038  1.00  0.00    -0.024 C 
ATOM     17  C   UNL     1      10.812 -58.148 -22.479  1.00  0.00     0.018 C 
ATOM     18  C   UNL     1      12.142 -58.792 -22.122  1.00  0.00     0.062 C 
ATOM     19  C   UNL     1       9.757 -58.893 -21.602  1.00  0.00     0.017 C 
ATOM     20  H   UNL     1      12.690 -58.554 -24.672  1.00  0.00     0.166 HD
ENDROOT
BRANCH   4  21
ATOM     21  N   UNL     1       9.077 -62.911 -24.186  1.00  0.00    -0.300 NA
ATOM     22  H   UNL     1       8.441 -62.769 -23.397  1.00  0.00     0.188 HD
ENDBRANCH   4  21
TORSDOF 1
ENDMDL
MODEL 8
REMARK VINA RESULT:    -7.813      9.758     12.491
REMARK INTER + INTRA:          -7.813
REMARK INTER:                  -7.813
REMARK INTRA:                   0.000
REMARK UNBOUND:                 0.000
REMARK SMILES CC1=C[C@@H]2Cc3[nH]c4cc(Cl)ccc4c(=N)c3[C@H](C1)C2
REMARK SMILES IDX 7 1 6 2 17 3 15 4 14 5 13 6 12 7 10 8 11 9 9 10 8 11 18 12
REMARK SMILES IDX 19 13 2 14 1 15 3 16 4 17 5 18 20 19 16 21
REMARK H PARENT 7 20 16 22
ROOT
ATOM      1  N   UNL     1      14.024 -46.187 -24.276  1.00  0.00    -0.358 N 
ATOM      2  C   UNL     1      13.128 -45.870 -22.725  1.00  0.00     0.021 A 
ATOM      3  C   UNL     1      12.341 -47.079 -21.925  1.00  0.00     0.000 A 
ATOM      4  C   UNL     1      12.563 -48.962 -22.510  1.00  0.00     0.068 A 
ATOM      5  C   UNL     1      13.274 -49.184 -24.282  1.00  0.00     0.023 A 
ATOM      6  C   UNL     1      13.323 -50.387 -24.925  1.00  0.00     0.014 A 
ATOM      7  C   UNL     1      13.946 -50.353 -26.201  1.00  0.00     0.021 A 
ATOM      8  C   UNL     1      14.533 -49.180 -26.853  1.00  0.00     0.043 A 
ATOM      9  Cl  UNL     1      15.245 -49.437 -28.417  1.00  0.00    -0.084 Cl
ATOM     10  C   UNL     1      14.578 -47.877 -26.333  1.00  0.00     0.047 A 
ATOM     11  C   UNL     1      13.977 -47.802 -25.106  1.00  0.00     0.049 A 
ATOM     12  C   UNL     1      10.804 -47.019 -22.035  1.00  0.00     0.028 C 
ATOM     13  C   UNL     1      10.720 -47.879 -23.290  1.00  0.00     0.039 C 
ATOM     14  C   UNL     1      12.186 -47.389 -23.968  1.00  0.00    -0.076 C 
ATOM     15  C   UNL     1      14.044 -47.717 -22.955  1.00  0.00     0.039 C 
ATOM     16  C   UNL     1      11.613 -46.260 -24.631  1.00  0.00    -0.024 C 
ATOM     17  C   UNL     1      11.165 -45.088 -23.635  1.00  0.00     0.018 C 
ATOM     18  C   UNL     1      12.409 -44.570 -22.932  1.00  0.00     0.062 C 
ATOM     19  C   UNL     1      10.261 -45.647 -22.491  1.00  0.00     0.017 C 
ATOM     20  H   UNL     1      13.705 -45.532 -24.994  1.00  0.00     0.166 HD
ENDROOT
BRANCH   4  21
ATOM     21  N   UNL     1      12.264 -49.977 -21.763  1.00  0.00    -0.300 NA
ATOM     22  H   UNL     1      12.128 -49.667 -20.797  1.00  0.00     0.188 HD
ENDBRANCH   4  21
TORSDOF 1
ENDMDL
MODEL 9
REMARK VINA RESULT:    -7.621      6.661     10.143
REMARK INTER + INTRA:          -7.621
REMARK INTER:                  -7.621
REMARK INTRA:                   0.000
REMARK UNBOUND:                 0.000
REMARK SMILES CC1=C[C@@H]2Cc3[nH]c4cc(Cl)ccc4c(=N)c3[C@H](C1)C2
REMARK SMILES IDX 7 1 6 2 17 3 15 4 14 5 13 6 12 7 10 8 11 9 9 10 8 11 18 12
REMARK SMILES IDX 19 13 2 14 1 15 3 16 4 17 5 18 20 19 16 21
REMARK H PARENT 7 20 16 22
ROOT
ATOM      1  N   UNL     1      13.255 -49.721 -22.635  1.00  0.00    -0.358 N 
ATOM      2  C   UNL     1      14.403 -48.593 -23.483  1.00  0.00     0.021 A 
ATOM      3  C   UNL     1      14.965 -48.920 -25.000  1.00  0.00     0.000 A 
ATOM      4  C   UNL     1      14.202 -50.432 -26.034  1.00  0.00     0.068 A 
ATOM      5  C   UNL     1      13.224 -51.718 -24.993  1.00  0.00     0.023 A 
ATOM      6  C   UNL     1      12.789 -52.912 -25.491  1.00  0.00     0.014 A 
ATOM      7  C   UNL     1      12.027 -53.693 -24.582  1.00  0.00     0.021 A 
ATOM      8  C   UNL     1      11.669 -53.329 -23.208  1.00  0.00     0.043 A 
ATOM      9  Cl  UNL     1      10.710 -54.478 -22.326  1.00  0.00    -0.084 Cl
ATOM     10  C   UNL     1      12.022 -52.144 -22.545  1.00  0.00     0.047 A 
ATOM     11  C   UNL     1      12.783 -51.329 -23.338  1.00  0.00     0.049 A 
ATOM     12  C   UNL     1      16.438 -49.372 -25.049  1.00  0.00     0.028 C 
ATOM     13  C   UNL     1      16.133 -50.858 -24.910  1.00  0.00     0.039 C 
ATOM     14  C   UNL     1      14.758 -50.692 -23.944  1.00  0.00    -0.076 C 
ATOM     15  C   UNL     1      13.032 -49.633 -24.642  1.00  0.00     0.039 C 
ATOM     16  C   UNL     1      15.500 -50.668 -22.723  1.00  0.00    -0.024 C 
ATOM     17  C   UNL     1      16.358 -49.330 -22.517  1.00  0.00     0.018 C 
ATOM     18  C   UNL     1      15.390 -48.161 -22.439  1.00  0.00     0.062 C 
ATOM     19  C   UNL     1      17.240 -49.038 -23.772  1.00  0.00     0.017 C 
ATOM     20  H   UNL     1      13.627 -49.955 -21.712  1.00  0.00     0.166 HD
ENDROOT
BRANCH   4  21
ATOM     21  N   UNL     1      14.336 -50.553 -27.316  1.00  0.00    -0.300 NA
ATOM     22  H   UNL     1      15.116 -51.182 -27.525  1.00  0.00     0.188 HD
ENDBRANCH   4  21
TORSDOF 1
ENDMDL
