MODEL 1
REMARK VINA RESULT:   -11.296      0.000      0.000
REMARK INTER + INTRA:         -17.300
REMARK INTER:                 -16.579
REMARK INTRA:                  -0.720
REMARK UNBOUND:                -0.720
REMARK SMILES COc1cc2c(cc1OC)S[C@@H](C(=O)CCc1cc[n+](Cc3ccccc3)cc1)C2
REMARK SMILES IDX 15 1 13 2 14 3 12 4 3 5 4 6 8 7 5 8 7 9 6 10 30 11 11 12
REMARK SMILES IDX 2 13 1 14 9 15 10 16 16 17 17 18 18 19 29 20 19 21 28 22
REMARK SMILES IDX 20 23 21 24 22 25 23 26 27 27 24 28 26 29 25 30
REMARK H PARENT
ROOT
ATOM      1  C   UNL     1      10.445 -54.896 -22.971  1.00  0.00     0.081 C 
ENDROOT
BRANCH   1   2
ATOM      2  C   UNL     1      10.487 -53.428 -22.564  1.00  0.00     0.146 C 
ATOM      3  O   UNL     1       9.504 -52.911 -22.020  1.00  0.00    -0.298 OA
BRANCH   2   4
ATOM      4  C   UNL     1      11.748 -52.617 -22.809  1.00  0.00     0.123 C 
ATOM      5  C   UNL     1      14.078 -49.971 -26.110  1.00  0.00     0.161 A 
ATOM      6  C   UNL     1      13.647 -51.265 -25.783  1.00  0.00     0.055 A 
ATOM      7  C   UNL     1      13.668 -48.864 -25.334  1.00  0.00     0.161 A 
ATOM      8  C   UNL     1      12.852 -51.464 -24.663  1.00  0.00    -0.029 A 
ATOM      9  C   UNL     1      12.861 -49.081 -24.207  1.00  0.00     0.065 A 
ATOM     10  C   UNL     1      12.468 -50.374 -23.886  1.00  0.00     0.015 A 
ATOM     11  C   UNL     1      12.303 -52.791 -24.229  1.00  0.00     0.059 C 
ATOM     12  S   UNL     1      11.445 -50.841 -22.522  1.00  0.00    -0.114 SA
BRANCH   5  13
ATOM     13  O   UNL     1      14.846 -49.930 -27.247  1.00  0.00    -0.493 OA
ATOM     14  C   UNL     1      16.256 -49.955 -27.049  1.00  0.00     0.278 C 
ENDBRANCH   5  13
BRANCH   7  15
ATOM     15  O   UNL     1      14.062 -47.621 -25.754  1.00  0.00    -0.493 OA
ATOM     16  C   UNL     1      13.411 -46.485 -25.198  1.00  0.00     0.278 C 
ENDBRANCH   7  15
ENDBRANCH   2   4
ENDBRANCH   1   2
BRANCH   1  17
ATOM     17  C   UNL     1      11.013 -55.820 -21.892  1.00  0.00     0.044 C 
BRANCH  17  18
ATOM     18  C   UNL     1      11.316 -57.216 -22.388  1.00  0.00    -0.036 A 
ATOM     19  C   UNL     1      11.757 -57.422 -23.696  1.00  0.00     0.074 A 
ATOM     20  C   UNL     1      11.111 -58.327 -21.572  1.00  0.00     0.074 A 
ATOM     21  C   UNL     1      11.957 -58.715 -24.162  1.00  0.00     0.308 A 
ATOM     22  C   UNL     1      11.329 -59.604 -22.080  1.00  0.00     0.308 A 
ATOM     23  N   UNL     1      11.744 -59.779 -23.357  1.00  0.00    -0.201 N 
BRANCH  23  24
ATOM     24  C   UNL     1      11.935 -61.153 -23.882  1.00  0.00     0.393 C 
BRANCH  24  25
ATOM     25  C   UNL     1      10.644 -61.929 -23.868  1.00  0.00     0.017 A 
ATOM     26  C   UNL     1       9.720 -61.809 -24.917  1.00  0.00     0.010 A 
ATOM     27  C   UNL     1      10.343 -62.783 -22.794  1.00  0.00     0.010 A 
ATOM     28  C   UNL     1       8.530 -62.538 -24.899  1.00  0.00     0.001 A 
ATOM     29  C   UNL     1       9.151 -63.508 -22.780  1.00  0.00     0.001 A 
ATOM     30  C   UNL     1       8.248 -63.387 -23.832  1.00  0.00     0.000 A 
ENDBRANCH  24  25
ENDBRANCH  23  24
ENDBRANCH  17  18
ENDBRANCH   1  17
TORSDOF 8
ENDMDL
MODEL 2
REMARK VINA RESULT:   -10.909      1.132      2.300
REMARK INTER + INTRA:         -16.731
REMARK INTER:                 -16.140
REMARK INTRA:                  -0.591
REMARK UNBOUND:                -0.720
REMARK SMILES COc1cc2c(cc1OC)S[C@@H](C(=O)CCc1cc[n+](Cc3ccccc3)cc1)C2
REMARK SMILES IDX 15 1 13 2 14 3 12 4 3 5 4 6 8 7 5 8 7 9 6 10 30 11 11 12
REMARK SMILES IDX 2 13 1 14 9 15 10 16 16 17 17 18 18 19 29 20 19 21 28 22
REMARK SMILES IDX 20 23 21 24 22 25 23 26 27 27 24 28 26 29 25 30
REMARK H PARENT
ROOT
ATOM      1  C   UNL     1      10.299 -55.344 -22.351  1.00  0.00     0.081 C 
ENDROOT
BRANCH   1   2
ATOM      2  C   UNL     1      10.603 -53.899 -21.974  1.00  0.00     0.146 C 
ATOM      3  O   UNL     1      10.640 -53.567 -20.784  1.00  0.00    -0.298 OA
BRANCH   2   4
ATOM      4  C   UNL     1      10.883 -52.881 -23.067  1.00  0.00     0.123 C 
ATOM      5  C   UNL     1      14.228 -49.843 -24.771  1.00  0.00     0.161 A 
ATOM      6  C   UNL     1      13.359 -50.098 -23.700  1.00  0.00     0.055 A 
ATOM      7  C   UNL     1      14.402 -50.801 -25.794  1.00  0.00     0.161 A 
ATOM      8  C   UNL     1      12.630 -51.278 -23.671  1.00  0.00    -0.029 A 
ATOM      9  C   UNL     1      13.660 -51.991 -25.749  1.00  0.00     0.065 A 
ATOM     10  C   UNL     1      12.785 -52.212 -24.692  1.00  0.00     0.015 A 
ATOM     11  C   UNL     1      11.696 -51.678 -22.568  1.00  0.00     0.059 C 
ATOM     12  S   UNL     1      11.784 -53.649 -24.455  1.00  0.00    -0.114 SA
BRANCH   5  13
ATOM     13  O   UNL     1      14.887 -48.644 -24.657  1.00  0.00    -0.493 OA
ATOM     14  C   UNL     1      14.116 -47.552 -24.166  1.00  0.00     0.278 C 
ENDBRANCH   5  13
BRANCH   7  15
ATOM     15  O   UNL     1      15.323 -50.522 -26.769  1.00  0.00    -0.493 OA
ATOM     16  C   UNL     1      14.973 -49.582 -27.777  1.00  0.00     0.278 C 
ENDBRANCH   7  15
ENDBRANCH   2   4
ENDBRANCH   1   2
BRANCH   1  17
ATOM     17  C   UNL     1      11.185 -56.343 -21.605  1.00  0.00     0.044 C 
BRANCH  17  18
ATOM     18  C   UNL     1      11.188 -57.726 -22.216  1.00  0.00    -0.036 A 
ATOM     19  C   UNL     1      10.898 -58.846 -21.435  1.00  0.00     0.074 A 
ATOM     20  C   UNL     1      11.533 -57.918 -23.553  1.00  0.00     0.074 A 
ATOM     21  C   UNL     1      10.981 -60.116 -21.991  1.00  0.00     0.308 A 
ATOM     22  C   UNL     1      11.598 -59.209 -24.068  1.00  0.00     0.308 A 
ATOM     23  N   UNL     1      11.325 -60.281 -23.288  1.00  0.00    -0.201 N 
BRANCH  23  24
ATOM     24  C   UNL     1      11.436 -61.646 -23.855  1.00  0.00     0.393 C 
BRANCH  24  25
ATOM     25  C   UNL     1      10.113 -62.366 -23.815  1.00  0.00     0.017 A 
ATOM     26  C   UNL     1       9.781 -63.203 -22.738  1.00  0.00     0.010 A 
ATOM     27  C   UNL     1       9.193 -62.213 -24.864  1.00  0.00     0.010 A 
ATOM     28  C   UNL     1       8.550 -63.860 -22.706  1.00  0.00     0.001 A 
ATOM     29  C   UNL     1       7.964 -62.873 -24.827  1.00  0.00     0.001 A 
ATOM     30  C   UNL     1       7.643 -63.693 -23.749  1.00  0.00     0.000 A 
ENDBRANCH  24  25
ENDBRANCH  23  24
ENDBRANCH  17  18
ENDBRANCH   1  17
TORSDOF 8
ENDMDL
MODEL 3
REMARK VINA RESULT:   -10.853      1.395      2.149
REMARK INTER + INTRA:         -16.649
REMARK INTER:                 -15.784
REMARK INTRA:                  -0.865
REMARK UNBOUND:                -0.720
REMARK SMILES COc1cc2c(cc1OC)S[C@@H](C(=O)CCc1cc[n+](Cc3ccccc3)cc1)C2
REMARK SMILES IDX 15 1 13 2 14 3 12 4 3 5 4 6 8 7 5 8 7 9 6 10 30 11 11 12
REMARK SMILES IDX 2 13 1 14 9 15 10 16 16 17 17 18 18 19 29 20 19 21 28 22
REMARK SMILES IDX 20 23 21 24 22 25 23 26 27 27 24 28 26 29 25 30
REMARK H PARENT
ROOT
ATOM      1  C   UNL     1      10.050 -55.575 -22.190  1.00  0.00     0.081 C 
ENDROOT
BRANCH   1   2
ATOM      2  C   UNL     1      10.379 -54.410 -23.115  1.00  0.00     0.146 C 
ATOM      3  O   UNL     1      10.005 -54.433 -24.293  1.00  0.00    -0.298 OA
BRANCH   2   4
ATOM      4  C   UNL     1      11.145 -53.214 -22.574  1.00  0.00     0.123 C 
ATOM      5  C   UNL     1      13.110 -48.982 -23.818  1.00  0.00     0.161 A 
ATOM      6  C   UNL     1      13.206 -50.372 -23.971  1.00  0.00     0.055 A 
ATOM      7  C   UNL     1      12.000 -48.410 -23.156  1.00  0.00     0.161 A 
ATOM      8  C   UNL     1      12.227 -51.194 -23.429  1.00  0.00    -0.029 A 
ATOM      9  C   UNL     1      11.018 -49.255 -22.616  1.00  0.00     0.065 A 
ATOM     10  C   UNL     1      11.146 -50.631 -22.757  1.00  0.00     0.015 A 
ATOM     11  C   UNL     1      12.202 -52.689 -23.555  1.00  0.00     0.059 C 
ATOM     12  S   UNL     1      10.009 -51.847 -22.163  1.00  0.00    -0.114 SA
BRANCH   5  13
ATOM     13  O   UNL     1      14.141 -48.301 -24.415  1.00  0.00    -0.493 OA
ATOM     14  C   UNL     1      14.080 -48.193 -25.833  1.00  0.00     0.278 C 
ENDBRANCH   5  13
BRANCH   7  15
ATOM     15  O   UNL     1      11.931 -47.043 -23.107  1.00  0.00    -0.493 OA
ATOM     16  C   UNL     1      11.080 -46.379 -24.032  1.00  0.00     0.278 C 
ENDBRANCH   7  15
ENDBRANCH   2   4
ENDBRANCH   1   2
BRANCH   1  17
ATOM     17  C   UNL     1      11.287 -56.394 -21.816  1.00  0.00     0.044 C 
BRANCH  17  18
ATOM     18  C   UNL     1      11.243 -57.821 -22.314  1.00  0.00    -0.036 A 
ATOM     19  C   UNL     1      10.834 -58.854 -21.469  1.00  0.00     0.074 A 
ATOM     20  C   UNL     1      11.660 -58.143 -23.604  1.00  0.00     0.074 A 
ATOM     21  C   UNL     1      10.874 -60.168 -21.915  1.00  0.00     0.308 A 
ATOM     22  C   UNL     1      11.678 -59.473 -24.010  1.00  0.00     0.308 A 
ATOM     23  N   UNL     1      11.288 -60.459 -23.168  1.00  0.00    -0.201 N 
BRANCH  23  24
ATOM     24  C   UNL     1      11.351 -61.872 -23.616  1.00  0.00     0.393 C 
BRANCH  24  25
ATOM     25  C   UNL     1       9.971 -62.447 -23.809  1.00  0.00     0.017 A 
ATOM     26  C   UNL     1       9.410 -63.309 -22.854  1.00  0.00     0.010 A 
ATOM     27  C   UNL     1       9.227 -62.131 -24.957  1.00  0.00     0.010 A 
ATOM     28  C   UNL     1       8.129 -63.831 -23.038  1.00  0.00     0.001 A 
ATOM     29  C   UNL     1       7.947 -62.656 -25.136  1.00  0.00     0.001 A 
ATOM     30  C   UNL     1       7.399 -63.502 -24.176  1.00  0.00     0.000 A 
ENDBRANCH  24  25
ENDBRANCH  23  24
ENDBRANCH  17  18
ENDBRANCH   1  17
TORSDOF 8
ENDMDL
MODEL 4
REMARK VINA RESULT:   -10.598      1.554      2.643
REMARK INTER + INTRA:         -16.275
REMARK INTER:                 -15.689
REMARK INTRA:                  -0.586
REMARK UNBOUND:                -0.720
REMARK SMILES COc1cc2c(cc1OC)S[C@@H](C(=O)CCc1cc[n+](Cc3ccccc3)cc1)C2
REMARK SMILES IDX 15 1 13 2 14 3 12 4 3 5 4 6 8 7 5 8 7 9 6 10 30 11 11 12
REMARK SMILES IDX 2 13 1 14 9 15 10 16 16 17 17 18 18 19 29 20 19 21 28 22
REMARK SMILES IDX 20 23 21 24 22 25 23 26 27 27 24 28 26 29 25 30
REMARK H PARENT
ROOT
ATOM      1  C   UNL     1      10.684 -55.218 -22.504  1.00  0.00     0.081 C 
ENDROOT
BRANCH   1   2
ATOM      2  C   UNL     1      10.634 -53.825 -21.889  1.00  0.00     0.146 C 
ATOM      3  O   UNL     1      10.616 -53.693 -20.660  1.00  0.00    -0.298 OA
BRANCH   2   4
ATOM      4  C   UNL     1      10.632 -52.604 -22.795  1.00  0.00     0.123 C 
ATOM      5  C   UNL     1      12.042 -47.995 -23.092  1.00  0.00     0.161 A 
ATOM      6  C   UNL     1      11.174 -48.882 -22.438  1.00  0.00     0.055 A 
ATOM      7  C   UNL     1      13.040 -48.484 -23.965  1.00  0.00     0.161 A 
ATOM      8  C   UNL     1      11.267 -50.244 -22.687  1.00  0.00    -0.029 A 
ATOM      9  C   UNL     1      13.122 -49.864 -24.203  1.00  0.00     0.065 A 
ATOM     10  C   UNL     1      12.236 -50.722 -23.564  1.00  0.00     0.015 A 
ATOM     11  C   UNL     1      10.421 -51.292 -22.027  1.00  0.00     0.059 C 
ATOM     12  S   UNL     1      12.196 -52.482 -23.724  1.00  0.00    -0.114 SA
BRANCH   5  13
ATOM     13  O   UNL     1      11.839 -46.684 -22.739  1.00  0.00    -0.493 OA
ATOM     14  C   UNL     1      10.569 -46.136 -23.076  1.00  0.00     0.278 C 
ENDBRANCH   5  13
BRANCH   7  15
ATOM     15  O   UNL     1      13.902 -47.569 -24.511  1.00  0.00    -0.493 OA
ATOM     16  C   UNL     1      15.180 -47.406 -23.909  1.00  0.00     0.278 C 
ENDBRANCH   7  15
ENDBRANCH   2   4
ENDBRANCH   1   2
BRANCH   1  17
ATOM     17  C   UNL     1      11.034 -56.299 -21.479  1.00  0.00     0.044 C 
BRANCH  17  18
ATOM     18  C   UNL     1      11.235 -57.669 -22.087  1.00  0.00    -0.036 A 
ATOM     19  C   UNL     1      11.637 -57.800 -23.418  1.00  0.00     0.074 A 
ATOM     20  C   UNL     1      10.971 -58.824 -21.355  1.00  0.00     0.074 A 
ATOM     21  C   UNL     1      11.741 -59.063 -23.986  1.00  0.00     0.308 A 
ATOM     22  C   UNL     1      11.095 -60.069 -21.964  1.00  0.00     0.308 A 
ATOM     23  N   UNL     1      11.474 -60.171 -23.260  1.00  0.00    -0.201 N 
BRANCH  23  24
ATOM     24  C   UNL     1      11.563 -61.509 -23.893  1.00  0.00     0.393 C 
BRANCH  24  25
ATOM     25  C   UNL     1      10.242 -62.232 -23.835  1.00  0.00     0.017 A 
ATOM     26  C   UNL     1       9.933 -63.085 -22.764  1.00  0.00     0.010 A 
ATOM     27  C   UNL     1       9.300 -62.065 -24.863  1.00  0.00     0.010 A 
ATOM     28  C   UNL     1       8.704 -63.744 -22.717  1.00  0.00     0.001 A 
ATOM     29  C   UNL     1       8.073 -62.727 -24.811  1.00  0.00     0.001 A 
ATOM     30  C   UNL     1       7.775 -63.563 -23.738  1.00  0.00     0.000 A 
ENDBRANCH  24  25
ENDBRANCH  23  24
ENDBRANCH  17  18
ENDBRANCH   1  17
TORSDOF 8
ENDMDL
MODEL 5
REMARK VINA RESULT:   -10.214      1.674      2.904
REMARK INTER + INTRA:         -15.712
REMARK INTER:                 -15.301
REMARK INTRA:                  -0.411
REMARK UNBOUND:                -0.720
REMARK SMILES COc1cc2c(cc1OC)S[C@@H](C(=O)CCc1cc[n+](Cc3ccccc3)cc1)C2
REMARK SMILES IDX 15 1 13 2 14 3 12 4 3 5 4 6 8 7 5 8 7 9 6 10 30 11 11 12
REMARK SMILES IDX 2 13 1 14 9 15 10 16 16 17 17 18 18 19 29 20 19 21 28 22
REMARK SMILES IDX 20 23 21 24 22 25 23 26 27 27 24 28 26 29 25 30
REMARK H PARENT
ROOT
ATOM      1  C   UNL     1      11.384 -56.370 -23.080  1.00  0.00     0.081 C 
ENDROOT
BRANCH   1   2
ATOM      2  C   UNL     1      10.878 -54.983 -22.706  1.00  0.00     0.146 C 
ATOM      3  O   UNL     1      10.387 -54.786 -21.589  1.00  0.00    -0.298 OA
BRANCH   2   4
ATOM      4  C   UNL     1      11.006 -53.843 -23.703  1.00  0.00     0.123 C 
ATOM      5  C   UNL     1      13.667 -49.982 -24.859  1.00  0.00     0.161 A 
ATOM      6  C   UNL     1      12.789 -50.518 -23.905  1.00  0.00     0.055 A 
ATOM      7  C   UNL     1      14.159 -50.788 -25.910  1.00  0.00     0.161 A 
ATOM      8  C   UNL     1      12.365 -51.834 -24.022  1.00  0.00    -0.029 A 
ATOM      9  C   UNL     1      13.724 -52.118 -26.012  1.00  0.00     0.065 A 
ATOM     10  C   UNL     1      12.833 -52.621 -25.071  1.00  0.00     0.015 A 
ATOM     11  C   UNL     1      11.456 -52.528 -23.051  1.00  0.00     0.059 C 
ATOM     12  S   UNL     1      12.188 -54.266 -25.026  1.00  0.00    -0.114 SA
BRANCH   5  13
ATOM     13  O   UNL     1      14.005 -48.676 -24.607  1.00  0.00    -0.493 OA
ATOM     14  C   UNL     1      12.994 -47.708 -24.867  1.00  0.00     0.278 C 
ENDBRANCH   5  13
BRANCH   7  15
ATOM     15  O   UNL     1      15.072 -50.224 -26.761  1.00  0.00    -0.493 OA
ATOM     16  C   UNL     1      16.452 -50.328 -26.434  1.00  0.00     0.278 C 
ENDBRANCH   7  15
ENDBRANCH   2   4
ENDBRANCH   1   2
BRANCH   1  17
ATOM     17  C   UNL     1      11.306 -57.358 -21.914  1.00  0.00     0.044 C 
BRANCH  17  18
ATOM     18  C   UNL     1      10.468 -58.581 -22.210  1.00  0.00    -0.036 A 
ATOM     19  C   UNL     1      10.876 -59.841 -21.769  1.00  0.00     0.074 A 
ATOM     20  C   UNL     1       9.306 -58.487 -22.973  1.00  0.00     0.074 A 
ATOM     21  C   UNL     1      10.138 -60.966 -22.115  1.00  0.00     0.308 A 
ATOM     22  C   UNL     1       8.596 -59.640 -23.291  1.00  0.00     0.308 A 
ATOM     23  N   UNL     1       9.018 -60.853 -22.862  1.00  0.00    -0.201 N 
BRANCH  23  24
ATOM     24  C   UNL     1       8.259 -62.069 -23.246  1.00  0.00     0.393 C 
BRANCH  24  25
ATOM     25  C   UNL     1       8.357 -62.331 -24.726  1.00  0.00     0.017 A 
ATOM     26  C   UNL     1       9.283 -61.638 -25.521  1.00  0.00     0.010 A 
ATOM     27  C   UNL     1       7.513 -63.274 -25.335  1.00  0.00     0.010 A 
ATOM     28  C   UNL     1       9.371 -61.893 -26.890  1.00  0.00     0.001 A 
ATOM     29  C   UNL     1       7.605 -63.524 -26.704  1.00  0.00     0.001 A 
ATOM     30  C   UNL     1       8.535 -62.837 -27.479  1.00  0.00     0.000 A 
ENDBRANCH  24  25
ENDBRANCH  23  24
ENDBRANCH  17  18
ENDBRANCH   1  17
TORSDOF 8
ENDMDL
MODEL 6
REMARK VINA RESULT:    -9.972      1.343      1.785
REMARK INTER + INTRA:         -15.357
REMARK INTER:                 -14.592
REMARK INTRA:                  -0.764
REMARK UNBOUND:                -0.720
REMARK SMILES COc1cc2c(cc1OC)S[C@@H](C(=O)CCc1cc[n+](Cc3ccccc3)cc1)C2
REMARK SMILES IDX 15 1 13 2 14 3 12 4 3 5 4 6 8 7 5 8 7 9 6 10 30 11 11 12
REMARK SMILES IDX 2 13 1 14 9 15 10 16 16 17 17 18 18 19 29 20 19 21 28 22
REMARK SMILES IDX 20 23 21 24 22 25 23 26 27 27 24 28 26 29 25 30
REMARK H PARENT
ROOT
ATOM      1  C   UNL     1      10.807 -53.984 -21.966  1.00  0.00     0.081 C 
ENDROOT
BRANCH   1   2
ATOM      2  C   UNL     1      10.129 -52.619 -21.965  1.00  0.00     0.146 C 
ATOM      3  O   UNL     1       8.895 -52.543 -21.970  1.00  0.00    -0.298 OA
BRANCH   2   4
ATOM      4  C   UNL     1      10.979 -51.360 -21.931  1.00  0.00     0.123 C 
ATOM      5  C   UNL     1      13.096 -48.036 -24.723  1.00  0.00     0.161 A 
ATOM      6  C   UNL     1      13.113 -49.386 -24.345  1.00  0.00     0.055 A 
ATOM      7  C   UNL     1      12.048 -47.188 -24.298  1.00  0.00     0.161 A 
ATOM      8  C   UNL     1      12.121 -49.881 -23.510  1.00  0.00    -0.029 A 
ATOM      9  C   UNL     1      11.051 -47.704 -23.456  1.00  0.00     0.065 A 
ATOM     10  C   UNL     1      11.103 -49.039 -23.073  1.00  0.00     0.015 A 
ATOM     11  C   UNL     1      12.014 -51.309 -23.064  1.00  0.00     0.059 C 
ATOM     12  S   UNL     1       9.935 -49.868 -22.037  1.00  0.00    -0.114 SA
BRANCH   5  13
ATOM     13  O   UNL     1      14.131 -47.695 -25.558  1.00  0.00    -0.493 OA
ATOM     14  C   UNL     1      14.630 -48.737 -26.391  1.00  0.00     0.278 C 
ENDBRANCH   5  13
BRANCH   7  15
ATOM     15  O   UNL     1      12.051 -45.901 -24.766  1.00  0.00    -0.493 OA
ATOM     16  C   UNL     1      11.683 -44.858 -23.871  1.00  0.00     0.278 C 
ENDBRANCH   7  15
ENDBRANCH   2   4
ENDBRANCH   1   2
BRANCH   1  17
ATOM     17  C   UNL     1      10.596 -54.742 -23.279  1.00  0.00     0.044 C 
BRANCH  17  18
ATOM     18  C   UNL     1      11.090 -56.170 -23.240  1.00  0.00    -0.036 A 
ATOM     19  C   UNL     1      11.842 -56.688 -24.296  1.00  0.00     0.074 A 
ATOM     20  C   UNL     1      10.760 -57.015 -22.182  1.00  0.00     0.074 A 
ATOM     21  C   UNL     1      12.221 -58.024 -24.284  1.00  0.00     0.308 A 
ATOM     22  C   UNL     1      11.166 -58.345 -22.210  1.00  0.00     0.308 A 
ATOM     23  N   UNL     1      11.884 -58.828 -23.251  1.00  0.00    -0.201 N 
BRANCH  23  24
ATOM     24  C   UNL     1      12.274 -60.259 -23.271  1.00  0.00     0.393 C 
BRANCH  24  25
ATOM     25  C   UNL     1      11.140 -61.129 -23.746  1.00  0.00     0.017 A 
ATOM     26  C   UNL     1      10.700 -61.075 -25.078  1.00  0.00     0.010 A 
ATOM     27  C   UNL     1      10.500 -62.006 -22.856  1.00  0.00     0.010 A 
ATOM     28  C   UNL     1       9.653 -61.890 -25.510  1.00  0.00     0.001 A 
ATOM     29  C   UNL     1       9.454 -62.819 -23.294  1.00  0.00     0.001 A 
ATOM     30  C   UNL     1       9.033 -62.762 -24.620  1.00  0.00     0.000 A 
ENDBRANCH  24  25
ENDBRANCH  23  24
ENDBRANCH  17  18
ENDBRANCH   1  17
TORSDOF 8
ENDMDL
MODEL 7
REMARK VINA RESULT:    -9.476      2.301      3.486
REMARK INTER + INTRA:         -14.628
REMARK INTER:                 -13.448
REMARK INTRA:                  -1.180
REMARK UNBOUND:                -0.720
REMARK SMILES COc1cc2c(cc1OC)S[C@@H](C(=O)CCc1cc[n+](Cc3ccccc3)cc1)C2
REMARK SMILES IDX 15 1 13 2 14 3 12 4 3 5 4 6 8 7 5 8 7 9 6 10 30 11 11 12
REMARK SMILES IDX 2 13 1 14 9 15 10 16 16 17 17 18 18 19 29 20 19 21 28 22
REMARK SMILES IDX 20 23 21 24 22 25 23 26 27 27 24 28 26 29 25 30
REMARK H PARENT
ROOT
ATOM      1  C   UNL     1      10.895 -51.375 -21.556  1.00  0.00     0.081 C 
ENDROOT
BRANCH   1   2
ATOM      2  C   UNL     1      11.265 -50.126 -22.347  1.00  0.00     0.146 C 
ATOM      3  O   UNL     1      10.393 -49.301 -22.640  1.00  0.00    -0.298 OA
BRANCH   2   4
ATOM      4  C   UNL     1      12.713 -49.892 -22.745  1.00  0.00     0.123 C 
ATOM      5  C   UNL     1      16.223 -51.435 -25.681  1.00  0.00     0.161 A 
ATOM      6  C   UNL     1      15.427 -51.777 -24.579  1.00  0.00     0.055 A 
ATOM      7  C   UNL     1      15.963 -50.255 -26.413  1.00  0.00     0.161 A 
ATOM      8  C   UNL     1      14.407 -50.926 -24.176  1.00  0.00    -0.029 A 
ATOM      9  C   UNL     1      14.927 -49.407 -25.995  1.00  0.00     0.065 A 
ATOM     10  C   UNL     1      14.166 -49.751 -24.884  1.00  0.00     0.015 A 
ATOM     11  C   UNL     1      13.469 -51.195 -23.037  1.00  0.00     0.059 C 
ATOM     12  S   UNL     1      12.816 -48.824 -24.220  1.00  0.00    -0.114 SA
BRANCH   5  13
ATOM     13  O   UNL     1      17.181 -52.376 -25.967  1.00  0.00    -0.493 OA
ATOM     14  C   UNL     1      18.446 -52.189 -25.339  1.00  0.00     0.278 C 
ENDBRANCH   5  13
BRANCH   7  15
ATOM     15  O   UNL     1      16.730 -50.020 -27.523  1.00  0.00    -0.493 OA
ATOM     16  C   UNL     1      17.603 -48.897 -27.515  1.00  0.00     0.278 C 
ENDBRANCH   7  15
ENDBRANCH   2   4
ENDBRANCH   1   2
BRANCH   1  17
ATOM     17  C   UNL     1       9.956 -52.302 -22.331  1.00  0.00     0.044 C 
BRANCH  17  18
ATOM     18  C   UNL     1      10.521 -53.686 -22.558  1.00  0.00    -0.036 A 
ATOM     19  C   UNL     1      10.993 -54.059 -23.818  1.00  0.00     0.074 A 
ATOM     20  C   UNL     1      10.533 -54.633 -21.536  1.00  0.00     0.074 A 
ATOM     21  C   UNL     1      11.437 -55.358 -24.033  1.00  0.00     0.308 A 
ATOM     22  C   UNL     1      10.992 -55.920 -21.796  1.00  0.00     0.308 A 
ATOM     23  N   UNL     1      11.433 -56.263 -23.029  1.00  0.00    -0.201 N 
BRANCH  23  24
ATOM     24  C   UNL     1      11.883 -57.653 -23.285  1.00  0.00     0.393 C 
BRANCH  24  25
ATOM     25  C   UNL     1      10.848 -58.654 -22.843  1.00  0.00     0.017 A 
ATOM     26  C   UNL     1      11.087 -59.504 -21.752  1.00  0.00     0.010 A 
ATOM     27  C   UNL     1       9.626 -58.756 -23.527  1.00  0.00     0.010 A 
ATOM     28  C   UNL     1      10.119 -60.423 -21.346  1.00  0.00     0.001 A 
ATOM     29  C   UNL     1       8.662 -59.678 -23.118  1.00  0.00     0.001 A 
ATOM     30  C   UNL     1       8.908 -60.508 -22.027  1.00  0.00     0.000 A 
ENDBRANCH  24  25
ENDBRANCH  23  24
ENDBRANCH  17  18
ENDBRANCH   1  17
TORSDOF 8
ENDMDL
MODEL 8
REMARK VINA RESULT:    -9.184      2.182      3.402
REMARK INTER + INTRA:         -14.200
REMARK INTER:                 -13.400
REMARK INTRA:                  -0.800
REMARK UNBOUND:                -0.720
REMARK SMILES COc1cc2c(cc1OC)S[C@@H](C(=O)CCc1cc[n+](Cc3ccccc3)cc1)C2
REMARK SMILES IDX 15 1 13 2 14 3 12 4 3 5 4 6 8 7 5 8 7 9 6 10 30 11 11 12
REMARK SMILES IDX 2 13 1 14 9 15 10 16 16 17 17 18 18 19 29 20 19 21 28 22
REMARK SMILES IDX 20 23 21 24 22 25 23 26 27 27 24 28 26 29 25 30
REMARK H PARENT
ROOT
ATOM      1  C   UNL     1      10.876 -51.293 -21.704  1.00  0.00     0.081 C 
ENDROOT
BRANCH   1   2
ATOM      2  C   UNL     1      10.754 -49.866 -22.227  1.00  0.00     0.146 C 
ATOM      3  O   UNL     1       9.647 -49.318 -22.271  1.00  0.00    -0.298 OA
BRANCH   2   4
ATOM      4  C   UNL     1      12.002 -49.119 -22.667  1.00  0.00     0.123 C 
ATOM      5  C   UNL     1      14.420 -47.555 -26.543  1.00  0.00     0.161 A 
ATOM      6  C   UNL     1      14.011 -48.696 -25.838  1.00  0.00     0.055 A 
ATOM      7  C   UNL     1      13.938 -46.278 -26.178  1.00  0.00     0.161 A 
ATOM      8  C   UNL     1      13.166 -48.565 -24.746  1.00  0.00    -0.029 A 
ATOM      9  C   UNL     1      13.081 -46.162 -25.073  1.00  0.00     0.065 A 
ATOM     10  C   UNL     1      12.710 -47.304 -24.372  1.00  0.00     0.015 A 
ATOM     11  C   UNL     1      12.635 -49.709 -23.934  1.00  0.00     0.059 C 
ATOM     12  S   UNL     1      11.632 -47.359 -22.973  1.00  0.00    -0.114 SA
BRANCH   5  13
ATOM     13  O   UNL     1      15.244 -47.841 -27.603  1.00  0.00    -0.493 OA
ATOM     14  C   UNL     1      15.444 -49.223 -27.883  1.00  0.00     0.278 C 
ENDBRANCH   5  13
BRANCH   7  15
ATOM     15  O   UNL     1      14.316 -45.215 -26.955  1.00  0.00    -0.493 OA
ATOM     16  C   UNL     1      15.150 -44.220 -26.376  1.00  0.00     0.278 C 
ENDBRANCH   7  15
ENDBRANCH   2   4
ENDBRANCH   1   2
BRANCH   1  17
ATOM     17  C   UNL     1       9.901 -52.253 -22.387  1.00  0.00     0.044 C 
BRANCH  17  18
ATOM     18  C   UNL     1      10.475 -53.631 -22.628  1.00  0.00    -0.036 A 
ATOM     19  C   UNL     1      10.965 -53.982 -23.888  1.00  0.00     0.074 A 
ATOM     20  C   UNL     1      10.479 -54.593 -21.621  1.00  0.00     0.074 A 
ATOM     21  C   UNL     1      11.417 -55.276 -24.116  1.00  0.00     0.308 A 
ATOM     22  C   UNL     1      10.947 -55.875 -21.894  1.00  0.00     0.308 A 
ATOM     23  N   UNL     1      11.405 -56.196 -23.127  1.00  0.00    -0.201 N 
BRANCH  23  24
ATOM     24  C   UNL     1      11.865 -57.579 -23.399  1.00  0.00     0.393 C 
BRANCH  24  25
ATOM     25  C   UNL     1      10.861 -58.595 -22.918  1.00  0.00     0.017 A 
ATOM     26  C   UNL     1      11.194 -59.517 -21.913  1.00  0.00     0.010 A 
ATOM     27  C   UNL     1       9.574 -58.637 -23.477  1.00  0.00     0.010 A 
ATOM     28  C   UNL     1      10.255 -60.449 -21.469  1.00  0.00     0.001 A 
ATOM     29  C   UNL     1       8.639 -59.572 -23.029  1.00  0.00     0.001 A 
ATOM     30  C   UNL     1       8.980 -60.474 -22.025  1.00  0.00     0.000 A 
ENDBRANCH  24  25
ENDBRANCH  23  24
ENDBRANCH  17  18
ENDBRANCH   1  17
TORSDOF 8
ENDMDL
MODEL 9
REMARK VINA RESULT:    -9.057      2.606      4.290
REMARK INTER + INTRA:         -14.014
REMARK INTER:                 -13.202
REMARK INTRA:                  -0.812
REMARK UNBOUND:                -0.720
REMARK SMILES COc1cc2c(cc1OC)S[C@@H](C(=O)CCc1cc[n+](Cc3ccccc3)cc1)C2
REMARK SMILES IDX 15 1 13 2 14 3 12 4 3 5 4 6 8 7 5 8 7 9 6 10 30 11 11 12
REMARK SMILES IDX 2 13 1 14 9 15 10 16 16 17 17 18 18 19 29 20 19 21 28 22
REMARK SMILES IDX 20 23 21 24 22 25 23 26 27 27 24 28 26 29 25 30
REMARK H PARENT
ROOT
ATOM      1  C   UNL     1      11.295 -51.429 -21.618  1.00  0.00     0.081 C 
ENDROOT
BRANCH   1   2
ATOM      2  C   UNL     1      12.297 -50.935 -22.656  1.00  0.00     0.146 C 
ATOM      3  O   UNL     1      13.405 -51.474 -22.748  1.00  0.00    -0.298 OA
BRANCH   2   4
ATOM      4  C   UNL     1      11.913 -49.797 -23.587  1.00  0.00     0.123 C 
ATOM      5  C   UNL     1      12.236 -45.019 -24.209  1.00  0.00     0.161 A 
ATOM      6  C   UNL     1      11.674 -46.031 -23.416  1.00  0.00     0.055 A 
ATOM      7  C   UNL     1      13.196 -45.335 -25.196  1.00  0.00     0.161 A 
ATOM      8  C   UNL     1      12.028 -47.354 -23.636  1.00  0.00    -0.029 A 
ATOM      9  C   UNL     1      13.546 -46.678 -25.403  1.00  0.00     0.065 A 
ATOM     10  C   UNL     1      12.957 -47.666 -24.624  1.00  0.00     0.015 A 
ATOM     11  C   UNL     1      11.522 -48.518 -22.836  1.00  0.00     0.059 C 
ATOM     12  S   UNL     1      13.281 -49.401 -24.726  1.00  0.00    -0.114 SA
BRANCH   5  13
ATOM     13  O   UNL     1      11.800 -43.763 -23.869  1.00  0.00    -0.493 OA
ATOM     14  C   UNL     1      10.422 -43.651 -23.525  1.00  0.00     0.278 C 
ENDBRANCH   5  13
BRANCH   7  15
ATOM     15  O   UNL     1      13.761 -44.292 -25.881  1.00  0.00    -0.493 OA
ATOM     16  C   UNL     1      14.936 -43.694 -25.348  1.00  0.00     0.278 C 
ENDBRANCH   7  15
ENDBRANCH   2   4
ENDBRANCH   1   2
BRANCH   1  17
ATOM     17  C   UNL     1      10.218 -52.329 -22.226  1.00  0.00     0.044 C 
BRANCH  17  18
ATOM     18  C   UNL     1      10.694 -53.734 -22.518  1.00  0.00    -0.036 A 
ATOM     19  C   UNL     1      11.092 -54.092 -23.808  1.00  0.00     0.074 A 
ATOM     20  C   UNL     1      10.696 -54.712 -21.526  1.00  0.00     0.074 A 
ATOM     21  C   UNL     1      11.452 -55.406 -24.079  1.00  0.00     0.308 A 
ATOM     22  C   UNL     1      11.071 -56.014 -21.843  1.00  0.00     0.308 A 
ATOM     23  N   UNL     1      11.440 -56.340 -23.104  1.00  0.00    -0.201 N 
BRANCH  23  24
ATOM     24  C   UNL     1      11.801 -57.744 -23.420  1.00  0.00     0.393 C 
BRANCH  24  25
ATOM     25  C   UNL     1      10.744 -58.703 -22.937  1.00  0.00     0.017 A 
ATOM     26  C   UNL     1      11.051 -59.697 -21.994  1.00  0.00     0.010 A 
ATOM     27  C   UNL     1       9.433 -58.620 -23.432  1.00  0.00     0.010 A 
ATOM     28  C   UNL     1      10.063 -60.577 -21.548  1.00  0.00     0.001 A 
ATOM     29  C   UNL     1       8.450 -59.502 -22.983  1.00  0.00     0.001 A 
ATOM     30  C   UNL     1       8.765 -60.477 -22.040  1.00  0.00     0.000 A 
ENDBRANCH  24  25
ENDBRANCH  23  24
ENDBRANCH  17  18
ENDBRANCH   1  17
TORSDOF 8
ENDMDL
