MODEL 1
REMARK VINA RESULT:   -11.332      0.000      0.000
REMARK INTER + INTRA:         -13.375
REMARK INTER:                 -13.320
REMARK INTRA:                  -0.055
REMARK UNBOUND:                -0.055
REMARK SMILES Cc1ccccc1NC(=O)Oc1ccc2c(c1)[C@]1(C)CC[N@H+](C)[C@@H]1N2C
REMARK SMILES IDX 9 1 8 2 10 3 11 5 12 6 21 7 22 8 20 9 24 10 18 11 25 12
REMARK SMILES IDX 16 13 15 14 17 15 14 16 13 17 23 18 19 20 26 21 7 22 6 23
REMARK SMILES IDX 2 24 5 25 3 26 4 27 1 28
REMARK H PARENT 8 4 22 19
ROOT
ATOM      1  C   UNL     1      10.391 -56.065 -22.822  1.00  0.00     0.417 C 
ATOM      2  N   UNL     1      10.315 -54.959 -23.623  1.00  0.00    -0.291 N 
ATOM      3  O   UNL     1      11.387 -56.587 -22.341  1.00  0.00    -0.224 OA
ATOM      4  H   UNL     1       9.416 -54.876 -24.079  1.00  0.00     0.173 HD
ENDROOT
BRANCH   1   5
ATOM      5  O   UNL     1       9.097 -56.570 -22.669  1.00  0.00    -0.410 OA
BRANCH   5   6
ATOM      6  C   UNL     1       8.871 -57.829 -23.238  1.00  0.00     0.133 A 
ATOM      7  C   UNL     1      10.539 -60.458 -27.032  1.00  0.00     0.265 C 
ATOM      8  N   UNL     1       9.776 -61.742 -26.845  1.00  0.00    -0.317 N 
ATOM      9  C   UNL     1      11.463 -60.435 -25.831  1.00  0.00     0.081 C 
ATOM     10  C   UNL     1       9.581 -61.922 -25.352  1.00  0.00     0.296 C 
ATOM     11  C   UNL     1      10.578 -60.927 -24.685  1.00  0.00     0.072 C 
ATOM     12  N   UNL     1       8.209 -61.542 -25.029  1.00  0.00    -0.325 N 
ATOM     13  C   UNL     1       9.636 -59.877 -24.177  1.00  0.00    -0.007 A 
ATOM     14  C   UNL     1       8.316 -60.291 -24.371  1.00  0.00     0.045 A 
ATOM     15  C   UNL     1       9.937 -58.656 -23.592  1.00  0.00     0.054 A 
ATOM     16  C   UNL     1       7.262 -59.482 -23.971  1.00  0.00     0.030 A 
ATOM     17  C   UNL     1       7.542 -58.239 -23.397  1.00  0.00     0.049 A 
ATOM     18  C   UNL     1       8.556 -61.839 -27.697  1.00  0.00     0.334 C 
ATOM     19  H   UNL     1      10.395 -62.505 -27.134  1.00  0.00     0.349 HD
ATOM     20  C   UNL     1      11.375 -61.560 -23.548  1.00  0.00     0.025 C 
ATOM     21  C   UNL     1       7.426 -62.509 -24.256  1.00  0.00     0.150 C 
ENDBRANCH   5   6
ENDBRANCH   1   5
BRANCH   2  22
ATOM     22  C   UNL     1      11.335 -54.106 -24.091  1.00  0.00     0.047 A 
ATOM     23  C   UNL     1      12.009 -54.574 -25.236  1.00  0.00     0.026 A 
ATOM     24  C   UNL     1      11.700 -52.857 -23.556  1.00  0.00    -0.027 A 
ATOM     25  C   UNL     1      13.072 -53.868 -25.798  1.00  0.00     0.002 A 
ATOM     26  C   UNL     1      12.794 -52.169 -24.123  1.00  0.00     0.005 A 
ATOM     27  C   UNL     1      13.476 -52.669 -25.231  1.00  0.00     0.000 A 
ATOM     28  C   UNL     1      10.984 -52.155 -22.436  1.00  0.00     0.046 C 
ENDBRANCH   2  22
TORSDOF 3
ENDMDL
MODEL 2
REMARK VINA RESULT:   -11.048      1.449      1.954
REMARK INTER + INTRA:         -13.040
REMARK INTER:                 -13.236
REMARK INTRA:                   0.196
REMARK UNBOUND:                -0.055
REMARK SMILES Cc1ccccc1NC(=O)Oc1ccc2c(c1)[C@]1(C)CC[N@H+](C)[C@@H]1N2C
REMARK SMILES IDX 9 1 8 2 10 3 11 5 12 6 21 7 22 8 20 9 24 10 18 11 25 12
REMARK SMILES IDX 16 13 15 14 17 15 14 16 13 17 23 18 19 20 26 21 7 22 6 23
REMARK SMILES IDX 2 24 5 25 3 26 4 27 1 28
REMARK H PARENT 8 4 22 19
ROOT
ATOM      1  C   UNL     1      11.232 -54.901 -23.484  1.00  0.00     0.417 C 
ATOM      2  N   UNL     1      11.486 -53.614 -23.097  1.00  0.00    -0.291 N 
ATOM      3  O   UNL     1      11.489 -55.437 -24.553  1.00  0.00    -0.224 OA
ATOM      4  H   UNL     1      10.966 -53.352 -22.270  1.00  0.00     0.173 HD
ENDROOT
BRANCH   1   5
ATOM      5  O   UNL     1      10.553 -55.534 -22.440  1.00  0.00    -0.410 OA
BRANCH   5   6
ATOM      6  C   UNL     1       9.898 -56.724 -22.782  1.00  0.00     0.133 A 
ATOM      7  C   UNL     1      11.035 -61.051 -24.799  1.00  0.00     0.265 C 
ATOM      8  N   UNL     1       9.709 -61.758 -24.719  1.00  0.00    -0.317 N 
ATOM      9  C   UNL     1      11.433 -60.914 -23.344  1.00  0.00     0.081 C 
ATOM     10  C   UNL     1       9.014 -61.247 -23.473  1.00  0.00     0.296 C 
ATOM     11  C   UNL     1      10.127 -60.536 -22.645  1.00  0.00     0.072 C 
ATOM     12  N   UNL     1       8.004 -60.277 -23.886  1.00  0.00    -0.325 N 
ATOM     13  C   UNL     1       9.751 -59.098 -22.840  1.00  0.00    -0.007 A 
ATOM     14  C   UNL     1       8.532 -59.014 -23.519  1.00  0.00     0.045 A 
ATOM     15  C   UNL     1      10.442 -57.963 -22.443  1.00  0.00     0.054 A 
ATOM     16  C   UNL     1       7.975 -57.776 -23.809  1.00  0.00     0.030 A 
ATOM     17  C   UNL     1       8.664 -56.619 -23.435  1.00  0.00     0.049 A 
ATOM     18  C   UNL     1       8.929 -61.706 -25.990  1.00  0.00     0.334 C 
ATOM     19  H   UNL     1       9.905 -62.747 -24.538  1.00  0.00     0.349 HD
ATOM     20  C   UNL     1      10.107 -60.924 -21.170  1.00  0.00     0.025 C 
ATOM     21  C   UNL     1       6.649 -60.481 -23.370  1.00  0.00     0.150 C 
ENDBRANCH   5   6
ENDBRANCH   1   5
BRANCH   2  22
ATOM     22  C   UNL     1      12.126 -52.567 -23.792  1.00  0.00     0.047 A 
ATOM     23  C   UNL     1      12.779 -52.965 -24.975  1.00  0.00     0.026 A 
ATOM     24  C   UNL     1      12.136 -51.206 -23.440  1.00  0.00    -0.027 A 
ATOM     25  C   UNL     1      13.495 -52.057 -25.755  1.00  0.00     0.002 A 
ATOM     26  C   UNL     1      12.886 -50.307 -24.228  1.00  0.00     0.005 A 
ATOM     27  C   UNL     1      13.561 -50.726 -25.373  1.00  0.00     0.000 A 
ATOM     28  C   UNL     1      11.366 -50.603 -22.298  1.00  0.00     0.046 C 
ENDBRANCH   2  22
TORSDOF 3
ENDMDL
MODEL 3
REMARK VINA RESULT:   -10.881      1.480      3.106
REMARK INTER + INTRA:         -12.844
REMARK INTER:                 -12.679
REMARK INTRA:                  -0.166
REMARK UNBOUND:                -0.055
REMARK SMILES Cc1ccccc1NC(=O)Oc1ccc2c(c1)[C@]1(C)CC[N@H+](C)[C@@H]1N2C
REMARK SMILES IDX 9 1 8 2 10 3 11 5 12 6 21 7 22 8 20 9 24 10 18 11 25 12
REMARK SMILES IDX 16 13 15 14 17 15 14 16 13 17 23 18 19 20 26 21 7 22 6 23
REMARK SMILES IDX 2 24 5 25 3 26 4 27 1 28
REMARK H PARENT 8 4 22 19
ROOT
ATOM      1  C   UNL     1      10.492 -54.843 -22.373  1.00  0.00     0.417 C 
ATOM      2  N   UNL     1      10.821 -54.556 -23.669  1.00  0.00    -0.291 N 
ATOM      3  O   UNL     1      10.946 -54.354 -21.348  1.00  0.00    -0.224 OA
ATOM      4  H   UNL     1      10.485 -55.259 -24.315  1.00  0.00     0.173 HD
ENDROOT
BRANCH   1   5
ATOM      5  O   UNL     1       9.546 -55.871 -22.391  1.00  0.00    -0.410 OA
BRANCH   5   6
ATOM      6  C   UNL     1      10.038 -57.135 -22.739  1.00  0.00     0.133 A 
ATOM      7  C   UNL     1       8.312 -61.704 -23.219  1.00  0.00     0.265 C 
ATOM      8  N   UNL     1       9.543 -62.423 -23.701  1.00  0.00    -0.317 N 
ATOM      9  C   UNL     1       7.981 -60.785 -24.376  1.00  0.00     0.081 C 
ATOM     10  C   UNL     1      10.336 -61.429 -24.526  1.00  0.00     0.296 C 
ATOM     11  C   UNL     1       9.346 -60.263 -24.825  1.00  0.00     0.072 C 
ATOM     12  N   UNL     1      11.443 -60.945 -23.707  1.00  0.00    -0.325 N 
ATOM     13  C   UNL     1       9.890 -59.192 -23.926  1.00  0.00    -0.007 A 
ATOM     14  C   UNL     1      11.086 -59.622 -23.347  1.00  0.00     0.045 A 
ATOM     15  C   UNL     1       9.357 -57.941 -23.652  1.00  0.00     0.054 A 
ATOM     16  C   UNL     1      11.782 -58.793 -22.478  1.00  0.00     0.030 A 
ATOM     17  C   UNL     1      11.253 -57.536 -22.172  1.00  0.00     0.049 A 
ATOM     18  C   UNL     1      10.281 -63.134 -22.617  1.00  0.00     0.334 C 
ATOM     19  H   UNL     1       9.233 -63.142 -24.362  1.00  0.00     0.349 HD
ATOM     20  C   UNL     1       9.366 -59.828 -26.287  1.00  0.00     0.025 C 
ATOM     21  C   UNL     1      12.779 -61.016 -24.303  1.00  0.00     0.150 C 
ENDBRANCH   5   6
ENDBRANCH   1   5
BRANCH   2  22
ATOM     22  C   UNL     1      11.736 -53.617 -24.186  1.00  0.00     0.047 A 
ATOM     23  C   UNL     1      11.761 -52.387 -23.501  1.00  0.00     0.026 A 
ATOM     24  C   UNL     1      12.621 -53.808 -25.263  1.00  0.00    -0.027 A 
ATOM     25  C   UNL     1      12.581 -51.336 -23.912  1.00  0.00     0.002 A 
ATOM     26  C   UNL     1      13.425 -52.725 -25.680  1.00  0.00     0.005 A 
ATOM     27  C   UNL     1      13.405 -51.501 -25.015  1.00  0.00     0.000 A 
ATOM     28  C   UNL     1      12.821 -55.104 -25.997  1.00  0.00     0.046 C 
ENDBRANCH   2  22
TORSDOF 3
ENDMDL
MODEL 4
REMARK VINA RESULT:   -10.796      1.792      2.915
REMARK INTER + INTRA:         -12.745
REMARK INTER:                 -13.122
REMARK INTRA:                   0.378
REMARK UNBOUND:                -0.055
REMARK SMILES Cc1ccccc1NC(=O)Oc1ccc2c(c1)[C@]1(C)CC[N@H+](C)[C@@H]1N2C
REMARK SMILES IDX 9 1 8 2 10 3 11 5 12 6 21 7 22 8 20 9 24 10 18 11 25 12
REMARK SMILES IDX 16 13 15 14 17 15 14 16 13 17 23 18 19 20 26 21 7 22 6 23
REMARK SMILES IDX 2 24 5 25 3 26 4 27 1 28
REMARK H PARENT 8 4 22 19
ROOT
ATOM      1  C   UNL     1      10.792 -54.537 -22.104  1.00  0.00     0.417 C 
ATOM      2  N   UNL     1      11.448 -53.536 -22.766  1.00  0.00    -0.291 N 
ATOM      3  O   UNL     1       9.888 -54.442 -21.287  1.00  0.00    -0.224 OA
ATOM      4  H   UNL     1      12.305 -53.857 -23.196  1.00  0.00     0.173 HD
ENDROOT
BRANCH   1   5
ATOM      5  O   UNL     1      11.376 -55.750 -22.480  1.00  0.00    -0.410 OA
BRANCH   5   6
ATOM      6  C   UNL     1      10.480 -56.798 -22.726  1.00  0.00     0.133 A 
ATOM      7  C   UNL     1      10.636 -61.379 -24.479  1.00  0.00     0.265 C 
ATOM      8  N   UNL     1       9.198 -61.792 -24.320  1.00  0.00    -0.317 N 
ATOM      9  C   UNL     1      11.108 -61.240 -23.045  1.00  0.00     0.081 C 
ATOM     10  C   UNL     1       8.668 -61.076 -23.094  1.00  0.00     0.296 C 
ATOM     11  C   UNL     1       9.933 -60.561 -22.343  1.00  0.00     0.072 C 
ATOM     12  N   UNL     1       7.863 -59.945 -23.546  1.00  0.00    -0.325 N 
ATOM     13  C   UNL     1       9.851 -59.090 -22.623  1.00  0.00    -0.007 A 
ATOM     14  C   UNL     1       8.651 -58.798 -23.277  1.00  0.00     0.045 A 
ATOM     15  C   UNL     1      10.773 -58.099 -22.319  1.00  0.00     0.054 A 
ATOM     16  C   UNL     1       8.347 -57.492 -23.634  1.00  0.00     0.030 A 
ATOM     17  C   UNL     1       9.271 -56.481 -23.355  1.00  0.00     0.049 A 
ATOM     18  C   UNL     1       8.399 -61.657 -25.573  1.00  0.00     0.334 C 
ATOM     19  H   UNL     1       9.195 -62.788 -24.079  1.00  0.00     0.349 HD
ATOM     20  C   UNL     1       9.889 -60.847 -20.844  1.00  0.00     0.025 C 
ATOM     21  C   UNL     1       6.514 -59.835 -22.986  1.00  0.00     0.150 C 
ENDBRANCH   5   6
ENDBRANCH   1   5
BRANCH   2  22
ATOM     22  C   UNL     1      11.255 -52.140 -22.720  1.00  0.00     0.047 A 
ATOM     23  C   UNL     1      10.047 -51.737 -22.118  1.00  0.00     0.026 A 
ATOM     24  C   UNL     1      12.147 -51.151 -23.172  1.00  0.00    -0.027 A 
ATOM     25  C   UNL     1       9.686 -50.392 -22.032  1.00  0.00     0.002 A 
ATOM     26  C   UNL     1      11.754 -49.798 -23.098  1.00  0.00     0.005 A 
ATOM     27  C   UNL     1      10.536 -49.420 -22.537  1.00  0.00     0.000 A 
ATOM     28  C   UNL     1      13.531 -51.412 -23.697  1.00  0.00     0.046 C 
ENDBRANCH   2  22
TORSDOF 3
ENDMDL
MODEL 5
REMARK VINA RESULT:   -10.721      2.841      9.079
REMARK INTER + INTRA:         -12.656
REMARK INTER:                 -13.099
REMARK INTRA:                   0.443
REMARK UNBOUND:                -0.055
REMARK SMILES Cc1ccccc1NC(=O)Oc1ccc2c(c1)[C@]1(C)CC[N@H+](C)[C@@H]1N2C
REMARK SMILES IDX 9 1 8 2 10 3 11 5 12 6 21 7 22 8 20 9 24 10 18 11 25 12
REMARK SMILES IDX 16 13 15 14 17 15 14 16 13 17 23 18 19 20 26 21 7 22 6 23
REMARK SMILES IDX 2 24 5 25 3 26 4 27 1 28
REMARK H PARENT 8 4 22 19
ROOT
ATOM      1  C   UNL     1      10.713 -55.347 -22.979  1.00  0.00     0.417 C 
ATOM      2  N   UNL     1      10.223 -56.508 -23.511  1.00  0.00    -0.291 N 
ATOM      3  O   UNL     1      11.078 -55.132 -21.832  1.00  0.00    -0.224 OA
ATOM      4  H   UNL     1       9.772 -56.361 -24.404  1.00  0.00     0.173 HD
ENDROOT
BRANCH   1   5
ATOM      5  O   UNL     1      10.685 -54.375 -23.982  1.00  0.00    -0.410 OA
BRANCH   5   6
ATOM      6  C   UNL     1      11.546 -53.287 -23.789  1.00  0.00     0.133 A 
ATOM      7  C   UNL     1      16.352 -52.351 -24.113  1.00  0.00     0.265 C 
ATOM      8  N   UNL     1      16.377 -50.881 -23.788  1.00  0.00    -0.317 N 
ATOM      9  C   UNL     1      15.630 -52.391 -25.445  1.00  0.00     0.081 C 
ATOM     10  C   UNL     1      15.081 -50.295 -24.310  1.00  0.00     0.296 C 
ATOM     11  C   UNL     1      14.502 -51.374 -25.275  1.00  0.00     0.072 C 
ATOM     12  N   UNL     1      14.182 -50.109 -23.175  1.00  0.00    -0.325 N 
ATOM     13  C   UNL     1      13.356 -51.898 -24.461  1.00  0.00    -0.007 A 
ATOM     14  C   UNL     1      13.206 -51.128 -23.304  1.00  0.00     0.045 A 
ATOM     15  C   UNL     1      12.522 -52.971 -24.734  1.00  0.00     0.054 A 
ATOM     16  C   UNL     1      12.200 -51.420 -22.394  1.00  0.00     0.030 A 
ATOM     17  C   UNL     1      11.360 -52.510 -22.640  1.00  0.00     0.049 A 
ATOM     18  C   UNL     1      16.719 -50.592 -22.365  1.00  0.00     0.334 C 
ATOM     19  H   UNL     1      17.118 -50.459 -24.357  1.00  0.00     0.349 HD
ATOM     20  C   UNL     1      14.024 -50.788 -26.600  1.00  0.00     0.025 C 
ATOM     21  C   UNL     1      13.580 -48.782 -23.026  1.00  0.00     0.150 C 
ENDBRANCH   5   6
ENDBRANCH   1   5
BRANCH   2  22
ATOM     22  C   UNL     1      10.027 -57.769 -22.911  1.00  0.00     0.047 A 
ATOM     23  C   UNL     1      11.040 -58.150 -22.009  1.00  0.00     0.026 A 
ATOM     24  C   UNL     1       8.931 -58.630 -23.099  1.00  0.00    -0.027 A 
ATOM     25  C   UNL     1      11.018 -59.387 -21.365  1.00  0.00     0.002 A 
ATOM     26  C   UNL     1       8.938 -59.887 -22.457  1.00  0.00     0.005 A 
ATOM     27  C   UNL     1       9.971 -60.265 -21.600  1.00  0.00     0.000 A 
ATOM     28  C   UNL     1       7.706 -58.305 -23.905  1.00  0.00     0.046 C 
ENDBRANCH   2  22
TORSDOF 3
ENDMDL
MODEL 6
REMARK VINA RESULT:   -10.003      3.572      8.992
REMARK INTER + INTRA:         -11.812
REMARK INTER:                 -11.637
REMARK INTRA:                  -0.175
REMARK UNBOUND:                -0.055
REMARK SMILES Cc1ccccc1NC(=O)Oc1ccc2c(c1)[C@]1(C)CC[N@H+](C)[C@@H]1N2C
REMARK SMILES IDX 9 1 8 2 10 3 11 5 12 6 21 7 22 8 20 9 24 10 18 11 25 12
REMARK SMILES IDX 16 13 15 14 17 15 14 16 13 17 23 18 19 20 26 21 7 22 6 23
REMARK SMILES IDX 2 24 5 25 3 26 4 27 1 28
REMARK H PARENT 8 4 22 19
ROOT
ATOM      1  C   UNL     1      10.318 -54.717 -22.549  1.00  0.00     0.417 C 
ATOM      2  N   UNL     1      11.166 -55.663 -22.043  1.00  0.00    -0.291 N 
ATOM      3  O   UNL     1       9.627 -54.778 -23.556  1.00  0.00    -0.224 OA
ATOM      4  H   UNL     1      11.795 -55.282 -21.347  1.00  0.00     0.173 HD
ENDROOT
BRANCH   1   5
ATOM      5  O   UNL     1      10.401 -53.588 -21.730  1.00  0.00    -0.410 OA
BRANCH   5   6
ATOM      6  C   UNL     1      11.077 -52.493 -22.282  1.00  0.00     0.133 A 
ATOM      7  C   UNL     1      15.713 -51.153 -23.172  1.00  0.00     0.265 C 
ATOM      8  N   UNL     1      15.500 -49.830 -23.858  1.00  0.00    -0.317 N 
ATOM      9  C   UNL     1      15.146 -52.145 -24.166  1.00  0.00     0.081 C 
ATOM     10  C   UNL     1      14.195 -49.939 -24.622  1.00  0.00     0.296 C 
ATOM     11  C   UNL     1      13.875 -51.463 -24.673  1.00  0.00     0.072 C 
ATOM     12  N   UNL     1      13.166 -49.240 -23.857  1.00  0.00    -0.325 N 
ATOM     13  C   UNL     1      12.736 -51.548 -23.701  1.00  0.00    -0.007 A 
ATOM     14  C   UNL     1      12.361 -50.263 -23.299  1.00  0.00     0.045 A 
ATOM     15  C   UNL     1      12.093 -52.678 -23.221  1.00  0.00     0.054 A 
ATOM     16  C   UNL     1      11.316 -50.087 -22.402  1.00  0.00     0.030 A 
ATOM     17  C   UNL     1      10.667 -51.214 -21.890  1.00  0.00     0.049 A 
ATOM     18  C   UNL     1      15.648 -48.657 -22.948  1.00  0.00     0.334 C 
ATOM     19  H   UNL     1      16.229 -49.740 -24.572  1.00  0.00     0.349 HD
ATOM     20  C   UNL     1      13.460 -51.936 -26.063  1.00  0.00     0.025 C 
ATOM     21  C   UNL     1      12.373 -48.244 -24.582  1.00  0.00     0.150 C 
ENDBRANCH   5   6
ENDBRANCH   1   5
BRANCH   2  22
ATOM     22  C   UNL     1      11.461 -56.961 -22.509  1.00  0.00     0.047 A 
ATOM     23  C   UNL     1      11.765 -57.033 -23.882  1.00  0.00     0.026 A 
ATOM     24  C   UNL     1      11.512 -58.139 -21.743  1.00  0.00    -0.027 A 
ATOM     25  C   UNL     1      12.037 -58.249 -24.508  1.00  0.00     0.002 A 
ATOM     26  C   UNL     1      11.765 -59.364 -22.398  1.00  0.00     0.005 A 
ATOM     27  C   UNL     1      12.022 -59.421 -23.766  1.00  0.00     0.000 A 
ATOM     28  C   UNL     1      11.361 -58.205 -20.249  1.00  0.00     0.046 C 
ENDBRANCH   2  22
TORSDOF 3
ENDMDL
MODEL 7
REMARK VINA RESULT:    -9.535      1.859      3.743
REMARK INTER + INTRA:         -11.262
REMARK INTER:                 -10.734
REMARK INTRA:                  -0.528
REMARK UNBOUND:                -0.055
REMARK SMILES Cc1ccccc1NC(=O)Oc1ccc2c(c1)[C@]1(C)CC[N@H+](C)[C@@H]1N2C
REMARK SMILES IDX 9 1 8 2 10 3 11 5 12 6 21 7 22 8 20 9 24 10 18 11 25 12
REMARK SMILES IDX 16 13 15 14 17 15 14 16 13 17 23 18 19 20 26 21 7 22 6 23
REMARK SMILES IDX 2 24 5 25 3 26 4 27 1 28
REMARK H PARENT 8 4 22 19
ROOT
ATOM      1  C   UNL     1      10.428 -53.758 -22.582  1.00  0.00     0.417 C 
ATOM      2  N   UNL     1      11.536 -52.978 -22.399  1.00  0.00    -0.291 N 
ATOM      3  O   UNL     1       9.419 -53.504 -23.225  1.00  0.00    -0.224 OA
ATOM      4  H   UNL     1      12.117 -53.308 -21.639  1.00  0.00     0.173 HD
ENDROOT
BRANCH   1   5
ATOM      5  O   UNL     1      10.605 -54.930 -21.844  1.00  0.00    -0.410 OA
BRANCH   5   6
ATOM      6  C   UNL     1      10.634 -56.114 -22.592  1.00  0.00     0.133 A 
ATOM      7  C   UNL     1       9.318 -60.807 -22.024  1.00  0.00     0.265 C 
ATOM      8  N   UNL     1       9.660 -61.364 -23.380  1.00  0.00    -0.317 N 
ATOM      9  C   UNL     1       8.169 -59.867 -22.325  1.00  0.00     0.081 C 
ATOM     10  C   UNL     1       9.437 -60.248 -24.380  1.00  0.00     0.296 C 
ATOM     11  C   UNL     1       8.595 -59.178 -23.621  1.00  0.00     0.072 C 
ATOM     12  N   UNL     1      10.741 -59.694 -24.736  1.00  0.00    -0.325 N 
ATOM     13  C   UNL     1       9.622 -58.107 -23.407  1.00  0.00    -0.007 A 
ATOM     14  C   UNL     1      10.800 -58.438 -24.083  1.00  0.00     0.045 A 
ATOM     15  C   UNL     1       9.510 -56.937 -22.672  1.00  0.00     0.054 A 
ATOM     16  C   UNL     1      11.896 -57.588 -24.037  1.00  0.00     0.030 A 
ATOM     17  C   UNL     1      11.812 -56.414 -23.285  1.00  0.00     0.049 A 
ATOM     18  C   UNL     1      10.984 -62.050 -23.425  1.00  0.00     0.334 C 
ATOM     19  H   UNL     1       8.956 -62.075 -23.600  1.00  0.00     0.349 HD
ATOM     20  C   UNL     1       7.413 -58.665 -24.438  1.00  0.00     0.025 C 
ATOM     21  C   UNL     1      11.041 -59.590 -26.165  1.00  0.00     0.150 C 
ENDBRANCH   5   6
ENDBRANCH   1   5
BRANCH   2  22
ATOM     22  C   UNL     1      11.840 -51.698 -22.908  1.00  0.00     0.047 A 
ATOM     23  C   UNL     1      11.245 -50.633 -22.204  1.00  0.00     0.026 A 
ATOM     24  C   UNL     1      12.683 -51.403 -23.994  1.00  0.00    -0.027 A 
ATOM     25  C   UNL     1      11.412 -49.308 -22.606  1.00  0.00     0.002 A 
ATOM     26  C   UNL     1      12.819 -50.059 -24.401  1.00  0.00     0.005 A 
ATOM     27  C   UNL     1      12.190 -49.021 -23.718  1.00  0.00     0.000 A 
ATOM     28  C   UNL     1      13.504 -52.411 -24.749  1.00  0.00     0.046 C 
ENDBRANCH   2  22
TORSDOF 3
ENDMDL
MODEL 8
REMARK VINA RESULT:    -9.271      4.058      9.685
REMARK INTER + INTRA:         -10.952
REMARK INTER:                 -10.653
REMARK INTRA:                  -0.300
REMARK UNBOUND:                -0.055
REMARK SMILES Cc1ccccc1NC(=O)Oc1ccc2c(c1)[C@]1(C)CC[N@H+](C)[C@@H]1N2C
REMARK SMILES IDX 9 1 8 2 10 3 11 5 12 6 21 7 22 8 20 9 24 10 18 11 25 12
REMARK SMILES IDX 16 13 15 14 17 15 14 16 13 17 23 18 19 20 26 21 7 22 6 23
REMARK SMILES IDX 2 24 5 25 3 26 4 27 1 28
REMARK H PARENT 8 4 22 19
ROOT
ATOM      1  C   UNL     1      10.379 -53.092 -21.681  1.00  0.00     0.417 C 
ATOM      2  N   UNL     1      10.357 -53.760 -22.875  1.00  0.00    -0.291 N 
ATOM      3  O   UNL     1      10.807 -53.478 -20.603  1.00  0.00    -0.224 OA
ATOM      4  H   UNL     1       9.740 -53.325 -23.548  1.00  0.00     0.173 HD
ENDROOT
BRANCH   1   5
ATOM      5  O   UNL     1       9.758 -51.855 -21.875  1.00  0.00    -0.410 OA
BRANCH   5   6
ATOM      6  C   UNL     1      10.570 -50.854 -22.421  1.00  0.00     0.133 A 
ATOM      7  C   UNL     1      15.354 -49.789 -22.680  1.00  0.00     0.265 C 
ATOM      8  N   UNL     1      15.322 -48.545 -23.526  1.00  0.00    -0.317 N 
ATOM      9  C   UNL     1      14.898 -50.865 -23.645  1.00  0.00     0.081 C 
ATOM     10  C   UNL     1      14.150 -48.690 -24.476  1.00  0.00     0.296 C 
ATOM     11  C   UNL     1      13.761 -50.198 -24.419  1.00  0.00     0.072 C 
ATOM     12  N   UNL     1      13.052 -47.874 -23.966  1.00  0.00    -0.325 N 
ATOM     13  C   UNL     1      12.480 -50.133 -23.642  1.00  0.00    -0.007 A 
ATOM     14  C   UNL     1      12.116 -48.799 -23.442  1.00  0.00     0.045 A 
ATOM     15  C   UNL     1      11.710 -51.179 -23.157  1.00  0.00     0.054 A 
ATOM     16  C   UNL     1      10.954 -48.487 -22.750  1.00  0.00     0.030 A 
ATOM     17  C   UNL     1      10.172 -49.525 -22.235  1.00  0.00     0.049 A 
ATOM     18  C   UNL     1      15.388 -47.284 -22.731  1.00  0.00     0.334 C 
ATOM     19  H   UNL     1      16.158 -48.560 -24.117  1.00  0.00     0.349 HD
ATOM     20  C   UNL     1      13.546 -50.807 -25.802  1.00  0.00     0.025 C 
ATOM     21  C   UNL     1      12.438 -46.937 -24.910  1.00  0.00     0.150 C 
ENDBRANCH   5   6
ENDBRANCH   1   5
BRANCH   2  22
ATOM     22  C   UNL     1      10.836 -55.045 -23.204  1.00  0.00     0.047 A 
ATOM     23  C   UNL     1      10.304 -56.086 -22.418  1.00  0.00     0.026 A 
ATOM     24  C   UNL     1      11.737 -55.370 -24.234  1.00  0.00    -0.027 A 
ATOM     25  C   UNL     1      10.707 -57.410 -22.588  1.00  0.00     0.002 A 
ATOM     26  C   UNL     1      12.151 -56.712 -24.375  1.00  0.00     0.005 A 
ATOM     27  C   UNL     1      11.645 -57.722 -23.561  1.00  0.00     0.000 A 
ATOM     28  C   UNL     1      12.275 -54.400 -25.249  1.00  0.00     0.046 C 
ENDBRANCH   2  22
TORSDOF 3
ENDMDL
MODEL 9
REMARK VINA RESULT:    -8.945      5.285     11.119
REMARK INTER + INTRA:         -10.569
REMARK INTER:                 -10.700
REMARK INTRA:                   0.131
REMARK UNBOUND:                -0.055
REMARK SMILES Cc1ccccc1NC(=O)Oc1ccc2c(c1)[C@]1(C)CC[N@H+](C)[C@@H]1N2C
REMARK SMILES IDX 9 1 8 2 10 3 11 5 12 6 21 7 22 8 20 9 24 10 18 11 25 12
REMARK SMILES IDX 16 13 15 14 17 15 14 16 13 17 23 18 19 20 26 21 7 22 6 23
REMARK SMILES IDX 2 24 5 25 3 26 4 27 1 28
REMARK H PARENT 8 4 22 19
ROOT
ATOM      1  C   UNL     1      13.469 -52.551 -25.377  1.00  0.00     0.417 C 
ATOM      2  N   UNL     1      12.520 -52.288 -24.429  1.00  0.00    -0.291 N 
ATOM      3  O   UNL     1      13.904 -53.636 -25.736  1.00  0.00    -0.224 OA
ATOM      4  H   UNL     1      12.514 -51.315 -24.150  1.00  0.00     0.173 HD
ENDROOT
BRANCH   1   5
ATOM      5  O   UNL     1      13.933 -51.327 -25.866  1.00  0.00    -0.410 OA
BRANCH   5   6
ATOM      6  C   UNL     1      13.945 -50.275 -24.941  1.00  0.00     0.133 A 
ATOM      7  C   UNL     1      12.528 -45.581 -24.752  1.00  0.00     0.265 C 
ATOM      8  N   UNL     1      12.873 -45.237 -23.328  1.00  0.00    -0.317 N 
ATOM      9  C   UNL     1      11.402 -46.582 -24.595  1.00  0.00     0.081 C 
ATOM     10  C   UNL     1      12.683 -46.502 -22.514  1.00  0.00     0.296 C 
ATOM     11  C   UNL     1      11.856 -47.456 -23.426  1.00  0.00     0.072 C 
ATOM     12  N   UNL     1      14.002 -47.076 -22.259  1.00  0.00    -0.325 N 
ATOM     13  C   UNL     1      12.902 -48.458 -23.814  1.00  0.00    -0.007 A 
ATOM     14  C   UNL     1      14.080 -48.212 -23.103  1.00  0.00     0.045 A 
ATOM     15  C   UNL     1      12.806 -49.500 -24.724  1.00  0.00     0.054 A 
ATOM     16  C   UNL     1      15.193 -49.020 -23.290  1.00  0.00     0.030 A 
ATOM     17  C   UNL     1      15.125 -50.063 -24.217  1.00  0.00     0.049 A 
ATOM     18  C   UNL     1      14.183 -44.538 -23.184  1.00  0.00     0.334 C 
ATOM     19  H   UNL     1      12.157 -44.586 -22.992  1.00  0.00     0.349 HD
ATOM     20  C   UNL     1      10.693 -48.118 -22.692  1.00  0.00     0.025 C 
ATOM     21  C   UNL     1      14.319 -47.398 -20.866  1.00  0.00     0.150 C 
ENDBRANCH   5   6
ENDBRANCH   1   5
BRANCH   2  22
ATOM     22  C   UNL     1      11.766 -53.172 -23.630  1.00  0.00     0.047 A 
ATOM     23  C   UNL     1      11.625 -54.467 -24.166  1.00  0.00     0.026 A 
ATOM     24  C   UNL     1      11.195 -52.895 -22.375  1.00  0.00    -0.027 A 
ATOM     25  C   UNL     1      10.873 -55.448 -23.520  1.00  0.00     0.002 A 
ATOM     26  C   UNL     1      10.417 -53.892 -21.748  1.00  0.00     0.005 A 
ATOM     27  C   UNL     1      10.255 -55.155 -22.314  1.00  0.00     0.000 A 
ATOM     28  C   UNL     1      11.381 -51.618 -21.605  1.00  0.00     0.046 C 
ENDBRANCH   2  22
TORSDOF 3
ENDMDL
