MODEL 1
REMARK VINA RESULT:   -11.024      0.000      0.000
REMARK INTER + INTRA:         -15.019
REMARK INTER:                 -14.569
REMARK INTRA:                  -0.450
REMARK UNBOUND:                -0.450
REMARK SMILES COc1cc(/C=C/c2nnc(-c3ccc(F)cc3F)o2)ccc1O
REMARK SMILES IDX 6 1 5 2 3 3 4 4 23 5 22 6 21 7 2 8 1 9 24 10 7 12 8 13 9 14
REMARK SMILES IDX 20 15 10 16 11 17 12 18 13 19 18 20 14 21 17 22 15 23 19 24
REMARK SMILES IDX 16 25
REMARK H PARENT 24 11
ROOT
ATOM      1  C   UNL     1      10.306 -60.470 -21.748  1.00  0.00     0.014 C 
ENDROOT
BRANCH   1   2
ATOM      2  C   UNL     1       9.182 -61.085 -22.467  1.00  0.00    -0.022 A 
ATOM      3  C   UNL     1       6.983 -60.972 -23.500  1.00  0.00     0.161 A 
ATOM      4  C   UNL     1       8.021 -60.361 -22.795  1.00  0.00     0.058 A 
ATOM      5  C   UNL     1       7.122 -62.311 -23.882  1.00  0.00     0.157 A 
ATOM      6  C   UNL     1       8.266 -63.037 -23.582  1.00  0.00     0.051 A 
ATOM      7  C   UNL     1       9.300 -62.420 -22.878  1.00  0.00     0.012 A 
BRANCH   3   8
ATOM      8  O   UNL     1       5.802 -60.384 -23.877  1.00  0.00    -0.493 OA
ATOM      9  C   UNL     1       5.365 -59.273 -23.103  1.00  0.00     0.278 C 
ENDBRANCH   3   8
BRANCH   5  10
ATOM     10  O   UNL     1       6.122 -62.937 -24.574  1.00  0.00    -0.504 OA
ATOM     11  H   UNL     1       6.579 -63.568 -25.164  1.00  0.00     0.293 HD
ENDBRANCH   5  10
ENDBRANCH   1   2
BRANCH   1  12
ATOM     12  C   UNL     1      11.428 -60.045 -22.349  1.00  0.00     0.071 C 
BRANCH  12  13
ATOM     13  C   UNL     1      11.508 -58.754 -22.937  1.00  0.00     0.241 A 
ATOM     14  N   UNL     1      11.866 -58.441 -24.175  1.00  0.00    -0.108 NA
ATOM     15  O   UNL     1      11.196 -57.608 -22.227  1.00  0.00    -0.417 OA
ATOM     16  N   UNL     1      11.797 -57.071 -24.302  1.00  0.00    -0.107 NA
ATOM     17  C   UNL     1      11.399 -56.610 -23.136  1.00  0.00     0.251 A 
BRANCH  17  18
ATOM     18  C   UNL     1      11.162 -55.237 -22.717  1.00  0.00     0.075 A 
ATOM     19  C   UNL     1      10.844 -54.974 -21.372  1.00  0.00     0.020 A 
ATOM     20  C   UNL     1      11.238 -54.150 -23.600  1.00  0.00     0.138 A 
ATOM     21  C   UNL     1      10.610 -53.667 -20.935  1.00  0.00     0.040 A 
ATOM     22  C   UNL     1      11.006 -52.844 -23.170  1.00  0.00     0.079 A 
ATOM     23  C   UNL     1      10.693 -52.616 -21.839  1.00  0.00     0.126 A 
ATOM     24  F   UNL     1      11.540 -54.331 -24.894  1.00  0.00    -0.206 F 
ATOM     25  F   UNL     1      10.469 -51.364 -21.419  1.00  0.00    -0.207 F 
ENDBRANCH  17  18
ENDBRANCH  12  13
ENDBRANCH   1  12
TORSDOF 6
ENDMDL
MODEL 2
REMARK VINA RESULT:   -10.831      1.939      2.135
REMARK INTER + INTRA:         -14.764
REMARK INTER:                 -14.215
REMARK INTRA:                  -0.548
REMARK UNBOUND:                -0.450
REMARK SMILES COc1cc(/C=C/c2nnc(-c3ccc(F)cc3F)o2)ccc1O
REMARK SMILES IDX 6 1 5 2 3 3 4 4 23 5 22 6 21 7 2 8 1 9 24 10 7 12 8 13 9 14
REMARK SMILES IDX 20 15 10 16 11 17 12 18 13 19 18 20 14 21 17 22 15 23 19 24
REMARK SMILES IDX 16 25
REMARK H PARENT 24 11
ROOT
ATOM      1  C   UNL     1      11.572 -60.771 -24.053  1.00  0.00     0.014 C 
ENDROOT
BRANCH   1   2
ATOM      2  C   UNL     1      10.450 -61.716 -23.968  1.00  0.00    -0.022 A 
ATOM      3  C   UNL     1       8.504 -62.818 -24.922  1.00  0.00     0.161 A 
ATOM      4  C   UNL     1       9.544 -61.894 -25.030  1.00  0.00     0.058 A 
ATOM      5  C   UNL     1       8.385 -63.569 -23.748  1.00  0.00     0.157 A 
ATOM      6  C   UNL     1       9.277 -63.419 -22.696  1.00  0.00     0.051 A 
ATOM      7  C   UNL     1      10.315 -62.495 -22.809  1.00  0.00     0.012 A 
BRANCH   3   8
ATOM      8  O   UNL     1       7.554 -63.086 -25.876  1.00  0.00    -0.493 OA
ATOM      9  C   UNL     1       7.988 -63.073 -27.232  1.00  0.00     0.278 C 
ENDBRANCH   3   8
BRANCH   5  10
ATOM     10  O   UNL     1       7.375 -64.483 -23.613  1.00  0.00    -0.504 OA
ATOM     11  H   UNL     1       7.428 -65.038 -24.415  1.00  0.00     0.293 HD
ENDBRANCH   5  10
ENDBRANCH   1   2
BRANCH   1  12
ATOM     12  C   UNL     1      11.786 -59.791 -23.161  1.00  0.00     0.071 C 
BRANCH  12  13
ATOM     13  C   UNL     1      11.048 -58.578 -23.205  1.00  0.00     0.241 A 
ATOM     14  N   UNL     1       9.776 -58.406 -23.538  1.00  0.00    -0.108 NA
ATOM     15  O   UNL     1      11.623 -57.362 -22.878  1.00  0.00    -0.417 OA
ATOM     16  N   UNL     1       9.489 -57.063 -23.437  1.00  0.00    -0.107 NA
ATOM     17  C   UNL     1      10.599 -56.475 -23.046  1.00  0.00     0.251 A 
BRANCH  17  18
ATOM     18  C   UNL     1      10.856 -55.066 -22.786  1.00  0.00     0.075 A 
ATOM     19  C   UNL     1      10.540 -54.532 -21.523  1.00  0.00     0.020 A 
ATOM     20  C   UNL     1      11.412 -54.206 -23.744  1.00  0.00     0.138 A 
ATOM     21  C   UNL     1      10.773 -53.183 -21.238  1.00  0.00     0.040 A 
ATOM     22  C   UNL     1      11.648 -52.861 -23.466  1.00  0.00     0.079 A 
ATOM     23  C   UNL     1      11.325 -52.362 -22.213  1.00  0.00     0.126 A 
ATOM     24  F   UNL     1      11.740 -54.653 -24.965  1.00  0.00    -0.206 F 
ATOM     25  F   UNL     1      11.549 -51.070 -21.939  1.00  0.00    -0.207 F 
ENDBRANCH  17  18
ENDBRANCH  12  13
ENDBRANCH   1  12
TORSDOF 6
ENDMDL
MODEL 3
REMARK VINA RESULT:   -10.647      1.515      1.900
REMARK INTER + INTRA:         -14.520
REMARK INTER:                 -14.200
REMARK INTRA:                  -0.320
REMARK UNBOUND:                -0.450
REMARK SMILES COc1cc(/C=C/c2nnc(-c3ccc(F)cc3F)o2)ccc1O
REMARK SMILES IDX 6 1 5 2 3 3 4 4 23 5 22 6 21 7 2 8 1 9 24 10 7 12 8 13 9 14
REMARK SMILES IDX 20 15 10 16 11 17 12 18 13 19 18 20 14 21 17 22 15 23 19 24
REMARK SMILES IDX 16 25
REMARK H PARENT 24 11
ROOT
ATOM      1  C   UNL     1      10.584 -59.813 -21.620  1.00  0.00     0.014 C 
ENDROOT
BRANCH   1   2
ATOM      2  C   UNL     1       9.656 -60.548 -22.489  1.00  0.00    -0.022 A 
ATOM      3  C   UNL     1       7.459 -60.880 -23.479  1.00  0.00     0.161 A 
ATOM      4  C   UNL     1       8.307 -60.172 -22.625  1.00  0.00     0.058 A 
ATOM      5  C   UNL     1       7.977 -61.959 -24.203  1.00  0.00     0.157 A 
ATOM      6  C   UNL     1       9.309 -62.335 -24.096  1.00  0.00     0.051 A 
ATOM      7  C   UNL     1      10.150 -61.624 -23.241  1.00  0.00     0.012 A 
BRANCH   3   8
ATOM      8  O   UNL     1       6.129 -60.623 -23.699  1.00  0.00    -0.493 OA
ATOM      9  C   UNL     1       5.608 -59.425 -23.134  1.00  0.00     0.278 C 
ENDBRANCH   3   8
BRANCH   5  10
ATOM     10  O   UNL     1       7.171 -62.672 -25.049  1.00  0.00    -0.504 OA
ATOM     11  H   UNL     1       7.062 -63.542 -24.620  1.00  0.00     0.293 HD
ENDBRANCH   5  10
ENDBRANCH   1   2
BRANCH   1  12
ATOM     12  C   UNL     1      11.418 -58.859 -22.062  1.00  0.00     0.071 C 
BRANCH  12  13
ATOM     13  C   UNL     1      10.929 -57.610 -22.529  1.00  0.00     0.241 A 
ATOM     14  N   UNL     1       9.910 -57.385 -23.349  1.00  0.00    -0.108 NA
ATOM     15  O   UNL     1      11.506 -56.411 -22.148  1.00  0.00    -0.417 OA
ATOM     16  N   UNL     1       9.799 -56.023 -23.524  1.00  0.00    -0.107 NA
ATOM     17  C   UNL     1      10.755 -55.478 -22.803  1.00  0.00     0.251 A 
BRANCH  17  18
ATOM     18  C   UNL     1      11.093 -54.073 -22.627  1.00  0.00     0.075 A 
ATOM     19  C   UNL     1      11.691 -53.373 -23.690  1.00  0.00     0.020 A 
ATOM     20  C   UNL     1      10.847 -53.376 -21.436  1.00  0.00     0.138 A 
ATOM     21  C   UNL     1      12.030 -52.023 -23.557  1.00  0.00     0.040 A 
ATOM     22  C   UNL     1      11.182 -52.031 -21.296  1.00  0.00     0.079 A 
ATOM     23  C   UNL     1      11.772 -51.366 -22.361  1.00  0.00     0.126 A 
ATOM     24  F   UNL     1      10.276 -53.985 -20.385  1.00  0.00    -0.206 F 
ATOM     25  F   UNL     1      12.096 -50.073 -22.234  1.00  0.00    -0.207 F 
ENDBRANCH  17  18
ENDBRANCH  12  13
ENDBRANCH   1  12
TORSDOF 6
ENDMDL
MODEL 4
REMARK VINA RESULT:   -10.561      2.810      3.333
REMARK INTER + INTRA:         -14.406
REMARK INTER:                 -13.849
REMARK INTRA:                  -0.558
REMARK UNBOUND:                -0.450
REMARK SMILES COc1cc(/C=C/c2nnc(-c3ccc(F)cc3F)o2)ccc1O
REMARK SMILES IDX 6 1 5 2 3 3 4 4 23 5 22 6 21 7 2 8 1 9 24 10 7 12 8 13 9 14
REMARK SMILES IDX 20 15 10 16 11 17 12 18 13 19 18 20 14 21 17 22 15 23 19 24
REMARK SMILES IDX 16 25
REMARK H PARENT 24 11
ROOT
ATOM      1  C   UNL     1      11.962 -60.213 -23.437  1.00  0.00     0.014 C 
ENDROOT
BRANCH   1   2
ATOM      2  C   UNL     1      11.216 -60.501 -24.669  1.00  0.00    -0.022 A 
ATOM      3  C   UNL     1      10.742 -60.118 -27.023  1.00  0.00     0.161 A 
ATOM      4  C   UNL     1      11.454 -59.800 -25.865  1.00  0.00     0.058 A 
ATOM      5  C   UNL     1       9.799 -61.149 -26.975  1.00  0.00     0.157 A 
ATOM      6  C   UNL     1       9.561 -61.863 -25.809  1.00  0.00     0.051 A 
ATOM      7  C   UNL     1      10.276 -61.542 -24.656  1.00  0.00     0.012 A 
BRANCH   3   8
ATOM      8  O   UNL     1      10.873 -59.512 -28.248  1.00  0.00    -0.493 OA
ATOM      9  C   UNL     1      12.040 -59.831 -28.997  1.00  0.00     0.278 C 
ENDBRANCH   3   8
BRANCH   5  10
ATOM     10  O   UNL     1       9.085 -61.483 -28.094  1.00  0.00    -0.504 OA
ATOM     11  H   UNL     1       9.455 -60.926 -28.805  1.00  0.00     0.293 HD
ENDBRANCH   5  10
ENDBRANCH   1   2
BRANCH   1  12
ATOM     12  C   UNL     1      11.489 -59.442 -22.445  1.00  0.00     0.071 C 
BRANCH  12  13
ATOM     13  C   UNL     1      10.857 -58.199 -22.713  1.00  0.00     0.241 A 
ATOM     14  N   UNL     1       9.652 -57.988 -23.227  1.00  0.00    -0.108 NA
ATOM     15  O   UNL     1      11.477 -56.991 -22.444  1.00  0.00    -0.417 OA
ATOM     16  N   UNL     1       9.458 -56.626 -23.308  1.00  0.00    -0.107 NA
ATOM     17  C   UNL     1      10.552 -56.068 -22.838  1.00  0.00     0.251 A 
BRANCH  17  18
ATOM     18  C   UNL     1      10.882 -54.657 -22.696  1.00  0.00     0.075 A 
ATOM     19  C   UNL     1      10.568 -53.996 -21.495  1.00  0.00     0.020 A 
ATOM     20  C   UNL     1      11.506 -53.918 -23.711  1.00  0.00     0.138 A 
ATOM     21  C   UNL     1      10.870 -52.642 -21.324  1.00  0.00     0.040 A 
ATOM     22  C   UNL     1      11.810 -52.568 -23.547  1.00  0.00     0.079 A 
ATOM     23  C   UNL     1      11.488 -51.942 -22.352  1.00  0.00     0.126 A 
ATOM     24  F   UNL     1      11.835 -54.489 -24.879  1.00  0.00    -0.206 F 
ATOM     25  F   UNL     1      11.778 -50.644 -22.188  1.00  0.00    -0.207 F 
ENDBRANCH  17  18
ENDBRANCH  12  13
ENDBRANCH   1  12
TORSDOF 6
ENDMDL
MODEL 5
REMARK VINA RESULT:   -10.100      1.997      2.460
REMARK INTER + INTRA:         -13.798
REMARK INTER:                 -13.197
REMARK INTRA:                  -0.601
REMARK UNBOUND:                -0.450
REMARK SMILES COc1cc(/C=C/c2nnc(-c3ccc(F)cc3F)o2)ccc1O
REMARK SMILES IDX 6 1 5 2 3 3 4 4 23 5 22 6 21 7 2 8 1 9 24 10 7 12 8 13 9 14
REMARK SMILES IDX 20 15 10 16 11 17 12 18 13 19 18 20 14 21 17 22 15 23 19 24
REMARK SMILES IDX 16 25
REMARK H PARENT 24 11
ROOT
ATOM      1  C   UNL     1      11.884 -59.976 -23.230  1.00  0.00     0.014 C 
ENDROOT
BRANCH   1   2
ATOM      2  C   UNL     1      10.976 -60.712 -24.119  1.00  0.00    -0.022 A 
ATOM      3  C   UNL     1       9.314 -62.441 -24.526  1.00  0.00     0.161 A 
ATOM      4  C   UNL     1      10.184 -61.780 -23.657  1.00  0.00     0.058 A 
ATOM      5  C   UNL     1       9.238 -62.018 -25.857  1.00  0.00     0.157 A 
ATOM      6  C   UNL     1       9.999 -60.957 -26.328  1.00  0.00     0.051 A 
ATOM      7  C   UNL     1      10.865 -60.300 -25.455  1.00  0.00     0.012 A 
BRANCH   3   8
ATOM      8  O   UNL     1       8.494 -63.494 -24.207  1.00  0.00    -0.493 OA
ATOM      9  C   UNL     1       7.615 -63.308 -23.104  1.00  0.00     0.278 C 
ENDBRANCH   3   8
BRANCH   5  10
ATOM     10  O   UNL     1       8.395 -62.647 -26.733  1.00  0.00    -0.504 OA
ATOM     11  H   UNL     1       7.688 -63.026 -26.175  1.00  0.00     0.293 HD
ENDBRANCH   5  10
ENDBRANCH   1   2
BRANCH   1  12
ATOM     12  C   UNL     1      11.465 -59.125 -22.280  1.00  0.00     0.071 C 
BRANCH  12  13
ATOM     13  C   UNL     1      10.867 -57.881 -22.615  1.00  0.00     0.241 A 
ATOM     14  N   UNL     1       9.668 -57.665 -23.139  1.00  0.00    -0.108 NA
ATOM     15  O   UNL     1      11.521 -56.678 -22.412  1.00  0.00    -0.417 OA
ATOM     16  N   UNL     1       9.510 -56.305 -23.293  1.00  0.00    -0.107 NA
ATOM     17  C   UNL     1      10.621 -55.752 -22.855  1.00  0.00     0.251 A 
BRANCH  17  18
ATOM     18  C   UNL     1      10.989 -54.346 -22.790  1.00  0.00     0.075 A 
ATOM     19  C   UNL     1      10.593 -53.583 -21.677  1.00  0.00     0.020 A 
ATOM     20  C   UNL     1      11.731 -53.708 -23.794  1.00  0.00     0.138 A 
ATOM     21  C   UNL     1      10.929 -52.229 -21.581  1.00  0.00     0.040 A 
ATOM     22  C   UNL     1      12.069 -52.359 -23.705  1.00  0.00     0.079 A 
ATOM     23  C   UNL     1      11.664 -51.631 -22.597  1.00  0.00     0.126 A 
ATOM     24  F   UNL     1      12.143 -54.379 -24.880  1.00  0.00    -0.206 F 
ATOM     25  F   UNL     1      11.986 -50.334 -22.504  1.00  0.00    -0.207 F 
ENDBRANCH  17  18
ENDBRANCH  12  13
ENDBRANCH   1  12
TORSDOF 6
ENDMDL
MODEL 6
REMARK VINA RESULT:   -10.100      3.727      8.730
REMARK INTER + INTRA:         -13.797
REMARK INTER:                 -13.439
REMARK INTRA:                  -0.358
REMARK UNBOUND:                -0.450
REMARK SMILES COc1cc(/C=C/c2nnc(-c3ccc(F)cc3F)o2)ccc1O
REMARK SMILES IDX 6 1 5 2 3 3 4 4 23 5 22 6 21 7 2 8 1 9 24 10 7 12 8 13 9 14
REMARK SMILES IDX 20 15 10 16 11 17 12 18 13 19 18 20 14 21 17 22 15 23 19 24
REMARK SMILES IDX 16 25
REMARK H PARENT 24 11
ROOT
ATOM      1  C   UNL     1      10.599 -54.731 -22.897  1.00  0.00     0.014 C 
ENDROOT
BRANCH   1   2
ATOM      2  C   UNL     1      11.360 -53.607 -23.458  1.00  0.00    -0.022 A 
ATOM      3  C   UNL     1      12.131 -51.301 -23.397  1.00  0.00     0.161 A 
ATOM      4  C   UNL     1      11.377 -52.340 -22.848  1.00  0.00     0.058 A 
ATOM      5  C   UNL     1      12.875 -51.546 -24.556  1.00  0.00     0.157 A 
ATOM      6  C   UNL     1      12.884 -52.794 -25.164  1.00  0.00     0.051 A 
ATOM      7  C   UNL     1      12.130 -53.827 -24.610  1.00  0.00     0.012 A 
BRANCH   3   8
ATOM      8  O   UNL     1      12.231 -50.023 -22.907  1.00  0.00    -0.493 OA
ATOM      9  C   UNL     1      11.009 -49.332 -22.672  1.00  0.00     0.278 C 
ENDBRANCH   3   8
BRANCH   5  10
ATOM     10  O   UNL     1      13.624 -50.548 -25.118  1.00  0.00    -0.504 OA
ATOM     11  H   UNL     1      13.266 -49.722 -24.742  1.00  0.00     0.293 HD
ENDBRANCH   5  10
ENDBRANCH   1   2
BRANCH   1  12
ATOM     12  C   UNL     1      11.171 -55.817 -22.353  1.00  0.00     0.071 C 
BRANCH  12  13
ATOM     13  C   UNL     1      11.227 -57.051 -23.053  1.00  0.00     0.241 A 
ATOM     14  N   UNL     1      11.878 -57.326 -24.176  1.00  0.00    -0.108 NA
ATOM     15  O   UNL     1      10.562 -58.178 -22.602  1.00  0.00    -0.417 OA
ATOM     16  N   UNL     1      11.649 -58.648 -24.487  1.00  0.00    -0.107 NA
ATOM     17  C   UNL     1      10.869 -59.121 -23.539  1.00  0.00     0.251 A 
BRANCH  17  18
ATOM     18  C   UNL     1      10.321 -60.460 -23.376  1.00  0.00     0.075 A 
ATOM     19  C   UNL     1       9.981 -61.207 -24.519  1.00  0.00     0.020 A 
ATOM     20  C   UNL     1      10.113 -61.047 -22.120  1.00  0.00     0.138 A 
ATOM     21  C   UNL     1       9.451 -62.495 -24.400  1.00  0.00     0.040 A 
ATOM     22  C   UNL     1       9.586 -62.331 -21.994  1.00  0.00     0.079 A 
ATOM     23  C   UNL     1       9.260 -63.044 -23.138  1.00  0.00     0.126 A 
ATOM     24  F   UNL     1      10.420 -60.391 -20.991  1.00  0.00    -0.206 F 
ATOM     25  F   UNL     1       8.753 -64.279 -23.025  1.00  0.00    -0.207 F 
ENDBRANCH  17  18
ENDBRANCH  12  13
ENDBRANCH   1  12
TORSDOF 6
ENDMDL
MODEL 7
REMARK VINA RESULT:   -10.094      3.586      8.711
REMARK INTER + INTRA:         -13.789
REMARK INTER:                 -13.315
REMARK INTRA:                  -0.475
REMARK UNBOUND:                -0.450
REMARK SMILES COc1cc(/C=C/c2nnc(-c3ccc(F)cc3F)o2)ccc1O
REMARK SMILES IDX 6 1 5 2 3 3 4 4 23 5 22 6 21 7 2 8 1 9 24 10 7 12 8 13 9 14
REMARK SMILES IDX 20 15 10 16 11 17 12 18 13 19 18 20 14 21 17 22 15 23 19 24
REMARK SMILES IDX 16 25
REMARK H PARENT 24 11
ROOT
ATOM      1  C   UNL     1      10.602 -55.199 -22.918  1.00  0.00     0.014 C 
ENDROOT
BRANCH   1   2
ATOM      2  C   UNL     1      11.045 -53.815 -22.703  1.00  0.00    -0.022 A 
ATOM      3  C   UNL     1      12.126 -51.772 -23.459  1.00  0.00     0.161 A 
ATOM      4  C   UNL     1      11.742 -53.094 -23.690  1.00  0.00     0.058 A 
ATOM      5  C   UNL     1      11.797 -51.176 -22.237  1.00  0.00     0.157 A 
ATOM      6  C   UNL     1      11.096 -51.866 -21.257  1.00  0.00     0.051 A 
ATOM      7  C   UNL     1      10.715 -53.186 -21.494  1.00  0.00     0.012 A 
BRANCH   3   8
ATOM      8  O   UNL     1      12.810 -50.962 -24.330  1.00  0.00    -0.493 OA
ATOM      9  C   UNL     1      13.295 -51.570 -25.522  1.00  0.00     0.278 C 
ENDBRANCH   3   8
BRANCH   5  10
ATOM     10  O   UNL     1      12.160 -49.882 -21.981  1.00  0.00    -0.504 OA
ATOM     11  H   UNL     1      12.138 -49.437 -22.851  1.00  0.00     0.293 HD
ENDBRANCH   5  10
ENDBRANCH   1   2
BRANCH   1  12
ATOM     12  C   UNL     1      11.312 -56.274 -22.538  1.00  0.00     0.071 C 
BRANCH  12  13
ATOM     13  C   UNL     1      11.241 -57.498 -23.255  1.00  0.00     0.241 A 
ATOM     14  N   UNL     1      11.906 -57.844 -24.350  1.00  0.00    -0.108 NA
ATOM     15  O   UNL     1      10.411 -58.531 -22.856  1.00  0.00    -0.417 OA
ATOM     16  N   UNL     1      11.521 -59.121 -24.693  1.00  0.00    -0.107 NA
ATOM     17  C   UNL     1      10.639 -59.497 -23.792  1.00  0.00     0.251 A 
BRANCH  17  18
ATOM     18  C   UNL     1       9.912 -60.753 -23.678  1.00  0.00     0.075 A 
ATOM     19  C   UNL     1      10.571 -61.884 -23.164  1.00  0.00     0.020 A 
ATOM     20  C   UNL     1       8.570 -60.890 -24.060  1.00  0.00     0.138 A 
ATOM     21  C   UNL     1       9.904 -63.107 -23.041  1.00  0.00     0.040 A 
ATOM     22  C   UNL     1       7.898 -62.106 -23.939  1.00  0.00     0.079 A 
ATOM     23  C   UNL     1       8.574 -63.204 -23.431  1.00  0.00     0.126 A 
ATOM     24  F   UNL     1       7.882 -59.849 -24.554  1.00  0.00    -0.206 F 
ATOM     25  F   UNL     1       7.935 -64.376 -23.312  1.00  0.00    -0.207 F 
ENDBRANCH  17  18
ENDBRANCH  12  13
ENDBRANCH   1  12
TORSDOF 6
ENDMDL
MODEL 8
REMARK VINA RESULT:   -10.073      3.371      4.935
REMARK INTER + INTRA:         -13.762
REMARK INTER:                 -13.502
REMARK INTRA:                  -0.260
REMARK UNBOUND:                -0.450
REMARK SMILES COc1cc(/C=C/c2nnc(-c3ccc(F)cc3F)o2)ccc1O
REMARK SMILES IDX 6 1 5 2 3 3 4 4 23 5 22 6 21 7 2 8 1 9 24 10 7 12 8 13 9 14
REMARK SMILES IDX 20 15 10 16 11 17 12 18 13 19 18 20 14 21 17 22 15 23 19 24
REMARK SMILES IDX 16 25
REMARK H PARENT 24 11
ROOT
ATOM      1  C   UNL     1      11.307 -56.850 -21.955  1.00  0.00     0.014 C 
ENDROOT
BRANCH   1   2
ATOM      2  C   UNL     1      11.308 -58.247 -22.409  1.00  0.00    -0.022 A 
ATOM      3  C   UNL     1      11.993 -59.995 -23.956  1.00  0.00     0.161 A 
ATOM      4  C   UNL     1      11.994 -58.654 -23.569  1.00  0.00     0.058 A 
ATOM      5  C   UNL     1      11.308 -60.926 -23.168  1.00  0.00     0.157 A 
ATOM      6  C   UNL     1      10.639 -60.547 -22.012  1.00  0.00     0.051 A 
ATOM      7  C   UNL     1      10.644 -59.206 -21.630  1.00  0.00     0.012 A 
BRANCH   3   8
ATOM      8  O   UNL     1      12.614 -60.521 -25.061  1.00  0.00    -0.493 OA
ATOM      9  C   UNL     1      12.199 -60.020 -26.327  1.00  0.00     0.278 C 
ENDBRANCH   3   8
BRANCH   5  10
ATOM     10  O   UNL     1      11.289 -62.247 -23.522  1.00  0.00    -0.504 OA
ATOM     11  H   UNL     1      11.089 -62.727 -22.696  1.00  0.00     0.293 HD
ENDBRANCH   5  10
ENDBRANCH   1   2
BRANCH   1  12
ATOM     12  C   UNL     1      10.406 -55.940 -22.358  1.00  0.00     0.071 C 
BRANCH  12  13
ATOM     13  C   UNL     1      10.640 -54.548 -22.197  1.00  0.00     0.241 A 
ATOM     14  N   UNL     1      10.276 -53.770 -21.187  1.00  0.00    -0.108 NA
ATOM     15  O   UNL     1      11.325 -53.808 -23.145  1.00  0.00    -0.417 OA
ATOM     16  N   UNL     1      10.716 -52.492 -21.455  1.00  0.00    -0.107 NA
ATOM     17  C   UNL     1      11.330 -52.549 -22.617  1.00  0.00     0.251 A 
BRANCH  17  18
ATOM     18  C   UNL     1      11.981 -51.488 -23.371  1.00  0.00     0.075 A 
ATOM     19  C   UNL     1      12.782 -51.823 -24.478  1.00  0.00     0.020 A 
ATOM     20  C   UNL     1      11.846 -50.131 -23.044  1.00  0.00     0.138 A 
ATOM     21  C   UNL     1      13.422 -50.830 -25.225  1.00  0.00     0.040 A 
ATOM     22  C   UNL     1      12.481 -49.136 -23.784  1.00  0.00     0.079 A 
ATOM     23  C   UNL     1      13.265 -49.497 -24.870  1.00  0.00     0.126 A 
ATOM     24  F   UNL     1      11.094 -49.744 -22.003  1.00  0.00    -0.206 F 
ATOM     25  F   UNL     1      13.879 -48.545 -25.586  1.00  0.00    -0.207 F 
ENDBRANCH  17  18
ENDBRANCH  12  13
ENDBRANCH   1  12
TORSDOF 6
ENDMDL
MODEL 9
REMARK VINA RESULT:    -9.702      3.802      8.916
REMARK INTER + INTRA:         -13.271
REMARK INTER:                 -12.916
REMARK INTRA:                  -0.355
REMARK UNBOUND:                -0.450
REMARK SMILES COc1cc(/C=C/c2nnc(-c3ccc(F)cc3F)o2)ccc1O
REMARK SMILES IDX 6 1 5 2 3 3 4 4 23 5 22 6 21 7 2 8 1 9 24 10 7 12 8 13 9 14
REMARK SMILES IDX 20 15 10 16 11 17 12 18 13 19 18 20 14 21 17 22 15 23 19 24
REMARK SMILES IDX 16 25
REMARK H PARENT 24 11
ROOT
ATOM      1  C   UNL     1      11.430 -54.161 -23.149  1.00  0.00     0.014 C 
ENDROOT
BRANCH   1   2
ATOM      2  C   UNL     1      11.100 -52.760 -22.854  1.00  0.00    -0.022 A 
ATOM      3  C   UNL     1      11.636 -50.388 -22.859  1.00  0.00     0.161 A 
ATOM      4  C   UNL     1      11.994 -51.710 -23.131  1.00  0.00     0.058 A 
ATOM      5  C   UNL     1      10.373 -50.127 -22.319  1.00  0.00     0.157 A 
ATOM      6  C   UNL     1       9.470 -51.148 -22.054  1.00  0.00     0.051 A 
ATOM      7  C   UNL     1       9.833 -52.466 -22.329  1.00  0.00     0.012 A 
BRANCH   3   8
ATOM      8  O   UNL     1      12.412 -49.277 -23.075  1.00  0.00    -0.493 OA
ATOM      9  C   UNL     1      13.777 -49.505 -23.405  1.00  0.00     0.278 C 
ENDBRANCH   3   8
BRANCH   5  10
ATOM     10  O   UNL     1       9.993 -48.842 -22.042  1.00  0.00    -0.504 OA
ATOM     11  H   UNL     1       9.214 -48.929 -21.459  1.00  0.00     0.293 HD
ENDBRANCH   5  10
ENDBRANCH   1   2
BRANCH   1  12
ATOM     12  C   UNL     1      10.510 -55.131 -23.270  1.00  0.00     0.071 C 
BRANCH  12  13
ATOM     13  C   UNL     1      10.706 -56.412 -22.687  1.00  0.00     0.241 A 
ATOM     14  N   UNL     1      11.342 -56.710 -21.562  1.00  0.00    -0.108 NA
ATOM     15  O   UNL     1      10.216 -57.565 -23.276  1.00  0.00    -0.417 OA
ATOM     16  N   UNL     1      11.283 -58.075 -21.390  1.00  0.00    -0.107 NA
ATOM     17  C   UNL     1      10.612 -58.549 -22.418  1.00  0.00     0.251 A 
BRANCH  17  18
ATOM     18  C   UNL     1      10.260 -59.925 -22.736  1.00  0.00     0.075 A 
ATOM     19  C   UNL     1       9.872 -60.792 -21.700  1.00  0.00     0.020 A 
ATOM     20  C   UNL     1      10.289 -60.433 -24.043  1.00  0.00     0.138 A 
ATOM     21  C   UNL     1       9.528 -62.121 -21.969  1.00  0.00     0.040 A 
ATOM     22  C   UNL     1       9.947 -61.755 -24.319  1.00  0.00     0.079 A 
ATOM     23  C   UNL     1       9.569 -62.588 -23.276  1.00  0.00     0.126 A 
ATOM     24  F   UNL     1      10.647 -59.657 -25.078  1.00  0.00    -0.206 F 
ATOM     25  F   UNL     1       9.239 -63.860 -23.534  1.00  0.00    -0.207 F 
ENDBRANCH  17  18
ENDBRANCH  12  13
ENDBRANCH   1  12
TORSDOF 6
ENDMDL
