MODEL 1
REMARK VINA RESULT:    -9.951      0.000      0.000
REMARK INTER + INTRA:         -14.964
REMARK INTER:                 -13.732
REMARK INTRA:                  -1.232
REMARK UNBOUND:                -1.232
REMARK SMILES COc1cccc([C@@H]2CC(c3cc(F)ccc3F)=NN2c2ccc(S(N)(=O)=O)cc2)c1OC
REMARK SMILES IDX 21 1 22 2 23 3 24 4 29 5 30 6 20 7 8 8 9 9 10 10 19 11 7 12
REMARK SMILES IDX 3 13 4 14 31 15 5 16 6 17 2 18 1 19 32 20 33 21 11 22 12 23
REMARK SMILES IDX 17 24 13 25 16 26 15 27 18 28 14 29 25 30 27 31 28 32 26 33
REMARK H PARENT 26 34 26 35
ROOT
ATOM      1  C   UNL     1      12.055 -52.185 -23.539  1.00  0.00     0.060 A 
ATOM      2  C   UNL     1      12.209 -53.166 -24.538  1.00  0.00     0.029 A 
ATOM      3  C   UNL     1      11.768 -54.483 -24.366  1.00  0.00     0.024 A 
ATOM      4  C   UNL     1      11.146 -54.844 -23.175  1.00  0.00     0.082 A 
ATOM      5  C   UNL     1      10.988 -53.907 -22.156  1.00  0.00     0.024 A 
ATOM      6  C   UNL     1      11.437 -52.593 -22.345  1.00  0.00     0.029 A 
ENDROOT
BRANCH   1   7
ATOM      7  N   UNL     1      12.501 -50.882 -23.752  1.00  0.00    -0.257 N 
ATOM      8  C   UNL     1      13.406 -50.430 -24.816  1.00  0.00     0.148 C 
ATOM      9  C   UNL     1      13.204 -48.913 -24.829  1.00  0.00     0.091 C 
ATOM     10  C   UNL     1      12.340 -48.742 -23.612  1.00  0.00     0.074 C 
ATOM     11  N   UNL     1      11.928 -49.846 -23.066  1.00  0.00    -0.176 NA
BRANCH   8  12
ATOM     12  C   UNL     1      14.858 -50.837 -24.606  1.00  0.00     0.023 A 
ATOM     13  C   UNL     1      17.131 -51.346 -25.399  1.00  0.00     0.161 A 
ATOM     14  C   UNL     1      17.514 -51.653 -24.092  1.00  0.00     0.050 A 
ATOM     15  C   UNL     1      15.809 -50.918 -25.644  1.00  0.00     0.166 A 
ATOM     16  C   UNL     1      16.590 -51.568 -23.051  1.00  0.00     0.004 A 
ATOM     17  C   UNL     1      15.278 -51.175 -23.306  1.00  0.00     0.010 A 
BRANCH  13  18
ATOM     18  O   UNL     1      17.955 -51.442 -26.491  1.00  0.00    -0.493 OA
ATOM     19  C   UNL     1      19.304 -51.824 -26.268  1.00  0.00     0.278 C 
ENDBRANCH  13  18
BRANCH  15  20
ATOM     20  O   UNL     1      15.401 -50.662 -26.932  1.00  0.00    -0.492 OA
ATOM     21  C   UNL     1      15.762 -49.335 -27.323  1.00  0.00     0.278 C 
ENDBRANCH  15  20
ENDBRANCH   8  12
BRANCH  10  22
ATOM     22  C   UNL     1      11.968 -47.411 -23.085  1.00  0.00     0.037 A 
ATOM     23  C   UNL     1      11.099 -46.611 -23.837  1.00  0.00     0.052 A 
ATOM     24  C   UNL     1      12.454 -46.927 -21.867  1.00  0.00     0.132 A 
ATOM     25  C   UNL     1      10.728 -45.358 -23.360  1.00  0.00     0.124 A 
ATOM     26  C   UNL     1      12.078 -45.668 -21.396  1.00  0.00     0.043 A 
ATOM     27  C   UNL     1      11.209 -44.879 -22.146  1.00  0.00     0.042 A 
ATOM     28  F   UNL     1      13.304 -47.646 -21.120  1.00  0.00    -0.206 F 
ATOM     29  F   UNL     1       9.894 -44.598 -24.080  1.00  0.00    -0.207 F 
ENDBRANCH  10  22
ENDBRANCH   1   7
BRANCH   4  30
ATOM     30  S   UNL     1      10.610 -56.509 -22.934  1.00  0.00     0.238 S 
ATOM     31  O   UNL     1       9.253 -56.648 -23.411  1.00  0.00    -0.207 OA
ATOM     32  O   UNL     1      11.020 -56.960 -21.625  1.00  0.00    -0.207 OA
BRANCH  30  33
ATOM     33  N   UNL     1      11.567 -57.347 -24.031  1.00  0.00    -0.225 NA
ATOM     34  H   UNL     1      12.552 -57.221 -23.797  1.00  0.00     0.137 HD
ATOM     35  H   UNL     1      11.272 -58.322 -24.075  1.00  0.00     0.137 HD
ENDBRANCH  30  33
ENDBRANCH   4  30
TORSDOF 7
ENDMDL
MODEL 2
REMARK VINA RESULT:    -8.872      1.710      2.399
REMARK INTER + INTRA:         -13.475
REMARK INTER:                 -12.097
REMARK INTRA:                  -1.378
REMARK UNBOUND:                -1.232
REMARK SMILES COc1cccc([C@@H]2CC(c3cc(F)ccc3F)=NN2c2ccc(S(N)(=O)=O)cc2)c1OC
REMARK SMILES IDX 21 1 22 2 23 3 24 4 29 5 30 6 20 7 8 8 9 9 10 10 19 11 7 12
REMARK SMILES IDX 3 13 4 14 31 15 5 16 6 17 2 18 1 19 32 20 33 21 11 22 12 23
REMARK SMILES IDX 17 24 13 25 16 26 15 27 18 28 14 29 25 30 27 31 28 32 26 33
REMARK H PARENT 26 34 26 35
ROOT
ATOM      1  C   UNL     1      12.122 -50.466 -23.369  1.00  0.00     0.060 A 
ATOM      2  C   UNL     1      11.191 -50.626 -22.324  1.00  0.00     0.029 A 
ATOM      3  C   UNL     1      10.646 -51.872 -21.994  1.00  0.00     0.024 A 
ATOM      4  C   UNL     1      11.037 -52.999 -22.711  1.00  0.00     0.082 A 
ATOM      5  C   UNL     1      11.944 -52.880 -23.761  1.00  0.00     0.024 A 
ATOM      6  C   UNL     1      12.479 -51.624 -24.078  1.00  0.00     0.029 A 
ENDROOT
BRANCH   1   7
ATOM      7  N   UNL     1      12.647 -49.209 -23.661  1.00  0.00    -0.257 N 
ATOM      8  C   UNL     1      13.514 -48.863 -24.795  1.00  0.00     0.148 C 
ATOM      9  C   UNL     1      13.424 -47.337 -24.858  1.00  0.00     0.091 C 
ATOM     10  C   UNL     1      12.652 -47.059 -23.598  1.00  0.00     0.074 C 
ATOM     11  N   UNL     1      12.196 -48.108 -22.985  1.00  0.00    -0.176 NA
BRANCH   8  12
ATOM     12  C   UNL     1      14.944 -49.371 -24.657  1.00  0.00     0.023 A 
ATOM     13  C   UNL     1      16.931 -50.577 -25.460  1.00  0.00     0.161 A 
ATOM     14  C   UNL     1      17.582 -50.299 -24.257  1.00  0.00     0.050 A 
ATOM     15  C   UNL     1      15.622 -50.091 -25.660  1.00  0.00     0.166 A 
ATOM     16  C   UNL     1      16.931 -49.578 -23.256  1.00  0.00     0.004 A 
ATOM     17  C   UNL     1      15.626 -49.128 -23.450  1.00  0.00     0.010 A 
BRANCH  13  18
ATOM     18  O   UNL     1      17.473 -51.314 -26.482  1.00  0.00    -0.493 OA
ATOM     19  C   UNL     1      18.137 -52.523 -26.144  1.00  0.00     0.278 C 
ENDBRANCH  13  18
BRANCH  15  20
ATOM     20  O   UNL     1      14.948 -50.401 -26.818  1.00  0.00    -0.492 OA
ATOM     21  C   UNL     1      15.100 -49.361 -27.787  1.00  0.00     0.278 C 
ENDBRANCH  15  20
ENDBRANCH   8  12
BRANCH  10  22
ATOM     22  C   UNL     1      12.412 -45.685 -23.104  1.00  0.00     0.037 A 
ATOM     23  C   UNL     1      13.407 -45.065 -22.338  1.00  0.00     0.052 A 
ATOM     24  C   UNL     1      11.231 -44.989 -23.376  1.00  0.00     0.132 A 
ATOM     25  C   UNL     1      13.209 -43.771 -21.868  1.00  0.00     0.124 A 
ATOM     26  C   UNL     1      11.040 -43.691 -22.900  1.00  0.00     0.043 A 
ATOM     27  C   UNL     1      12.035 -43.077 -22.143  1.00  0.00     0.042 A 
ATOM     28  F   UNL     1      10.241 -45.545 -24.088  1.00  0.00    -0.206 F 
ATOM     29  F   UNL     1      14.164 -43.180 -21.139  1.00  0.00    -0.207 F 
ENDBRANCH  10  22
ENDBRANCH   1   7
BRANCH   4  30
ATOM     30  S   UNL     1      10.336 -54.572 -22.323  1.00  0.00     0.238 S 
ATOM     31  O   UNL     1       9.089 -54.380 -21.618  1.00  0.00    -0.207 OA
ATOM     32  O   UNL     1      11.372 -55.452 -21.835  1.00  0.00    -0.207 OA
BRANCH  30  33
ATOM     33  N   UNL     1       9.916 -55.152 -23.842  1.00  0.00    -0.225 NA
ATOM     34  H   UNL     1       9.479 -54.408 -24.386  1.00  0.00     0.137 HD
ATOM     35  H   UNL     1      10.730 -55.571 -24.290  1.00  0.00     0.137 HD
ENDBRANCH  30  33
ENDBRANCH   4  30
TORSDOF 7
ENDMDL
MODEL 3
REMARK VINA RESULT:    -8.764      4.529      7.393
REMARK INTER + INTRA:         -13.326
REMARK INTER:                 -11.930
REMARK INTRA:                  -1.396
REMARK UNBOUND:                -1.232
REMARK SMILES COc1cccc([C@@H]2CC(c3cc(F)ccc3F)=NN2c2ccc(S(N)(=O)=O)cc2)c1OC
REMARK SMILES IDX 21 1 22 2 23 3 24 4 29 5 30 6 20 7 8 8 9 9 10 10 19 11 7 12
REMARK SMILES IDX 3 13 4 14 31 15 5 16 6 17 2 18 1 19 32 20 33 21 11 22 12 23
REMARK SMILES IDX 17 24 13 25 16 26 15 27 18 28 14 29 25 30 27 31 28 32 26 33
REMARK H PARENT 26 34 26 35
ROOT
ATOM      1  C   UNL     1      12.668 -47.731 -23.652  1.00  0.00     0.060 A 
ATOM      2  C   UNL     1      12.590 -46.960 -24.829  1.00  0.00     0.029 A 
ATOM      3  C   UNL     1      12.257 -45.601 -24.811  1.00  0.00     0.024 A 
ATOM      4  C   UNL     1      12.003 -44.977 -23.593  1.00  0.00     0.082 A 
ATOM      5  C   UNL     1      12.056 -45.708 -22.408  1.00  0.00     0.024 A 
ATOM      6  C   UNL     1      12.389 -47.068 -22.445  1.00  0.00     0.029 A 
ENDROOT
BRANCH   1   7
ATOM      7  N   UNL     1      13.010 -49.080 -23.713  1.00  0.00    -0.257 N 
ATOM      8  C   UNL     1      14.365 -49.636 -23.818  1.00  0.00     0.148 C 
ATOM      9  C   UNL     1      14.177 -51.102 -23.419  1.00  0.00     0.091 C 
ATOM     10  C   UNL     1      12.678 -51.172 -23.338  1.00  0.00     0.074 C 
ATOM     11  N   UNL     1      12.064 -50.034 -23.457  1.00  0.00    -0.176 NA
BRANCH   8  12
ATOM     12  C   UNL     1      14.997 -49.468 -25.193  1.00  0.00     0.023 A 
ATOM     13  C   UNL     1      16.836 -48.840 -26.701  1.00  0.00     0.161 A 
ATOM     14  C   UNL     1      16.036 -49.154 -27.802  1.00  0.00     0.050 A 
ATOM     15  C   UNL     1      16.317 -49.021 -25.402  1.00  0.00     0.166 A 
ATOM     16  C   UNL     1      14.731 -49.608 -27.615  1.00  0.00     0.004 A 
ATOM     17  C   UNL     1      14.215 -49.754 -26.328  1.00  0.00     0.010 A 
BRANCH  13  18
ATOM     18  O   UNL     1      18.113 -48.347 -26.787  1.00  0.00    -0.493 OA
ATOM     19  C   UNL     1      18.715 -48.295 -28.072  1.00  0.00     0.278 C 
ENDBRANCH  13  18
BRANCH  15  20
ATOM     20  O   UNL     1      17.073 -48.667 -24.309  1.00  0.00    -0.492 OA
ATOM     21  C   UNL     1      17.867 -49.770 -23.864  1.00  0.00     0.278 C 
ENDBRANCH  15  20
ENDBRANCH   8  12
BRANCH  10  22
ATOM     22  C   UNL     1      11.956 -52.444 -23.119  1.00  0.00     0.037 A 
ATOM     23  C   UNL     1      11.336 -52.658 -21.881  1.00  0.00     0.052 A 
ATOM     24  C   UNL     1      11.872 -53.434 -24.102  1.00  0.00     0.132 A 
ATOM     25  C   UNL     1      10.644 -53.844 -21.653  1.00  0.00     0.124 A 
ATOM     26  C   UNL     1      11.176 -54.621 -23.864  1.00  0.00     0.043 A 
ATOM     27  C   UNL     1      10.558 -54.827 -22.634  1.00  0.00     0.042 A 
ATOM     28  F   UNL     1      12.464 -53.285 -25.295  1.00  0.00    -0.206 F 
ATOM     29  F   UNL     1      10.051 -54.043 -20.470  1.00  0.00    -0.207 F 
ENDBRANCH  10  22
ENDBRANCH   1   7
BRANCH   4  30
ATOM     30  S   UNL     1      11.555 -43.269 -23.558  1.00  0.00     0.238 S 
ATOM     31  O   UNL     1      12.603 -42.488 -24.172  1.00  0.00    -0.207 OA
ATOM     32  O   UNL     1      11.006 -42.944 -22.262  1.00  0.00    -0.207 OA
BRANCH  30  33
ATOM     33  N   UNL     1      10.264 -43.224 -24.631  1.00  0.00    -0.225 NA
ATOM     34  H   UNL     1       9.389 -43.356 -24.124  1.00  0.00     0.137 HD
ATOM     35  H   UNL     1      10.300 -42.366 -25.181  1.00  0.00     0.137 HD
ENDBRANCH  30  33
ENDBRANCH   4  30
TORSDOF 7
ENDMDL
MODEL 4
REMARK VINA RESULT:    -8.627      3.335      6.012
REMARK INTER + INTRA:         -13.137
REMARK INTER:                 -11.912
REMARK INTRA:                  -1.225
REMARK UNBOUND:                -1.232
REMARK SMILES COc1cccc([C@@H]2CC(c3cc(F)ccc3F)=NN2c2ccc(S(N)(=O)=O)cc2)c1OC
REMARK SMILES IDX 21 1 22 2 23 3 24 4 29 5 30 6 20 7 8 8 9 9 10 10 19 11 7 12
REMARK SMILES IDX 3 13 4 14 31 15 5 16 6 17 2 18 1 19 32 20 33 21 11 22 12 23
REMARK SMILES IDX 17 24 13 25 16 26 15 27 18 28 14 29 25 30 27 31 28 32 26 33
REMARK H PARENT 26 34 26 35
ROOT
ATOM      1  C   UNL     1      13.295 -51.435 -25.001  1.00  0.00     0.060 A 
ATOM      2  C   UNL     1      13.244 -52.700 -25.620  1.00  0.00     0.029 A 
ATOM      3  C   UNL     1      12.498 -53.760 -25.093  1.00  0.00     0.024 A 
ATOM      4  C   UNL     1      11.769 -53.565 -23.924  1.00  0.00     0.082 A 
ATOM      5  C   UNL     1      11.804 -52.333 -23.274  1.00  0.00     0.024 A 
ATOM      6  C   UNL     1      12.558 -51.284 -23.815  1.00  0.00     0.029 A 
ENDROOT
BRANCH   1   7
ATOM      7  N   UNL     1      14.044 -50.403 -25.562  1.00  0.00    -0.257 N 
ATOM      8  C   UNL     1      14.742 -49.333 -24.838  1.00  0.00     0.148 C 
ATOM      9  C   UNL     1      15.712 -48.774 -25.881  1.00  0.00     0.091 C 
ATOM     10  C   UNL     1      15.253 -49.516 -27.105  1.00  0.00     0.074 C 
ATOM     11  N   UNL     1      14.366 -50.441 -26.892  1.00  0.00    -0.176 NA
BRANCH   8  12
ATOM     12  C   UNL     1      13.815 -48.273 -24.257  1.00  0.00     0.023 A 
ATOM     13  C   UNL     1      13.124 -46.678 -22.518  1.00  0.00     0.161 A 
ATOM     14  C   UNL     1      11.990 -46.358 -23.267  1.00  0.00     0.050 A 
ATOM     15  C   UNL     1      14.041 -47.619 -23.030  1.00  0.00     0.166 A 
ATOM     16  C   UNL     1      11.754 -46.987 -24.489  1.00  0.00     0.004 A 
ATOM     17  C   UNL     1      12.650 -47.939 -24.973  1.00  0.00     0.010 A 
BRANCH  13  18
ATOM     18  O   UNL     1      13.416 -46.145 -21.288  1.00  0.00    -0.493 OA
ATOM     19  C   UNL     1      13.662 -44.748 -21.216  1.00  0.00     0.278 C 
ENDBRANCH  13  18
BRANCH  15  20
ATOM     20  O   UNL     1      15.135 -47.984 -22.281  1.00  0.00    -0.492 OA
ATOM     21  C   UNL     1      16.248 -47.131 -22.561  1.00  0.00     0.278 C 
ENDBRANCH  15  20
ENDBRANCH   8  12
BRANCH  10  22
ATOM     22  C   UNL     1      15.787 -49.226 -28.453  1.00  0.00     0.037 A 
ATOM     23  C   UNL     1      14.971 -48.546 -29.366  1.00  0.00     0.052 A 
ATOM     24  C   UNL     1      17.074 -49.606 -28.844  1.00  0.00     0.132 A 
ATOM     25  C   UNL     1      15.453 -48.255 -30.639  1.00  0.00     0.124 A 
ATOM     26  C   UNL     1      17.550 -49.310 -30.123  1.00  0.00     0.043 A 
ATOM     27  C   UNL     1      16.736 -48.630 -31.025  1.00  0.00     0.042 A 
ATOM     28  F   UNL     1      17.886 -50.275 -28.014  1.00  0.00    -0.206 F 
ATOM     29  F   UNL     1      14.671 -47.603 -31.507  1.00  0.00    -0.207 F 
ENDBRANCH  10  22
ENDBRANCH   1   7
BRANCH   4  30
ATOM     30  S   UNL     1      10.845 -54.902 -23.233  1.00  0.00     0.238 S 
ATOM     31  O   UNL     1       9.531 -54.937 -23.835  1.00  0.00    -0.207 OA
ATOM     32  O   UNL     1      11.041 -54.932 -21.803  1.00  0.00    -0.207 OA
BRANCH  30  33
ATOM     33  N   UNL     1      11.659 -56.240 -23.839  1.00  0.00    -0.225 NA
ATOM     34  H   UNL     1      11.132 -56.644 -24.613  1.00  0.00     0.137 HD
ATOM     35  H   UNL     1      12.617 -55.983 -24.078  1.00  0.00     0.137 HD
ENDBRANCH  30  33
ENDBRANCH   4  30
TORSDOF 7
ENDMDL
MODEL 5
REMARK VINA RESULT:    -8.443      5.179      8.306
REMARK INTER + INTRA:         -12.883
REMARK INTER:                 -11.491
REMARK INTRA:                  -1.392
REMARK UNBOUND:                -1.232
REMARK SMILES COc1cccc([C@@H]2CC(c3cc(F)ccc3F)=NN2c2ccc(S(N)(=O)=O)cc2)c1OC
REMARK SMILES IDX 21 1 22 2 23 3 24 4 29 5 30 6 20 7 8 8 9 9 10 10 19 11 7 12
REMARK SMILES IDX 3 13 4 14 31 15 5 16 6 17 2 18 1 19 32 20 33 21 11 22 12 23
REMARK SMILES IDX 17 24 13 25 16 26 15 27 18 28 14 29 25 30 27 31 28 32 26 33
REMARK H PARENT 26 34 26 35
ROOT
ATOM      1  C   UNL     1      14.947 -48.299 -21.876  1.00  0.00     0.060 A 
ATOM      2  C   UNL     1      14.380 -47.506 -20.859  1.00  0.00     0.029 A 
ATOM      3  C   UNL     1      15.154 -46.912 -19.856  1.00  0.00     0.024 A 
ATOM      4  C   UNL     1      16.534 -47.097 -19.860  1.00  0.00     0.082 A 
ATOM      5  C   UNL     1      17.131 -47.886 -20.841  1.00  0.00     0.024 A 
ATOM      6  C   UNL     1      16.340 -48.474 -21.836  1.00  0.00     0.029 A 
ENDROOT
BRANCH   1   7
ATOM      7  N   UNL     1      14.142 -48.868 -22.861  1.00  0.00    -0.257 N 
ATOM      8  C   UNL     1      13.727 -48.241 -24.123  1.00  0.00     0.148 C 
ATOM      9  C   UNL     1      13.246 -49.425 -24.964  1.00  0.00     0.091 C 
ATOM     10  C   UNL     1      13.294 -50.524 -23.940  1.00  0.00     0.074 C 
ATOM     11  N   UNL     1      13.837 -50.200 -22.806  1.00  0.00    -0.176 NA
BRANCH   8  12
ATOM     12  C   UNL     1      12.669 -47.158 -23.956  1.00  0.00     0.023 A 
ATOM     13  C   UNL     1      11.830 -44.857 -24.179  1.00  0.00     0.161 A 
ATOM     14  C   UNL     1      10.645 -45.231 -23.542  1.00  0.00     0.050 A 
ATOM     15  C   UNL     1      12.826 -45.831 -24.401  1.00  0.00     0.166 A 
ATOM     16  C   UNL     1      10.466 -46.543 -23.105  1.00  0.00     0.004 A 
ATOM     17  C   UNL     1      11.468 -47.491 -23.300  1.00  0.00     0.010 A 
BRANCH  13  18
ATOM     18  O   UNL     1      12.113 -43.584 -24.604  1.00  0.00    -0.493 OA
ATOM     19  C   UNL     1      11.050 -42.642 -24.621  1.00  0.00     0.278 C 
ENDBRANCH  13  18
BRANCH  15  20
ATOM     20  O   UNL     1      14.020 -45.467 -24.979  1.00  0.00    -0.492 OA
ATOM     21  C   UNL     1      14.988 -45.140 -23.979  1.00  0.00     0.278 C 
ENDBRANCH  15  20
ENDBRANCH   8  12
BRANCH  10  22
ATOM     22  C   UNL     1      12.779 -51.883 -24.213  1.00  0.00     0.037 A 
ATOM     23  C   UNL     1      11.819 -52.423 -23.347  1.00  0.00     0.052 A 
ATOM     24  C   UNL     1      13.215 -52.644 -25.301  1.00  0.00     0.132 A 
ATOM     25  C   UNL     1      11.313 -53.697 -23.586  1.00  0.00     0.124 A 
ATOM     26  C   UNL     1      12.703 -53.921 -25.534  1.00  0.00     0.043 A 
ATOM     27  C   UNL     1      11.745 -54.450 -24.673  1.00  0.00     0.042 A 
ATOM     28  F   UNL     1      14.146 -52.180 -26.147  1.00  0.00    -0.206 F 
ATOM     29  F   UNL     1      10.393 -54.207 -22.758  1.00  0.00    -0.207 F 
ENDBRANCH  10  22
ENDBRANCH   1   7
BRANCH   4  30
ATOM     30  S   UNL     1      17.519 -46.375 -18.585  1.00  0.00     0.238 S 
ATOM     31  O   UNL     1      18.133 -45.165 -19.083  1.00  0.00    -0.207 OA
ATOM     32  O   UNL     1      18.276 -47.410 -17.921  1.00  0.00    -0.207 OA
BRANCH  30  33
ATOM     33  N   UNL     1      16.354 -45.875 -17.484  1.00  0.00    -0.225 NA
ATOM     34  H   UNL     1      15.583 -46.542 -17.471  1.00  0.00     0.137 HD
ATOM     35  H   UNL     1      16.784 -45.719 -16.572  1.00  0.00     0.137 HD
ENDBRANCH  30  33
ENDBRANCH   4  30
TORSDOF 7
ENDMDL
MODEL 6
REMARK VINA RESULT:    -8.405      4.510      7.077
REMARK INTER + INTRA:         -12.831
REMARK INTER:                 -11.373
REMARK INTRA:                  -1.457
REMARK UNBOUND:                -1.232
REMARK SMILES COc1cccc([C@@H]2CC(c3cc(F)ccc3F)=NN2c2ccc(S(N)(=O)=O)cc2)c1OC
REMARK SMILES IDX 21 1 22 2 23 3 24 4 29 5 30 6 20 7 8 8 9 9 10 10 19 11 7 12
REMARK SMILES IDX 3 13 4 14 31 15 5 16 6 17 2 18 1 19 32 20 33 21 11 22 12 23
REMARK SMILES IDX 17 24 13 25 16 26 15 27 18 28 14 29 25 30 27 31 28 32 26 33
REMARK H PARENT 26 34 26 35
ROOT
ATOM      1  C   UNL     1      16.882 -51.059 -24.860  1.00  0.00     0.060 A 
ATOM      2  C   UNL     1      17.657 -51.922 -25.661  1.00  0.00     0.029 A 
ATOM      3  C   UNL     1      19.052 -51.968 -25.577  1.00  0.00     0.024 A 
ATOM      4  C   UNL     1      19.708 -51.144 -24.666  1.00  0.00     0.082 A 
ATOM      5  C   UNL     1      18.979 -50.267 -23.865  1.00  0.00     0.024 A 
ATOM      6  C   UNL     1      17.582 -50.233 -23.965  1.00  0.00     0.029 A 
ENDROOT
BRANCH   1   7
ATOM      7  N   UNL     1      15.494 -51.049 -24.970  1.00  0.00    -0.257 N 
ATOM      8  C   UNL     1      14.712 -50.715 -26.167  1.00  0.00     0.148 C 
ATOM      9  C   UNL     1      13.322 -51.272 -25.849  1.00  0.00     0.091 C 
ATOM     10  C   UNL     1      13.511 -51.667 -24.411  1.00  0.00     0.074 C 
ATOM     11  N   UNL     1      14.728 -51.579 -23.967  1.00  0.00    -0.176 NA
BRANCH   8  12
ATOM     12  C   UNL     1      14.697 -49.229 -26.501  1.00  0.00     0.023 A 
ATOM     13  C   UNL     1      15.148 -47.304 -27.965  1.00  0.00     0.161 A 
ATOM     14  C   UNL     1      14.661 -46.444 -26.978  1.00  0.00     0.050 A 
ATOM     15  C   UNL     1      15.141 -48.695 -27.727  1.00  0.00     0.166 A 
ATOM     16  C   UNL     1      14.206 -46.955 -25.762  1.00  0.00     0.004 A 
ATOM     17  C   UNL     1      14.233 -48.328 -25.523  1.00  0.00     0.010 A 
BRANCH  13  18
ATOM     18  O   UNL     1      15.654 -46.892 -29.170  1.00  0.00    -0.493 OA
ATOM     19  C   UNL     1      14.732 -46.608 -30.212  1.00  0.00     0.278 C 
ENDBRANCH  13  18
BRANCH  15  20
ATOM     20  O   UNL     1      15.666 -49.551 -28.667  1.00  0.00    -0.492 OA
ATOM     21  C   UNL     1      17.090 -49.616 -28.553  1.00  0.00     0.278 C 
ENDBRANCH  15  20
ENDBRANCH   8  12
BRANCH  10  22
ATOM     22  C   UNL     1      12.392 -52.143 -23.569  1.00  0.00     0.037 A 
ATOM     23  C   UNL     1      11.778 -53.360 -23.893  1.00  0.00     0.052 A 
ATOM     24  C   UNL     1      11.930 -51.422 -22.464  1.00  0.00     0.132 A 
ATOM     25  C   UNL     1      10.729 -53.832 -23.111  1.00  0.00     0.124 A 
ATOM     26  C   UNL     1      10.876 -51.903 -21.685  1.00  0.00     0.043 A 
ATOM     27  C   UNL     1      10.273 -53.116 -22.010  1.00  0.00     0.042 A 
ATOM     28  F   UNL     1      12.471 -50.244 -22.124  1.00  0.00    -0.206 F 
ATOM     29  F   UNL     1      10.147 -54.997 -23.423  1.00  0.00    -0.207 F 
ENDBRANCH  10  22
ENDBRANCH   1   7
BRANCH   4  30
ATOM     30  S   UNL     1      21.471 -51.173 -24.568  1.00  0.00     0.238 S 
ATOM     31  O   UNL     1      21.871 -51.296 -23.185  1.00  0.00    -0.207 OA
ATOM     32  O   UNL     1      22.016 -50.162 -25.444  1.00  0.00    -0.207 OA
BRANCH  30  33
ATOM     33  N   UNL     1      21.837 -52.648 -25.281  1.00  0.00    -0.225 NA
ATOM     34  H   UNL     1      22.123 -52.502 -26.249  1.00  0.00     0.137 HD
ATOM     35  H   UNL     1      22.524 -53.145 -24.715  1.00  0.00     0.137 HD
ENDBRANCH  30  33
ENDBRANCH   4  30
TORSDOF 7
ENDMDL
MODEL 7
REMARK VINA RESULT:    -8.349      5.193      8.479
REMARK INTER + INTRA:         -12.754
REMARK INTER:                 -11.305
REMARK INTRA:                  -1.449
REMARK UNBOUND:                -1.232
REMARK SMILES COc1cccc([C@@H]2CC(c3cc(F)ccc3F)=NN2c2ccc(S(N)(=O)=O)cc2)c1OC
REMARK SMILES IDX 21 1 22 2 23 3 24 4 29 5 30 6 20 7 8 8 9 9 10 10 19 11 7 12
REMARK SMILES IDX 3 13 4 14 31 15 5 16 6 17 2 18 1 19 32 20 33 21 11 22 12 23
REMARK SMILES IDX 17 24 13 25 16 26 15 27 18 28 14 29 25 30 27 31 28 32 26 33
REMARK H PARENT 26 34 26 35
ROOT
ATOM      1  C   UNL     1      14.696 -47.817 -21.613  1.00  0.00     0.060 A 
ATOM      2  C   UNL     1      14.185 -47.135 -20.491  1.00  0.00     0.029 A 
ATOM      3  C   UNL     1      15.015 -46.499 -19.561  1.00  0.00     0.024 A 
ATOM      4  C   UNL     1      16.394 -46.527 -19.747  1.00  0.00     0.082 A 
ATOM      5  C   UNL     1      16.940 -47.203 -20.837  1.00  0.00     0.024 A 
ATOM      6  C   UNL     1      16.093 -47.835 -21.757  1.00  0.00     0.029 A 
ENDROOT
BRANCH   1   7
ATOM      7  N   UNL     1      13.834 -48.431 -22.520  1.00  0.00    -0.257 N 
ATOM      8  C   UNL     1      13.334 -47.861 -23.777  1.00  0.00     0.148 C 
ATOM      9  C   UNL     1      12.811 -49.083 -24.536  1.00  0.00     0.091 C 
ATOM     10  C   UNL     1      12.934 -50.137 -23.472  1.00  0.00     0.074 C 
ATOM     11  N   UNL     1      13.545 -49.762 -22.389  1.00  0.00    -0.176 NA
BRANCH   8  12
ATOM     12  C   UNL     1      12.279 -46.779 -23.588  1.00  0.00     0.023 A 
ATOM     13  C   UNL     1      11.354 -44.529 -23.953  1.00  0.00     0.161 A 
ATOM     14  C   UNL     1      10.279 -44.840 -23.117  1.00  0.00     0.050 A 
ATOM     15  C   UNL     1      12.336 -45.511 -24.200  1.00  0.00     0.166 A 
ATOM     16  C   UNL     1      10.199 -46.094 -22.512  1.00  0.00     0.004 A 
ATOM     17  C   UNL     1      11.191 -47.047 -22.736  1.00  0.00     0.010 A 
BRANCH  13  18
ATOM     18  O   UNL     1      11.539 -43.312 -24.557  1.00  0.00    -0.493 OA
ATOM     19  C   UNL     1      11.548 -42.159 -23.728  1.00  0.00     0.278 C 
ENDBRANCH  13  18
BRANCH  15  20
ATOM     20  O   UNL     1      13.428 -45.204 -24.978  1.00  0.00    -0.492 OA
ATOM     21  C   UNL     1      14.494 -44.691 -24.175  1.00  0.00     0.278 C 
ENDBRANCH  15  20
ENDBRANCH   8  12
BRANCH  10  22
ATOM     22  C   UNL     1      12.414 -51.510 -23.654  1.00  0.00     0.037 A 
ATOM     23  C   UNL     1      12.896 -52.273 -24.725  1.00  0.00     0.052 A 
ATOM     24  C   UNL     1      11.463 -52.068 -22.796  1.00  0.00     0.132 A 
ATOM     25  C   UNL     1      12.428 -53.569 -24.914  1.00  0.00     0.124 A 
ATOM     26  C   UNL     1      10.999 -53.370 -22.992  1.00  0.00     0.043 A 
ATOM     27  C   UNL     1      11.485 -54.125 -24.056  1.00  0.00     0.042 A 
ATOM     28  F   UNL     1      10.957 -51.373 -21.768  1.00  0.00    -0.206 F 
ATOM     29  F   UNL     1      12.894 -54.296 -25.937  1.00  0.00    -0.207 F 
ENDBRANCH  10  22
ENDBRANCH   1   7
BRANCH   4  30
ATOM     30  S   UNL     1      17.454 -45.752 -18.567  1.00  0.00     0.238 S 
ATOM     31  O   UNL     1      17.457 -44.324 -18.792  1.00  0.00    -0.207 OA
ATOM     32  O   UNL     1      18.672 -46.517 -18.442  1.00  0.00    -0.207 OA
BRANCH  30  33
ATOM     33  N   UNL     1      16.612 -45.986 -17.134  1.00  0.00    -0.225 NA
ATOM     34  H   UNL     1      17.238 -45.852 -16.340  1.00  0.00     0.137 HD
ATOM     35  H   UNL     1      15.785 -45.389 -17.116  1.00  0.00     0.137 HD
ENDBRANCH  30  33
ENDBRANCH   4  30
TORSDOF 7
ENDMDL
MODEL 8
REMARK VINA RESULT:    -8.262      1.700      2.140
REMARK INTER + INTRA:         -12.633
REMARK INTER:                 -12.480
REMARK INTRA:                  -0.152
REMARK UNBOUND:                -1.232
REMARK SMILES COc1cccc([C@@H]2CC(c3cc(F)ccc3F)=NN2c2ccc(S(N)(=O)=O)cc2)c1OC
REMARK SMILES IDX 21 1 22 2 23 3 24 4 29 5 30 6 20 7 8 8 9 9 10 10 19 11 7 12
REMARK SMILES IDX 3 13 4 14 31 15 5 16 6 17 2 18 1 19 32 20 33 21 11 22 12 23
REMARK SMILES IDX 17 24 13 25 16 26 15 27 18 28 14 29 25 30 27 31 28 32 26 33
REMARK H PARENT 26 34 26 35
ROOT
ATOM      1  C   UNL     1      12.187 -51.964 -23.841  1.00  0.00     0.060 A 
ATOM      2  C   UNL     1      12.426 -53.012 -24.753  1.00  0.00     0.029 A 
ATOM      3  C   UNL     1      12.001 -54.322 -24.513  1.00  0.00     0.024 A 
ATOM      4  C   UNL     1      11.308 -54.611 -23.341  1.00  0.00     0.082 A 
ATOM      5  C   UNL     1      11.064 -53.606 -22.407  1.00  0.00     0.024 A 
ATOM      6  C   UNL     1      11.499 -52.299 -22.664  1.00  0.00     0.029 A 
ENDROOT
BRANCH   1   7
ATOM      7  N   UNL     1      12.621 -50.670 -24.121  1.00  0.00    -0.257 N 
ATOM      8  C   UNL     1      13.613 -50.278 -25.130  1.00  0.00     0.148 C 
ATOM      9  C   UNL     1      13.379 -48.774 -25.291  1.00  0.00     0.091 C 
ATOM     10  C   UNL     1      12.398 -48.532 -24.178  1.00  0.00     0.074 C 
ATOM     11  N   UNL     1      11.961 -49.600 -23.582  1.00  0.00    -0.176 NA
BRANCH   8  12
ATOM     12  C   UNL     1      15.048 -50.621 -24.752  1.00  0.00     0.023 A 
ATOM     13  C   UNL     1      16.981 -50.606 -23.231  1.00  0.00     0.161 A 
ATOM     14  C   UNL     1      17.740 -51.272 -24.194  1.00  0.00     0.050 A 
ATOM     15  C   UNL     1      15.631 -50.304 -23.510  1.00  0.00     0.166 A 
ATOM     16  C   UNL     1      17.177 -51.605 -25.426  1.00  0.00     0.004 A 
ATOM     17  C   UNL     1      15.852 -51.275 -25.705  1.00  0.00     0.010 A 
BRANCH  13  18
ATOM     18  O   UNL     1      17.459 -50.201 -22.011  1.00  0.00    -0.493 OA
ATOM     19  C   UNL     1      18.812 -49.772 -21.942  1.00  0.00     0.278 C 
ENDBRANCH  13  18
BRANCH  15  20
ATOM     20  O   UNL     1      14.885 -49.601 -22.592  1.00  0.00    -0.492 OA
ATOM     21  C   UNL     1      15.379 -48.266 -22.455  1.00  0.00     0.278 C 
ENDBRANCH  15  20
ENDBRANCH   8  12
BRANCH  10  22
ATOM     22  C   UNL     1      11.947 -47.174 -23.803  1.00  0.00     0.037 A 
ATOM     23  C   UNL     1      12.609 -46.070 -24.356  1.00  0.00     0.052 A 
ATOM     24  C   UNL     1      10.887 -46.957 -22.918  1.00  0.00     0.132 A 
ATOM     25  C   UNL     1      12.199 -44.783 -24.025  1.00  0.00     0.124 A 
ATOM     26  C   UNL     1      10.482 -45.662 -22.590  1.00  0.00     0.043 A 
ATOM     27  C   UNL     1      11.141 -44.568 -23.148  1.00  0.00     0.042 A 
ATOM     28  F   UNL     1      10.235 -47.978 -22.347  1.00  0.00    -0.206 F 
ATOM     29  F   UNL     1      12.832 -43.731 -24.559  1.00  0.00    -0.207 F 
ENDBRANCH  10  22
ENDBRANCH   1   7
BRANCH   4  30
ATOM     30  S   UNL     1      10.789 -56.267 -23.013  1.00  0.00     0.238 S 
ATOM     31  O   UNL     1       9.399 -56.413 -23.377  1.00  0.00    -0.207 OA
ATOM     32  O   UNL     1      11.300 -56.683 -21.728  1.00  0.00    -0.207 OA
BRANCH  30  33
ATOM     33  N   UNL     1      11.655 -57.138 -24.158  1.00  0.00    -0.225 NA
ATOM     34  H   UNL     1      11.186 -58.024 -24.345  1.00  0.00     0.137 HD
ATOM     35  H   UNL     1      11.805 -56.565 -24.989  1.00  0.00     0.137 HD
ENDBRANCH  30  33
ENDBRANCH   4  30
TORSDOF 7
ENDMDL
MODEL 9
REMARK VINA RESULT:    -8.112      4.243      7.505
REMARK INTER + INTRA:         -12.426
REMARK INTER:                 -11.055
REMARK INTRA:                  -1.371
REMARK UNBOUND:                -1.232
REMARK SMILES COc1cccc([C@@H]2CC(c3cc(F)ccc3F)=NN2c2ccc(S(N)(=O)=O)cc2)c1OC
REMARK SMILES IDX 21 1 22 2 23 3 24 4 29 5 30 6 20 7 8 8 9 9 10 10 19 11 7 12
REMARK SMILES IDX 3 13 4 14 31 15 5 16 6 17 2 18 1 19 32 20 33 21 11 22 12 23
REMARK SMILES IDX 17 24 13 25 16 26 15 27 18 28 14 29 25 30 27 31 28 32 26 33
REMARK H PARENT 26 34 26 35
ROOT
ATOM      1  C   UNL     1      14.783 -49.939 -25.730  1.00  0.00     0.060 A 
ATOM      2  C   UNL     1      14.445 -49.439 -27.003  1.00  0.00     0.029 A 
ATOM      3  C   UNL     1      15.392 -49.288 -28.021  1.00  0.00     0.024 A 
ATOM      4  C   UNL     1      16.715 -49.650 -27.782  1.00  0.00     0.082 A 
ATOM      5  C   UNL     1      17.092 -50.136 -26.532  1.00  0.00     0.024 A 
ATOM      6  C   UNL     1      16.130 -50.278 -25.523  1.00  0.00     0.029 A 
ENDROOT
BRANCH   1   7
ATOM      7  N   UNL     1      13.808 -50.081 -24.744  1.00  0.00    -0.257 N 
ATOM      8  C   UNL     1      12.919 -49.030 -24.235  1.00  0.00     0.148 C 
ATOM      9  C   UNL     1      11.815 -49.815 -23.522  1.00  0.00     0.091 C 
ATOM     10  C   UNL     1      12.385 -51.205 -23.588  1.00  0.00     0.074 C 
ATOM     11  N   UNL     1      13.458 -51.330 -24.308  1.00  0.00    -0.176 NA
BRANCH   8  12
ATOM     12  C   UNL     1      13.611 -48.019 -23.330  1.00  0.00     0.023 A 
ATOM     13  C   UNL     1      14.100 -45.733 -22.565  1.00  0.00     0.161 A 
ATOM     14  C   UNL     1      14.997 -46.244 -21.624  1.00  0.00     0.050 A 
ATOM     15  C   UNL     1      13.396 -46.628 -23.398  1.00  0.00     0.166 A 
ATOM     16  C   UNL     1      15.214 -47.618 -21.534  1.00  0.00     0.004 A 
ATOM     17  C   UNL     1      14.538 -48.493 -22.382  1.00  0.00     0.010 A 
BRANCH  13  18
ATOM     18  O   UNL     1      13.855 -44.397 -22.755  1.00  0.00    -0.493 OA
ATOM     19  C   UNL     1      13.098 -43.718 -21.764  1.00  0.00     0.278 C 
ENDBRANCH  13  18
BRANCH  15  20
ATOM     20  O   UNL     1      12.550 -46.138 -24.365  1.00  0.00    -0.492 OA
ATOM     21  C   UNL     1      11.202 -46.107 -23.889  1.00  0.00     0.278 C 
ENDBRANCH  15  20
ENDBRANCH   8  12
BRANCH  10  22
ATOM     22  C   UNL     1      11.755 -52.352 -22.898  1.00  0.00     0.037 A 
ATOM     23  C   UNL     1      11.589 -53.550 -23.604  1.00  0.00     0.052 A 
ATOM     24  C   UNL     1      11.322 -52.280 -21.572  1.00  0.00     0.132 A 
ATOM     25  C   UNL     1      11.007 -54.646 -22.976  1.00  0.00     0.124 A 
ATOM     26  C   UNL     1      10.738 -53.383 -20.948  1.00  0.00     0.043 A 
ATOM     27  C   UNL     1      10.580 -54.574 -21.653  1.00  0.00     0.042 A 
ATOM     28  F   UNL     1      11.440 -51.150 -20.860  1.00  0.00    -0.206 F 
ATOM     29  F   UNL     1      10.854 -55.790 -23.653  1.00  0.00    -0.207 F 
ENDBRANCH  10  22
ENDBRANCH   1   7
BRANCH   4  30
ATOM     30  S   UNL     1      17.926 -49.439 -29.050  1.00  0.00     0.238 S 
ATOM     31  O   UNL     1      18.174 -50.711 -29.690  1.00  0.00    -0.207 OA
ATOM     32  O   UNL     1      18.992 -48.599 -28.559  1.00  0.00    -0.207 OA
BRANCH  30  33
ATOM     33  N   UNL     1      17.093 -48.516 -30.179  1.00  0.00    -0.225 NA
ATOM     34  H   UNL     1      17.414 -47.549 -30.137  1.00  0.00     0.137 HD
ATOM     35  H   UNL     1      17.174 -48.942 -31.102  1.00  0.00     0.137 HD
ENDBRANCH  30  33
ENDBRANCH   4  30
TORSDOF 7
ENDMDL
