MODEL 1
REMARK VINA RESULT:    -9.328      0.000      0.000
REMARK INTER + INTRA:         -15.907
REMARK INTER:                 -15.053
REMARK INTRA:                  -0.853
REMARK UNBOUND:                -0.853
REMARK SMILES CCOCC[n+]1ccc(CC=C(O)c2cc3cc(OC)c(OC)cc3s2)cc1
REMARK SMILES IDX 9 1 8 2 7 3 6 4 28 5 27 6 10 7 11 8 12 9 13 10 14 12 15 13
REMARK SMILES IDX 26 14 16 15 25 16 17 17 24 18 18 19 21 20 19 21 20 22 22 23
REMARK SMILES IDX 23 24 5 25 4 26 3 27 2 28 1 29
REMARK H PARENT 13 11
ROOT
ATOM      1  C   UNL     1      11.162 -59.834 -22.493  1.00  0.00    -0.032 A 
ATOM      2  C   UNL     1      10.247 -60.129 -21.484  1.00  0.00     0.074 A 
ATOM      3  C   UNL     1       9.597 -61.358 -21.482  1.00  0.00     0.308 A 
ATOM      4  N   UNL     1       9.838 -62.272 -22.452  1.00  0.00    -0.203 N 
ATOM      5  C   UNL     1      10.717 -62.004 -23.444  1.00  0.00     0.308 A 
ATOM      6  C   UNL     1      11.390 -60.790 -23.485  1.00  0.00     0.074 A 
ENDROOT
BRANCH   1   7
ATOM      7  C   UNL     1      11.868 -58.499 -22.548  1.00  0.00     0.067 C 
BRANCH   7   8
ATOM      8  C   UNL     1      11.014 -57.390 -22.007  1.00  0.00     0.025 C 
BRANCH   8   9
ATOM      9  C   UNL     1      10.338 -56.516 -22.768  1.00  0.00     0.129 C 
BRANCH   9  10
ATOM     10  O   UNL     1       9.155 -56.885 -23.374  1.00  0.00    -0.507 OA
ATOM     11  H   UNL     1       8.753 -57.580 -22.816  1.00  0.00     0.293 HD
ENDBRANCH   9  10
BRANCH   9  12
ATOM     12  C   UNL     1      10.791 -55.174 -22.972  1.00  0.00     0.070 A 
ATOM     13  C   UNL     1      11.576 -54.641 -23.980  1.00  0.00     0.032 A 
ATOM     14  S   UNL     1      10.355 -53.932 -21.861  1.00  0.00    -0.132 S 
ATOM     15  C   UNL     1      11.834 -53.235 -23.848  1.00  0.00    -0.003 A 
ATOM     16  C   UNL     1      11.219 -52.716 -22.713  1.00  0.00     0.039 A 
ATOM     17  C   UNL     1      12.585 -52.357 -24.667  1.00  0.00     0.060 A 
ATOM     18  C   UNL     1      11.329 -51.355 -22.365  1.00  0.00     0.070 A 
ATOM     19  C   UNL     1      12.705 -50.999 -24.338  1.00  0.00     0.161 A 
ATOM     20  C   UNL     1      12.078 -50.501 -23.185  1.00  0.00     0.162 A 
BRANCH  19  21
ATOM     21  O   UNL     1      13.419 -50.088 -25.076  1.00  0.00    -0.493 OA
ATOM     22  C   UNL     1      14.059 -50.543 -26.259  1.00  0.00     0.278 C 
ENDBRANCH  19  21
BRANCH  20  23
ATOM     23  O   UNL     1      12.255 -49.161 -22.939  1.00  0.00    -0.493 OA
ATOM     24  C   UNL     1      11.098 -48.345 -22.827  1.00  0.00     0.278 C 
ENDBRANCH  20  23
ENDBRANCH   9  12
ENDBRANCH   8   9
ENDBRANCH   7   8
ENDBRANCH   1   7
BRANCH   4  25
ATOM     25  C   UNL     1       9.122 -63.574 -22.427  1.00  0.00     0.385 C 
BRANCH  25  26
ATOM     26  C   UNL     1       7.704 -63.394 -22.965  1.00  0.00     0.233 C 
BRANCH  26  27
ATOM     27  O   UNL     1       7.577 -64.126 -24.186  1.00  0.00    -0.375 OA
BRANCH  27  28
ATOM     28  C   UNL     1       7.040 -63.320 -25.238  1.00  0.00     0.157 C 
ATOM     29  C   UNL     1       8.194 -62.755 -26.041  1.00  0.00     0.035 C 
ENDBRANCH  27  28
ENDBRANCH  26  27
ENDBRANCH  25  26
ENDBRANCH   4  25
TORSDOF 11
ENDMDL
MODEL 2
REMARK VINA RESULT:    -8.859      1.840      2.449
REMARK INTER + INTRA:         -15.150
REMARK INTER:                 -14.492
REMARK INTRA:                  -0.658
REMARK UNBOUND:                -0.853
REMARK SMILES CCOCC[n+]1ccc(CC=C(O)c2cc3cc(OC)c(OC)cc3s2)cc1
REMARK SMILES IDX 9 1 8 2 7 3 6 4 28 5 27 6 10 7 11 8 12 9 13 10 14 12 15 13
REMARK SMILES IDX 26 14 16 15 25 16 17 17 24 18 18 19 21 20 19 21 20 22 22 23
REMARK SMILES IDX 23 24 5 25 4 26 3 27 2 28 1 29
REMARK H PARENT 13 11
ROOT
ATOM      1  C   UNL     1      10.581 -57.620 -22.308  1.00  0.00    -0.032 A 
ATOM      2  C   UNL     1       9.453 -57.635 -23.126  1.00  0.00     0.074 A 
ATOM      3  C   UNL     1       8.758 -58.824 -23.320  1.00  0.00     0.308 A 
ATOM      4  N   UNL     1       9.169 -59.970 -22.727  1.00  0.00    -0.203 N 
ATOM      5  C   UNL     1      10.264 -59.981 -21.935  1.00  0.00     0.308 A 
ATOM      6  C   UNL     1      10.987 -58.816 -21.712  1.00  0.00     0.074 A 
ENDROOT
BRANCH   1   7
ATOM      7  C   UNL     1      11.381 -56.356 -22.094  1.00  0.00     0.067 C 
BRANCH   7   8
ATOM      8  C   UNL     1      10.609 -55.130 -22.488  1.00  0.00     0.025 C 
BRANCH   8   9
ATOM      9  C   UNL     1      10.699 -53.947 -21.864  1.00  0.00     0.129 C 
BRANCH   9  10
ATOM     10  O   UNL     1      10.278 -53.812 -20.556  1.00  0.00    -0.507 OA
ATOM     11  H   UNL     1      11.023 -53.426 -20.055  1.00  0.00     0.293 HD
ENDBRANCH   9  10
BRANCH   9  12
ATOM     12  C   UNL     1      11.243 -52.788 -22.502  1.00  0.00     0.070 A 
ATOM     13  C   UNL     1      12.091 -52.685 -23.591  1.00  0.00     0.032 A 
ATOM     14  S   UNL     1      10.854 -51.213 -21.921  1.00  0.00    -0.132 S 
ATOM     15  C   UNL     1      12.435 -51.337 -23.947  1.00  0.00    -0.003 A 
ATOM     16  C   UNL     1      11.821 -50.421 -23.100  1.00  0.00     0.039 A 
ATOM     17  C   UNL     1      13.266 -50.843 -24.983  1.00  0.00     0.060 A 
ATOM     18  C   UNL     1      12.008 -49.032 -23.246  1.00  0.00     0.070 A 
ATOM     19  C   UNL     1      13.463 -49.464 -25.144  1.00  0.00     0.161 A 
ATOM     20  C   UNL     1      12.835 -48.561 -24.274  1.00  0.00     0.162 A 
BRANCH  19  21
ATOM     21  O   UNL     1      14.257 -48.909 -26.118  1.00  0.00    -0.493 OA
ATOM     22  C   UNL     1      14.637 -49.727 -27.215  1.00  0.00     0.278 C 
ENDBRANCH  19  21
BRANCH  20  23
ATOM     23  O   UNL     1      13.091 -47.230 -24.504  1.00  0.00    -0.493 OA
ATOM     24  C   UNL     1      12.529 -46.280 -23.610  1.00  0.00     0.278 C 
ENDBRANCH  20  23
ENDBRANCH   9  12
ENDBRANCH   8   9
ENDBRANCH   7   8
ENDBRANCH   1   7
BRANCH   4  25
ATOM     25  C   UNL     1       8.409 -61.227 -22.960  1.00  0.00     0.385 C 
BRANCH  25  26
ATOM     26  C   UNL     1       7.211 -60.946 -23.863  1.00  0.00     0.233 C 
BRANCH  26  27
ATOM     27  O   UNL     1       6.470 -62.156 -24.037  1.00  0.00    -0.375 OA
BRANCH  27  28
ATOM     28  C   UNL     1       7.324 -63.267 -24.322  1.00  0.00     0.157 C 
ATOM     29  C   UNL     1       7.238 -63.565 -25.805  1.00  0.00     0.035 C 
ENDBRANCH  27  28
ENDBRANCH  26  27
ENDBRANCH  25  26
ENDBRANCH   4  25
TORSDOF 11
ENDMDL
MODEL 3
REMARK VINA RESULT:    -8.526      2.542      3.770
REMARK INTER + INTRA:         -14.614
REMARK INTER:                 -13.784
REMARK INTRA:                  -0.830
REMARK UNBOUND:                -0.853
REMARK SMILES CCOCC[n+]1ccc(CC=C(O)c2cc3cc(OC)c(OC)cc3s2)cc1
REMARK SMILES IDX 9 1 8 2 7 3 6 4 28 5 27 6 10 7 11 8 12 9 13 10 14 12 15 13
REMARK SMILES IDX 26 14 16 15 25 16 17 17 24 18 18 19 21 20 19 21 20 22 22 23
REMARK SMILES IDX 23 24 5 25 4 26 3 27 2 28 1 29
REMARK H PARENT 13 11
ROOT
ATOM      1  C   UNL     1      10.179 -56.545 -22.810  1.00  0.00    -0.032 A 
ATOM      2  C   UNL     1      11.225 -57.053 -22.042  1.00  0.00     0.074 A 
ATOM      3  C   UNL     1      11.246 -58.405 -21.715  1.00  0.00     0.308 A 
ATOM      4  N   UNL     1      10.258 -59.233 -22.130  1.00  0.00    -0.203 N 
ATOM      5  C   UNL     1       9.231 -58.761 -22.871  1.00  0.00     0.308 A 
ATOM      6  C   UNL     1       9.170 -57.418 -23.222  1.00  0.00     0.074 A 
ENDROOT
BRANCH   1   7
ATOM      7  C   UNL     1      10.103 -55.077 -23.162  1.00  0.00     0.067 C 
BRANCH   7   8
ATOM      8  C   UNL     1      11.055 -54.254 -22.343  1.00  0.00     0.025 C 
BRANCH   8   9
ATOM      9  C   UNL     1      11.011 -52.917 -22.250  1.00  0.00     0.129 C 
BRANCH   9  10
ATOM     10  O   UNL     1      10.272 -52.309 -21.255  1.00  0.00    -0.507 OA
ATOM     11  H   UNL     1       9.667 -52.986 -20.895  1.00  0.00     0.293 HD
ENDBRANCH   9  10
BRANCH   9  12
ATOM     12  C   UNL     1      11.728 -52.066 -23.149  1.00  0.00     0.070 A 
ATOM     13  C   UNL     1      12.470 -52.381 -24.275  1.00  0.00     0.032 A 
ATOM     14  S   UNL     1      11.747 -50.362 -22.903  1.00  0.00    -0.132 S 
ATOM     15  C   UNL     1      13.062 -51.249 -24.930  1.00  0.00    -0.003 A 
ATOM     16  C   UNL     1      12.744 -50.065 -24.271  1.00  0.00     0.039 A 
ATOM     17  C   UNL     1      13.876 -51.177 -26.087  1.00  0.00     0.060 A 
ATOM     18  C   UNL     1      13.212 -48.815 -24.722  1.00  0.00     0.070 A 
ATOM     19  C   UNL     1      14.350 -49.942 -26.551  1.00  0.00     0.161 A 
ATOM     20  C   UNL     1      14.018 -48.763 -25.866  1.00  0.00     0.162 A 
BRANCH  19  21
ATOM     21  O   UNL     1      15.148 -49.791 -27.659  1.00  0.00    -0.493 OA
ATOM     22  C   UNL     1      16.553 -49.744 -27.467  1.00  0.00     0.278 C 
ENDBRANCH  19  21
BRANCH  20  23
ATOM     23  O   UNL     1      14.533 -47.601 -26.390  1.00  0.00    -0.493 OA
ATOM     24  C   UNL     1      14.857 -46.551 -25.490  1.00  0.00     0.278 C 
ENDBRANCH  20  23
ENDBRANCH   9  12
ENDBRANCH   8   9
ENDBRANCH   7   8
ENDBRANCH   1   7
BRANCH   4  25
ATOM     25  C   UNL     1      10.305 -60.672 -21.759  1.00  0.00     0.385 C 
BRANCH  25  26
ATOM     26  C   UNL     1      10.475 -61.523 -23.016  1.00  0.00     0.233 C 
BRANCH  26  27
ATOM     27  O   UNL     1      11.780 -61.300 -23.551  1.00  0.00    -0.375 OA
BRANCH  27  28
ATOM     28  C   UNL     1      11.733 -60.920 -24.929  1.00  0.00     0.157 C 
ATOM     29  C   UNL     1      12.234 -59.494 -25.047  1.00  0.00     0.035 C 
ENDBRANCH  27  28
ENDBRANCH  26  27
ENDBRANCH  25  26
ENDBRANCH   4  25
TORSDOF 11
ENDMDL
MODEL 4
REMARK VINA RESULT:    -8.439      1.622      2.282
REMARK INTER + INTRA:         -14.472
REMARK INTER:                 -13.782
REMARK INTRA:                  -0.690
REMARK UNBOUND:                -0.853
REMARK SMILES CCOCC[n+]1ccc(CC=C(O)c2cc3cc(OC)c(OC)cc3s2)cc1
REMARK SMILES IDX 9 1 8 2 7 3 6 4 28 5 27 6 10 7 11 8 12 9 13 10 14 12 15 13
REMARK SMILES IDX 26 14 16 15 25 16 17 17 24 18 18 19 21 20 19 21 20 22 22 23
REMARK SMILES IDX 23 24 5 25 4 26 3 27 2 28 1 29
REMARK H PARENT 13 11
ROOT
ATOM      1  C   UNL     1      10.699 -57.897 -22.066  1.00  0.00    -0.032 A 
ATOM      2  C   UNL     1       9.817 -58.064 -23.132  1.00  0.00     0.074 A 
ATOM      3  C   UNL     1       9.296 -59.325 -23.404  1.00  0.00     0.308 A 
ATOM      4  N   UNL     1       9.640 -60.394 -22.648  1.00  0.00    -0.203 N 
ATOM      5  C   UNL     1      10.499 -60.256 -21.612  1.00  0.00     0.308 A 
ATOM      6  C   UNL     1      11.041 -59.015 -21.304  1.00  0.00     0.074 A 
ENDROOT
BRANCH   1   7
ATOM      7  C   UNL     1      11.309 -56.550 -21.755  1.00  0.00     0.067 C 
BRANCH   7   8
ATOM      8  C   UNL     1      10.678 -55.449 -22.557  1.00  0.00     0.025 C 
BRANCH   8   9
ATOM      9  C   UNL     1      11.290 -54.795 -23.556  1.00  0.00     0.129 C 
BRANCH   9  10
ATOM     10  O   UNL     1      11.679 -55.467 -24.697  1.00  0.00    -0.507 OA
ATOM     11  H   UNL     1      11.290 -54.990 -25.456  1.00  0.00     0.293 HD
ENDBRANCH   9  10
BRANCH   9  12
ATOM     12  C   UNL     1      11.549 -53.389 -23.500  1.00  0.00     0.070 A 
ATOM     13  C   UNL     1      12.435 -52.616 -24.230  1.00  0.00     0.032 A 
ATOM     14  S   UNL     1      10.685 -52.390 -22.394  1.00  0.00    -0.132 S 
ATOM     15  C   UNL     1      12.423 -51.221 -23.889  1.00  0.00    -0.003 A 
ATOM     16  C   UNL     1      11.501 -50.959 -22.881  1.00  0.00     0.039 A 
ATOM     17  C   UNL     1      13.179 -50.141 -24.407  1.00  0.00     0.060 A 
ATOM     18  C   UNL     1      11.308 -49.660 -22.370  1.00  0.00     0.070 A 
ATOM     19  C   UNL     1      13.000 -48.841 -23.913  1.00  0.00     0.161 A 
ATOM     20  C   UNL     1      12.065 -48.604 -22.893  1.00  0.00     0.162 A 
BRANCH  19  21
ATOM     21  O   UNL     1      13.697 -47.745 -24.358  1.00  0.00    -0.493 OA
ATOM     22  C   UNL     1      14.111 -47.726 -25.716  1.00  0.00     0.278 C 
ENDBRANCH  19  21
BRANCH  20  23
ATOM     23  O   UNL     1      11.962 -47.301 -22.467  1.00  0.00    -0.493 OA
ATOM     24  C   UNL     1      10.663 -46.738 -22.353  1.00  0.00     0.278 C 
ENDBRANCH  20  23
ENDBRANCH   9  12
ENDBRANCH   8   9
ENDBRANCH   7   8
ENDBRANCH   1   7
BRANCH   4  25
ATOM     25  C   UNL     1       9.072 -61.730 -22.967  1.00  0.00     0.385 C 
BRANCH  25  26
ATOM     26  C   UNL     1       9.678 -62.250 -24.269  1.00  0.00     0.233 C 
BRANCH  26  27
ATOM     27  O   UNL     1       8.664 -62.267 -25.276  1.00  0.00    -0.375 OA
BRANCH  27  28
ATOM     28  C   UNL     1       9.148 -61.780 -26.530  1.00  0.00     0.157 C 
ATOM     29  C   UNL     1       8.719 -62.747 -27.614  1.00  0.00     0.035 C 
ENDBRANCH  27  28
ENDBRANCH  26  27
ENDBRANCH  25  26
ENDBRANCH   4  25
TORSDOF 11
ENDMDL
MODEL 5
REMARK VINA RESULT:    -8.365      2.030      3.523
REMARK INTER + INTRA:         -14.353
REMARK INTER:                 -13.687
REMARK INTRA:                  -0.666
REMARK UNBOUND:                -0.853
REMARK SMILES CCOCC[n+]1ccc(CC=C(O)c2cc3cc(OC)c(OC)cc3s2)cc1
REMARK SMILES IDX 9 1 8 2 7 3 6 4 28 5 27 6 10 7 11 8 12 9 13 10 14 12 15 13
REMARK SMILES IDX 26 14 16 15 25 16 17 17 24 18 18 19 21 20 19 21 20 22 22 23
REMARK SMILES IDX 23 24 5 25 4 26 3 27 2 28 1 29
REMARK H PARENT 13 11
ROOT
ATOM      1  C   UNL     1      10.613 -56.922 -22.678  1.00  0.00    -0.032 A 
ATOM      2  C   UNL     1       9.599 -57.640 -23.310  1.00  0.00     0.074 A 
ATOM      3  C   UNL     1       9.368 -58.963 -22.955  1.00  0.00     0.308 A 
ATOM      4  N   UNL     1      10.119 -59.567 -22.003  1.00  0.00    -0.203 N 
ATOM      5  C   UNL     1      11.112 -58.892 -21.381  1.00  0.00     0.308 A 
ATOM      6  C   UNL     1      11.377 -57.567 -21.704  1.00  0.00     0.074 A 
ENDROOT
BRANCH   1   7
ATOM      7  C   UNL     1      10.916 -55.490 -23.056  1.00  0.00     0.067 C 
BRANCH   7   8
ATOM      8  C   UNL     1      10.039 -54.518 -22.320  1.00  0.00     0.025 C 
BRANCH   8   9
ATOM      9  C   UNL     1      10.496 -53.535 -21.532  1.00  0.00     0.129 C 
BRANCH   9  10
ATOM     10  O   UNL     1      10.689 -53.752 -20.183  1.00  0.00    -0.507 OA
ATOM     11  H   UNL     1      11.535 -53.327 -19.943  1.00  0.00     0.293 HD
ENDBRANCH   9  10
BRANCH   9  12
ATOM     12  C   UNL     1      10.820 -52.238 -22.041  1.00  0.00     0.070 A 
ATOM     13  C   UNL     1      10.152 -51.033 -21.905  1.00  0.00     0.032 A 
ATOM     14  S   UNL     1      12.243 -52.006 -22.984  1.00  0.00    -0.132 S 
ATOM     15  C   UNL     1      10.782 -49.928 -22.572  1.00  0.00    -0.003 A 
ATOM     16  C   UNL     1      11.949 -50.329 -23.214  1.00  0.00     0.039 A 
ATOM     17  C   UNL     1      10.399 -48.567 -22.659  1.00  0.00     0.060 A 
ATOM     18  C   UNL     1      12.745 -49.422 -23.941  1.00  0.00     0.070 A 
ATOM     19  C   UNL     1      11.178 -47.650 -23.378  1.00  0.00     0.161 A 
ATOM     20  C   UNL     1      12.350 -48.080 -24.019  1.00  0.00     0.162 A 
BRANCH  19  21
ATOM     21  O   UNL     1      10.871 -46.319 -23.513  1.00  0.00    -0.493 OA
ATOM     22  C   UNL     1      10.502 -45.598 -22.347  1.00  0.00     0.278 C 
ENDBRANCH  19  21
BRANCH  20  23
ATOM     23  O   UNL     1      13.047 -47.114 -24.705  1.00  0.00    -0.493 OA
ATOM     24  C   UNL     1      14.402 -46.888 -24.345  1.00  0.00     0.278 C 
ENDBRANCH  20  23
ENDBRANCH   9  12
ENDBRANCH   8   9
ENDBRANCH   7   8
ENDBRANCH   1   7
BRANCH   4  25
ATOM     25  C   UNL     1       9.852 -60.986 -21.649  1.00  0.00     0.385 C 
BRANCH  25  26
ATOM     26  C   UNL     1       9.602 -61.796 -22.920  1.00  0.00     0.233 C 
BRANCH  26  27
ATOM     27  O   UNL     1       8.292 -62.363 -22.854  1.00  0.00    -0.375 OA
BRANCH  27  28
ATOM     28  C   UNL     1       7.500 -62.008 -23.991  1.00  0.00     0.157 C 
ATOM     29  C   UNL     1       7.613 -63.118 -25.016  1.00  0.00     0.035 C 
ENDBRANCH  27  28
ENDBRANCH  26  27
ENDBRANCH  25  26
ENDBRANCH   4  25
TORSDOF 11
ENDMDL
MODEL 6
REMARK VINA RESULT:    -8.308      2.951     10.538
REMARK INTER + INTRA:         -14.261
REMARK INTER:                 -13.457
REMARK INTRA:                  -0.804
REMARK UNBOUND:                -0.853
REMARK SMILES CCOCC[n+]1ccc(CC=C(O)c2cc3cc(OC)c(OC)cc3s2)cc1
REMARK SMILES IDX 9 1 8 2 7 3 6 4 28 5 27 6 10 7 11 8 12 9 13 10 14 12 15 13
REMARK SMILES IDX 26 14 16 15 25 16 17 17 24 18 18 19 21 20 19 21 20 22 22 23
REMARK SMILES IDX 23 24 5 25 4 26 3 27 2 28 1 29
REMARK H PARENT 13 11
ROOT
ATOM      1  C   UNL     1      10.889 -54.298 -22.682  1.00  0.00    -0.032 A 
ATOM      2  C   UNL     1      11.616 -54.022 -23.838  1.00  0.00     0.074 A 
ATOM      3  C   UNL     1      12.108 -52.740 -24.053  1.00  0.00     0.308 A 
ATOM      4  N   UNL     1      11.884 -51.752 -23.153  1.00  0.00    -0.203 N 
ATOM      5  C   UNL     1      11.176 -51.996 -22.027  1.00  0.00     0.308 A 
ATOM      6  C   UNL     1      10.667 -53.263 -21.772  1.00  0.00     0.074 A 
ENDROOT
BRANCH   1   7
ATOM      7  C   UNL     1      10.312 -55.672 -22.425  1.00  0.00     0.067 C 
BRANCH   7   8
ATOM      8  C   UNL     1      11.378 -56.672 -22.081  1.00  0.00     0.025 C 
BRANCH   8   9
ATOM      9  C   UNL     1      11.138 -57.952 -21.761  1.00  0.00     0.129 C 
BRANCH   9  10
ATOM     10  O   UNL     1      11.403 -58.416 -20.489  1.00  0.00    -0.507 OA
ATOM     11  H   UNL     1      11.168 -59.364 -20.476  1.00  0.00     0.293 HD
ENDBRANCH   9  10
BRANCH   9  12
ATOM     12  C   UNL     1      10.586 -58.882 -22.698  1.00  0.00     0.070 A 
ATOM     13  C   UNL     1       9.443 -59.658 -22.616  1.00  0.00     0.032 A 
ATOM     14  S   UNL     1      11.372 -59.166 -24.204  1.00  0.00    -0.132 S 
ATOM     15  C   UNL     1       9.209 -60.490 -23.764  1.00  0.00    -0.003 A 
ATOM     16  C   UNL     1      10.206 -60.318 -24.719  1.00  0.00     0.039 A 
ATOM     17  C   UNL     1       8.164 -61.405 -24.038  1.00  0.00     0.060 A 
ATOM     18  C   UNL     1      10.200 -61.030 -25.935  1.00  0.00     0.070 A 
ATOM     19  C   UNL     1       8.141 -62.122 -25.243  1.00  0.00     0.161 A 
ATOM     20  C   UNL     1       9.160 -61.934 -26.189  1.00  0.00     0.162 A 
BRANCH  19  21
ATOM     21  O   UNL     1       7.167 -63.030 -25.580  1.00  0.00    -0.493 OA
ATOM     22  C   UNL     1       7.038 -64.196 -24.779  1.00  0.00     0.278 C 
ENDBRANCH  19  21
BRANCH  20  23
ATOM     23  O   UNL     1       9.058 -62.682 -27.337  1.00  0.00    -0.493 OA
ATOM     24  C   UNL     1       9.072 -61.999 -28.582  1.00  0.00     0.278 C 
ENDBRANCH  20  23
ENDBRANCH   9  12
ENDBRANCH   8   9
ENDBRANCH   7   8
ENDBRANCH   1   7
BRANCH   4  25
ATOM     25  C   UNL     1      12.417 -50.389 -23.413  1.00  0.00     0.385 C 
BRANCH  25  26
ATOM     26  C   UNL     1      13.226 -50.391 -24.708  1.00  0.00     0.233 C 
BRANCH  26  27
ATOM     27  O   UNL     1      14.578 -50.038 -24.408  1.00  0.00    -0.375 OA
BRANCH  27  28
ATOM     28  C   UNL     1      15.456 -51.163 -24.502  1.00  0.00     0.157 C 
ATOM     29  C   UNL     1      16.017 -51.446 -23.123  1.00  0.00     0.035 C 
ENDBRANCH  27  28
ENDBRANCH  26  27
ENDBRANCH  25  26
ENDBRANCH   4  25
TORSDOF 11
ENDMDL
MODEL 7
REMARK VINA RESULT:    -8.167      2.584      3.943
REMARK INTER + INTRA:         -14.033
REMARK INTER:                 -13.414
REMARK INTRA:                  -0.620
REMARK UNBOUND:                -0.853
REMARK SMILES CCOCC[n+]1ccc(CC=C(O)c2cc3cc(OC)c(OC)cc3s2)cc1
REMARK SMILES IDX 9 1 8 2 7 3 6 4 28 5 27 6 10 7 11 8 12 9 13 10 14 12 15 13
REMARK SMILES IDX 26 14 16 15 25 16 17 17 24 18 18 19 21 20 19 21 20 22 22 23
REMARK SMILES IDX 23 24 5 25 4 26 3 27 2 28 1 29
REMARK H PARENT 13 11
ROOT
ATOM      1  C   UNL     1      10.489 -57.279 -22.713  1.00  0.00    -0.032 A 
ATOM      2  C   UNL     1       9.160 -57.378 -23.121  1.00  0.00     0.074 A 
ATOM      3  C   UNL     1       8.747 -58.482 -23.859  1.00  0.00     0.308 A 
ATOM      4  N   UNL     1       9.623 -59.462 -24.189  1.00  0.00    -0.203 N 
ATOM      5  C   UNL     1      10.918 -59.383 -23.809  1.00  0.00     0.308 A 
ATOM      6  C   UNL     1      11.373 -58.298 -23.070  1.00  0.00     0.074 A 
ENDROOT
BRANCH   1   7
ATOM      7  C   UNL     1      10.985 -56.081 -21.935  1.00  0.00     0.067 C 
BRANCH   7   8
ATOM      8  C   UNL     1      11.010 -54.838 -22.776  1.00  0.00     0.025 C 
BRANCH   8   9
ATOM      9  C   UNL     1      11.055 -53.592 -22.282  1.00  0.00     0.129 C 
BRANCH   9  10
ATOM     10  O   UNL     1      10.525 -53.313 -21.039  1.00  0.00    -0.507 OA
ATOM     11  H   UNL     1      10.963 -52.501 -20.717  1.00  0.00     0.293 HD
ENDBRANCH   9  10
BRANCH   9  12
ATOM     12  C   UNL     1      11.660 -52.510 -22.996  1.00  0.00     0.070 A 
ATOM     13  C   UNL     1      11.690 -51.157 -22.707  1.00  0.00     0.032 A 
ATOM     14  S   UNL     1      12.519 -52.808 -24.459  1.00  0.00    -0.132 S 
ATOM     15  C   UNL     1      12.397 -50.361 -23.672  1.00  0.00    -0.003 A 
ATOM     16  C   UNL     1      12.904 -51.151 -24.699  1.00  0.00     0.039 A 
ATOM     17  C   UNL     1      12.632 -48.965 -23.718  1.00  0.00     0.060 A 
ATOM     18  C   UNL     1      13.634 -50.598 -25.770  1.00  0.00     0.070 A 
ATOM     19  C   UNL     1      13.357 -48.397 -24.774  1.00  0.00     0.161 A 
ATOM     20  C   UNL     1      13.855 -49.215 -25.800  1.00  0.00     0.162 A 
BRANCH  19  21
ATOM     21  O   UNL     1      13.622 -47.054 -24.893  1.00  0.00    -0.493 OA
ATOM     22  C   UNL     1      12.522 -46.157 -24.899  1.00  0.00     0.278 C 
ENDBRANCH  19  21
BRANCH  20  23
ATOM     23  O   UNL     1      14.548 -48.571 -26.797  1.00  0.00    -0.493 OA
ATOM     24  C   UNL     1      15.563 -49.294 -27.478  1.00  0.00     0.278 C 
ENDBRANCH  20  23
ENDBRANCH   9  12
ENDBRANCH   8   9
ENDBRANCH   7   8
ENDBRANCH   1   7
BRANCH   4  25
ATOM     25  C   UNL     1       9.153 -60.627 -24.984  1.00  0.00     0.385 C 
BRANCH  25  26
ATOM     26  C   UNL     1      10.125 -60.894 -26.132  1.00  0.00     0.233 C 
BRANCH  26  27
ATOM     27  O   UNL     1      10.107 -59.775 -27.021  1.00  0.00    -0.375 OA
BRANCH  27  28
ATOM     28  C   UNL     1      11.417 -59.445 -27.489  1.00  0.00     0.157 C 
ATOM     29  C   UNL     1      11.546 -59.927 -28.920  1.00  0.00     0.035 C 
ENDBRANCH  27  28
ENDBRANCH  26  27
ENDBRANCH  25  26
ENDBRANCH   4  25
TORSDOF 11
ENDMDL
MODEL 8
REMARK VINA RESULT:    -8.108      1.685      2.872
REMARK INTER + INTRA:         -13.939
REMARK INTER:                 -13.286
REMARK INTRA:                  -0.653
REMARK UNBOUND:                -0.853
REMARK SMILES CCOCC[n+]1ccc(CC=C(O)c2cc3cc(OC)c(OC)cc3s2)cc1
REMARK SMILES IDX 9 1 8 2 7 3 6 4 28 5 27 6 10 7 11 8 12 9 13 10 14 12 15 13
REMARK SMILES IDX 26 14 16 15 25 16 17 17 24 18 18 19 21 20 19 21 20 22 22 23
REMARK SMILES IDX 23 24 5 25 4 26 3 27 2 28 1 29
REMARK H PARENT 13 11
ROOT
ATOM      1  C   UNL     1      10.766 -57.914 -22.680  1.00  0.00    -0.032 A 
ATOM      2  C   UNL     1      11.478 -59.045 -22.286  1.00  0.00     0.074 A 
ATOM      3  C   UNL     1      10.854 -60.288 -22.289  1.00  0.00     0.308 A 
ATOM      4  N   UNL     1       9.559 -60.412 -22.664  1.00  0.00    -0.203 N 
ATOM      5  C   UNL     1       8.847 -59.327 -23.044  1.00  0.00     0.308 A 
ATOM      6  C   UNL     1       9.431 -58.067 -23.059  1.00  0.00     0.074 A 
ENDROOT
BRANCH   1   7
ATOM      7  C   UNL     1      11.398 -56.541 -22.664  1.00  0.00     0.067 C 
BRANCH   7   8
ATOM      8  C   UNL     1      10.369 -55.450 -22.717  1.00  0.00     0.025 C 
BRANCH   8   9
ATOM      9  C   UNL     1      10.491 -54.265 -22.101  1.00  0.00     0.129 C 
BRANCH   9  10
ATOM     10  O   UNL     1       9.962 -54.074 -20.841  1.00  0.00    -0.507 OA
ATOM     11  H   UNL     1       9.008 -54.281 -20.898  1.00  0.00     0.293 HD
ENDBRANCH   9  10
BRANCH   9  12
ATOM     12  C   UNL     1      11.181 -53.163 -22.698  1.00  0.00     0.070 A 
ATOM     13  C   UNL     1      11.361 -51.869 -22.239  1.00  0.00     0.032 A 
ATOM     14  S   UNL     1      11.954 -53.347 -24.226  1.00  0.00    -0.132 S 
ATOM     15  C   UNL     1      12.112 -51.026 -23.126  1.00  0.00    -0.003 A 
ATOM     16  C   UNL     1      12.500 -51.718 -24.269  1.00  0.00     0.039 A 
ATOM     17  C   UNL     1      12.490 -49.666 -23.003  1.00  0.00     0.060 A 
ATOM     18  C   UNL     1      13.246 -51.103 -25.293  1.00  0.00     0.070 A 
ATOM     19  C   UNL     1      13.233 -49.037 -24.011  1.00  0.00     0.161 A 
ATOM     20  C   UNL     1      13.608 -49.757 -25.156  1.00  0.00     0.162 A 
BRANCH  19  21
ATOM     21  O   UNL     1      13.631 -47.723 -23.968  1.00  0.00    -0.493 OA
ATOM     22  C   UNL     1      13.789 -47.116 -22.695  1.00  0.00     0.278 C 
ENDBRANCH  19  21
BRANCH  20  23
ATOM     23  O   UNL     1      14.330 -49.057 -26.094  1.00  0.00    -0.493 OA
ATOM     24  C   UNL     1      14.738 -49.743 -27.269  1.00  0.00     0.278 C 
ENDBRANCH  20  23
ENDBRANCH   9  12
ENDBRANCH   8   9
ENDBRANCH   7   8
ENDBRANCH   1   7
BRANCH   4  25
ATOM     25  C   UNL     1       8.917 -61.753 -22.650  1.00  0.00     0.385 C 
BRANCH  25  26
ATOM     26  C   UNL     1       9.578 -62.652 -23.692  1.00  0.00     0.233 C 
BRANCH  26  27
ATOM     27  O   UNL     1       8.999 -62.380 -24.970  1.00  0.00    -0.375 OA
BRANCH  27  28
ATOM     28  C   UNL     1       7.572 -62.455 -24.935  1.00  0.00     0.157 C 
ATOM     29  C   UNL     1       7.153 -63.813 -25.461  1.00  0.00     0.035 C 
ENDBRANCH  27  28
ENDBRANCH  26  27
ENDBRANCH  25  26
ENDBRANCH   4  25
TORSDOF 11
ENDMDL
MODEL 9
REMARK VINA RESULT:    -8.071      3.725     10.443
REMARK INTER + INTRA:         -13.879
REMARK INTER:                 -13.236
REMARK INTRA:                  -0.643
REMARK UNBOUND:                -0.853
REMARK SMILES CCOCC[n+]1ccc(CC=C(O)c2cc3cc(OC)c(OC)cc3s2)cc1
REMARK SMILES IDX 9 1 8 2 7 3 6 4 28 5 27 6 10 7 11 8 12 9 13 10 14 12 15 13
REMARK SMILES IDX 26 14 16 15 25 16 17 17 24 18 18 19 21 20 19 21 20 22 22 23
REMARK SMILES IDX 23 24 5 25 4 26 3 27 2 28 1 29
REMARK H PARENT 13 11
ROOT
ATOM      1  C   UNL     1      12.418 -50.005 -23.790  1.00  0.00    -0.032 A 
ATOM      2  C   UNL     1      12.836 -51.129 -24.501  1.00  0.00     0.074 A 
ATOM      3  C   UNL     1      13.628 -50.972 -25.632  1.00  0.00     0.308 A 
ATOM      4  N   UNL     1      13.995 -49.739 -26.057  1.00  0.00    -0.203 N 
ATOM      5  C   UNL     1      13.595 -48.635 -25.386  1.00  0.00     0.308 A 
ATOM      6  C   UNL     1      12.804 -48.745 -24.250  1.00  0.00     0.074 A 
ENDROOT
BRANCH   1   7
ATOM      7  C   UNL     1      11.532 -50.130 -22.572  1.00  0.00     0.067 C 
BRANCH   7   8
ATOM      8  C   UNL     1      11.567 -51.515 -21.992  1.00  0.00     0.025 C 
BRANCH   8   9
ATOM      9  C   UNL     1      10.572 -52.406 -22.104  1.00  0.00     0.129 C 
BRANCH   9  10
ATOM     10  O   UNL     1       9.256 -52.002 -22.005  1.00  0.00    -0.507 OA
ATOM     11  H   UNL     1       8.704 -52.750 -22.306  1.00  0.00     0.293 HD
ENDBRANCH   9  10
BRANCH   9  12
ATOM     12  C   UNL     1      10.816 -53.795 -22.346  1.00  0.00     0.070 A 
ATOM     13  C   UNL     1      10.691 -54.883 -21.499  1.00  0.00     0.032 A 
ATOM     14  S   UNL     1      11.350 -54.326 -23.895  1.00  0.00    -0.132 S 
ATOM     15  C   UNL     1      11.037 -56.142 -22.098  1.00  0.00    -0.003 A 
ATOM     16  C   UNL     1      11.425 -55.977 -23.424  1.00  0.00     0.039 A 
ATOM     17  C   UNL     1      11.038 -57.450 -21.555  1.00  0.00     0.060 A 
ATOM     18  C   UNL     1      11.815 -57.068 -24.225  1.00  0.00     0.070 A 
ATOM     19  C   UNL     1      11.423 -58.548 -22.336  1.00  0.00     0.161 A 
ATOM     20  C   UNL     1      11.813 -58.354 -23.671  1.00  0.00     0.162 A 
BRANCH  19  21
ATOM     21  O   UNL     1      11.455 -59.843 -21.881  1.00  0.00    -0.493 OA
ATOM     22  C   UNL     1      10.222 -60.469 -21.561  1.00  0.00     0.278 C 
ENDBRANCH  19  21
BRANCH  20  23
ATOM     23  O   UNL     1      12.179 -59.487 -24.358  1.00  0.00    -0.493 OA
ATOM     24  C   UNL     1      11.301 -59.968 -25.365  1.00  0.00     0.278 C 
ENDBRANCH  20  23
ENDBRANCH   9  12
ENDBRANCH   8   9
ENDBRANCH   7   8
ENDBRANCH   1   7
BRANCH   4  25
ATOM     25  C   UNL     1      14.837 -49.604 -27.274  1.00  0.00     0.385 C 
BRANCH  25  26
ATOM     26  C   UNL     1      16.298 -49.416 -26.872  1.00  0.00     0.233 C 
BRANCH  26  27
ATOM     27  O   UNL     1      17.020 -50.608 -27.191  1.00  0.00    -0.375 OA
BRANCH  27  28
ATOM     28  C   UNL     1      18.134 -50.806 -26.316  1.00  0.00     0.157 C 
ATOM     29  C   UNL     1      18.345 -52.297 -26.144  1.00  0.00     0.035 C 
ENDBRANCH  27  28
ENDBRANCH  26  27
ENDBRANCH  25  26
ENDBRANCH   4  25
TORSDOF 11
ENDMDL
