MODEL 1
REMARK VINA RESULT:   -10.162      0.000      0.000
REMARK INTER + INTRA:         -16.743
REMARK INTER:                 -15.508
REMARK INTRA:                  -1.235
REMARK UNBOUND:                -1.235
REMARK SMILES COc1ccc([C@H](C)NS(=O)(=O)NC(=O)OCc2ccccc2)cc1OC
REMARK SMILES IDX 9 1 7 3 8 4 6 5 3 6 4 7 25 8 5 9 24 10 2 11 1 12 26 13 27 14
REMARK SMILES IDX 10 15 11 16 12 17 13 18 14 19 15 21 16 22 17 23 18 24 19 25
REMARK SMILES IDX 23 26 20 27 22 28 21 29
REMARK H PARENT 9 2 13 20
ROOT
ATOM      1  N   UNL     1       8.827 -62.725 -24.267  1.00  0.00    -0.190 NA
ATOM      2  H   UNL     1       9.140 -63.690 -24.358  1.00  0.00     0.143 HD
ENDROOT
BRANCH   1   3
ATOM      3  C   UNL     1       9.853 -61.695 -24.073  1.00  0.00     0.098 C 
ATOM      4  C   UNL     1      11.007 -62.271 -23.248  1.00  0.00     0.031 C 
BRANCH   3   5
ATOM      5  C   UNL     1      10.262 -61.141 -25.429  1.00  0.00    -0.026 A 
ATOM      6  C   UNL     1      10.954 -60.217 -28.011  1.00  0.00     0.160 A 
ATOM      7  C   UNL     1      11.632 -59.750 -26.881  1.00  0.00     0.051 A 
ATOM      8  C   UNL     1       9.931 -61.170 -27.856  1.00  0.00     0.161 A 
ATOM      9  C   UNL     1      11.295 -60.213 -25.604  1.00  0.00     0.009 A 
ATOM     10  C   UNL     1       9.596 -61.621 -26.573  1.00  0.00     0.055 A 
BRANCH   6  11
ATOM     11  O   UNL     1      11.218 -59.816 -29.297  1.00  0.00    -0.493 OA
ATOM     12  C   UNL     1      12.059 -58.685 -29.475  1.00  0.00     0.278 C 
ENDBRANCH   6  11
BRANCH   8  13
ATOM     13  O   UNL     1       9.315 -61.590 -29.010  1.00  0.00    -0.493 OA
ATOM     14  C   UNL     1       8.643 -62.842 -28.975  1.00  0.00     0.278 C 
ENDBRANCH   8  13
ENDBRANCH   3   5
ENDBRANCH   1   3
BRANCH   1  15
ATOM     15  S   UNL     1       7.334 -62.563 -23.585  1.00  0.00     0.304 S 
ATOM     16  O   UNL     1       7.249 -63.487 -22.481  1.00  0.00    -0.189 OA
ATOM     17  O   UNL     1       6.338 -62.545 -24.628  1.00  0.00    -0.189 OA
BRANCH  15  18
ATOM     18  N   UNL     1       7.390 -61.046 -22.957  1.00  0.00    -0.205 N 
ATOM     19  C   UNL     1       6.535 -60.033 -23.372  1.00  0.00     0.422 C 
ATOM     20  H   UNL     1       8.335 -60.744 -22.752  1.00  0.00     0.188 HD
ATOM     21  O   UNL     1       5.445 -60.231 -23.884  1.00  0.00    -0.223 OA
BRANCH  19  22
ATOM     22  O   UNL     1       7.062 -58.819 -23.091  1.00  0.00    -0.444 OA
BRANCH  22  23
ATOM     23  C   UNL     1       8.113 -58.382 -23.962  1.00  0.00     0.270 C 
BRANCH  23  24
ATOM     24  C   UNL     1       9.248 -57.843 -23.133  1.00  0.00    -0.011 A 
ATOM     25  C   UNL     1      10.078 -58.713 -22.411  1.00  0.00     0.007 A 
ATOM     26  C   UNL     1       9.518 -56.468 -23.107  1.00  0.00     0.007 A 
ATOM     27  C   UNL     1      11.146 -58.213 -21.663  1.00  0.00     0.000 A 
ATOM     28  C   UNL     1      10.587 -55.971 -22.361  1.00  0.00     0.000 A 
ATOM     29  C   UNL     1      11.398 -56.843 -21.637  1.00  0.00     0.000 A 
ENDBRANCH  23  24
ENDBRANCH  22  23
ENDBRANCH  19  22
ENDBRANCH  15  18
ENDBRANCH   1  15
TORSDOF 9
ENDMDL
MODEL 2
REMARK VINA RESULT:    -9.692      3.915      5.949
REMARK INTER + INTRA:         -16.026
REMARK INTER:                 -15.135
REMARK INTRA:                  -0.891
REMARK UNBOUND:                -1.235
REMARK SMILES COc1ccc([C@H](C)NS(=O)(=O)NC(=O)OCc2ccccc2)cc1OC
REMARK SMILES IDX 9 1 7 3 8 4 6 5 3 6 4 7 25 8 5 9 24 10 2 11 1 12 26 13 27 14
REMARK SMILES IDX 10 15 11 16 12 17 13 18 14 19 15 21 16 22 17 23 18 24 19 25
REMARK SMILES IDX 23 26 20 27 22 28 21 29
REMARK H PARENT 9 2 13 20
ROOT
ATOM      1  N   UNL     1      10.626 -58.960 -22.817  1.00  0.00    -0.190 NA
ATOM      2  H   UNL     1      10.522 -58.139 -22.221  1.00  0.00     0.143 HD
ENDROOT
BRANCH   1   3
ATOM      3  C   UNL     1      10.507 -60.276 -22.184  1.00  0.00     0.098 C 
ATOM      4  C   UNL     1      10.278 -60.103 -20.681  1.00  0.00     0.031 C 
BRANCH   3   5
ATOM      5  C   UNL     1       9.425 -61.073 -22.898  1.00  0.00    -0.026 A 
ATOM      6  C   UNL     1       7.320 -62.462 -24.180  1.00  0.00     0.160 A 
ATOM      7  C   UNL     1       8.559 -63.077 -23.973  1.00  0.00     0.051 A 
ATOM      8  C   UNL     1       7.121 -61.144 -23.727  1.00  0.00     0.161 A 
ATOM      9  C   UNL     1       9.597 -62.393 -23.332  1.00  0.00     0.009 A 
ATOM     10  C   UNL     1       8.170 -60.466 -23.094  1.00  0.00     0.055 A 
BRANCH   6  11
ATOM     11  O   UNL     1       6.250 -63.057 -24.800  1.00  0.00    -0.493 OA
ATOM     12  C   UNL     1       6.499 -64.231 -25.560  1.00  0.00     0.278 C 
ENDBRANCH   6  11
BRANCH   8  13
ATOM     13  O   UNL     1       5.877 -60.607 -23.956  1.00  0.00    -0.493 OA
ATOM     14  C   UNL     1       5.512 -59.458 -23.203  1.00  0.00     0.278 C 
ENDBRANCH   8  13
ENDBRANCH   3   5
ENDBRANCH   1   3
BRANCH   1  15
ATOM     15  S   UNL     1      11.632 -58.733 -24.104  1.00  0.00     0.304 S 
ATOM     16  O   UNL     1      10.942 -59.180 -25.289  1.00  0.00    -0.189 OA
ATOM     17  O   UNL     1      12.946 -59.226 -23.769  1.00  0.00    -0.189 OA
BRANCH  15  18
ATOM     18  N   UNL     1      11.747 -57.097 -24.185  1.00  0.00    -0.205 N 
ATOM     19  C   UNL     1      11.443 -56.271 -23.110  1.00  0.00     0.422 C 
ATOM     20  H   UNL     1      11.471 -56.731 -25.090  1.00  0.00     0.188 HD
ATOM     21  O   UNL     1      11.478 -56.634 -21.945  1.00  0.00    -0.223 OA
BRANCH  19  22
ATOM     22  O   UNL     1      11.150 -55.021 -23.536  1.00  0.00    -0.444 OA
BRANCH  22  23
ATOM     23  C   UNL     1      11.785 -54.616 -24.755  1.00  0.00     0.270 C 
BRANCH  23  24
ATOM     24  C   UNL     1      12.277 -53.202 -24.607  1.00  0.00    -0.011 A 
ATOM     25  C   UNL     1      11.908 -52.430 -23.496  1.00  0.00     0.007 A 
ATOM     26  C   UNL     1      13.149 -52.651 -25.557  1.00  0.00     0.007 A 
ATOM     27  C   UNL     1      12.386 -51.127 -23.349  1.00  0.00     0.000 A 
ATOM     28  C   UNL     1      13.628 -51.349 -25.406  1.00  0.00     0.000 A 
ATOM     29  C   UNL     1      13.244 -50.587 -24.304  1.00  0.00     0.000 A 
ENDBRANCH  23  24
ENDBRANCH  22  23
ENDBRANCH  19  22
ENDBRANCH  15  18
ENDBRANCH   1  15
TORSDOF 9
ENDMDL
MODEL 3
REMARK VINA RESULT:    -9.625      2.966      5.518
REMARK INTER + INTRA:         -15.924
REMARK INTER:                 -14.582
REMARK INTRA:                  -1.342
REMARK UNBOUND:                -1.235
REMARK SMILES COc1ccc([C@H](C)NS(=O)(=O)NC(=O)OCc2ccccc2)cc1OC
REMARK SMILES IDX 9 1 7 3 8 4 6 5 3 6 4 7 25 8 5 9 24 10 2 11 1 12 26 13 27 14
REMARK SMILES IDX 10 15 11 16 12 17 13 18 14 19 15 21 16 22 17 23 18 24 19 25
REMARK SMILES IDX 23 26 20 27 22 28 21 29
REMARK H PARENT 9 2 13 20
ROOT
ATOM      1  N   UNL     1      11.189 -60.709 -25.887  1.00  0.00    -0.190 NA
ATOM      2  H   UNL     1      11.376 -61.626 -25.484  1.00  0.00     0.143 HD
ENDROOT
BRANCH   1   3
ATOM      3  C   UNL     1       9.875 -60.495 -26.502  1.00  0.00     0.098 C 
ATOM      4  C   UNL     1       9.539 -61.676 -27.416  1.00  0.00     0.031 C 
BRANCH   3   5
ATOM      5  C   UNL     1       8.852 -60.234 -25.407  1.00  0.00    -0.026 A 
ATOM      6  C   UNL     1       6.904 -59.881 -23.386  1.00  0.00     0.160 A 
ATOM      7  C   UNL     1       7.536 -58.778 -23.968  1.00  0.00     0.051 A 
ATOM      8  C   UNL     1       7.232 -61.176 -23.829  1.00  0.00     0.161 A 
ATOM      9  C   UNL     1       8.494 -58.952 -24.973  1.00  0.00     0.009 A 
ATOM     10  C   UNL     1       8.198 -61.339 -24.829  1.00  0.00     0.055 A 
BRANCH   6  11
ATOM     11  O   UNL     1       5.956 -59.801 -22.396  1.00  0.00    -0.493 OA
ATOM     12  C   UNL     1       4.910 -58.855 -22.561  1.00  0.00     0.278 C 
ENDBRANCH   6  11
BRANCH   8  13
ATOM     13  O   UNL     1       6.565 -62.211 -23.219  1.00  0.00    -0.493 OA
ATOM     14  C   UNL     1       7.225 -63.468 -23.157  1.00  0.00     0.278 C 
ENDBRANCH   8  13
ENDBRANCH   3   5
ENDBRANCH   1   3
BRANCH   1  15
ATOM     15  S   UNL     1      12.527 -59.946 -26.477  1.00  0.00     0.304 S 
ATOM     16  O   UNL     1      12.328 -59.731 -27.888  1.00  0.00    -0.189 OA
ATOM     17  O   UNL     1      13.707 -60.607 -25.975  1.00  0.00    -0.189 OA
BRANCH  15  18
ATOM     18  N   UNL     1      12.457 -58.480 -25.738  1.00  0.00    -0.205 N 
ATOM     19  C   UNL     1      12.155 -58.335 -24.391  1.00  0.00     0.422 C 
ATOM     20  H   UNL     1      12.070 -57.760 -26.338  1.00  0.00     0.188 HD
ATOM     21  O   UNL     1      12.324 -59.212 -23.558  1.00  0.00    -0.223 OA
BRANCH  19  22
ATOM     22  O   UNL     1      11.694 -57.088 -24.136  1.00  0.00    -0.444 OA
BRANCH  22  23
ATOM     23  C   UNL     1      11.137 -56.886 -22.832  1.00  0.00     0.270 C 
BRANCH  23  24
ATOM     24  C   UNL     1      11.070 -55.410 -22.548  1.00  0.00    -0.011 A 
ATOM     25  C   UNL     1      11.278 -54.477 -23.573  1.00  0.00     0.007 A 
ATOM     26  C   UNL     1      10.755 -54.948 -21.262  1.00  0.00     0.007 A 
ATOM     27  C   UNL     1      11.191 -53.108 -23.313  1.00  0.00     0.000 A 
ATOM     28  C   UNL     1      10.666 -53.580 -21.004  1.00  0.00     0.000 A 
ATOM     29  C   UNL     1      10.886 -52.660 -22.028  1.00  0.00     0.000 A 
ENDBRANCH  23  24
ENDBRANCH  22  23
ENDBRANCH  19  22
ENDBRANCH  15  18
ENDBRANCH   1  15
TORSDOF 9
ENDMDL
MODEL 4
REMARK VINA RESULT:    -9.578      3.280      4.602
REMARK INTER + INTRA:         -15.853
REMARK INTER:                 -15.010
REMARK INTRA:                  -0.843
REMARK UNBOUND:                -1.235
REMARK SMILES COc1ccc([C@H](C)NS(=O)(=O)NC(=O)OCc2ccccc2)cc1OC
REMARK SMILES IDX 9 1 7 3 8 4 6 5 3 6 4 7 25 8 5 9 24 10 2 11 1 12 26 13 27 14
REMARK SMILES IDX 10 15 11 16 12 17 13 18 14 19 15 21 16 22 17 23 18 24 19 25
REMARK SMILES IDX 23 26 20 27 22 28 21 29
REMARK H PARENT 9 2 13 20
ROOT
ATOM      1  N   UNL     1      10.074 -59.372 -22.427  1.00  0.00    -0.190 NA
ATOM      2  H   UNL     1       9.148 -59.112 -22.090  1.00  0.00     0.143 HD
ENDROOT
BRANCH   1   3
ATOM      3  C   UNL     1      10.314 -60.786 -22.728  1.00  0.00     0.098 C 
ATOM      4  C   UNL     1       9.570 -61.658 -21.715  1.00  0.00     0.031 C 
BRANCH   3   5
ATOM      5  C   UNL     1       9.947 -61.054 -24.180  1.00  0.00    -0.026 A 
ATOM      6  C   UNL     1       9.298 -61.419 -26.909  1.00  0.00     0.160 A 
ATOM      7  C   UNL     1       8.865 -62.333 -25.944  1.00  0.00     0.051 A 
ATOM      8  C   UNL     1      10.049 -60.298 -26.508  1.00  0.00     0.161 A 
ATOM      9  C   UNL     1       9.179 -62.148 -24.593  1.00  0.00     0.009 A 
ATOM     10  C   UNL     1      10.365 -60.127 -25.155  1.00  0.00     0.055 A 
BRANCH   6  11
ATOM     11  O   UNL     1       9.037 -61.524 -28.252  1.00  0.00    -0.493 OA
ATOM     12  C   UNL     1       8.742 -62.814 -28.767  1.00  0.00     0.278 C 
ENDBRANCH   6  11
BRANCH   8  13
ATOM     13  O   UNL     1      10.433 -59.438 -27.508  1.00  0.00    -0.493 OA
ATOM     14  C   UNL     1      11.818 -59.374 -27.821  1.00  0.00     0.278 C 
ENDBRANCH   8  13
ENDBRANCH   3   5
ENDBRANCH   1   3
BRANCH   1  15
ATOM     15  S   UNL     1      11.290 -58.415 -21.856  1.00  0.00     0.304 S 
ATOM     16  O   UNL     1      12.445 -58.621 -22.694  1.00  0.00    -0.189 OA
ATOM     17  O   UNL     1      11.367 -58.555 -20.423  1.00  0.00    -0.189 OA
BRANCH  15  18
ATOM     18  N   UNL     1      10.726 -56.902 -22.155  1.00  0.00    -0.205 N 
ATOM     19  C   UNL     1       9.767 -56.639 -23.125  1.00  0.00     0.422 C 
ATOM     20  H   UNL     1      11.446 -56.193 -22.070  1.00  0.00     0.188 HD
ATOM     21  O   UNL     1       8.970 -57.468 -23.535  1.00  0.00    -0.223 OA
BRANCH  19  22
ATOM     22  O   UNL     1       9.819 -55.342 -23.508  1.00  0.00    -0.444 OA
BRANCH  22  23
ATOM     23  C   UNL     1      10.673 -54.498 -22.729  1.00  0.00     0.270 C 
BRANCH  23  24
ATOM     24  C   UNL     1      11.566 -53.713 -23.652  1.00  0.00    -0.011 A 
ATOM     25  C   UNL     1      12.078 -54.300 -24.818  1.00  0.00     0.007 A 
ATOM     26  C   UNL     1      11.861 -52.370 -23.381  1.00  0.00     0.007 A 
ATOM     27  C   UNL     1      12.885 -53.562 -25.685  1.00  0.00     0.000 A 
ATOM     28  C   UNL     1      12.666 -51.633 -24.251  1.00  0.00     0.000 A 
ATOM     29  C   UNL     1      13.180 -52.230 -25.401  1.00  0.00     0.000 A 
ENDBRANCH  23  24
ENDBRANCH  22  23
ENDBRANCH  19  22
ENDBRANCH  15  18
ENDBRANCH   1  15
TORSDOF 9
ENDMDL
MODEL 5
REMARK VINA RESULT:    -9.557      2.877      3.710
REMARK INTER + INTRA:         -15.820
REMARK INTER:                 -14.822
REMARK INTRA:                  -0.998
REMARK UNBOUND:                -1.235
REMARK SMILES COc1ccc([C@H](C)NS(=O)(=O)NC(=O)OCc2ccccc2)cc1OC
REMARK SMILES IDX 9 1 7 3 8 4 6 5 3 6 4 7 25 8 5 9 24 10 2 11 1 12 26 13 27 14
REMARK SMILES IDX 10 15 11 16 12 17 13 18 14 19 15 21 16 22 17 23 18 24 19 25
REMARK SMILES IDX 23 26 20 27 22 28 21 29
REMARK H PARENT 9 2 13 20
ROOT
ATOM      1  N   UNL     1      10.202 -60.013 -23.042  1.00  0.00    -0.190 NA
ATOM      2  H   UNL     1       9.217 -60.046 -22.780  1.00  0.00     0.143 HD
ENDROOT
BRANCH   1   3
ATOM      3  C   UNL     1      10.746 -61.160 -23.775  1.00  0.00     0.098 C 
ATOM      4  C   UNL     1       9.891 -62.399 -23.496  1.00  0.00     0.031 C 
BRANCH   3   5
ATOM      5  C   UNL     1      10.868 -60.796 -25.247  1.00  0.00    -0.026 A 
ATOM      6  C   UNL     1      11.005 -60.223 -28.013  1.00  0.00     0.160 A 
ATOM      7  C   UNL     1      11.965 -59.718 -27.131  1.00  0.00     0.051 A 
ATOM      8  C   UNL     1       9.973 -61.040 -27.514  1.00  0.00     0.161 A 
ATOM      9  C   UNL     1      11.902 -60.008 -25.764  1.00  0.00     0.009 A 
ATOM     10  C   UNL     1       9.915 -61.317 -26.143  1.00  0.00     0.055 A 
BRANCH   6  11
ATOM     11  O   UNL     1      10.990 -59.987 -29.365  1.00  0.00    -0.493 OA
ATOM     12  C   UNL     1      12.097 -59.295 -29.925  1.00  0.00     0.278 C 
ENDBRANCH   6  11
BRANCH   8  13
ATOM     13  O   UNL     1       9.071 -61.508 -28.438  1.00  0.00    -0.493 OA
ATOM     14  C   UNL     1       8.764 -62.895 -28.409  1.00  0.00     0.278 C 
ENDBRANCH   8  13
ENDBRANCH   3   5
ENDBRANCH   1   3
BRANCH   1  15
ATOM     15  S   UNL     1      11.148 -59.156 -21.998  1.00  0.00     0.304 S 
ATOM     16  O   UNL     1      12.522 -59.347 -22.389  1.00  0.00    -0.189 OA
ATOM     17  O   UNL     1      10.708 -59.407 -20.648  1.00  0.00    -0.189 OA
BRANCH  15  18
ATOM     18  N   UNL     1      10.746 -57.602 -22.346  1.00  0.00    -0.205 N 
ATOM     19  C   UNL     1       9.610 -57.267 -23.071  1.00  0.00     0.422 C 
ATOM     20  H   UNL     1      11.556 -57.023 -22.539  1.00  0.00     0.188 HD
ATOM     21  O   UNL     1       8.622 -57.980 -23.153  1.00  0.00    -0.223 OA
BRANCH  19  22
ATOM     22  O   UNL     1       9.741 -56.039 -23.625  1.00  0.00    -0.444 OA
BRANCH  22  23
ATOM     23  C   UNL     1      10.146 -54.995 -22.732  1.00  0.00     0.270 C 
BRANCH  23  24
ATOM     24  C   UNL     1      11.126 -54.097 -23.436  1.00  0.00    -0.011 A 
ATOM     25  C   UNL     1      11.756 -54.516 -24.617  1.00  0.00     0.007 A 
ATOM     26  C   UNL     1      11.389 -52.810 -22.946  1.00  0.00     0.007 A 
ATOM     27  C   UNL     1      12.647 -53.672 -25.282  1.00  0.00     0.000 A 
ATOM     28  C   UNL     1      12.277 -51.966 -23.614  1.00  0.00     0.000 A 
ATOM     29  C   UNL     1      12.908 -52.398 -24.780  1.00  0.00     0.000 A 
ENDBRANCH  23  24
ENDBRANCH  22  23
ENDBRANCH  19  22
ENDBRANCH  15  18
ENDBRANCH   1  15
TORSDOF 9
ENDMDL
MODEL 6
REMARK VINA RESULT:    -9.284      3.551      5.102
REMARK INTER + INTRA:         -15.403
REMARK INTER:                 -14.476
REMARK INTRA:                  -0.927
REMARK UNBOUND:                -1.235
REMARK SMILES COc1ccc([C@H](C)NS(=O)(=O)NC(=O)OCc2ccccc2)cc1OC
REMARK SMILES IDX 9 1 7 3 8 4 6 5 3 6 4 7 25 8 5 9 24 10 2 11 1 12 26 13 27 14
REMARK SMILES IDX 10 15 11 16 12 17 13 18 14 19 15 21 16 22 17 23 18 24 19 25
REMARK SMILES IDX 23 26 20 27 22 28 21 29
REMARK H PARENT 9 2 13 20
ROOT
ATOM      1  N   UNL     1       9.762 -58.530 -23.893  1.00  0.00    -0.190 NA
ATOM      2  H   UNL     1       9.270 -57.643 -23.998  1.00  0.00     0.143 HD
ENDROOT
BRANCH   1   3
ATOM      3  C   UNL     1       8.959 -59.718 -23.591  1.00  0.00     0.098 C 
ATOM      4  C   UNL     1       7.560 -59.291 -23.143  1.00  0.00     0.031 C 
BRANCH   3   5
ATOM      5  C   UNL     1       8.979 -60.649 -24.794  1.00  0.00    -0.026 A 
ATOM      6  C   UNL     1       9.053 -62.272 -27.110  1.00  0.00     0.160 A 
ATOM      7  C   UNL     1       8.406 -62.712 -25.951  1.00  0.00     0.051 A 
ATOM      8  C   UNL     1       9.654 -61.000 -27.122  1.00  0.00     0.161 A 
ATOM      9  C   UNL     1       8.363 -61.906 -24.807  1.00  0.00     0.009 A 
ATOM     10  C   UNL     1       9.612 -60.205 -25.970  1.00  0.00     0.055 A 
BRANCH   6  11
ATOM     11  O   UNL     1       9.144 -62.996 -28.272  1.00  0.00    -0.493 OA
ATOM     12  C   UNL     1       7.996 -63.721 -28.688  1.00  0.00     0.278 C 
ENDBRANCH   6  11
BRANCH   8  13
ATOM     13  O   UNL     1      10.263 -60.630 -28.297  1.00  0.00    -0.493 OA
ATOM     14  C   UNL     1      11.482 -59.906 -28.203  1.00  0.00     0.278 C 
ENDBRANCH   8  13
ENDBRANCH   3   5
ENDBRANCH   1   3
BRANCH   1  15
ATOM     15  S   UNL     1      11.298 -58.382 -23.312  1.00  0.00     0.304 S 
ATOM     16  O   UNL     1      12.139 -57.932 -24.393  1.00  0.00    -0.189 OA
ATOM     17  O   UNL     1      11.627 -59.558 -22.543  1.00  0.00    -0.189 OA
BRANCH  15  18
ATOM     18  N   UNL     1      11.159 -57.142 -22.244  1.00  0.00    -0.205 N 
ATOM     19  C   UNL     1      10.599 -55.919 -22.587  1.00  0.00     0.422 C 
ATOM     20  H   UNL     1      11.948 -57.083 -21.610  1.00  0.00     0.188 HD
ATOM     21  O   UNL     1       9.809 -55.767 -23.505  1.00  0.00    -0.223 OA
BRANCH  19  22
ATOM     22  O   UNL     1      11.018 -54.948 -21.742  1.00  0.00    -0.444 OA
BRANCH  22  23
ATOM     23  C   UNL     1      10.236 -53.748 -21.739  1.00  0.00     0.270 C 
BRANCH  23  24
ATOM     24  C   UNL     1      11.045 -52.632 -22.344  1.00  0.00    -0.011 A 
ATOM     25  C   UNL     1      11.126 -51.385 -21.709  1.00  0.00     0.007 A 
ATOM     26  C   UNL     1      11.765 -52.839 -23.529  1.00  0.00     0.007 A 
ATOM     27  C   UNL     1      11.897 -50.359 -22.260  1.00  0.00     0.000 A 
ATOM     28  C   UNL     1      12.537 -51.814 -24.076  1.00  0.00     0.000 A 
ATOM     29  C   UNL     1      12.601 -50.574 -23.443  1.00  0.00     0.000 A 
ENDBRANCH  23  24
ENDBRANCH  22  23
ENDBRANCH  19  22
ENDBRANCH  15  18
ENDBRANCH   1  15
TORSDOF 9
ENDMDL
MODEL 7
REMARK VINA RESULT:    -9.123      3.259      6.293
REMARK INTER + INTRA:         -15.159
REMARK INTER:                 -13.707
REMARK INTRA:                  -1.452
REMARK UNBOUND:                -1.235
REMARK SMILES COc1ccc([C@H](C)NS(=O)(=O)NC(=O)OCc2ccccc2)cc1OC
REMARK SMILES IDX 9 1 7 3 8 4 6 5 3 6 4 7 25 8 5 9 24 10 2 11 1 12 26 13 27 14
REMARK SMILES IDX 10 15 11 16 12 17 13 18 14 19 15 21 16 22 17 23 18 24 19 25
REMARK SMILES IDX 23 26 20 27 22 28 21 29
REMARK H PARENT 9 2 13 20
ROOT
ATOM      1  N   UNL     1      12.637 -58.724 -24.618  1.00  0.00    -0.190 NA
ATOM      2  H   UNL     1      13.590 -58.829 -24.272  1.00  0.00     0.143 HD
ENDROOT
BRANCH   1   3
ATOM      3  C   UNL     1      11.563 -58.619 -23.626  1.00  0.00     0.098 C 
ATOM      4  C   UNL     1      11.862 -59.549 -22.448  1.00  0.00     0.031 C 
BRANCH   3   5
ATOM      5  C   UNL     1      11.383 -57.157 -23.245  1.00  0.00    -0.026 A 
ATOM      6  C   UNL     1      11.126 -54.404 -22.647  1.00  0.00     0.160 A 
ATOM      7  C   UNL     1      10.801 -55.375 -21.694  1.00  0.00     0.051 A 
ATOM      8  C   UNL     1      11.602 -54.809 -23.908  1.00  0.00     0.161 A 
ATOM      9  C   UNL     1      10.935 -56.736 -21.987  1.00  0.00     0.009 A 
ATOM     10  C   UNL     1      11.725 -56.174 -24.193  1.00  0.00     0.055 A 
BRANCH   6  11
ATOM     11  O   UNL     1      11.022 -53.051 -22.444  1.00  0.00    -0.493 OA
ATOM     12  C   UNL     1       9.718 -52.498 -22.341  1.00  0.00     0.278 C 
ENDBRANCH   6  11
BRANCH   8  13
ATOM     13  O   UNL     1      11.910 -53.802 -24.790  1.00  0.00    -0.493 OA
ATOM     14  C   UNL     1      12.850 -54.094 -25.815  1.00  0.00     0.278 C 
ENDBRANCH   8  13
ENDBRANCH   3   5
ENDBRANCH   1   3
BRANCH   1  15
ATOM     15  S   UNL     1      12.367 -59.449 -26.075  1.00  0.00     0.304 S 
ATOM     16  O   UNL     1      13.401 -60.433 -26.278  1.00  0.00    -0.189 OA
ATOM     17  O   UNL     1      12.091 -58.435 -27.063  1.00  0.00    -0.189 OA
BRANCH  15  18
ATOM     18  N   UNL     1      10.959 -60.256 -25.818  1.00  0.00    -0.205 N 
ATOM     19  C   UNL     1      10.077 -60.568 -26.845  1.00  0.00     0.422 C 
ATOM     20  H   UNL     1      10.516 -59.996 -24.944  1.00  0.00     0.188 HD
ATOM     21  O   UNL     1      10.407 -60.671 -28.016  1.00  0.00    -0.223 OA
BRANCH  19  22
ATOM     22  O   UNL     1       8.833 -60.779 -26.357  1.00  0.00    -0.444 OA
BRANCH  22  23
ATOM     23  C   UNL     1       8.761 -61.143 -24.974  1.00  0.00     0.270 C 
BRANCH  23  24
ATOM     24  C   UNL     1       7.854 -60.180 -24.257  1.00  0.00    -0.011 A 
ATOM     25  C   UNL     1       6.760 -60.649 -23.516  1.00  0.00     0.007 A 
ATOM     26  C   UNL     1       8.117 -58.803 -24.283  1.00  0.00     0.007 A 
ATOM     27  C   UNL     1       5.935 -59.756 -22.831  1.00  0.00     0.000 A 
ATOM     28  C   UNL     1       7.293 -57.913 -23.595  1.00  0.00     0.000 A 
ATOM     29  C   UNL     1       6.200 -58.388 -22.872  1.00  0.00     0.000 A 
ENDBRANCH  23  24
ENDBRANCH  22  23
ENDBRANCH  19  22
ENDBRANCH  15  18
ENDBRANCH   1  15
TORSDOF 9
ENDMDL
MODEL 8
REMARK VINA RESULT:    -9.060      6.073      8.750
REMARK INTER + INTRA:         -15.062
REMARK INTER:                 -14.024
REMARK INTRA:                  -1.038
REMARK UNBOUND:                -1.235
REMARK SMILES COc1ccc([C@H](C)NS(=O)(=O)NC(=O)OCc2ccccc2)cc1OC
REMARK SMILES IDX 9 1 7 3 8 4 6 5 3 6 4 7 25 8 5 9 24 10 2 11 1 12 26 13 27 14
REMARK SMILES IDX 10 15 11 16 12 17 13 18 14 19 15 21 16 22 17 23 18 24 19 25
REMARK SMILES IDX 23 26 20 27 22 28 21 29
REMARK H PARENT 9 2 13 20
ROOT
ATOM      1  N   UNL     1      11.737 -53.033 -22.559  1.00  0.00    -0.190 NA
ATOM      2  H   UNL     1      12.676 -53.275 -22.247  1.00  0.00     0.143 HD
ENDROOT
BRANCH   1   3
ATOM      3  C   UNL     1      11.495 -51.647 -22.970  1.00  0.00     0.098 C 
ATOM      4  C   UNL     1      11.493 -50.740 -21.737  1.00  0.00     0.031 C 
BRANCH   3   5
ATOM      5  C   UNL     1      12.511 -51.261 -24.035  1.00  0.00    -0.026 A 
ATOM      6  C   UNL     1      14.462 -50.667 -25.994  1.00  0.00     0.160 A 
ATOM      7  C   UNL     1      13.659 -49.657 -25.458  1.00  0.00     0.051 A 
ATOM      8  C   UNL     1      14.305 -51.989 -25.536  1.00  0.00     0.161 A 
ATOM      9  C   UNL     1      12.699 -49.949 -24.483  1.00  0.00     0.009 A 
ATOM     10  C   UNL     1      13.335 -52.272 -24.566  1.00  0.00     0.055 A 
BRANCH   6  11
ATOM     11  O   UNL     1      15.425 -50.470 -26.953  1.00  0.00    -0.493 OA
ATOM     12  C   UNL     1      15.458 -49.207 -27.603  1.00  0.00     0.278 C 
ENDBRANCH   6  11
BRANCH   8  13
ATOM     13  O   UNL     1      15.133 -52.928 -26.100  1.00  0.00    -0.493 OA
ATOM     14  C   UNL     1      16.270 -53.333 -25.349  1.00  0.00     0.278 C 
ENDBRANCH   8  13
ENDBRANCH   3   5
ENDBRANCH   1   3
BRANCH   1  15
ATOM     15  S   UNL     1      10.542 -53.919 -21.846  1.00  0.00     0.304 S 
ATOM     16  O   UNL     1       9.319 -53.676 -22.570  1.00  0.00    -0.189 OA
ATOM     17  O   UNL     1      10.615 -53.746 -20.415  1.00  0.00    -0.189 OA
BRANCH  15  18
ATOM     18  N   UNL     1      11.005 -55.463 -22.160  1.00  0.00    -0.205 N 
ATOM     19  C   UNL     1      11.263 -55.919 -23.447  1.00  0.00     0.422 C 
ATOM     20  H   UNL     1      10.549 -56.137 -21.556  1.00  0.00     0.188 HD
ATOM     21  O   UNL     1      11.582 -55.192 -24.374  1.00  0.00    -0.223 OA
BRANCH  19  22
ATOM     22  O   UNL     1      11.152 -57.266 -23.507  1.00  0.00    -0.444 OA
BRANCH  22  23
ATOM     23  C   UNL     1      11.272 -57.955 -22.257  1.00  0.00     0.270 C 
BRANCH  23  24
ATOM     24  C   UNL     1      11.026 -59.423 -22.478  1.00  0.00    -0.011 A 
ATOM     25  C   UNL     1      10.154 -60.134 -21.640  1.00  0.00     0.007 A 
ATOM     26  C   UNL     1      11.631 -60.091 -23.552  1.00  0.00     0.007 A 
ATOM     27  C   UNL     1       9.908 -61.490 -21.862  1.00  0.00     0.000 A 
ATOM     28  C   UNL     1      11.381 -61.446 -23.774  1.00  0.00     0.000 A 
ATOM     29  C   UNL     1      10.522 -62.145 -22.927  1.00  0.00     0.000 A 
ENDBRANCH  23  24
ENDBRANCH  22  23
ENDBRANCH  19  22
ENDBRANCH  15  18
ENDBRANCH   1  15
TORSDOF 9
ENDMDL
MODEL 9
REMARK VINA RESULT:    -9.005      4.929      8.021
REMARK INTER + INTRA:         -14.979
REMARK INTER:                 -14.291
REMARK INTRA:                  -0.687
REMARK UNBOUND:                -1.235
REMARK SMILES COc1ccc([C@H](C)NS(=O)(=O)NC(=O)OCc2ccccc2)cc1OC
REMARK SMILES IDX 9 1 7 3 8 4 6 5 3 6 4 7 25 8 5 9 24 10 2 11 1 12 26 13 27 14
REMARK SMILES IDX 10 15 11 16 12 17 13 18 14 19 15 21 16 22 17 23 18 24 19 25
REMARK SMILES IDX 23 26 20 27 22 28 21 29
REMARK H PARENT 9 2 13 20
ROOT
ATOM      1  N   UNL     1      11.678 -55.995 -23.276  1.00  0.00    -0.190 NA
ATOM      2  H   UNL     1      12.684 -55.908 -23.139  1.00  0.00     0.143 HD
ENDROOT
BRANCH   1   3
ATOM      3  C   UNL     1      10.894 -54.759 -23.339  1.00  0.00     0.098 C 
ATOM      4  C   UNL     1      10.376 -54.409 -21.942  1.00  0.00     0.031 C 
BRANCH   3   5
ATOM      5  C   UNL     1      11.734 -53.671 -23.990  1.00  0.00    -0.026 A 
ATOM      6  C   UNL     1      13.227 -51.553 -25.125  1.00  0.00     0.160 A 
ATOM      7  C   UNL     1      13.219 -52.818 -25.719  1.00  0.00     0.051 A 
ATOM      8  C   UNL     1      12.467 -51.333 -23.961  1.00  0.00     0.161 A 
ATOM      9  C   UNL     1      12.474 -53.864 -25.162  1.00  0.00     0.009 A 
ATOM     10  C   UNL     1      11.732 -52.389 -23.407  1.00  0.00     0.055 A 
BRANCH   6  11
ATOM     11  O   UNL     1      13.929 -50.474 -25.602  1.00  0.00    -0.493 OA
ATOM     12  C   UNL     1      15.311 -50.656 -25.873  1.00  0.00     0.278 C 
ENDBRANCH   6  11
BRANCH   8  13
ATOM     13  O   UNL     1      12.515 -50.064 -23.437  1.00  0.00    -0.493 OA
ATOM     14  C   UNL     1      11.417 -49.643 -22.639  1.00  0.00     0.278 C 
ENDBRANCH   8  13
ENDBRANCH   3   5
ENDBRANCH   1   3
BRANCH   1  15
ATOM     15  S   UNL     1      11.029 -57.372 -22.641  1.00  0.00     0.304 S 
ATOM     16  O   UNL     1       9.695 -57.516 -23.168  1.00  0.00    -0.189 OA
ATOM     17  O   UNL     1      11.284 -57.403 -21.221  1.00  0.00    -0.189 OA
BRANCH  15  18
ATOM     18  N   UNL     1      11.956 -58.548 -23.313  1.00  0.00    -0.205 N 
ATOM     19  C   UNL     1      12.170 -58.642 -24.683  1.00  0.00     0.422 C 
ATOM     20  H   UNL     1      11.860 -59.439 -22.840  1.00  0.00     0.188 HD
ATOM     21  O   UNL     1      12.075 -57.697 -25.451  1.00  0.00    -0.223 OA
BRANCH  19  22
ATOM     22  O   UNL     1      12.534 -59.899 -25.025  1.00  0.00    -0.444 OA
BRANCH  22  23
ATOM     23  C   UNL     1      12.387 -60.888 -24.000  1.00  0.00     0.270 C 
BRANCH  23  24
ATOM     24  C   UNL     1      11.076 -61.602 -24.188  1.00  0.00    -0.011 A 
ATOM     25  C   UNL     1      10.561 -62.426 -23.177  1.00  0.00     0.007 A 
ATOM     26  C   UNL     1      10.329 -61.418 -25.360  1.00  0.00     0.007 A 
ATOM     27  C   UNL     1       9.332 -63.067 -23.343  1.00  0.00     0.000 A 
ATOM     28  C   UNL     1       9.100 -62.057 -25.524  1.00  0.00     0.000 A 
ATOM     29  C   UNL     1       8.603 -62.884 -24.517  1.00  0.00     0.000 A 
ENDBRANCH  23  24
ENDBRANCH  22  23
ENDBRANCH  19  22
ENDBRANCH  15  18
ENDBRANCH   1  15
TORSDOF 9
ENDMDL
