MODEL 1
REMARK VINA RESULT:    -8.789      0.000      0.000
REMARK INTER + INTRA:          -9.742
REMARK INTER:                  -9.560
REMARK INTRA:                  -0.183
REMARK UNBOUND:                -0.183
REMARK SMILES CN(C)C(=O)N[C@H]1CCc2ccc(O)cc2C1
REMARK SMILES IDX 7 1 8 2 9 3 10 4 11 5 12 6 13 7 15 8 16 9 17 10 6 11 2 12
REMARK SMILES IDX 4 13 1 14 3 15 5 16 14 18
REMARK H PARENT 6 17 14 19
ROOT
ATOM      1  C   UNL     1      10.666 -56.420 -23.044  1.00  0.00     0.088 C 
ATOM      2  C   UNL     1      11.227 -57.322 -21.940  1.00  0.00     0.030 C 
ATOM      3  C   UNL     1      11.002 -58.792 -22.279  1.00  0.00     0.038 C 
ATOM      4  C   UNL     1       9.585 -59.094 -22.689  1.00  0.00    -0.044 A 
ATOM      5  C   UNL     1       9.140 -60.425 -22.680  1.00  0.00     0.008 A 
ATOM      6  C   UNL     1       7.844 -60.744 -23.084  1.00  0.00     0.046 A 
ATOM      7  C   UNL     1       6.991 -59.735 -23.507  1.00  0.00     0.115 A 
ATOM      8  C   UNL     1       7.414 -58.409 -23.534  1.00  0.00     0.050 A 
ATOM      9  C   UNL     1       8.720 -58.079 -23.137  1.00  0.00    -0.039 A 
ATOM     10  C   UNL     1       9.142 -56.628 -23.148  1.00  0.00     0.061 C 
ENDROOT
BRANCH   1  11
ATOM     11  N   UNL     1      11.007 -55.024 -22.766  1.00  0.00    -0.335 N 
ATOM     12  N   UNL     1      11.846 -52.933 -23.329  1.00  0.00    -0.331 N 
ATOM     13  C   UNL     1      11.546 -54.224 -23.745  1.00  0.00     0.317 C 
ATOM     14  C   UNL     1      11.177 -52.273 -22.214  1.00  0.00     0.148 C 
ATOM     15  C   UNL     1      12.433 -52.045 -24.318  1.00  0.00     0.148 C 
ATOM     16  O   UNL     1      11.752 -54.628 -24.885  1.00  0.00    -0.249 OA
ATOM     17  H   UNL     1      11.456 -54.862 -21.877  1.00  0.00     0.165 HD
ENDBRANCH   1  11
BRANCH   7  18
ATOM     18  O   UNL     1       5.732 -60.088 -23.893  1.00  0.00    -0.508 OA
ATOM     19  H   UNL     1       5.209 -59.276 -24.007  1.00  0.00     0.293 HD
ENDBRANCH   7  18
TORSDOF 2
ENDMDL
MODEL 2
REMARK VINA RESULT:    -8.675      2.077      6.965
REMARK INTER + INTRA:          -9.618
REMARK INTER:                  -9.437
REMARK INTRA:                  -0.181
REMARK UNBOUND:                -0.183
REMARK SMILES CN(C)C(=O)N[C@H]1CCc2ccc(O)cc2C1
REMARK SMILES IDX 7 1 8 2 9 3 10 4 11 5 12 6 13 7 15 8 16 9 17 10 6 11 2 12
REMARK SMILES IDX 4 13 1 14 3 15 5 16 14 18
REMARK H PARENT 6 17 14 19
ROOT
ATOM      1  C   UNL     1      10.366 -55.744 -22.821  1.00  0.00     0.088 C 
ATOM      2  C   UNL     1      10.672 -54.948 -21.548  1.00  0.00     0.030 C 
ATOM      3  C   UNL     1      10.673 -53.450 -21.835  1.00  0.00     0.038 C 
ATOM      4  C   UNL     1      11.506 -53.080 -23.035  1.00  0.00    -0.044 A 
ATOM      5  C   UNL     1      11.895 -51.742 -23.209  1.00  0.00     0.008 A 
ATOM      6  C   UNL     1      12.639 -51.358 -24.324  1.00  0.00     0.046 A 
ATOM      7  C   UNL     1      12.991 -52.308 -25.273  1.00  0.00     0.115 A 
ATOM      8  C   UNL     1      12.607 -53.637 -25.126  1.00  0.00     0.050 A 
ATOM      9  C   UNL     1      11.850 -54.033 -24.010  1.00  0.00    -0.039 A 
ATOM     10  C   UNL     1      11.473 -55.489 -23.862  1.00  0.00     0.061 C 
ENDROOT
BRANCH   1  11
ATOM     11  N   UNL     1      10.239 -57.166 -22.499  1.00  0.00    -0.335 N 
ATOM     12  N   UNL     1       9.231 -59.253 -22.646  1.00  0.00    -0.331 N 
ATOM     13  C   UNL     1       9.247 -57.929 -23.067  1.00  0.00     0.317 C 
ATOM     14  C   UNL     1      10.407 -59.949 -22.140  1.00  0.00     0.148 C 
ATOM     15  C   UNL     1       8.194 -60.105 -23.203  1.00  0.00     0.148 C 
ATOM     16  O   UNL     1       8.441 -57.469 -23.870  1.00  0.00    -0.249 OA
ATOM     17  H   UNL     1      10.360 -57.396 -21.524  1.00  0.00     0.165 HD
ENDBRANCH   1  11
BRANCH   7  18
ATOM     18  O   UNL     1      13.719 -51.892 -26.348  1.00  0.00    -0.508 OA
ATOM     19  H   UNL     1      14.662 -51.992 -26.135  1.00  0.00     0.293 HD
ENDBRANCH   7  18
TORSDOF 2
ENDMDL
MODEL 3
REMARK VINA RESULT:    -8.642      1.216      1.439
REMARK INTER + INTRA:          -9.583
REMARK INTER:                  -9.400
REMARK INTRA:                  -0.183
REMARK UNBOUND:                -0.183
REMARK SMILES CN(C)C(=O)N[C@H]1CCc2ccc(O)cc2C1
REMARK SMILES IDX 7 1 8 2 9 3 10 4 11 5 12 6 13 7 15 8 16 9 17 10 6 11 2 12
REMARK SMILES IDX 4 13 1 14 3 15 5 16 14 18
REMARK H PARENT 6 17 14 19
ROOT
ATOM      1  C   UNL     1      10.393 -57.541 -22.823  1.00  0.00     0.088 C 
ATOM      2  C   UNL     1      10.977 -58.322 -21.641  1.00  0.00     0.030 C 
ATOM      3  C   UNL     1      11.076 -59.808 -21.972  1.00  0.00     0.038 C 
ATOM      4  C   UNL     1       9.802 -60.372 -22.542  1.00  0.00    -0.044 A 
ATOM      5  C   UNL     1       9.618 -61.764 -22.558  1.00  0.00     0.008 A 
ATOM      6  C   UNL     1       8.464 -62.322 -23.107  1.00  0.00     0.046 A 
ATOM      7  C   UNL     1       7.493 -61.493 -23.649  1.00  0.00     0.115 A 
ATOM      8  C   UNL     1       7.659 -60.111 -23.654  1.00  0.00     0.050 A 
ATOM      9  C   UNL     1       8.821 -59.539 -23.111  1.00  0.00    -0.039 A 
ATOM     10  C   UNL     1       8.960 -58.034 -23.103  1.00  0.00     0.061 C 
ENDROOT
BRANCH   1  11
ATOM     11  N   UNL     1      10.428 -56.106 -22.535  1.00  0.00    -0.335 N 
ATOM     12  N   UNL     1      11.104 -53.920 -22.928  1.00  0.00    -0.331 N 
ATOM     13  C   UNL     1      11.137 -55.247 -23.339  1.00  0.00     0.317 C 
ATOM     14  C   UNL     1      10.027 -53.355 -22.125  1.00  0.00     0.148 C 
ATOM     15  C   UNL     1      11.849 -52.966 -23.732  1.00  0.00     0.148 C 
ATOM     16  O   UNL     1      11.754 -55.628 -24.329  1.00  0.00    -0.249 OA
ATOM     17  H   UNL     1      10.540 -55.868 -21.561  1.00  0.00     0.165 HD
ENDBRANCH   1  11
BRANCH   7  18
ATOM     18  O   UNL     1       6.380 -62.078 -24.175  1.00  0.00    -0.508 OA
ATOM     19  H   UNL     1       6.348 -63.000 -23.872  1.00  0.00     0.293 HD
ENDBRANCH   7  18
TORSDOF 2
ENDMDL
MODEL 4
REMARK VINA RESULT:    -8.248      2.348      7.382
REMARK INTER + INTRA:          -9.154
REMARK INTER:                  -8.971
REMARK INTRA:                  -0.183
REMARK UNBOUND:                -0.183
REMARK SMILES CN(C)C(=O)N[C@H]1CCc2ccc(O)cc2C1
REMARK SMILES IDX 7 1 8 2 9 3 10 4 11 5 12 6 13 7 15 8 16 9 17 10 6 11 2 12
REMARK SMILES IDX 4 13 1 14 3 15 5 16 14 18
REMARK H PARENT 6 17 14 19
ROOT
ATOM      1  C   UNL     1      11.202 -54.865 -23.572  1.00  0.00     0.088 C 
ATOM      2  C   UNL     1      11.694 -54.551 -24.989  1.00  0.00     0.030 C 
ATOM      3  C   UNL     1      12.787 -53.488 -24.956  1.00  0.00     0.038 C 
ATOM      4  C   UNL     1      12.417 -52.285 -24.127  1.00  0.00    -0.044 A 
ATOM      5  C   UNL     1      13.143 -51.095 -24.290  1.00  0.00     0.008 A 
ATOM      6  C   UNL     1      12.849 -49.973 -23.517  1.00  0.00     0.046 A 
ATOM      7  C   UNL     1      11.833 -50.037 -22.574  1.00  0.00     0.115 A 
ATOM      8  C   UNL     1      11.107 -51.210 -22.389  1.00  0.00     0.050 A 
ATOM      9  C   UNL     1      11.402 -52.349 -23.157  1.00  0.00    -0.039 A 
ATOM     10  C   UNL     1      10.577 -53.599 -22.955  1.00  0.00     0.061 C 
ENDROOT
BRANCH   1  11
ATOM     11  N   UNL     1      10.250 -55.977 -23.613  1.00  0.00    -0.335 N 
ATOM     12  N   UNL     1       9.545 -58.134 -23.119  1.00  0.00    -0.331 N 
ATOM     13  C   UNL     1      10.525 -57.160 -22.969  1.00  0.00     0.317 C 
ATOM     14  C   UNL     1       8.148 -57.831 -23.401  1.00  0.00     0.148 C 
ATOM     15  C   UNL     1       9.787 -59.412 -22.471  1.00  0.00     0.148 C 
ATOM     16  O   UNL     1      11.556 -57.336 -22.327  1.00  0.00    -0.249 OA
ATOM     17  H   UNL     1       9.826 -56.144 -24.513  1.00  0.00     0.165 HD
ENDBRANCH   1  11
BRANCH   7  18
ATOM     18  O   UNL     1      11.576 -48.918 -21.839  1.00  0.00    -0.508 OA
ATOM     19  H   UNL     1      12.297 -48.802 -21.198  1.00  0.00     0.293 HD
ENDBRANCH   7  18
TORSDOF 2
ENDMDL
MODEL 5
REMARK VINA RESULT:    -8.165      4.811      5.295
REMARK INTER + INTRA:          -9.063
REMARK INTER:                  -9.384
REMARK INTRA:                   0.321
REMARK UNBOUND:                -0.183
REMARK SMILES CN(C)C(=O)N[C@H]1CCc2ccc(O)cc2C1
REMARK SMILES IDX 7 1 8 2 9 3 10 4 11 5 12 6 13 7 15 8 16 9 17 10 6 11 2 12
REMARK SMILES IDX 4 13 1 14 3 15 5 16 14 18
REMARK H PARENT 6 17 14 19
ROOT
ATOM      1  C   UNL     1      11.368 -60.653 -25.841  1.00  0.00     0.088 C 
ATOM      2  C   UNL     1      11.587 -60.491 -24.334  1.00  0.00     0.030 C 
ATOM      3  C   UNL     1      11.210 -61.770 -23.593  1.00  0.00     0.038 C 
ATOM      4  C   UNL     1       9.858 -62.304 -23.987  1.00  0.00    -0.044 A 
ATOM      5  C   UNL     1       9.226 -63.243 -23.157  1.00  0.00     0.008 A 
ATOM      6  C   UNL     1       7.988 -63.782 -23.507  1.00  0.00     0.046 A 
ATOM      7  C   UNL     1       7.381 -63.390 -24.692  1.00  0.00     0.115 A 
ATOM      8  C   UNL     1       7.994 -62.468 -25.535  1.00  0.00     0.050 A 
ATOM      9  C   UNL     1       9.245 -61.926 -25.195  1.00  0.00    -0.039 A 
ATOM     10  C   UNL     1       9.873 -60.905 -26.116  1.00  0.00     0.061 C 
ENDROOT
BRANCH   1  11
ATOM     11  N   UNL     1      11.858 -59.466 -26.544  1.00  0.00    -0.335 N 
ATOM     12  N   UNL     1      12.211 -58.162 -28.433  1.00  0.00    -0.331 N 
ATOM     13  C   UNL     1      11.667 -59.323 -27.897  1.00  0.00     0.317 C 
ATOM     14  C   UNL     1      12.442 -56.951 -27.655  1.00  0.00     0.148 C 
ATOM     15  C   UNL     1      12.054 -57.964 -29.864  1.00  0.00     0.148 C 
ATOM     16  O   UNL     1      11.076 -60.161 -28.571  1.00  0.00    -0.249 OA
ATOM     17  H   UNL     1      12.780 -59.158 -26.272  1.00  0.00     0.165 HD
ENDBRANCH   1  11
BRANCH   7  18
ATOM     18  O   UNL     1       6.171 -63.939 -24.997  1.00  0.00    -0.508 OA
ATOM     19  H   UNL     1       5.796 -63.451 -25.749  1.00  0.00     0.293 HD
ENDBRANCH   7  18
TORSDOF 2
ENDMDL
MODEL 6
REMARK VINA RESULT:    -7.961      3.655      7.261
REMARK INTER + INTRA:          -8.842
REMARK INTER:                  -8.660
REMARK INTRA:                  -0.182
REMARK UNBOUND:                -0.183
REMARK SMILES CN(C)C(=O)N[C@H]1CCc2ccc(O)cc2C1
REMARK SMILES IDX 7 1 8 2 9 3 10 4 11 5 12 6 13 7 15 8 16 9 17 10 6 11 2 12
REMARK SMILES IDX 4 13 1 14 3 15 5 16 14 18
REMARK H PARENT 6 17 14 19
ROOT
ATOM      1  C   UNL     1       9.113 -60.832 -23.577  1.00  0.00     0.088 C 
ATOM      2  C   UNL     1      10.204 -61.460 -22.704  1.00  0.00     0.030 C 
ATOM      3  C   UNL     1      10.476 -60.596 -21.477  1.00  0.00     0.038 C 
ATOM      4  C   UNL     1      10.685 -59.142 -21.812  1.00  0.00    -0.044 A 
ATOM      5  C   UNL     1      11.290 -58.303 -20.863  1.00  0.00     0.008 A 
ATOM      6  C   UNL     1      11.470 -56.946 -21.128  1.00  0.00     0.046 A 
ATOM      7  C   UNL     1      11.040 -56.421 -22.338  1.00  0.00     0.115 A 
ATOM      8  C   UNL     1      10.428 -57.232 -23.289  1.00  0.00     0.050 A 
ATOM      9  C   UNL     1      10.235 -58.599 -23.029  1.00  0.00    -0.039 A 
ATOM     10  C   UNL     1       9.595 -59.462 -24.092  1.00  0.00     0.061 C 
ENDROOT
BRANCH   1  11
ATOM     11  N   UNL     1       8.774 -61.738 -24.676  1.00  0.00    -0.335 N 
ATOM     12  N   UNL     1       7.479 -63.364 -25.711  1.00  0.00    -0.331 N 
ATOM     13  C   UNL     1       7.657 -62.535 -24.610  1.00  0.00     0.317 C 
ATOM     14  C   UNL     1       8.016 -63.069 -27.033  1.00  0.00     0.148 C 
ATOM     15  C   UNL     1       6.321 -64.241 -25.690  1.00  0.00     0.148 C 
ATOM     16  O   UNL     1       6.892 -62.519 -23.650  1.00  0.00    -0.249 OA
ATOM     17  H   UNL     1       9.555 -62.239 -25.073  1.00  0.00     0.165 HD
ENDBRANCH   1  11
BRANCH   7  18
ATOM     18  O   UNL     1      11.235 -55.089 -22.559  1.00  0.00    -0.508 OA
ATOM     19  H   UNL     1      11.442 -54.963 -23.500  1.00  0.00     0.293 HD
ENDBRANCH   7  18
TORSDOF 2
ENDMDL
MODEL 7
REMARK VINA RESULT:    -7.643      3.943      6.225
REMARK INTER + INTRA:          -8.496
REMARK INTER:                  -8.314
REMARK INTRA:                  -0.183
REMARK UNBOUND:                -0.183
REMARK SMILES CN(C)C(=O)N[C@H]1CCc2ccc(O)cc2C1
REMARK SMILES IDX 7 1 8 2 9 3 10 4 11 5 12 6 13 7 15 8 16 9 17 10 6 11 2 12
REMARK SMILES IDX 4 13 1 14 3 15 5 16 14 18
REMARK H PARENT 6 17 14 19
ROOT
ATOM      1  C   UNL     1      13.401 -51.333 -24.079  1.00  0.00     0.088 C 
ATOM      2  C   UNL     1      12.400 -50.442 -23.335  1.00  0.00     0.030 C 
ATOM      3  C   UNL     1      11.799 -51.183 -22.145  1.00  0.00     0.038 C 
ATOM      4  C   UNL     1      11.292 -52.557 -22.499  1.00  0.00    -0.044 A 
ATOM      5  C   UNL     1      10.406 -53.204 -21.623  1.00  0.00     0.008 A 
ATOM      6  C   UNL     1       9.942 -54.488 -21.903  1.00  0.00     0.046 A 
ATOM      7  C   UNL     1      10.365 -55.133 -23.056  1.00  0.00     0.115 A 
ATOM      8  C   UNL     1      11.251 -54.515 -23.934  1.00  0.00     0.050 A 
ATOM      9  C   UNL     1      11.731 -53.224 -23.656  1.00  0.00    -0.039 A 
ATOM     10  C   UNL     1      12.668 -52.566 -24.642  1.00  0.00     0.061 C 
ENDROOT
BRANCH   1  11
ATOM     11  N   UNL     1      14.061 -50.562 -25.135  1.00  0.00    -0.335 N 
ATOM     12  N   UNL     1      15.886 -49.946 -26.432  1.00  0.00    -0.331 N 
ATOM     13  C   UNL     1      15.387 -50.769 -25.428  1.00  0.00     0.317 C 
ATOM     14  C   UNL     1      15.053 -49.348 -27.467  1.00  0.00     0.148 C 
ATOM     15  C   UNL     1      17.288 -50.108 -26.776  1.00  0.00     0.148 C 
ATOM     16  O   UNL     1      16.070 -51.602 -24.841  1.00  0.00    -0.249 OA
ATOM     17  H   UNL     1      13.833 -49.579 -25.153  1.00  0.00     0.165 HD
ENDBRANCH   1  11
BRANCH   7  18
ATOM     18  O   UNL     1       9.887 -56.388 -23.295  1.00  0.00    -0.508 OA
ATOM     19  H   UNL     1      10.031 -56.925 -22.498  1.00  0.00     0.293 HD
ENDBRANCH   7  18
TORSDOF 2
ENDMDL
MODEL 8
REMARK VINA RESULT:    -7.457      3.836      6.715
REMARK INTER + INTRA:          -8.294
REMARK INTER:                  -8.877
REMARK INTRA:                   0.584
REMARK UNBOUND:                -0.183
REMARK SMILES CN(C)C(=O)N[C@H]1CCc2ccc(O)cc2C1
REMARK SMILES IDX 7 1 8 2 9 3 10 4 11 5 12 6 13 7 15 8 16 9 17 10 6 11 2 12
REMARK SMILES IDX 4 13 1 14 3 15 5 16 14 18
REMARK H PARENT 6 17 14 19
ROOT
ATOM      1  C   UNL     1       8.790 -60.821 -23.691  1.00  0.00     0.088 C 
ATOM      2  C   UNL     1       9.919 -61.562 -22.967  1.00  0.00     0.030 C 
ATOM      3  C   UNL     1      10.310 -60.829 -21.687  1.00  0.00     0.038 C 
ATOM      4  C   UNL     1      10.546 -59.357 -21.898  1.00  0.00    -0.044 A 
ATOM      5  C   UNL     1      11.248 -58.631 -20.923  1.00  0.00     0.008 A 
ATOM      6  C   UNL     1      11.456 -57.260 -21.070  1.00  0.00     0.046 A 
ATOM      7  C   UNL     1      10.959 -56.608 -22.190  1.00  0.00     0.115 A 
ATOM      8  C   UNL     1      10.251 -57.306 -23.164  1.00  0.00     0.050 A 
ATOM      9  C   UNL     1      10.028 -58.685 -23.021  1.00  0.00    -0.039 A 
ATOM     10  C   UNL     1       9.283 -59.422 -24.109  1.00  0.00     0.061 C 
ENDROOT
BRANCH   1  11
ATOM     11  N   UNL     1       8.341 -61.607 -24.843  1.00  0.00    -0.335 N 
ATOM     12  N   UNL     1       8.502 -62.380 -27.026  1.00  0.00    -0.331 N 
ATOM     13  C   UNL     1       9.064 -61.615 -26.011  1.00  0.00     0.317 C 
ATOM     14  C   UNL     1       7.604 -63.502 -26.782  1.00  0.00     0.148 C 
ATOM     15  C   UNL     1       9.215 -62.415 -28.292  1.00  0.00     0.148 C 
ATOM     16  O   UNL     1      10.111 -60.988 -26.143  1.00  0.00    -0.249 OA
ATOM     17  H   UNL     1       7.350 -61.564 -25.029  1.00  0.00     0.165 HD
ENDBRANCH   1  11
BRANCH   7  18
ATOM     18  O   UNL     1      11.185 -55.268 -22.297  1.00  0.00    -0.508 OA
ATOM     19  H   UNL     1      11.328 -55.057 -23.235  1.00  0.00     0.293 HD
ENDBRANCH   7  18
TORSDOF 2
ENDMDL
MODEL 9
REMARK VINA RESULT:    -7.176      4.767      7.154
REMARK INTER + INTRA:          -7.988
REMARK INTER:                  -7.813
REMARK INTRA:                  -0.175
REMARK UNBOUND:                -0.183
REMARK SMILES CN(C)C(=O)N[C@H]1CCc2ccc(O)cc2C1
REMARK SMILES IDX 7 1 8 2 9 3 10 4 11 5 12 6 13 7 15 8 16 9 17 10 6 11 2 12
REMARK SMILES IDX 4 13 1 14 3 15 5 16 14 18
REMARK H PARENT 6 17 14 19
ROOT
ATOM      1  C   UNL     1      12.882 -49.842 -24.289  1.00  0.00     0.088 C 
ATOM      2  C   UNL     1      13.872 -50.877 -24.832  1.00  0.00     0.030 C 
ATOM      3  C   UNL     1      13.149 -52.162 -25.222  1.00  0.00     0.038 C 
ATOM      4  C   UNL     1      12.222 -52.668 -24.147  1.00  0.00    -0.044 A 
ATOM      5  C   UNL     1      11.773 -53.996 -24.202  1.00  0.00     0.008 A 
ATOM      6  C   UNL     1      10.889 -54.488 -23.242  1.00  0.00     0.046 A 
ATOM      7  C   UNL     1      10.446 -53.652 -22.228  1.00  0.00     0.115 A 
ATOM      8  C   UNL     1      10.870 -52.329 -22.159  1.00  0.00     0.050 A 
ATOM      9  C   UNL     1      11.753 -51.821 -23.126  1.00  0.00    -0.039 A 
ATOM     10  C   UNL     1      12.220 -50.389 -23.009  1.00  0.00     0.061 C 
ENDROOT
BRANCH   1  11
ATOM     11  N   UNL     1      13.574 -48.574 -24.045  1.00  0.00    -0.335 N 
ATOM     12  N   UNL     1      13.718 -46.257 -23.994  1.00  0.00    -0.331 N 
ATOM     13  C   UNL     1      12.929 -47.376 -24.236  1.00  0.00     0.317 C 
ATOM     14  C   UNL     1      14.873 -46.266 -23.104  1.00  0.00     0.148 C 
ATOM     15  C   UNL     1      13.095 -44.960 -24.194  1.00  0.00     0.148 C 
ATOM     16  O   UNL     1      11.760 -47.307 -24.601  1.00  0.00    -0.249 OA
ATOM     17  H   UNL     1      14.524 -48.534 -24.382  1.00  0.00     0.165 HD
ENDBRANCH   1  11
BRANCH   7  18
ATOM     18  O   UNL     1       9.583 -54.171 -21.308  1.00  0.00    -0.508 OA
ATOM     19  H   UNL     1       8.677 -54.057 -21.641  1.00  0.00     0.293 HD
ENDBRANCH   7  18
TORSDOF 2
ENDMDL
