MODEL 1
REMARK VINA RESULT:   -10.879      0.000      0.000
REMARK INTER + INTRA:         -15.290
REMARK INTER:                 -14.694
REMARK INTRA:                  -0.595
REMARK UNBOUND:                -0.595
REMARK SMILES COc1ccc(-c2cc(=O)c3ccc(OCC[N@H+]4CC[C@H](C)CC4)cc3o2)cc1
REMARK SMILES IDX 15 1 16 2 17 3 18 4 24 5 19 6 23 7 20 8 21 9 22 11 14 12
REMARK SMILES IDX 13 13 25 14 12 15 26 16 11 17 27 18 9 19 7 20 8 21 10 22
REMARK SMILES IDX 6 23 5 24 28 25 4 26 29 27 3 28 2 29 1 30
REMARK H PARENT 18 10
ROOT
ATOM      1  O   UNL     1      10.820 -56.561 -23.676  1.00  0.00    -0.488 OA
ENDROOT
BRANCH   1   2
ATOM      2  C   UNL     1      11.449 -57.536 -22.844  1.00  0.00     0.290 C 
BRANCH   2   3
ATOM      3  C   UNL     1      11.790 -58.767 -23.697  1.00  0.00     0.304 C 
BRANCH   3   4
ATOM      4  N   UNL     1      10.802 -59.923 -23.506  1.00  0.00    -0.332 N 
ATOM      5  C   UNL     1      11.135 -61.049 -24.465  1.00  0.00     0.262 C 
ATOM      6  C   UNL     1      10.723 -60.416 -22.075  1.00  0.00     0.262 C 
ATOM      7  C   UNL     1      10.090 -62.149 -24.362  1.00  0.00     0.065 C 
ATOM      8  C   UNL     1       9.692 -61.534 -21.964  1.00  0.00     0.065 C 
ATOM      9  C   UNL     1       9.978 -62.684 -22.932  1.00  0.00    -0.003 C 
ATOM     10  H   UNL     1       9.867 -59.575 -23.757  1.00  0.00     0.348 HD
ATOM     11  C   UNL     1       8.897 -63.757 -22.837  1.00  0.00     0.008 C 
ENDBRANCH   3   4
ENDBRANCH   2   3
ENDBRANCH   1   2
BRANCH   1  12
ATOM     12  C   UNL     1      11.076 -55.246 -23.403  1.00  0.00     0.123 A 
ATOM     13  C   UNL     1      10.605 -54.808 -22.159  1.00  0.00     0.047 A 
ATOM     14  C   UNL     1      11.743 -54.348 -24.239  1.00  0.00     0.094 A 
ATOM     15  C   UNL     1      10.790 -53.485 -21.753  1.00  0.00     0.020 A 
ATOM     16  C   UNL     1      11.929 -53.022 -23.832  1.00  0.00     0.142 A 
ATOM     17  C   UNL     1      11.454 -52.594 -22.597  1.00  0.00     0.065 A 
ATOM     18  O   UNL     1      12.592 -52.192 -24.702  1.00  0.00    -0.456 OA
ATOM     19  C   UNL     1      11.664 -51.194 -22.205  1.00  0.00     0.193 A 
ATOM     20  C   UNL     1      12.785 -50.869 -24.333  1.00  0.00     0.138 A 
ATOM     21  C   UNL     1      12.380 -50.342 -23.167  1.00  0.00     0.100 A 
ATOM     22  O   UNL     1      11.262 -50.751 -21.139  1.00  0.00    -0.289 OA
BRANCH  20  23
ATOM     23  C   UNL     1      13.512 -50.065 -25.335  1.00  0.00     0.018 A 
ATOM     24  C   UNL     1      13.706 -48.686 -25.169  1.00  0.00     0.016 A 
ATOM     25  C   UNL     1      14.002 -50.671 -26.498  1.00  0.00     0.016 A 
ATOM     26  C   UNL     1      14.388 -47.933 -26.137  1.00  0.00     0.047 A 
ATOM     27  C   UNL     1      14.680 -49.919 -27.461  1.00  0.00     0.047 A 
ATOM     28  C   UNL     1      14.879 -48.548 -27.286  1.00  0.00     0.118 A 
BRANCH  28  29
ATOM     29  O   UNL     1      15.555 -47.935 -28.303  1.00  0.00    -0.497 OA
ATOM     30  C   UNL     1      16.029 -48.767 -29.356  1.00  0.00     0.278 C 
ENDBRANCH  28  29
ENDBRANCH  20  23
ENDBRANCH   1  12
TORSDOF 6
ENDMDL
MODEL 2
REMARK VINA RESULT:   -10.653      3.269      9.767
REMARK INTER + INTRA:         -14.985
REMARK INTER:                 -14.116
REMARK INTRA:                  -0.868
REMARK UNBOUND:                -0.595
REMARK SMILES COc1ccc(-c2cc(=O)c3ccc(OCC[N@H+]4CC[C@H](C)CC4)cc3o2)cc1
REMARK SMILES IDX 15 1 16 2 17 3 18 4 24 5 19 6 23 7 20 8 21 9 22 11 14 12
REMARK SMILES IDX 13 13 25 14 12 15 26 16 11 17 27 18 9 19 7 20 8 21 10 22
REMARK SMILES IDX 6 23 5 24 28 25 4 26 29 27 3 28 2 29 1 30
REMARK H PARENT 18 10
ROOT
ATOM      1  O   UNL     1      13.669 -51.863 -26.404  1.00  0.00    -0.488 OA
ENDROOT
BRANCH   1   2
ATOM      2  C   UNL     1      14.093 -50.503 -26.326  1.00  0.00     0.290 C 
BRANCH   2   3
ATOM      3  C   UNL     1      15.614 -50.471 -26.111  1.00  0.00     0.304 C 
BRANCH   3   4
ATOM      4  N   UNL     1      16.010 -50.392 -24.632  1.00  0.00    -0.332 N 
ATOM      5  C   UNL     1      16.340 -51.777 -24.112  1.00  0.00     0.262 C 
ATOM      6  C   UNL     1      17.136 -49.413 -24.363  1.00  0.00     0.262 C 
ATOM      7  C   UNL     1      16.620 -51.721 -22.618  1.00  0.00     0.065 C 
ATOM      8  C   UNL     1      17.439 -49.364 -22.869  1.00  0.00     0.065 C 
ATOM      9  C   UNL     1      17.757 -50.747 -22.298  1.00  0.00    -0.003 C 
ATOM     10  H   UNL     1      15.188 -50.058 -24.110  1.00  0.00     0.348 HD
ATOM     11  C   UNL     1      17.997 -50.671 -20.793  1.00  0.00     0.008 C 
ENDBRANCH   3   4
ENDBRANCH   2   3
ENDBRANCH   1   2
BRANCH   1  12
ATOM     12  C   UNL     1      12.962 -52.361 -25.344  1.00  0.00     0.123 A 
ATOM     13  C   UNL     1      12.592 -51.403 -24.392  1.00  0.00     0.047 A 
ATOM     14  C   UNL     1      12.602 -53.696 -25.150  1.00  0.00     0.094 A 
ATOM     15  C   UNL     1      11.873 -51.773 -23.253  1.00  0.00     0.020 A 
ATOM     16  C   UNL     1      11.881 -54.066 -24.010  1.00  0.00     0.142 A 
ATOM     17  C   UNL     1      11.521 -53.110 -23.067  1.00  0.00     0.065 A 
ATOM     18  O   UNL     1      11.561 -55.395 -23.882  1.00  0.00    -0.456 OA
ATOM     19  C   UNL     1      10.768 -53.536 -21.879  1.00  0.00     0.193 A 
ATOM     20  C   UNL     1      10.854 -55.797 -22.757  1.00  0.00     0.138 A 
ATOM     21  C   UNL     1      10.445 -54.968 -21.785  1.00  0.00     0.100 A 
ATOM     22  O   UNL     1      10.430 -52.748 -21.008  1.00  0.00    -0.289 OA
BRANCH  20  23
ATOM     23  C   UNL     1      10.555 -57.242 -22.720  1.00  0.00     0.018 A 
ATOM     24  C   UNL     1       9.425 -57.775 -23.357  1.00  0.00     0.016 A 
ATOM     25  C   UNL     1      11.393 -58.112 -22.012  1.00  0.00     0.016 A 
ATOM     26  C   UNL     1       9.147 -59.148 -23.300  1.00  0.00     0.047 A 
ATOM     27  C   UNL     1      11.113 -59.481 -21.956  1.00  0.00     0.047 A 
ATOM     28  C   UNL     1       9.992 -60.006 -22.601  1.00  0.00     0.118 A 
BRANCH  28  29
ATOM     29  O   UNL     1       9.838 -61.358 -22.465  1.00  0.00    -0.497 OA
ATOM     30  C   UNL     1      10.624 -62.186 -23.314  1.00  0.00     0.278 C 
ENDBRANCH  28  29
ENDBRANCH  20  23
ENDBRANCH   1  12
TORSDOF 6
ENDMDL
MODEL 3
REMARK VINA RESULT:   -10.296      1.725      2.562
REMARK INTER + INTRA:         -14.503
REMARK INTER:                 -13.829
REMARK INTRA:                  -0.673
REMARK UNBOUND:                -0.595
REMARK SMILES COc1ccc(-c2cc(=O)c3ccc(OCC[N@H+]4CC[C@H](C)CC4)cc3o2)cc1
REMARK SMILES IDX 15 1 16 2 17 3 18 4 24 5 19 6 23 7 20 8 21 9 22 11 14 12
REMARK SMILES IDX 13 13 25 14 12 15 26 16 11 17 27 18 9 19 7 20 8 21 10 22
REMARK SMILES IDX 6 23 5 24 28 25 4 26 29 27 3 28 2 29 1 30
REMARK H PARENT 18 10
ROOT
ATOM      1  O   UNL     1      12.100 -57.867 -24.969  1.00  0.00    -0.488 OA
ENDROOT
BRANCH   1   2
ATOM      2  C   UNL     1      11.739 -59.147 -24.450  1.00  0.00     0.290 C 
BRANCH   2   3
ATOM      3  C   UNL     1      11.115 -59.979 -25.581  1.00  0.00     0.304 C 
BRANCH   3   4
ATOM      4  N   UNL     1      10.426 -61.254 -25.078  1.00  0.00    -0.332 N 
ATOM      5  C   UNL     1      10.625 -61.392 -23.582  1.00  0.00     0.262 C 
ATOM      6  C   UNL     1       8.960 -61.332 -25.455  1.00  0.00     0.262 C 
ATOM      7  C   UNL     1      10.045 -62.711 -23.098  1.00  0.00     0.065 C 
ATOM      8  C   UNL     1       8.363 -62.644 -24.956  1.00  0.00     0.065 C 
ATOM      9  C   UNL     1       8.561 -62.834 -23.451  1.00  0.00    -0.003 C 
ATOM     10  H   UNL     1      10.895 -62.054 -25.524  1.00  0.00     0.348 HD
ATOM     11  C   UNL     1       8.005 -64.181 -22.995  1.00  0.00     0.008 C 
ENDBRANCH   3   4
ENDBRANCH   2   3
ENDBRANCH   1   2
BRANCH   1  12
ATOM     12  C   UNL     1      11.817 -56.775 -24.197  1.00  0.00     0.123 A 
ATOM     13  C   UNL     1      11.163 -57.068 -22.994  1.00  0.00     0.047 A 
ATOM     14  C   UNL     1      12.119 -55.447 -24.508  1.00  0.00     0.094 A 
ATOM     15  C   UNL     1      10.806 -56.047 -22.110  1.00  0.00     0.020 A 
ATOM     16  C   UNL     1      11.762 -54.425 -23.623  1.00  0.00     0.142 A 
ATOM     17  C   UNL     1      11.108 -54.723 -22.433  1.00  0.00     0.065 A 
ATOM     18  O   UNL     1      12.087 -53.143 -23.991  1.00  0.00    -0.456 OA
ATOM     19  C   UNL     1      10.744 -53.623 -21.530  1.00  0.00     0.193 A 
ATOM     20  C   UNL     1      11.739 -52.104 -23.140  1.00  0.00     0.138 A 
ATOM     21  C   UNL     1      11.115 -52.267 -21.964  1.00  0.00     0.100 A 
ATOM     22  O   UNL     1      10.159 -53.816 -20.474  1.00  0.00    -0.289 OA
BRANCH  20  23
ATOM     23  C   UNL     1      12.139 -50.769 -23.625  1.00  0.00     0.018 A 
ATOM     24  C   UNL     1      11.632 -49.595 -23.049  1.00  0.00     0.016 A 
ATOM     25  C   UNL     1      13.025 -50.652 -24.704  1.00  0.00     0.016 A 
ATOM     26  C   UNL     1      12.012 -48.334 -23.530  1.00  0.00     0.047 A 
ATOM     27  C   UNL     1      13.402 -49.393 -25.182  1.00  0.00     0.047 A 
ATOM     28  C   UNL     1      12.900 -48.229 -24.597  1.00  0.00     0.118 A 
BRANCH  28  29
ATOM     29  O   UNL     1      13.349 -47.068 -25.163  1.00  0.00    -0.497 OA
ATOM     30  C   UNL     1      14.428 -47.175 -26.085  1.00  0.00     0.278 C 
ENDBRANCH  28  29
ENDBRANCH  20  23
ENDBRANCH   1  12
TORSDOF 6
ENDMDL
MODEL 4
REMARK VINA RESULT:   -10.108      2.887     10.628
REMARK INTER + INTRA:         -14.250
REMARK INTER:                 -13.657
REMARK INTRA:                  -0.592
REMARK UNBOUND:                -0.595
REMARK SMILES COc1ccc(-c2cc(=O)c3ccc(OCC[N@H+]4CC[C@H](C)CC4)cc3o2)cc1
REMARK SMILES IDX 15 1 16 2 17 3 18 4 24 5 19 6 23 7 20 8 21 9 22 11 14 12
REMARK SMILES IDX 13 13 25 14 12 15 26 16 11 17 27 18 9 19 7 20 8 21 10 22
REMARK SMILES IDX 6 23 5 24 28 25 4 26 29 27 3 28 2 29 1 30
REMARK H PARENT 18 10
ROOT
ATOM      1  O   UNL     1      14.068 -51.338 -26.508  1.00  0.00    -0.488 OA
ENDROOT
BRANCH   1   2
ATOM      2  C   UNL     1      14.355 -49.940 -26.479  1.00  0.00     0.290 C 
BRANCH   2   3
ATOM      3  C   UNL     1      15.790 -49.721 -26.981  1.00  0.00     0.304 C 
BRANCH   3   4
ATOM      4  N   UNL     1      15.884 -49.611 -28.507  1.00  0.00    -0.332 N 
ATOM      5  C   UNL     1      15.044 -48.446 -28.993  1.00  0.00     0.262 C 
ATOM      6  C   UNL     1      17.308 -49.522 -29.017  1.00  0.00     0.262 C 
ATOM      7  C   UNL     1      15.039 -48.404 -30.513  1.00  0.00     0.065 C 
ATOM      8  C   UNL     1      17.314 -49.459 -30.541  1.00  0.00     0.065 C 
ATOM      9  C   UNL     1      16.459 -48.308 -31.076  1.00  0.00    -0.003 C 
ATOM     10  H   UNL     1      15.475 -50.468 -28.903  1.00  0.00     0.348 HD
ATOM     11  C   UNL     1      16.439 -48.309 -32.602  1.00  0.00     0.008 C 
ENDBRANCH   3   4
ENDBRANCH   2   3
ENDBRANCH   1   2
BRANCH   1  12
ATOM     12  C   UNL     1      13.296 -51.840 -25.497  1.00  0.00     0.123 A 
ATOM     13  C   UNL     1      12.926 -50.900 -24.527  1.00  0.00     0.047 A 
ATOM     14  C   UNL     1      12.870 -53.163 -25.368  1.00  0.00     0.094 A 
ATOM     15  C   UNL     1      12.144 -51.276 -23.433  1.00  0.00     0.020 A 
ATOM     16  C   UNL     1      12.085 -53.540 -24.272  1.00  0.00     0.142 A 
ATOM     17  C   UNL     1      11.726 -52.602 -23.311  1.00  0.00     0.065 A 
ATOM     18  O   UNL     1      11.701 -54.856 -24.206  1.00  0.00    -0.456 OA
ATOM     19  C   UNL     1      10.905 -53.034 -22.172  1.00  0.00     0.193 A 
ATOM     20  C   UNL     1      10.930 -55.265 -23.128  1.00  0.00     0.138 A 
ATOM     21  C   UNL     1      10.516 -54.452 -22.144  1.00  0.00     0.100 A 
ATOM     22  O   UNL     1      10.565 -52.262 -21.287  1.00  0.00    -0.289 OA
BRANCH  20  23
ATOM     23  C   UNL     1      10.567 -56.695 -23.155  1.00  0.00     0.018 A 
ATOM     24  C   UNL     1       9.228 -57.113 -23.153  1.00  0.00     0.016 A 
ATOM     25  C   UNL     1      11.569 -57.673 -23.155  1.00  0.00     0.016 A 
ATOM     26  C   UNL     1       8.899 -58.476 -23.165  1.00  0.00     0.047 A 
ATOM     27  C   UNL     1      11.239 -59.031 -23.168  1.00  0.00     0.047 A 
ATOM     28  C   UNL     1       9.905 -59.440 -23.175  1.00  0.00     0.118 A 
BRANCH  28  29
ATOM     29  O   UNL     1       9.724 -60.795 -23.186  1.00  0.00    -0.497 OA
ATOM     30  C   UNL     1       9.790 -61.464 -21.931  1.00  0.00     0.278 C 
ENDBRANCH  28  29
ENDBRANCH  20  23
ENDBRANCH   1  12
TORSDOF 6
ENDMDL
MODEL 5
REMARK VINA RESULT:    -9.978      3.362      9.903
REMARK INTER + INTRA:         -14.074
REMARK INTER:                 -13.481
REMARK INTRA:                  -0.593
REMARK UNBOUND:                -0.595
REMARK SMILES COc1ccc(-c2cc(=O)c3ccc(OCC[N@H+]4CC[C@H](C)CC4)cc3o2)cc1
REMARK SMILES IDX 15 1 16 2 17 3 18 4 24 5 19 6 23 7 20 8 21 9 22 11 14 12
REMARK SMILES IDX 13 13 25 14 12 15 26 16 11 17 27 18 9 19 7 20 8 21 10 22
REMARK SMILES IDX 6 23 5 24 28 25 4 26 29 27 3 28 2 29 1 30
REMARK H PARENT 18 10
ROOT
ATOM      1  O   UNL     1      14.277 -51.727 -26.269  1.00  0.00    -0.488 OA
ENDROOT
BRANCH   1   2
ATOM      2  C   UNL     1      14.097 -50.427 -26.830  1.00  0.00     0.290 C 
BRANCH   2   3
ATOM      3  C   UNL     1      15.379 -49.612 -26.609  1.00  0.00     0.304 C 
BRANCH   3   4
ATOM      4  N   UNL     1      16.616 -50.488 -26.376  1.00  0.00    -0.332 N 
ATOM      5  C   UNL     1      17.777 -49.972 -27.203  1.00  0.00     0.262 C 
ATOM      6  C   UNL     1      16.990 -50.622 -24.914  1.00  0.00     0.262 C 
ATOM      7  C   UNL     1      18.971 -50.904 -27.066  1.00  0.00     0.065 C 
ATOM      8  C   UNL     1      18.200 -51.540 -24.767  1.00  0.00     0.065 C 
ATOM      9  C   UNL     1      19.390 -51.066 -25.604  1.00  0.00    -0.003 C 
ATOM     10  H   UNL     1      16.394 -51.432 -26.719  1.00  0.00     0.348 HD
ATOM     11  C   UNL     1      20.562 -52.037 -25.480  1.00  0.00     0.008 C 
ENDBRANCH   3   4
ENDBRANCH   2   3
ENDBRANCH   1   2
BRANCH   1  12
ATOM     12  C   UNL     1      13.404 -52.113 -25.290  1.00  0.00     0.123 A 
ATOM     13  C   UNL     1      12.994 -51.082 -24.436  1.00  0.00     0.047 A 
ATOM     14  C   UNL     1      12.914 -53.406 -25.089  1.00  0.00     0.094 A 
ATOM     15  C   UNL     1      12.108 -51.335 -23.386  1.00  0.00     0.020 A 
ATOM     16  C   UNL     1      12.026 -53.660 -24.038  1.00  0.00     0.142 A 
ATOM     17  C   UNL     1      11.628 -52.631 -23.192  1.00  0.00     0.065 A 
ATOM     18  O   UNL     1      11.584 -54.952 -23.897  1.00  0.00    -0.456 OA
ATOM     19  C   UNL     1      10.698 -52.936 -22.096  1.00  0.00     0.193 A 
ATOM     20  C   UNL     1      10.710 -55.240 -22.859  1.00  0.00     0.138 A 
ATOM     21  C   UNL     1      10.250 -54.332 -21.984  1.00  0.00     0.100 A 
ATOM     22  O   UNL     1      10.318 -52.080 -21.310  1.00  0.00    -0.289 OA
BRANCH  20  23
ATOM     23  C   UNL     1      10.292 -56.654 -22.799  1.00  0.00     0.018 A 
ATOM     24  C   UNL     1       9.046 -57.073 -23.289  1.00  0.00     0.016 A 
ATOM     25  C   UNL     1      11.134 -57.610 -22.218  1.00  0.00     0.016 A 
ATOM     26  C   UNL     1       8.657 -58.418 -23.213  1.00  0.00     0.047 A 
ATOM     27  C   UNL     1      10.744 -58.950 -22.143  1.00  0.00     0.047 A 
ATOM     28  C   UNL     1       9.506 -59.362 -22.641  1.00  0.00     0.118 A 
BRANCH  28  29
ATOM     29  O   UNL     1       9.252 -60.697 -22.502  1.00  0.00    -0.497 OA
ATOM     30  C   UNL     1      10.334 -61.589 -22.744  1.00  0.00     0.278 C 
ENDBRANCH  28  29
ENDBRANCH  20  23
ENDBRANCH   1  12
TORSDOF 6
ENDMDL
MODEL 6
REMARK VINA RESULT:    -9.943      2.906     10.236
REMARK INTER + INTRA:         -14.027
REMARK INTER:                 -13.131
REMARK INTRA:                  -0.895
REMARK UNBOUND:                -0.595
REMARK SMILES COc1ccc(-c2cc(=O)c3ccc(OCC[N@H+]4CC[C@H](C)CC4)cc3o2)cc1
REMARK SMILES IDX 15 1 16 2 17 3 18 4 24 5 19 6 23 7 20 8 21 9 22 11 14 12
REMARK SMILES IDX 13 13 25 14 12 15 26 16 11 17 27 18 9 19 7 20 8 21 10 22
REMARK SMILES IDX 6 23 5 24 28 25 4 26 29 27 3 28 2 29 1 30
REMARK H PARENT 18 10
ROOT
ATOM      1  O   UNL     1      13.640 -51.840 -26.210  1.00  0.00    -0.488 OA
ENDROOT
BRANCH   1   2
ATOM      2  C   UNL     1      14.929 -51.310 -25.900  1.00  0.00     0.290 C 
BRANCH   2   3
ATOM      3  C   UNL     1      15.025 -49.885 -26.465  1.00  0.00     0.304 C 
BRANCH   3   4
ATOM      4  N   UNL     1      14.887 -48.801 -25.390  1.00  0.00    -0.332 N 
ATOM      5  C   UNL     1      13.448 -48.331 -25.313  1.00  0.00     0.262 C 
ATOM      6  C   UNL     1      15.405 -49.233 -24.032  1.00  0.00     0.262 C 
ATOM      7  C   UNL     1      13.328 -47.176 -24.331  1.00  0.00     0.065 C 
ATOM      8  C   UNL     1      15.270 -48.087 -23.034  1.00  0.00     0.065 C 
ATOM      9  C   UNL     1      13.834 -47.567 -22.941  1.00  0.00    -0.003 C 
ATOM     10  H   UNL     1      15.455 -47.997 -25.688  1.00  0.00     0.348 HD
ATOM     11  C   UNL     1      13.746 -46.385 -21.979  1.00  0.00     0.008 C 
ENDBRANCH   3   4
ENDBRANCH   2   3
ENDBRANCH   1   2
BRANCH   1  12
ATOM     12  C   UNL     1      12.921 -52.380 -25.179  1.00  0.00     0.123 A 
ATOM     13  C   UNL     1      12.550 -51.465 -24.187  1.00  0.00     0.047 A 
ATOM     14  C   UNL     1      12.548 -53.720 -25.051  1.00  0.00     0.094 A 
ATOM     15  C   UNL     1      11.818 -51.880 -23.073  1.00  0.00     0.020 A 
ATOM     16  C   UNL     1      11.814 -54.136 -23.935  1.00  0.00     0.142 A 
ATOM     17  C   UNL     1      11.454 -53.222 -22.952  1.00  0.00     0.065 A 
ATOM     18  O   UNL     1      11.481 -55.467 -23.872  1.00  0.00    -0.456 OA
ATOM     19  C   UNL     1      10.687 -53.696 -21.792  1.00  0.00     0.193 A 
ATOM     20  C   UNL     1      10.762 -55.915 -22.773  1.00  0.00     0.138 A 
ATOM     21  C   UNL     1      10.351 -55.128 -21.766  1.00  0.00     0.100 A 
ATOM     22  O   UNL     1      10.348 -52.946 -20.887  1.00  0.00    -0.289 OA
BRANCH  20  23
ATOM     23  C   UNL     1      10.450 -57.357 -22.805  1.00  0.00     0.018 A 
ATOM     24  C   UNL     1      11.402 -58.322 -22.446  1.00  0.00     0.016 A 
ATOM     25  C   UNL     1       9.188 -57.792 -23.227  1.00  0.00     0.016 A 
ATOM     26  C   UNL     1      11.095 -59.690 -22.494  1.00  0.00     0.047 A 
ATOM     27  C   UNL     1       8.884 -59.155 -23.275  1.00  0.00     0.047 A 
ATOM     28  C   UNL     1       9.833 -60.110 -22.907  1.00  0.00     0.118 A 
BRANCH  28  29
ATOM     29  O   UNL     1       9.405 -61.405 -23.002  1.00  0.00    -0.497 OA
ATOM     30  C   UNL     1      10.347 -62.363 -23.473  1.00  0.00     0.278 C 
ENDBRANCH  28  29
ENDBRANCH  20  23
ENDBRANCH   1  12
TORSDOF 6
ENDMDL
MODEL 7
REMARK VINA RESULT:    -9.852      2.539      5.905
REMARK INTER + INTRA:         -13.903
REMARK INTER:                 -13.585
REMARK INTRA:                  -0.318
REMARK UNBOUND:                -0.595
REMARK SMILES COc1ccc(-c2cc(=O)c3ccc(OCC[N@H+]4CC[C@H](C)CC4)cc3o2)cc1
REMARK SMILES IDX 15 1 16 2 17 3 18 4 24 5 19 6 23 7 20 8 21 9 22 11 14 12
REMARK SMILES IDX 13 13 25 14 12 15 26 16 11 17 27 18 9 19 7 20 8 21 10 22
REMARK SMILES IDX 6 23 5 24 28 25 4 26 29 27 3 28 2 29 1 30
REMARK H PARENT 18 10
ROOT
ATOM      1  O   UNL     1       7.208 -60.866 -24.382  1.00  0.00    -0.488 OA
ENDROOT
BRANCH   1   2
ATOM      2  C   UNL     1       7.184 -62.280 -24.187  1.00  0.00     0.290 C 
BRANCH   2   3
ATOM      3  C   UNL     1       8.025 -62.944 -25.287  1.00  0.00     0.304 C 
BRANCH   3   4
ATOM      4  N   UNL     1       8.748 -61.933 -26.184  1.00  0.00    -0.332 N 
ATOM      5  C   UNL     1      10.120 -61.627 -25.615  1.00  0.00     0.262 C 
ATOM      6  C   UNL     1       8.831 -62.366 -27.634  1.00  0.00     0.262 C 
ATOM      7  C   UNL     1      10.795 -60.539 -26.434  1.00  0.00     0.065 C 
ATOM      8  C   UNL     1       9.525 -61.290 -28.462  1.00  0.00     0.065 C 
ATOM      9  C   UNL     1      10.907 -60.935 -27.908  1.00  0.00    -0.003 C 
ATOM     10  H   UNL     1       8.207 -61.058 -26.161  1.00  0.00     0.348 HD
ATOM     11  C   UNL     1      11.548 -59.816 -28.724  1.00  0.00     0.008 C 
ENDBRANCH   3   4
ENDBRANCH   2   3
ENDBRANCH   1   2
BRANCH   1  12
ATOM     12  C   UNL     1       8.135 -60.152 -23.674  1.00  0.00     0.123 A 
ATOM     13  C   UNL     1       8.596 -60.786 -22.515  1.00  0.00     0.047 A 
ATOM     14  C   UNL     1       8.631 -58.890 -24.010  1.00  0.00     0.094 A 
ATOM     15  C   UNL     1       9.539 -60.168 -21.691  1.00  0.00     0.020 A 
ATOM     16  C   UNL     1       9.576 -58.271 -23.185  1.00  0.00     0.142 A 
ATOM     17  C   UNL     1      10.026 -58.906 -22.033  1.00  0.00     0.065 A 
ATOM     18  O   UNL     1      10.021 -57.031 -23.573  1.00  0.00    -0.456 OA
ATOM     19  C   UNL     1      11.016 -58.223 -21.189  1.00  0.00     0.193 A 
ATOM     20  C   UNL     1      10.952 -56.385 -22.773  1.00  0.00     0.138 A 
ATOM     21  C   UNL     1      11.465 -56.898 -21.644  1.00  0.00     0.100 A 
ATOM     22  O   UNL     1      11.443 -58.721 -20.157  1.00  0.00    -0.289 OA
BRANCH  20  23
ATOM     23  C   UNL     1      11.369 -55.064 -23.281  1.00  0.00     0.018 A 
ATOM     24  C   UNL     1      11.166 -53.892 -22.536  1.00  0.00     0.016 A 
ATOM     25  C   UNL     1      11.957 -54.954 -24.547  1.00  0.00     0.016 A 
ATOM     26  C   UNL     1      11.555 -52.642 -23.039  1.00  0.00     0.047 A 
ATOM     27  C   UNL     1      12.344 -53.707 -25.046  1.00  0.00     0.047 A 
ATOM     28  C   UNL     1      12.148 -52.546 -24.296  1.00  0.00     0.118 A 
BRANCH  28  29
ATOM     29  O   UNL     1      12.570 -51.396 -24.903  1.00  0.00    -0.497 OA
ATOM     30  C   UNL     1      13.674 -51.506 -25.795  1.00  0.00     0.278 C 
ENDBRANCH  28  29
ENDBRANCH  20  23
ENDBRANCH   1  12
TORSDOF 6
ENDMDL
MODEL 8
REMARK VINA RESULT:    -9.662      3.067     10.874
REMARK INTER + INTRA:         -13.647
REMARK INTER:                 -13.057
REMARK INTRA:                  -0.591
REMARK UNBOUND:                -0.595
REMARK SMILES COc1ccc(-c2cc(=O)c3ccc(OCC[N@H+]4CC[C@H](C)CC4)cc3o2)cc1
REMARK SMILES IDX 15 1 16 2 17 3 18 4 24 5 19 6 23 7 20 8 21 9 22 11 14 12
REMARK SMILES IDX 13 13 25 14 12 15 26 16 11 17 27 18 9 19 7 20 8 21 10 22
REMARK SMILES IDX 6 23 5 24 28 25 4 26 29 27 3 28 2 29 1 30
REMARK H PARENT 18 10
ROOT
ATOM      1  O   UNL     1      13.996 -51.706 -26.452  1.00  0.00    -0.488 OA
ENDROOT
BRANCH   1   2
ATOM      2  C   UNL     1      14.183 -50.302 -26.635  1.00  0.00     0.290 C 
BRANCH   2   3
ATOM      3  C   UNL     1      15.689 -50.003 -26.652  1.00  0.00     0.304 C 
BRANCH   3   4
ATOM      4  N   UNL     1      16.003 -48.503 -26.704  1.00  0.00    -0.332 N 
ATOM      5  C   UNL     1      15.011 -47.799 -27.609  1.00  0.00     0.262 C 
ATOM      6  C   UNL     1      16.064 -47.854 -25.335  1.00  0.00     0.262 C 
ATOM      7  C   UNL     1      15.387 -46.333 -27.756  1.00  0.00     0.065 C 
ATOM      8  C   UNL     1      16.421 -46.378 -25.473  1.00  0.00     0.065 C 
ATOM      9  C   UNL     1      15.456 -45.633 -26.397  1.00  0.00    -0.003 C 
ATOM     10  H   UNL     1      16.933 -48.397 -27.130  1.00  0.00     0.348 HD
ATOM     11  C   UNL     1      15.875 -44.174 -26.559  1.00  0.00     0.008 C 
ENDBRANCH   3   4
ENDBRANCH   2   3
ENDBRANCH   1   2
BRANCH   1  12
ATOM     12  C   UNL     1      13.208 -52.102 -25.407  1.00  0.00     0.123 A 
ATOM     13  C   UNL     1      12.834 -51.070 -24.538  1.00  0.00     0.047 A 
ATOM     14  C   UNL     1      12.770 -53.404 -25.156  1.00  0.00     0.094 A 
ATOM     15  C   UNL     1      12.035 -51.333 -23.423  1.00  0.00     0.020 A 
ATOM     16  C   UNL     1      11.970 -53.668 -24.039  1.00  0.00     0.142 A 
ATOM     17  C   UNL     1      11.607 -52.638 -23.178  1.00  0.00     0.065 A 
ATOM     18  O   UNL     1      11.576 -54.969 -23.851  1.00  0.00    -0.456 OA
ATOM     19  C   UNL     1      10.769 -52.953 -22.013  1.00  0.00     0.193 A 
ATOM     20  C   UNL     1      10.789 -55.266 -22.748  1.00  0.00     0.138 A 
ATOM     21  C   UNL     1      10.369 -54.359 -21.852  1.00  0.00     0.100 A 
ATOM     22  O   UNL     1      10.423 -52.097 -21.211  1.00  0.00    -0.289 OA
BRANCH  20  23
ATOM     23  C   UNL     1      10.415 -56.690 -22.641  1.00  0.00     0.018 A 
ATOM     24  C   UNL     1       9.233 -57.184 -23.211  1.00  0.00     0.016 A 
ATOM     25  C   UNL     1      11.234 -57.578 -21.933  1.00  0.00     0.016 A 
ATOM     26  C   UNL     1       8.885 -58.537 -23.089  1.00  0.00     0.047 A 
ATOM     27  C   UNL     1      10.885 -58.926 -21.813  1.00  0.00     0.047 A 
ATOM     28  C   UNL     1       9.712 -59.413 -22.391  1.00  0.00     0.118 A 
BRANCH  28  29
ATOM     29  O   UNL     1       9.492 -60.748 -22.196  1.00  0.00    -0.497 OA
ATOM     30  C   UNL     1       8.633 -61.403 -23.123  1.00  0.00     0.278 C 
ENDBRANCH  28  29
ENDBRANCH  20  23
ENDBRANCH   1  12
TORSDOF 6
ENDMDL
MODEL 9
REMARK VINA RESULT:    -8.955      3.660     10.686
REMARK INTER + INTRA:         -12.691
REMARK INTER:                 -11.820
REMARK INTRA:                  -0.871
REMARK UNBOUND:                -0.595
REMARK SMILES COc1ccc(-c2cc(=O)c3ccc(OCC[N@H+]4CC[C@H](C)CC4)cc3o2)cc1
REMARK SMILES IDX 15 1 16 2 17 3 18 4 24 5 19 6 23 7 20 8 21 9 22 11 14 12
REMARK SMILES IDX 13 13 25 14 12 15 26 16 11 17 27 18 9 19 7 20 8 21 10 22
REMARK SMILES IDX 6 23 5 24 28 25 4 26 29 27 3 28 2 29 1 30
REMARK H PARENT 18 10
ROOT
ATOM      1  O   UNL     1      14.402 -49.612 -24.223  1.00  0.00    -0.488 OA
ENDROOT
BRANCH   1   2
ATOM      2  C   UNL     1      15.006 -48.597 -23.422  1.00  0.00     0.290 C 
BRANCH   2   3
ATOM      3  C   UNL     1      15.196 -47.338 -24.282  1.00  0.00     0.304 C 
BRANCH   3   4
ATOM      4  N   UNL     1      14.227 -46.208 -23.916  1.00  0.00    -0.332 N 
ATOM      5  C   UNL     1      13.088 -46.162 -24.915  1.00  0.00     0.262 C 
ATOM      6  C   UNL     1      13.715 -46.293 -22.492  1.00  0.00     0.262 C 
ATOM      7  C   UNL     1      12.187 -44.972 -24.625  1.00  0.00     0.065 C 
ATOM      8  C   UNL     1      12.795 -45.113 -22.197  1.00  0.00     0.065 C 
ATOM      9  C   UNL     1      11.640 -45.017 -23.197  1.00  0.00    -0.003 C 
ATOM     10  H   UNL     1      14.742 -45.321 -24.000  1.00  0.00     0.348 HD
ATOM     11  C   UNL     1      10.772 -43.795 -22.909  1.00  0.00     0.008 C 
ENDBRANCH   3   4
ENDBRANCH   2   3
ENDBRANCH   1   2
BRANCH   1  12
ATOM     12  C   UNL     1      13.278 -50.214 -23.728  1.00  0.00     0.123 A 
ATOM     13  C   UNL     1      12.293 -49.327 -23.279  1.00  0.00     0.047 A 
ATOM     14  C   UNL     1      13.053 -51.590 -23.642  1.00  0.00     0.094 A 
ATOM     15  C   UNL     1      11.096 -49.804 -22.742  1.00  0.00     0.020 A 
ATOM     16  C   UNL     1      11.853 -52.068 -23.105  1.00  0.00     0.142 A 
ATOM     17  C   UNL     1      10.882 -51.180 -22.656  1.00  0.00     0.065 A 
ATOM     18  O   UNL     1      11.697 -53.431 -23.049  1.00  0.00    -0.456 OA
ATOM     19  C   UNL     1       9.636 -51.718 -22.094  1.00  0.00     0.193 A 
ATOM     20  C   UNL     1      10.522 -53.939 -22.513  1.00  0.00     0.138 A 
ATOM     21  C   UNL     1       9.512 -53.183 -22.056  1.00  0.00     0.100 A 
ATOM     22  O   UNL     1       8.747 -50.993 -21.671  1.00  0.00    -0.289 OA
BRANCH  20  23
ATOM     23  C   UNL     1      10.452 -55.413 -22.505  1.00  0.00     0.018 A 
ATOM     24  C   UNL     1       9.481 -56.106 -23.243  1.00  0.00     0.016 A 
ATOM     25  C   UNL     1      11.350 -56.153 -21.727  1.00  0.00     0.016 A 
ATOM     26  C   UNL     1       9.419 -57.507 -23.214  1.00  0.00     0.047 A 
ATOM     27  C   UNL     1      11.286 -57.549 -21.699  1.00  0.00     0.047 A 
ATOM     28  C   UNL     1      10.323 -58.233 -22.443  1.00  0.00     0.118 A 
BRANCH  28  29
ATOM     29  O   UNL     1      10.372 -59.594 -22.325  1.00  0.00    -0.497 OA
ATOM     30  C   UNL     1      11.079 -60.305 -23.335  1.00  0.00     0.278 C 
ENDBRANCH  28  29
ENDBRANCH  20  23
ENDBRANCH   1  12
TORSDOF 6
ENDMDL
