MODEL 1
REMARK VINA RESULT:   -12.430      0.000      0.000
REMARK INTER + INTRA:         -19.562
REMARK INTER:                 -18.606
REMARK INTRA:                  -0.956
REMARK UNBOUND:                -0.956
REMARK SMILES O=C(Cc1cc(=O)oc2cc(O)ccc12)NCCCCN=c1c2c([nH]c3ccccc13)CCCC2
REMARK SMILES IDX 18 1 19 2 20 3 21 4 22 5 25 6 24 7 26 8 23 9 32 10 27 11
REMARK SMILES IDX 31 12 35 13 33 14 28 15 30 16 34 17 29 18 17 20 16 21 2 22
REMARK SMILES IDX 1 24 3 25 4 26 5 27 15 28 6 29 14 30 9 31 8 32 13 33 10 34
REMARK SMILES IDX 11 35 7 36 12 37
REMARK H PARENT 25 19 16 23 12 38
ROOT
ATOM      1  C   UNL     1      11.026 -58.892 -20.658  1.00  0.00     0.023 C 
ENDROOT
BRANCH   1   2
ATOM      2  C   UNL     1      10.268 -60.199 -20.898  1.00  0.00     0.025 C 
BRANCH   2   3
ATOM      3  C   UNL     1       9.615 -60.249 -22.282  1.00  0.00     0.143 C 
BRANCH   3   4
ATOM      4  N   UNL     1      10.289 -61.258 -23.072  1.00  0.00    -0.284 NA
BRANCH   4   5
ATOM      5  C   UNL     1      10.100 -61.475 -24.325  1.00  0.00     0.072 A 
ATOM      6  N   UNL     1       9.036 -61.692 -26.946  1.00  0.00    -0.358 N 
ATOM      7  C   UNL     1      10.208 -60.993 -26.741  1.00  0.00     0.021 A 
ATOM      8  C   UNL     1       8.529 -62.546 -25.958  1.00  0.00     0.048 A 
ATOM      9  C   UNL     1      10.795 -60.860 -25.529  1.00  0.00    -0.003 A 
ATOM     10  C   UNL     1      10.821 -60.403 -27.998  1.00  0.00     0.054 C 
ATOM     11  C   UNL     1       7.472 -63.417 -26.245  1.00  0.00     0.027 A 
ATOM     12  C   UNL     1       9.022 -62.476 -24.650  1.00  0.00     0.024 A 
ATOM     13  C   UNL     1      12.141 -60.205 -25.368  1.00  0.00     0.039 C 
ATOM     14  C   UNL     1      11.980 -59.445 -27.746  1.00  0.00     0.007 C 
ATOM     15  C   UNL     1       6.940 -64.240 -25.249  1.00  0.00     0.002 A 
ATOM     16  C   UNL     1       8.482 -63.298 -23.651  1.00  0.00     0.012 A 
ATOM     17  C   UNL     1      12.903 -60.007 -26.679  1.00  0.00     0.005 C 
ATOM     18  C   UNL     1       7.447 -64.184 -23.953  1.00  0.00     0.001 A 
ATOM     19  H   UNL     1       8.797 -61.916 -27.905  1.00  0.00     0.166 HD
ENDBRANCH   4   5
ENDBRANCH   3   4
ENDBRANCH   2   3
ENDBRANCH   1   2
BRANCH   1  20
ATOM     20  C   UNL     1      11.544 -58.304 -21.966  1.00  0.00     0.116 C 
BRANCH  20  21
ATOM     21  N   UNL     1      11.262 -56.884 -22.049  1.00  0.00    -0.356 N 
ATOM     22  C   UNL     1      10.186 -56.423 -22.782  1.00  0.00     0.224 C 
ATOM     23  H   UNL     1      11.644 -56.291 -21.323  1.00  0.00     0.163 HD
ATOM     24  O   UNL     1       9.502 -57.147 -23.500  1.00  0.00    -0.275 OA
BRANCH  22  25
ATOM     25  C   UNL     1       9.950 -54.920 -22.655  1.00  0.00     0.136 C 
BRANCH  25  26
ATOM     26  C   UNL     1      10.981 -54.128 -23.420  1.00  0.00    -0.020 A 
ATOM     27  C   UNL     1      11.595 -54.657 -24.491  1.00  0.00     0.098 A 
ATOM     28  C   UNL     1      11.351 -52.763 -23.011  1.00  0.00     0.022 A 
ATOM     29  C   UNL     1      12.615 -53.951 -25.281  1.00  0.00     0.336 A 
ATOM     30  C   UNL     1      10.791 -52.096 -21.914  1.00  0.00     0.016 A 
ATOM     31  C   UNL     1      12.318 -52.080 -23.757  1.00  0.00     0.142 A 
ATOM     32  O   UNL     1      12.938 -52.669 -24.876  1.00  0.00    -0.423 OA
ATOM     33  C   UNL     1      11.194 -50.796 -21.585  1.00  0.00     0.047 A 
ATOM     34  C   UNL     1      12.729 -50.782 -23.444  1.00  0.00     0.094 A 
ATOM     35  C   UNL     1      12.157 -50.150 -22.351  1.00  0.00     0.119 A 
ATOM     36  O   UNL     1      13.154 -54.492 -26.238  1.00  0.00    -0.246 OA
BRANCH  35  37
ATOM     37  O   UNL     1      12.513 -48.886 -21.989  1.00  0.00    -0.508 OA
ATOM     38  H   UNL     1      12.763 -48.887 -21.049  1.00  0.00     0.293 HD
ENDBRANCH  35  37
ENDBRANCH  25  26
ENDBRANCH  22  25
ENDBRANCH  20  21
ENDBRANCH   1  20
TORSDOF 9
ENDMDL
MODEL 2
REMARK VINA RESULT:   -12.314      1.708      2.759
REMARK INTER + INTRA:         -19.389
REMARK INTER:                 -18.780
REMARK INTRA:                  -0.609
REMARK UNBOUND:                -0.956
REMARK SMILES O=C(Cc1cc(=O)oc2cc(O)ccc12)NCCCCN=c1c2c([nH]c3ccccc13)CCCC2
REMARK SMILES IDX 18 1 19 2 20 3 21 4 22 5 25 6 24 7 26 8 23 9 32 10 27 11
REMARK SMILES IDX 31 12 35 13 33 14 28 15 30 16 34 17 29 18 17 20 16 21 2 22
REMARK SMILES IDX 1 24 3 25 4 26 5 27 15 28 6 29 14 30 9 31 8 32 13 33 10 34
REMARK SMILES IDX 11 35 7 36 12 37
REMARK H PARENT 25 19 16 23 12 38
ROOT
ATOM      1  C   UNL     1      11.160 -57.499 -21.527  1.00  0.00     0.023 C 
ENDROOT
BRANCH   1   2
ATOM      2  C   UNL     1      11.167 -59.024 -21.646  1.00  0.00     0.025 C 
BRANCH   2   3
ATOM      3  C   UNL     1      12.090 -59.519 -22.763  1.00  0.00     0.143 C 
BRANCH   3   4
ATOM      4  N   UNL     1      11.699 -60.866 -23.120  1.00  0.00    -0.284 NA
BRANCH   4   5
ATOM      5  C   UNL     1      11.049 -61.200 -24.177  1.00  0.00     0.072 A 
ATOM      6  N   UNL     1       9.068 -61.644 -26.159  1.00  0.00    -0.358 N 
ATOM      7  C   UNL     1      10.222 -60.963 -26.489  1.00  0.00     0.021 A 
ATOM      8  C   UNL     1       8.986 -62.382 -24.972  1.00  0.00     0.048 A 
ATOM      9  C   UNL     1      11.225 -60.727 -25.611  1.00  0.00    -0.003 A 
ATOM     10  C   UNL     1      10.302 -60.517 -27.937  1.00  0.00     0.054 C 
ATOM     11  C   UNL     1       7.910 -63.247 -24.744  1.00  0.00     0.027 A 
ATOM     12  C   UNL     1       9.940 -62.197 -23.964  1.00  0.00     0.024 A 
ATOM     13  C   UNL     1      12.524 -60.098 -26.042  1.00  0.00     0.039 C 
ATOM     14  C   UNL     1      11.460 -59.572 -28.245  1.00  0.00     0.007 C 
ATOM     15  C   UNL     1       7.807 -63.951 -23.542  1.00  0.00     0.002 A 
ATOM     16  C   UNL     1       9.832 -62.901 -22.756  1.00  0.00     0.012 A 
ATOM     17  C   UNL     1      12.726 -60.052 -27.558  1.00  0.00     0.005 C 
ATOM     18  C   UNL     1       8.770 -63.782 -22.550  1.00  0.00     0.001 A 
ATOM     19  H   UNL     1       8.484 -61.955 -26.927  1.00  0.00     0.166 HD
ENDBRANCH   4   5
ENDBRANCH   3   4
ENDBRANCH   2   3
ENDBRANCH   1   2
BRANCH   1  20
ATOM     20  C   UNL     1      10.502 -56.852 -22.740  1.00  0.00     0.116 C 
BRANCH  20  21
ATOM     21  N   UNL     1      11.446 -56.029 -23.471  1.00  0.00    -0.356 N 
ATOM     22  C   UNL     1      11.029 -54.870 -24.097  1.00  0.00     0.224 C 
ATOM     23  H   UNL     1      12.426 -56.131 -23.243  1.00  0.00     0.163 HD
ATOM     24  O   UNL     1       9.850 -54.543 -24.191  1.00  0.00    -0.275 OA
BRANCH  22  25
ATOM     25  C   UNL     1      12.168 -54.053 -24.704  1.00  0.00     0.136 C 
BRANCH  25  26
ATOM     26  C   UNL     1      12.248 -52.674 -24.097  1.00  0.00    -0.020 A 
ATOM     27  C   UNL     1      11.712 -52.424 -22.891  1.00  0.00     0.098 A 
ATOM     28  C   UNL     1      12.902 -51.564 -24.810  1.00  0.00     0.022 A 
ATOM     29  C   UNL     1      11.743 -51.105 -22.240  1.00  0.00     0.336 A 
ATOM     30  C   UNL     1      13.496 -51.688 -26.072  1.00  0.00     0.016 A 
ATOM     31  C   UNL     1      12.940 -50.306 -24.199  1.00  0.00     0.142 A 
ATOM     32  O   UNL     1      12.368 -50.084 -22.931  1.00  0.00    -0.423 OA
ATOM     33  C   UNL     1      14.100 -50.585 -26.690  1.00  0.00     0.047 A 
ATOM     34  C   UNL     1      13.541 -49.198 -24.800  1.00  0.00     0.094 A 
ATOM     35  C   UNL     1      14.119 -49.352 -26.051  1.00  0.00     0.119 A 
ATOM     36  O   UNL     1      11.221 -50.933 -21.145  1.00  0.00    -0.246 OA
BRANCH  35  37
ATOM     37  O   UNL     1      14.720 -48.312 -26.693  1.00  0.00    -0.508 OA
ATOM     38  H   UNL     1      14.033 -47.746 -27.084  1.00  0.00     0.293 HD
ENDBRANCH  35  37
ENDBRANCH  25  26
ENDBRANCH  22  25
ENDBRANCH  20  21
ENDBRANCH   1  20
TORSDOF 9
ENDMDL
MODEL 3
REMARK VINA RESULT:   -11.934      3.468     11.045
REMARK INTER + INTRA:         -18.820
REMARK INTER:                 -17.976
REMARK INTRA:                  -0.844
REMARK UNBOUND:                -0.956
REMARK SMILES O=C(Cc1cc(=O)oc2cc(O)ccc12)NCCCCN=c1c2c([nH]c3ccccc13)CCCC2
REMARK SMILES IDX 18 1 19 2 20 3 21 4 22 5 25 6 24 7 26 8 23 9 32 10 27 11
REMARK SMILES IDX 31 12 35 13 33 14 28 15 30 16 34 17 29 18 17 20 16 21 2 22
REMARK SMILES IDX 1 24 3 25 4 26 5 27 15 28 6 29 14 30 9 31 8 32 13 33 10 34
REMARK SMILES IDX 11 35 7 36 12 37
REMARK H PARENT 25 19 16 23 12 38
ROOT
ATOM      1  C   UNL     1      10.039 -53.128 -22.107  1.00  0.00     0.023 C 
ENDROOT
BRANCH   1   2
ATOM      2  C   UNL     1      10.978 -52.024 -21.617  1.00  0.00     0.025 C 
BRANCH   2   3
ATOM      3  C   UNL     1      10.506 -50.629 -22.033  1.00  0.00     0.143 C 
BRANCH   3   4
ATOM      4  N   UNL     1      11.663 -49.766 -22.141  1.00  0.00    -0.284 NA
BRANCH   4   5
ATOM      5  C   UNL     1      12.060 -49.179 -23.214  1.00  0.00     0.072 A 
ATOM      6  N   UNL     1      13.288 -47.472 -25.118  1.00  0.00    -0.358 N 
ATOM      7  C   UNL     1      13.466 -48.837 -25.212  1.00  0.00     0.021 A 
ATOM      8  C   UNL     1      12.281 -46.934 -24.307  1.00  0.00     0.048 A 
ATOM      9  C   UNL     1      12.900 -49.723 -24.359  1.00  0.00    -0.003 A 
ATOM     10  C   UNL     1      14.330 -49.285 -26.376  1.00  0.00     0.054 C 
ATOM     11  C   UNL     1      11.956 -45.575 -24.383  1.00  0.00     0.027 A 
ATOM     12  C   UNL     1      11.646 -47.738 -23.353  1.00  0.00     0.024 A 
ATOM     13  C   UNL     1      13.009 -51.210 -24.573  1.00  0.00     0.039 C 
ATOM     14  C   UNL     1      14.715 -50.761 -26.347  1.00  0.00     0.007 C 
ATOM     15  C   UNL     1      10.979 -45.031 -23.544  1.00  0.00     0.002 A 
ATOM     16  C   UNL     1      10.671 -47.188 -22.508  1.00  0.00     0.012 A 
ATOM     17  C   UNL     1      13.516 -51.608 -25.960  1.00  0.00     0.005 C 
ATOM     18  C   UNL     1      10.334 -45.838 -22.610  1.00  0.00     0.001 A 
ATOM     19  H   UNL     1      13.570 -46.917 -25.919  1.00  0.00     0.166 HD
ENDBRANCH   4   5
ENDBRANCH   3   4
ENDBRANCH   2   3
ENDBRANCH   1   2
BRANCH   1  20
ATOM     20  C   UNL     1      10.709 -53.998 -23.163  1.00  0.00     0.116 C 
BRANCH  20  21
ATOM     21  N   UNL     1      11.241 -55.215 -22.578  1.00  0.00    -0.356 N 
ATOM     22  C   UNL     1      10.625 -56.430 -22.805  1.00  0.00     0.224 C 
ATOM     23  H   UNL     1      12.212 -55.209 -22.296  1.00  0.00     0.163 HD
ATOM     24  O   UNL     1       9.546 -56.540 -23.380  1.00  0.00    -0.275 OA
BRANCH  22  25
ATOM     25  C   UNL     1      11.385 -57.624 -22.233  1.00  0.00     0.136 C 
BRANCH  25  26
ATOM     26  C   UNL     1      11.436 -58.771 -23.212  1.00  0.00    -0.020 A 
ATOM     27  C   UNL     1      12.040 -58.630 -24.403  1.00  0.00     0.098 A 
ATOM     28  C   UNL     1      10.817 -60.070 -22.896  1.00  0.00     0.022 A 
ATOM     29  C   UNL     1      12.121 -59.699 -25.410  1.00  0.00     0.336 A 
ATOM     30  C   UNL     1      10.155 -60.349 -21.694  1.00  0.00     0.016 A 
ATOM     31  C   UNL     1      10.891 -61.095 -23.845  1.00  0.00     0.142 A 
ATOM     32  O   UNL     1      11.536 -60.908 -25.084  1.00  0.00    -0.423 OA
ATOM     33  C   UNL     1       9.590 -61.610 -21.465  1.00  0.00     0.047 A 
ATOM     34  C   UNL     1      10.336 -62.358 -23.632  1.00  0.00     0.094 A 
ATOM     35  C   UNL     1       9.685 -62.603 -22.432  1.00  0.00     0.119 A 
ATOM     36  O   UNL     1      12.671 -59.505 -26.489  1.00  0.00    -0.246 OA
BRANCH  35  37
ATOM     37  O   UNL     1       9.120 -63.812 -22.160  1.00  0.00    -0.508 OA
ATOM     38  H   UNL     1       8.298 -63.897 -22.674  1.00  0.00     0.293 HD
ENDBRANCH  35  37
ENDBRANCH  25  26
ENDBRANCH  22  25
ENDBRANCH  20  21
ENDBRANCH   1  20
TORSDOF 9
ENDMDL
MODEL 4
REMARK VINA RESULT:   -11.919      1.343      1.763
REMARK INTER + INTRA:         -18.798
REMARK INTER:                 -18.017
REMARK INTRA:                  -0.781
REMARK UNBOUND:                -0.956
REMARK SMILES O=C(Cc1cc(=O)oc2cc(O)ccc12)NCCCCN=c1c2c([nH]c3ccccc13)CCCC2
REMARK SMILES IDX 18 1 19 2 20 3 21 4 22 5 25 6 24 7 26 8 23 9 32 10 27 11
REMARK SMILES IDX 31 12 35 13 33 14 28 15 30 16 34 17 29 18 17 20 16 21 2 22
REMARK SMILES IDX 1 24 3 25 4 26 5 27 15 28 6 29 14 30 9 31 8 32 13 33 10 34
REMARK SMILES IDX 11 35 7 36 12 37
REMARK H PARENT 25 19 16 23 12 38
ROOT
ATOM      1  C   UNL     1      11.209 -57.594 -21.648  1.00  0.00     0.023 C 
ENDROOT
BRANCH   1   2
ATOM      2  C   UNL     1      11.738 -58.988 -21.989  1.00  0.00     0.025 C 
BRANCH   2   3
ATOM      3  C   UNL     1      10.646 -60.060 -21.923  1.00  0.00     0.143 C 
BRANCH   3   4
ATOM      4  N   UNL     1      11.036 -61.166 -22.770  1.00  0.00    -0.284 NA
BRANCH   4   5
ATOM      5  C   UNL     1      10.587 -61.395 -23.953  1.00  0.00     0.072 A 
ATOM      6  N   UNL     1       9.001 -61.618 -26.295  1.00  0.00    -0.358 N 
ATOM      7  C   UNL     1      10.208 -60.951 -26.350  1.00  0.00     0.021 A 
ATOM      8  C   UNL     1       8.687 -62.442 -25.208  1.00  0.00     0.048 A 
ATOM      9  C   UNL     1      11.035 -60.817 -25.286  1.00  0.00    -0.003 A 
ATOM     10  C   UNL     1      10.563 -60.396 -27.716  1.00  0.00     0.054 C 
ATOM     11  C   UNL     1       7.571 -63.286 -25.254  1.00  0.00     0.027 A 
ATOM     12  C   UNL     1       9.440 -62.369 -24.031  1.00  0.00     0.024 A 
ATOM     13  C   UNL     1      12.402 -60.200 -25.419  1.00  0.00     0.039 C 
ATOM     14  C   UNL     1      11.774 -59.469 -27.727  1.00  0.00     0.007 C 
ATOM     15  C   UNL     1       7.235 -64.079 -24.154  1.00  0.00     0.002 A 
ATOM     16  C   UNL     1       9.097 -63.161 -22.926  1.00  0.00     0.012 A 
ATOM     17  C   UNL     1      12.883 -60.043 -26.862  1.00  0.00     0.005 C 
ATOM     18  C   UNL     1       8.000 -64.020 -22.991  1.00  0.00     0.001 A 
ATOM     19  H   UNL     1       8.564 -61.848 -27.180  1.00  0.00     0.166 HD
ENDBRANCH   4   5
ENDBRANCH   3   4
ENDBRANCH   2   3
ENDBRANCH   1   2
BRANCH   1  20
ATOM     20  C   UNL     1      11.120 -56.716 -22.890  1.00  0.00     0.116 C 
BRANCH  20  21
ATOM     21  N   UNL     1      11.403 -55.329 -22.572  1.00  0.00    -0.356 N 
ATOM     22  C   UNL     1      10.746 -54.310 -23.233  1.00  0.00     0.224 C 
ATOM     23  H   UNL     1      11.818 -55.134 -21.670  1.00  0.00     0.163 HD
ATOM     24  O   UNL     1      10.008 -54.498 -24.196  1.00  0.00    -0.275 OA
BRANCH  22  25
ATOM     25  C   UNL     1      11.057 -52.918 -22.687  1.00  0.00     0.136 C 
BRANCH  25  26
ATOM     26  C   UNL     1      12.007 -52.167 -23.586  1.00  0.00    -0.020 A 
ATOM     27  C   UNL     1      12.850 -52.827 -24.397  1.00  0.00     0.098 A 
ATOM     28  C   UNL     1      12.048 -50.695 -23.591  1.00  0.00     0.022 A 
ATOM     29  C   UNL     1      13.810 -52.164 -25.293  1.00  0.00     0.336 A 
ATOM     30  C   UNL     1      11.228 -49.887 -22.794  1.00  0.00     0.016 A 
ATOM     31  C   UNL     1      12.954 -50.053 -24.442  1.00  0.00     0.142 A 
ATOM     32  O   UNL     1      13.821 -50.782 -25.281  1.00  0.00    -0.423 OA
ATOM     33  C   UNL     1      11.323 -48.491 -22.854  1.00  0.00     0.047 A 
ATOM     34  C   UNL     1      13.061 -48.663 -24.516  1.00  0.00     0.094 A 
ATOM     35  C   UNL     1      12.236 -47.890 -23.712  1.00  0.00     0.119 A 
ATOM     36  O   UNL     1      14.567 -52.821 -25.998  1.00  0.00    -0.246 OA
BRANCH  35  37
ATOM     37  O   UNL     1      12.288 -46.530 -23.733  1.00  0.00    -0.508 OA
ATOM     38  H   UNL     1      11.438 -46.179 -23.417  1.00  0.00     0.293 HD
ENDBRANCH  35  37
ENDBRANCH  25  26
ENDBRANCH  22  25
ENDBRANCH  20  21
ENDBRANCH   1  20
TORSDOF 9
ENDMDL
MODEL 5
REMARK VINA RESULT:   -11.192      1.708      4.294
REMARK INTER + INTRA:         -17.710
REMARK INTER:                 -16.401
REMARK INTRA:                  -1.309
REMARK UNBOUND:                -0.956
REMARK SMILES O=C(Cc1cc(=O)oc2cc(O)ccc12)NCCCCN=c1c2c([nH]c3ccccc13)CCCC2
REMARK SMILES IDX 18 1 19 2 20 3 21 4 22 5 25 6 24 7 26 8 23 9 32 10 27 11
REMARK SMILES IDX 31 12 35 13 33 14 28 15 30 16 34 17 29 18 17 20 16 21 2 22
REMARK SMILES IDX 1 24 3 25 4 26 5 27 15 28 6 29 14 30 9 31 8 32 13 33 10 34
REMARK SMILES IDX 11 35 7 36 12 37
REMARK H PARENT 25 19 16 23 12 38
ROOT
ATOM      1  C   UNL     1      11.361 -59.944 -22.271  1.00  0.00     0.023 C 
ENDROOT
BRANCH   1   2
ATOM      2  C   UNL     1      12.528 -59.475 -23.141  1.00  0.00     0.025 C 
BRANCH   2   3
ATOM      3  C   UNL     1      12.526 -60.132 -24.524  1.00  0.00     0.143 C 
BRANCH   3   4
ATOM      4  N   UNL     1      11.530 -59.476 -25.343  1.00  0.00    -0.284 NA
BRANCH   4   5
ATOM      5  C   UNL     1      10.885 -60.019 -26.314  1.00  0.00     0.072 A 
ATOM      6  N   UNL     1      10.112 -61.453 -28.637  1.00  0.00    -0.358 N 
ATOM      7  C   UNL     1       9.507 -61.734 -27.429  1.00  0.00     0.021 A 
ATOM      8  C   UNL     1      10.864 -60.284 -28.807  1.00  0.00     0.048 A 
ATOM      9  C   UNL     1       9.801 -61.084 -26.279  1.00  0.00    -0.003 A 
ATOM     10  C   UNL     1       8.448 -62.820 -27.489  1.00  0.00     0.054 C 
ATOM     11  C   UNL     1      11.288 -59.889 -30.081  1.00  0.00     0.027 A 
ATOM     12  C   UNL     1      11.270 -59.543 -27.691  1.00  0.00     0.024 A 
ATOM     13  C   UNL     1       9.025 -61.327 -25.011  1.00  0.00     0.039 C 
ATOM     14  C   UNL     1       7.946 -63.290 -26.127  1.00  0.00     0.007 C 
ATOM     15  C   UNL     1      12.073 -58.745 -30.244  1.00  0.00     0.002 A 
ATOM     16  C   UNL     1      12.063 -58.399 -27.857  1.00  0.00     0.012 A 
ATOM     17  C   UNL     1       7.720 -62.099 -25.212  1.00  0.00     0.005 C 
ATOM     18  C   UNL     1      12.458 -57.997 -29.134  1.00  0.00     0.001 A 
ATOM     19  H   UNL     1       9.676 -61.836 -29.469  1.00  0.00     0.166 HD
ENDBRANCH   4   5
ENDBRANCH   3   4
ENDBRANCH   2   3
ENDBRANCH   1   2
BRANCH   1  20
ATOM     20  C   UNL     1      10.653 -58.767 -21.612  1.00  0.00     0.116 C 
BRANCH  20  21
ATOM     21  N   UNL     1      10.258 -57.776 -22.594  1.00  0.00    -0.356 N 
ATOM     22  C   UNL     1      10.657 -56.461 -22.464  1.00  0.00     0.224 C 
ATOM     23  H   UNL     1       9.984 -58.112 -23.509  1.00  0.00     0.163 HD
ATOM     24  O   UNL     1      11.235 -56.028 -21.471  1.00  0.00    -0.275 OA
BRANCH  22  25
ATOM     25  C   UNL     1      10.273 -55.578 -23.650  1.00  0.00     0.136 C 
BRANCH  25  26
ATOM     26  C   UNL     1      10.663 -54.139 -23.422  1.00  0.00    -0.020 A 
ATOM     27  C   UNL     1      10.014 -53.388 -22.518  1.00  0.00     0.098 A 
ATOM     28  C   UNL     1      11.753 -53.514 -24.190  1.00  0.00     0.022 A 
ATOM     29  C   UNL     1      10.331 -51.978 -22.247  1.00  0.00     0.336 A 
ATOM     30  C   UNL     1      12.507 -54.182 -25.163  1.00  0.00     0.016 A 
ATOM     31  C   UNL     1      12.066 -52.174 -23.939  1.00  0.00     0.142 A 
ATOM     32  O   UNL     1      11.363 -51.420 -22.979  1.00  0.00    -0.423 OA
ATOM     33  C   UNL     1      13.531 -53.520 -25.854  1.00  0.00     0.047 A 
ATOM     34  C   UNL     1      13.085 -51.501 -24.617  1.00  0.00     0.094 A 
ATOM     35  C   UNL     1      13.812 -52.189 -25.576  1.00  0.00     0.119 A 
ATOM     36  O   UNL     1       9.691 -51.337 -21.421  1.00  0.00    -0.246 OA
BRANCH  35  37
ATOM     37  O   UNL     1      14.818 -51.592 -26.274  1.00  0.00    -0.508 OA
ATOM     38  H   UNL     1      14.461 -51.263 -27.117  1.00  0.00     0.293 HD
ENDBRANCH  35  37
ENDBRANCH  25  26
ENDBRANCH  22  25
ENDBRANCH  20  21
ENDBRANCH   1  20
TORSDOF 9
ENDMDL
MODEL 6
REMARK VINA RESULT:   -11.009      2.882     10.139
REMARK INTER + INTRA:         -17.435
REMARK INTER:                 -16.779
REMARK INTRA:                  -0.656
REMARK UNBOUND:                -0.956
REMARK SMILES O=C(Cc1cc(=O)oc2cc(O)ccc12)NCCCCN=c1c2c([nH]c3ccccc13)CCCC2
REMARK SMILES IDX 18 1 19 2 20 3 21 4 22 5 25 6 24 7 26 8 23 9 32 10 27 11
REMARK SMILES IDX 31 12 35 13 33 14 28 15 30 16 34 17 29 18 17 20 16 21 2 22
REMARK SMILES IDX 1 24 3 25 4 26 5 27 15 28 6 29 14 30 9 31 8 32 13 33 10 34
REMARK SMILES IDX 11 35 7 36 12 37
REMARK H PARENT 25 19 16 23 12 38
ROOT
ATOM      1  C   UNL     1      10.634 -54.884 -22.784  1.00  0.00     0.023 C 
ENDROOT
BRANCH   1   2
ATOM      2  C   UNL     1      10.616 -54.292 -21.373  1.00  0.00     0.025 C 
BRANCH   2   3
ATOM      3  C   UNL     1      10.886 -52.785 -21.368  1.00  0.00     0.143 C 
BRANCH   3   4
ATOM      4  N   UNL     1      10.798 -52.298 -22.728  1.00  0.00    -0.284 NA
BRANCH   4   5
ATOM      5  C   UNL     1      11.715 -51.646 -23.350  1.00  0.00     0.072 A 
ATOM      6  N   UNL     1      13.933 -50.026 -24.059  1.00  0.00    -0.358 N 
ATOM      7  C   UNL     1      13.869 -51.329 -24.509  1.00  0.00     0.021 A 
ATOM      8  C   UNL     1      12.802 -49.394 -23.527  1.00  0.00     0.048 A 
ATOM      9  C   UNL     1      12.838 -52.161 -24.235  1.00  0.00    -0.003 A 
ATOM     10  C   UNL     1      15.040 -51.758 -25.373  1.00  0.00     0.054 C 
ATOM     11  C   UNL     1      12.807 -48.017 -23.279  1.00  0.00     0.027 A 
ATOM     12  C   UNL     1      11.683 -50.151 -23.162  1.00  0.00     0.024 A 
ATOM     13  C   UNL     1      12.740 -53.531 -24.855  1.00  0.00     0.039 C 
ATOM     14  C   UNL     1      15.086 -53.252 -25.678  1.00  0.00     0.007 C 
ATOM     15  C   UNL     1      11.692 -47.394 -22.711  1.00  0.00     0.002 A 
ATOM     16  C   UNL     1      10.568 -49.525 -22.587  1.00  0.00     0.012 A 
ATOM     17  C   UNL     1      13.697 -53.760 -26.025  1.00  0.00     0.005 C 
ATOM     18  C   UNL     1      10.571 -48.147 -22.369  1.00  0.00     0.001 A 
ATOM     19  H   UNL     1      14.628 -49.425 -24.490  1.00  0.00     0.166 HD
ENDBRANCH   4   5
ENDBRANCH   3   4
ENDBRANCH   2   3
ENDBRANCH   1   2
BRANCH   1  20
ATOM     20  C   UNL     1       9.970 -56.255 -22.818  1.00  0.00     0.116 C 
BRANCH  20  21
ATOM     21  N   UNL     1      10.866 -57.258 -23.359  1.00  0.00    -0.356 N 
ATOM     22  C   UNL     1      11.393 -58.241 -22.545  1.00  0.00     0.224 C 
ATOM     23  H   UNL     1      10.833 -57.421 -24.357  1.00  0.00     0.163 HD
ATOM     24  O   UNL     1      11.255 -58.250 -21.325  1.00  0.00    -0.275 OA
BRANCH  22  25
ATOM     25  C   UNL     1      12.205 -59.295 -23.294  1.00  0.00     0.136 C 
BRANCH  25  26
ATOM     26  C   UNL     1      11.371 -60.007 -24.329  1.00  0.00    -0.020 A 
ATOM     27  C   UNL     1      11.410 -59.634 -25.618  1.00  0.00     0.098 A 
ATOM     28  C   UNL     1      10.483 -61.121 -23.956  1.00  0.00     0.022 A 
ATOM     29  C   UNL     1      10.620 -60.274 -26.681  1.00  0.00     0.336 A 
ATOM     30  C   UNL     1      10.344 -61.607 -22.650  1.00  0.00     0.016 A 
ATOM     31  C   UNL     1       9.728 -61.741 -24.959  1.00  0.00     0.142 A 
ATOM     32  O   UNL     1       9.800 -61.320 -26.301  1.00  0.00    -0.423 OA
ATOM     33  C   UNL     1       9.478 -62.673 -22.371  1.00  0.00     0.047 A 
ATOM     34  C   UNL     1       8.862 -62.804 -24.698  1.00  0.00     0.094 A 
ATOM     35  C   UNL     1       8.745 -63.262 -23.394  1.00  0.00     0.119 A 
ATOM     36  O   UNL     1      10.685 -59.877 -27.838  1.00  0.00    -0.246 OA
BRANCH  35  37
ATOM     37  O   UNL     1       7.919 -64.295 -23.071  1.00  0.00    -0.508 OA
ATOM     38  H   UNL     1       7.019 -63.947 -22.944  1.00  0.00     0.293 HD
ENDBRANCH  35  37
ENDBRANCH  25  26
ENDBRANCH  22  25
ENDBRANCH  20  21
ENDBRANCH   1  20
TORSDOF 9
ENDMDL
MODEL 7
REMARK VINA RESULT:   -10.681      2.232      3.686
REMARK INTER + INTRA:         -16.945
REMARK INTER:                 -16.305
REMARK INTRA:                  -0.640
REMARK UNBOUND:                -0.956
REMARK SMILES O=C(Cc1cc(=O)oc2cc(O)ccc12)NCCCCN=c1c2c([nH]c3ccccc13)CCCC2
REMARK SMILES IDX 18 1 19 2 20 3 21 4 22 5 25 6 24 7 26 8 23 9 32 10 27 11
REMARK SMILES IDX 31 12 35 13 33 14 28 15 30 16 34 17 29 18 17 20 16 21 2 22
REMARK SMILES IDX 1 24 3 25 4 26 5 27 15 28 6 29 14 30 9 31 8 32 13 33 10 34
REMARK SMILES IDX 11 35 7 36 12 37
REMARK H PARENT 25 19 16 23 12 38
ROOT
ATOM      1  C   UNL     1       8.836 -62.459 -22.233  1.00  0.00     0.023 C 
ENDROOT
BRANCH   1   2
ATOM      2  C   UNL     1       8.753 -63.826 -22.916  1.00  0.00     0.025 C 
BRANCH   2   3
ATOM      3  C   UNL     1       7.723 -63.850 -24.049  1.00  0.00     0.143 C 
BRANCH   3   4
ATOM      4  N   UNL     1       7.090 -62.551 -24.123  1.00  0.00    -0.284 NA
BRANCH   4   5
ATOM      5  C   UNL     1       7.614 -61.492 -24.628  1.00  0.00     0.072 A 
ATOM      6  N   UNL     1       9.064 -59.098 -25.094  1.00  0.00    -0.358 N 
ATOM      7  C   UNL     1       9.252 -60.183 -25.927  1.00  0.00     0.021 A 
ATOM      8  C   UNL     1       7.966 -59.043 -24.227  1.00  0.00     0.048 A 
ATOM      9  C   UNL     1       8.586 -61.353 -25.788  1.00  0.00    -0.003 A 
ATOM     10  C   UNL     1      10.251 -59.955 -27.046  1.00  0.00     0.054 C 
ATOM     11  C   UNL     1       7.653 -57.858 -23.550  1.00  0.00     0.027 A 
ATOM     12  C   UNL     1       7.220 -60.198 -23.965  1.00  0.00     0.024 A 
ATOM     13  C   UNL     1       8.721 -62.465 -26.796  1.00  0.00     0.039 C 
ATOM     14  C   UNL     1      10.629 -61.214 -27.821  1.00  0.00     0.007 C 
ATOM     15  C   UNL     1       6.582 -57.815 -22.653  1.00  0.00     0.002 A 
ATOM     16  C   UNL     1       6.150 -60.153 -23.060  1.00  0.00     0.012 A 
ATOM     17  C   UNL     1       9.392 -62.047 -28.105  1.00  0.00     0.005 C 
ATOM     18  C   UNL     1       5.828 -58.961 -22.411  1.00  0.00     0.001 A 
ATOM     19  H   UNL     1       9.441 -58.210 -25.406  1.00  0.00     0.166 HD
ENDBRANCH   4   5
ENDBRANCH   3   4
ENDBRANCH   2   3
ENDBRANCH   1   2
BRANCH   1  20
ATOM     20  C   UNL     1      10.222 -61.846 -22.389  1.00  0.00     0.116 C 
BRANCH  20  21
ATOM     21  N   UNL     1      10.259 -60.494 -21.863  1.00  0.00    -0.356 N 
ATOM     22  C   UNL     1      11.266 -59.625 -22.233  1.00  0.00     0.224 C 
ATOM     23  H   UNL     1       9.393 -60.111 -21.506  1.00  0.00     0.163 HD
ATOM     24  O   UNL     1      12.240 -59.967 -22.897  1.00  0.00    -0.275 OA
BRANCH  22  25
ATOM     25  C   UNL     1      11.083 -58.205 -21.700  1.00  0.00     0.136 C 
BRANCH  25  26
ATOM     26  C   UNL     1      11.356 -57.172 -22.765  1.00  0.00    -0.020 A 
ATOM     27  C   UNL     1      11.805 -57.538 -23.976  1.00  0.00     0.098 A 
ATOM     28  C   UNL     1      11.153 -55.737 -22.504  1.00  0.00     0.022 A 
ATOM     29  C   UNL     1      12.102 -56.589 -25.059  1.00  0.00     0.336 A 
ATOM     30  C   UNL     1      10.693 -55.221 -21.285  1.00  0.00     0.016 A 
ATOM     31  C   UNL     1      11.429 -54.825 -23.528  1.00  0.00     0.142 A 
ATOM     32  O   UNL     1      11.896 -55.249 -24.787  1.00  0.00    -0.423 OA
ATOM     33  C   UNL     1      10.523 -53.842 -21.111  1.00  0.00     0.047 A 
ATOM     34  C   UNL     1      11.263 -53.447 -23.371  1.00  0.00     0.094 A 
ATOM     35  C   UNL     1      10.808 -52.967 -22.152  1.00  0.00     0.119 A 
ATOM     36  O   UNL     1      12.527 -56.981 -26.140  1.00  0.00    -0.246 OA
BRANCH  35  37
ATOM     37  O   UNL     1      10.625 -51.636 -21.932  1.00  0.00    -0.508 OA
ATOM     38  H   UNL     1       9.670 -51.447 -21.931  1.00  0.00     0.293 HD
ENDBRANCH  35  37
ENDBRANCH  25  26
ENDBRANCH  22  25
ENDBRANCH  20  21
ENDBRANCH   1  20
TORSDOF 9
ENDMDL
MODEL 8
REMARK VINA RESULT:   -10.512      3.473     11.111
REMARK INTER + INTRA:         -16.691
REMARK INTER:                 -15.761
REMARK INTRA:                  -0.930
REMARK UNBOUND:                -0.956
REMARK SMILES O=C(Cc1cc(=O)oc2cc(O)ccc12)NCCCCN=c1c2c([nH]c3ccccc13)CCCC2
REMARK SMILES IDX 18 1 19 2 20 3 21 4 22 5 25 6 24 7 26 8 23 9 32 10 27 11
REMARK SMILES IDX 31 12 35 13 33 14 28 15 30 16 34 17 29 18 17 20 16 21 2 22
REMARK SMILES IDX 1 24 3 25 4 26 5 27 15 28 6 29 14 30 9 31 8 32 13 33 10 34
REMARK SMILES IDX 11 35 7 36 12 37
REMARK H PARENT 25 19 16 23 12 38
ROOT
ATOM      1  C   UNL     1      10.908 -52.822 -22.448  1.00  0.00     0.023 C 
ENDROOT
BRANCH   1   2
ATOM      2  C   UNL     1      12.028 -51.850 -22.823  1.00  0.00     0.025 C 
BRANCH   2   3
ATOM      3  C   UNL     1      12.496 -52.028 -24.270  1.00  0.00     0.143 C 
BRANCH   3   4
ATOM      4  N   UNL     1      13.051 -50.773 -24.731  1.00  0.00    -0.284 NA
BRANCH   4   5
ATOM      5  C   UNL     1      13.841 -50.014 -24.059  1.00  0.00     0.072 A 
ATOM      6  N   UNL     1      15.046 -48.342 -22.109  1.00  0.00    -0.358 N 
ATOM      7  C   UNL     1      15.701 -49.482 -22.529  1.00  0.00     0.021 A 
ATOM      8  C   UNL     1      13.961 -47.831 -22.833  1.00  0.00     0.048 A 
ATOM      9  C   UNL     1      15.208 -50.321 -23.469  1.00  0.00    -0.003 A 
ATOM     10  C   UNL     1      17.050 -49.713 -21.875  1.00  0.00     0.054 C 
ATOM     11  C   UNL     1      13.442 -46.565 -22.538  1.00  0.00     0.027 A 
ATOM     12  C   UNL     1      13.334 -48.619 -23.805  1.00  0.00     0.024 A 
ATOM     13  C   UNL     1      16.013 -51.480 -23.996  1.00  0.00     0.039 C 
ATOM     14  C   UNL     1      17.667 -51.079 -22.163  1.00  0.00     0.007 C 
ATOM     15  C   UNL     1      12.334 -46.073 -23.233  1.00  0.00     0.002 A 
ATOM     16  C   UNL     1      12.218 -48.124 -24.497  1.00  0.00     0.012 A 
ATOM     17  C   UNL     1      17.497 -51.432 -23.630  1.00  0.00     0.005 C 
ATOM     18  C   UNL     1      11.725 -46.850 -24.215  1.00  0.00     0.001 A 
ATOM     19  H   UNL     1      15.586 -47.675 -21.570  1.00  0.00     0.166 HD
ENDBRANCH   4   5
ENDBRANCH   3   4
ENDBRANCH   2   3
ENDBRANCH   1   2
BRANCH   1  20
ATOM     20  C   UNL     1      10.852 -54.001 -23.413  1.00  0.00     0.116 C 
BRANCH  20  21
ATOM     21  N   UNL     1      11.366 -55.208 -22.795  1.00  0.00    -0.356 N 
ATOM     22  C   UNL     1      10.665 -56.394 -22.882  1.00  0.00     0.224 C 
ATOM     23  H   UNL     1      12.358 -55.244 -22.601  1.00  0.00     0.163 HD
ATOM     24  O   UNL     1       9.533 -56.474 -23.350  1.00  0.00    -0.275 OA
BRANCH  22  25
ATOM     25  C   UNL     1      11.407 -57.595 -22.299  1.00  0.00     0.136 C 
BRANCH  25  26
ATOM     26  C   UNL     1      11.448 -58.749 -23.269  1.00  0.00    -0.020 A 
ATOM     27  C   UNL     1      12.019 -58.610 -24.476  1.00  0.00     0.098 A 
ATOM     28  C   UNL     1      10.854 -60.052 -22.928  1.00  0.00     0.022 A 
ATOM     29  C   UNL     1      12.089 -59.685 -25.477  1.00  0.00     0.336 A 
ATOM     30  C   UNL     1      10.225 -60.330 -21.708  1.00  0.00     0.016 A 
ATOM     31  C   UNL     1      10.917 -61.084 -23.871  1.00  0.00     0.142 A 
ATOM     32  O   UNL     1      11.528 -60.899 -25.127  1.00  0.00    -0.423 OA
ATOM     33  C   UNL     1       9.682 -61.596 -21.455  1.00  0.00     0.047 A 
ATOM     34  C   UNL     1      10.382 -62.352 -23.634  1.00  0.00     0.094 A 
ATOM     35  C   UNL     1       9.765 -62.596 -22.416  1.00  0.00     0.119 A 
ATOM     36  O   UNL     1      12.609 -59.493 -26.571  1.00  0.00    -0.246 OA
BRANCH  35  37
ATOM     37  O   UNL     1       9.223 -63.809 -22.120  1.00  0.00    -0.508 OA
ATOM     38  H   UNL     1       8.253 -63.738 -22.162  1.00  0.00     0.293 HD
ENDBRANCH  35  37
ENDBRANCH  25  26
ENDBRANCH  22  25
ENDBRANCH  20  21
ENDBRANCH   1  20
TORSDOF 9
ENDMDL
MODEL 9
REMARK VINA RESULT:   -10.467      3.263     10.973
REMARK INTER + INTRA:         -16.624
REMARK INTER:                 -15.765
REMARK INTRA:                  -0.859
REMARK UNBOUND:                -0.956
REMARK SMILES O=C(Cc1cc(=O)oc2cc(O)ccc12)NCCCCN=c1c2c([nH]c3ccccc13)CCCC2
REMARK SMILES IDX 18 1 19 2 20 3 21 4 22 5 25 6 24 7 26 8 23 9 32 10 27 11
REMARK SMILES IDX 31 12 35 13 33 14 28 15 30 16 34 17 29 18 17 20 16 21 2 22
REMARK SMILES IDX 1 24 3 25 4 26 5 27 15 28 6 29 14 30 9 31 8 32 13 33 10 34
REMARK SMILES IDX 11 35 7 36 12 37
REMARK H PARENT 25 19 16 23 12 38
ROOT
ATOM      1  C   UNL     1      11.169 -54.349 -23.557  1.00  0.00     0.023 C 
ENDROOT
BRANCH   1   2
ATOM      2  C   UNL     1      11.292 -53.371 -22.387  1.00  0.00     0.025 C 
BRANCH   2   3
ATOM      3  C   UNL     1      10.955 -51.933 -22.790  1.00  0.00     0.143 C 
BRANCH   3   4
ATOM      4  N   UNL     1      12.076 -51.085 -22.445  1.00  0.00    -0.284 NA
BRANCH   4   5
ATOM      5  C   UNL     1      12.531 -50.119 -23.161  1.00  0.00     0.072 A 
ATOM      6  N   UNL     1      13.425 -48.451 -25.275  1.00  0.00    -0.358 N 
ATOM      7  C   UNL     1      12.428 -48.007 -24.431  1.00  0.00     0.021 A 
ATOM      8  C   UNL     1      14.212 -49.558 -24.934  1.00  0.00     0.048 A 
ATOM      9  C   UNL     1      11.958 -48.729 -23.387  1.00  0.00    -0.003 A 
ATOM     10  C   UNL     1      11.908 -46.616 -24.742  1.00  0.00     0.054 C 
ATOM     11  C   UNL     1      15.358 -49.872 -25.674  1.00  0.00     0.027 A 
ATOM     12  C   UNL     1      13.812 -50.410 -23.898  1.00  0.00     0.024 A 
ATOM     13  C   UNL     1      10.964 -48.157 -22.411  1.00  0.00     0.039 C 
ATOM     14  C   UNL     1      10.658 -46.218 -23.963  1.00  0.00     0.007 C 
ATOM     15  C   UNL     1      16.120 -50.999 -25.358  1.00  0.00     0.002 A 
ATOM     16  C   UNL     1      14.575 -51.546 -23.588  1.00  0.00     0.012 A 
ATOM     17  C   UNL     1      10.790 -46.640 -22.510  1.00  0.00     0.005 C 
ATOM     18  C   UNL     1      15.731 -51.834 -24.313  1.00  0.00     0.001 A 
ATOM     19  H   UNL     1      13.852 -47.761 -25.883  1.00  0.00     0.166 HD
ENDBRANCH   4   5
ENDBRANCH   3   4
ENDBRANCH   2   3
ENDBRANCH   1   2
BRANCH   1  20
ATOM     20  C   UNL     1      10.551 -55.669 -23.113  1.00  0.00     0.116 C 
BRANCH  20  21
ATOM     21  N   UNL     1      11.373 -56.794 -23.514  1.00  0.00    -0.356 N 
ATOM     22  C   UNL     1      11.369 -57.964 -22.780  1.00  0.00     0.224 C 
ATOM     23  H   UNL     1      11.675 -56.828 -24.479  1.00  0.00     0.163 HD
ATOM     24  O   UNL     1      10.797 -58.079 -21.700  1.00  0.00    -0.275 OA
BRANCH  22  25
ATOM     25  C   UNL     1      12.181 -59.092 -23.412  1.00  0.00     0.136 C 
BRANCH  25  26
ATOM     26  C   UNL     1      11.365 -59.871 -24.414  1.00  0.00    -0.020 A 
ATOM     27  C   UNL     1      11.383 -59.544 -25.716  1.00  0.00     0.098 A 
ATOM     28  C   UNL     1      10.518 -61.000 -23.994  1.00  0.00     0.022 A 
ATOM     29  C   UNL     1      10.608 -60.250 -26.748  1.00  0.00     0.336 A 
ATOM     30  C   UNL     1      10.404 -61.442 -22.669  1.00  0.00     0.016 A 
ATOM     31  C   UNL     1       9.779 -61.681 -24.967  1.00  0.00     0.142 A 
ATOM     32  O   UNL     1       9.827 -61.308 -26.325  1.00  0.00    -0.423 OA
ATOM     33  C   UNL     1       9.577 -62.525 -22.345  1.00  0.00     0.047 A 
ATOM     34  C   UNL     1       8.951 -62.764 -24.661  1.00  0.00     0.094 A 
ATOM     35  C   UNL     1       8.859 -63.177 -23.340  1.00  0.00     0.119 A 
ATOM     36  O   UNL     1      10.652 -59.893 -27.920  1.00  0.00    -0.246 OA
BRANCH  35  37
ATOM     37  O   UNL     1       8.070 -64.225 -22.973  1.00  0.00    -0.508 OA
ATOM     38  H   UNL     1       7.837 -64.735 -23.767  1.00  0.00     0.293 HD
ENDBRANCH  35  37
ENDBRANCH  25  26
ENDBRANCH  22  25
ENDBRANCH  20  21
ENDBRANCH   1  20
TORSDOF 9
ENDMDL
