MODEL 1
REMARK VINA RESULT:   -12.180      0.000      0.000
REMARK INTER + INTRA:         -16.850
REMARK INTER:                 -16.452
REMARK INTRA:                  -0.398
REMARK UNBOUND:                -0.398
REMARK SMILES O=C1C(=NCCN=c2c3c([nH]c4cc(Cl)ccc24)CCCC3)C=C(O)c2c(O)cccc21
REMARK SMILES IDX 5 1 4 2 3 3 24 4 23 5 26 6 27 7 32 8 2 9 29 10 31 11 30 12
REMARK SMILES IDX 1 13 25 14 28 16 6 18 7 19 8 20 9 21 18 22 10 23 22 24 17 25
REMARK SMILES IDX 12 26 11 27 19 28 21 29 16 30 13 31 20 32 14 33 15 35
REMARK H PARENT 25 15 28 17 11 34
ROOT
ATOM      1  C   UNL     1       9.968 -57.783 -22.724  1.00  0.00     0.166 C 
ENDROOT
BRANCH   1   2
ATOM      2  N   UNL     1       9.873 -56.583 -23.560  1.00  0.00    -0.279 NA
BRANCH   2   3
ATOM      3  C   UNL     1      10.565 -55.535 -23.257  1.00  0.00     0.109 C 
ATOM      4  C   UNL     1      10.826 -53.707 -21.639  1.00  0.00     0.129 C 
ATOM      5  C   UNL     1      10.379 -54.934 -21.920  1.00  0.00     0.079 C 
ATOM      6  C   UNL     1      11.531 -52.867 -22.634  1.00  0.00     0.069 A 
ATOM      7  C   UNL     1      11.884 -51.522 -22.411  1.00  0.00     0.127 A 
ATOM      8  C   UNL     1      11.896 -53.426 -23.869  1.00  0.00     0.039 A 
ATOM      9  C   UNL     1      11.578 -54.840 -24.158  1.00  0.00     0.211 C 
ATOM     10  C   UNL     1      12.566 -50.769 -23.373  1.00  0.00     0.047 A 
ATOM     11  C   UNL     1      12.589 -52.679 -24.836  1.00  0.00     0.013 A 
ATOM     12  C   UNL     1      12.919 -51.351 -24.587  1.00  0.00     0.005 A 
ATOM     13  O   UNL     1      12.148 -55.431 -25.065  1.00  0.00    -0.287 OA
BRANCH   4  14
ATOM     14  O   UNL     1      10.595 -53.188 -20.379  1.00  0.00    -0.507 OA
ATOM     15  H   UNL     1       9.780 -53.603 -20.030  1.00  0.00     0.293 HD
ENDBRANCH   4  14
BRANCH   7  16
ATOM     16  O   UNL     1      11.559 -50.929 -21.214  1.00  0.00    -0.507 OA
ATOM     17  H   UNL     1      10.683 -51.251 -20.934  1.00  0.00     0.293 HD
ENDBRANCH   7  16
ENDBRANCH   2   3
ENDBRANCH   1   2
BRANCH   1  18
ATOM     18  C   UNL     1      11.378 -58.386 -22.857  1.00  0.00     0.166 C 
BRANCH  18  19
ATOM     19  N   UNL     1      11.624 -58.727 -24.251  1.00  0.00    -0.282 NA
BRANCH  19  20
ATOM     20  C   UNL     1      11.130 -59.741 -24.879  1.00  0.00     0.072 A 
ATOM     21  C   UNL     1      11.263 -59.727 -26.384  1.00  0.00    -0.003 A 
ATOM     22  C   UNL     1      10.411 -60.932 -24.308  1.00  0.00     0.024 A 
ATOM     23  C   UNL     1      10.444 -60.513 -27.111  1.00  0.00     0.021 A 
ATOM     24  C   UNL     1      12.257 -58.768 -26.989  1.00  0.00     0.039 C 
ATOM     25  C   UNL     1      10.571 -61.365 -22.985  1.00  0.00     0.014 A 
ATOM     26  C   UNL     1       9.590 -61.680 -25.175  1.00  0.00     0.049 A 
ATOM     27  N   UNL     1       9.511 -61.352 -26.537  1.00  0.00    -0.358 N 
ATOM     28  C   UNL     1      10.510 -60.526 -28.624  1.00  0.00     0.054 C 
ATOM     29  C   UNL     1      12.072 -58.566 -28.494  1.00  0.00     0.005 C 
ATOM     30  C   UNL     1       9.844 -62.456 -22.500  1.00  0.00     0.021 A 
ATOM     31  C   UNL     1       8.838 -62.753 -24.675  1.00  0.00     0.047 A 
ATOM     32  C   UNL     1      11.777 -59.886 -29.191  1.00  0.00     0.007 C 
ATOM     33  C   UNL     1       8.966 -63.131 -23.341  1.00  0.00     0.043 A 
ATOM     34  H   UNL     1       9.054 -62.017 -27.150  1.00  0.00     0.166 HD
ATOM     35  Cl  UNL     1       8.060 -64.465 -22.740  1.00  0.00    -0.084 Cl
ENDBRANCH  19  20
ENDBRANCH  18  19
ENDBRANCH   1  18
TORSDOF 7
ENDMDL
MODEL 2
REMARK VINA RESULT:   -11.959      0.991      2.059
REMARK INTER + INTRA:         -16.551
REMARK INTER:                 -15.997
REMARK INTRA:                  -0.554
REMARK UNBOUND:                -0.398
REMARK SMILES O=C1C(=NCCN=c2c3c([nH]c4cc(Cl)ccc24)CCCC3)C=C(O)c2c(O)cccc21
REMARK SMILES IDX 5 1 4 2 3 3 24 4 23 5 26 6 27 7 32 8 2 9 29 10 31 11 30 12
REMARK SMILES IDX 1 13 25 14 28 16 6 18 7 19 8 20 9 21 18 22 10 23 22 24 17 25
REMARK SMILES IDX 12 26 11 27 19 28 21 29 16 30 13 31 20 32 14 33 15 35
REMARK H PARENT 25 15 28 17 11 34
ROOT
ATOM      1  C   UNL     1      10.598 -57.794 -23.105  1.00  0.00     0.166 C 
ENDROOT
BRANCH   1   2
ATOM      2  N   UNL     1      10.849 -56.641 -22.236  1.00  0.00    -0.279 NA
BRANCH   2   3
ATOM      3  C   UNL     1      10.989 -55.466 -22.756  1.00  0.00     0.109 C 
ATOM      4  C   UNL     1      11.995 -54.201 -24.604  1.00  0.00     0.129 C 
ATOM      5  C   UNL     1      11.553 -55.364 -24.117  1.00  0.00     0.079 C 
ATOM      6  C   UNL     1      11.955 -52.943 -23.824  1.00  0.00     0.069 A 
ATOM      7  C   UNL     1      12.543 -51.739 -24.255  1.00  0.00     0.127 A 
ATOM      8  C   UNL     1      11.283 -52.920 -22.592  1.00  0.00     0.039 A 
ATOM      9  C   UNL     1      10.622 -54.144 -22.092  1.00  0.00     0.211 C 
ATOM     10  C   UNL     1      12.468 -50.567 -23.494  1.00  0.00     0.047 A 
ATOM     11  C   UNL     1      11.194 -51.746 -21.827  1.00  0.00     0.013 A 
ATOM     12  C   UNL     1      11.790 -50.573 -22.278  1.00  0.00     0.005 A 
ATOM     13  O   UNL     1       9.781 -54.077 -21.208  1.00  0.00    -0.287 OA
BRANCH   4  14
ATOM     14  O   UNL     1      12.539 -54.177 -25.874  1.00  0.00    -0.507 OA
ATOM     15  H   UNL     1      11.973 -54.728 -26.452  1.00  0.00     0.293 HD
ENDBRANCH   4  14
BRANCH   7  16
ATOM     16  O   UNL     1      13.206 -51.704 -25.459  1.00  0.00    -0.507 OA
ATOM     17  H   UNL     1      13.441 -52.615 -25.712  1.00  0.00     0.293 HD
ENDBRANCH   7  16
ENDBRANCH   2   3
ENDBRANCH   1   2
BRANCH   1  18
ATOM     18  C   UNL     1      11.652 -58.881 -22.828  1.00  0.00     0.166 C 
BRANCH  18  19
ATOM     19  N   UNL     1      12.065 -59.481 -24.088  1.00  0.00    -0.282 NA
BRANCH  19  20
ATOM     20  C   UNL     1      11.365 -60.299 -24.800  1.00  0.00     0.072 A 
ATOM     21  C   UNL     1      11.413 -60.093 -26.297  1.00  0.00    -0.003 A 
ATOM     22  C   UNL     1      10.482 -61.422 -24.333  1.00  0.00     0.024 A 
ATOM     23  C   UNL     1      10.428 -60.621 -27.052  1.00  0.00     0.021 A 
ATOM     24  C   UNL     1      12.523 -59.237 -26.850  1.00  0.00     0.039 C 
ATOM     25  C   UNL     1      10.639 -62.059 -23.095  1.00  0.00     0.014 A 
ATOM     26  C   UNL     1       9.494 -61.893 -25.221  1.00  0.00     0.049 A 
ATOM     27  N   UNL     1       9.397 -61.366 -26.518  1.00  0.00    -0.358 N 
ATOM     28  C   UNL     1      10.405 -60.430 -28.553  1.00  0.00     0.054 C 
ATOM     29  C   UNL     1      12.291 -58.796 -28.297  1.00  0.00     0.005 C 
ATOM     30  C   UNL     1       9.760 -63.072 -22.699  1.00  0.00     0.021 A 
ATOM     31  C   UNL     1       8.596 -62.885 -24.806  1.00  0.00     0.047 A 
ATOM     32  C   UNL     1      11.730 -59.936 -29.133  1.00  0.00     0.007 C 
ATOM     33  C   UNL     1       8.731 -63.465 -23.547  1.00  0.00     0.043 A 
ATOM     34  H   UNL     1       8.795 -61.852 -27.173  1.00  0.00     0.166 HD
ATOM     35  Cl  UNL     1       7.640 -64.701 -23.053  1.00  0.00    -0.084 Cl
ENDBRANCH  19  20
ENDBRANCH  18  19
ENDBRANCH   1  18
TORSDOF 7
ENDMDL
MODEL 3
REMARK VINA RESULT:   -11.777      2.008      3.782
REMARK INTER + INTRA:         -16.305
REMARK INTER:                 -15.593
REMARK INTRA:                  -0.712
REMARK UNBOUND:                -0.398
REMARK SMILES O=C1C(=NCCN=c2c3c([nH]c4cc(Cl)ccc24)CCCC3)C=C(O)c2c(O)cccc21
REMARK SMILES IDX 5 1 4 2 3 3 24 4 23 5 26 6 27 7 32 8 2 9 29 10 31 11 30 12
REMARK SMILES IDX 1 13 25 14 28 16 6 18 7 19 8 20 9 21 18 22 10 23 22 24 17 25
REMARK SMILES IDX 12 26 11 27 19 28 21 29 16 30 13 31 20 32 14 33 15 35
REMARK H PARENT 25 15 28 17 11 34
ROOT
ATOM      1  C   UNL     1      10.469 -58.560 -22.563  1.00  0.00     0.166 C 
ENDROOT
BRANCH   1   2
ATOM      2  N   UNL     1      10.251 -57.443 -23.486  1.00  0.00    -0.279 NA
BRANCH   2   3
ATOM      3  C   UNL     1      10.811 -56.302 -23.254  1.00  0.00     0.109 C 
ATOM      4  C   UNL     1      10.807 -54.332 -21.789  1.00  0.00     0.129 C 
ATOM      5  C   UNL     1      10.511 -55.620 -21.978  1.00  0.00     0.079 C 
ATOM      6  C   UNL     1      11.450 -53.500 -22.832  1.00  0.00     0.069 A 
ATOM      7  C   UNL     1      11.642 -52.110 -22.713  1.00  0.00     0.127 A 
ATOM      8  C   UNL     1      11.919 -54.110 -24.005  1.00  0.00     0.039 A 
ATOM      9  C   UNL     1      11.772 -55.570 -24.183  1.00  0.00     0.211 C 
ATOM     10  C   UNL     1      12.269 -51.363 -23.716  1.00  0.00     0.047 A 
ATOM     11  C   UNL     1      12.559 -53.370 -25.012  1.00  0.00     0.013 A 
ATOM     12  C   UNL     1      12.729 -51.997 -24.867  1.00  0.00     0.005 A 
ATOM     13  O   UNL     1      12.437 -56.163 -25.021  1.00  0.00    -0.287 OA
BRANCH   4  14
ATOM     14  O   UNL     1      10.475 -53.743 -20.584  1.00  0.00    -0.507 OA
ATOM     15  H   UNL     1      11.307 -53.544 -20.108  1.00  0.00     0.293 HD
ENDBRANCH   4  14
BRANCH   7  16
ATOM     16  O   UNL     1      11.209 -51.463 -21.579  1.00  0.00    -0.507 OA
ATOM     17  H   UNL     1      10.242 -51.358 -21.630  1.00  0.00     0.293 HD
ENDBRANCH   7  16
ENDBRANCH   2   3
ENDBRANCH   1   2
BRANCH   1  18
ATOM     18  C   UNL     1      11.744 -59.319 -22.972  1.00  0.00     0.166 C 
BRANCH  18  19
ATOM     19  N   UNL     1      11.373 -60.605 -23.546  1.00  0.00    -0.282 NA
BRANCH  19  20
ATOM     20  C   UNL     1      10.723 -60.781 -24.647  1.00  0.00     0.072 A 
ATOM     21  C   UNL     1       9.483 -61.642 -24.562  1.00  0.00    -0.003 A 
ATOM     22  C   UNL     1      11.052 -60.261 -26.019  1.00  0.00     0.024 A 
ATOM     23  C   UNL     1       9.001 -62.191 -25.695  1.00  0.00     0.021 A 
ATOM     24  C   UNL     1       8.905 -61.901 -23.194  1.00  0.00     0.039 C 
ATOM     25  C   UNL     1      11.843 -59.126 -26.241  1.00  0.00     0.014 A 
ATOM     26  C   UNL     1      10.475 -60.917 -27.125  1.00  0.00     0.049 A 
ATOM     27  N   UNL     1       9.573 -61.974 -26.931  1.00  0.00    -0.358 N 
ATOM     28  C   UNL     1       7.777 -63.082 -25.674  1.00  0.00     0.054 C 
ATOM     29  C   UNL     1       7.892 -63.048 -23.167  1.00  0.00     0.005 C 
ATOM     30  C   UNL     1      12.148 -58.714 -27.542  1.00  0.00     0.021 A 
ATOM     31  C   UNL     1      10.810 -60.519 -28.426  1.00  0.00     0.047 A 
ATOM     32  C   UNL     1       6.972 -62.993 -24.377  1.00  0.00     0.007 C 
ATOM     33  C   UNL     1      11.647 -59.424 -28.627  1.00  0.00     0.043 A 
ATOM     34  H   UNL     1       9.052 -62.295 -27.740  1.00  0.00     0.166 HD
ATOM     35  Cl  UNL     1      12.034 -58.926 -30.228  1.00  0.00    -0.084 Cl
ENDBRANCH  19  20
ENDBRANCH  18  19
ENDBRANCH   1  18
TORSDOF 7
ENDMDL
MODEL 4
REMARK VINA RESULT:   -11.232      2.159      4.283
REMARK INTER + INTRA:         -15.570
REMARK INTER:                 -15.019
REMARK INTRA:                  -0.551
REMARK UNBOUND:                -0.398
REMARK SMILES O=C1C(=NCCN=c2c3c([nH]c4cc(Cl)ccc24)CCCC3)C=C(O)c2c(O)cccc21
REMARK SMILES IDX 5 1 4 2 3 3 24 4 23 5 26 6 27 7 32 8 2 9 29 10 31 11 30 12
REMARK SMILES IDX 1 13 25 14 28 16 6 18 7 19 8 20 9 21 18 22 10 23 22 24 17 25
REMARK SMILES IDX 12 26 11 27 19 28 21 29 16 30 13 31 20 32 14 33 15 35
REMARK H PARENT 25 15 28 17 11 34
ROOT
ATOM      1  C   UNL     1      11.658 -58.291 -22.538  1.00  0.00     0.166 C 
ENDROOT
BRANCH   1   2
ATOM      2  N   UNL     1      10.883 -57.132 -22.083  1.00  0.00    -0.279 NA
BRANCH   2   3
ATOM      3  C   UNL     1      11.007 -56.000 -22.692  1.00  0.00     0.109 C 
ATOM      4  C   UNL     1      11.963 -54.877 -24.655  1.00  0.00     0.129 C 
ATOM      5  C   UNL     1      11.536 -56.000 -24.072  1.00  0.00     0.079 C 
ATOM      6  C   UNL     1      11.939 -53.564 -23.971  1.00  0.00     0.069 A 
ATOM      7  C   UNL     1      12.513 -52.394 -24.505  1.00  0.00     0.127 A 
ATOM      8  C   UNL     1      11.298 -53.449 -22.727  1.00  0.00     0.039 A 
ATOM      9  C   UNL     1      10.653 -54.632 -22.121  1.00  0.00     0.211 C 
ATOM     10  C   UNL     1      12.454 -51.169 -23.833  1.00  0.00     0.047 A 
ATOM     11  C   UNL     1      11.225 -52.220 -22.050  1.00  0.00     0.013 A 
ATOM     12  C   UNL     1      11.806 -51.084 -22.603  1.00  0.00     0.005 A 
ATOM     13  O   UNL     1       9.834 -54.500 -21.223  1.00  0.00    -0.287 OA
BRANCH   4  14
ATOM     14  O   UNL     1      12.475 -54.947 -25.936  1.00  0.00    -0.507 OA
ATOM     15  H   UNL     1      12.561 -55.893 -26.173  1.00  0.00     0.293 HD
ENDBRANCH   4  14
BRANCH   7  16
ATOM     16  O   UNL     1      13.146 -52.449 -25.725  1.00  0.00    -0.507 OA
ATOM     17  H   UNL     1      12.569 -52.918 -26.354  1.00  0.00     0.293 HD
ENDBRANCH   7  16
ENDBRANCH   2   3
ENDBRANCH   1   2
BRANCH   1  18
ATOM     18  C   UNL     1      10.862 -59.578 -22.257  1.00  0.00     0.166 C 
BRANCH  18  19
ATOM     19  N   UNL     1      11.202 -60.579 -23.258  1.00  0.00    -0.282 NA
BRANCH  19  20
ATOM     20  C   UNL     1      10.620 -60.733 -24.400  1.00  0.00     0.072 A 
ATOM     21  C   UNL     1       9.417 -61.649 -24.421  1.00  0.00    -0.003 A 
ATOM     22  C   UNL     1      10.998 -60.138 -25.728  1.00  0.00     0.024 A 
ATOM     23  C   UNL     1       9.022 -62.166 -25.602  1.00  0.00     0.021 A 
ATOM     24  C   UNL     1       8.780 -61.995 -23.100  1.00  0.00     0.039 C 
ATOM     25  C   UNL     1      11.747 -58.961 -25.857  1.00  0.00     0.014 A 
ATOM     26  C   UNL     1      10.511 -60.766 -26.892  1.00  0.00     0.049 A 
ATOM     27  N   UNL     1       9.648 -61.869 -26.794  1.00  0.00    -0.358 N 
ATOM     28  C   UNL     1       7.840 -63.109 -25.687  1.00  0.00     0.054 C 
ATOM     29  C   UNL     1       7.820 -63.184 -23.178  1.00  0.00     0.005 C 
ATOM     30  C   UNL     1      12.102 -58.478 -27.120  1.00  0.00     0.021 A 
ATOM     31  C   UNL     1      10.897 -60.296 -28.154  1.00  0.00     0.047 A 
ATOM     32  C   UNL     1       6.964 -63.114 -24.434  1.00  0.00     0.007 C 
ATOM     33  C   UNL     1      11.693 -59.159 -28.261  1.00  0.00     0.043 A 
ATOM     34  H   UNL     1       9.187 -62.175 -27.643  1.00  0.00     0.166 HD
ATOM     35  Cl  UNL     1      12.142 -58.572 -29.815  1.00  0.00    -0.084 Cl
ENDBRANCH  19  20
ENDBRANCH  18  19
ENDBRANCH   1  18
TORSDOF 7
ENDMDL
MODEL 5
REMARK VINA RESULT:   -11.169      5.086     10.591
REMARK INTER + INTRA:         -15.484
REMARK INTER:                 -14.952
REMARK INTRA:                  -0.532
REMARK UNBOUND:                -0.398
REMARK SMILES O=C1C(=NCCN=c2c3c([nH]c4cc(Cl)ccc24)CCCC3)C=C(O)c2c(O)cccc21
REMARK SMILES IDX 5 1 4 2 3 3 24 4 23 5 26 6 27 7 32 8 2 9 29 10 31 11 30 12
REMARK SMILES IDX 1 13 25 14 28 16 6 18 7 19 8 20 9 21 18 22 10 23 22 24 17 25
REMARK SMILES IDX 12 26 11 27 19 28 21 29 16 30 13 31 20 32 14 33 15 35
REMARK H PARENT 25 15 28 17 11 34
ROOT
ATOM      1  C   UNL     1      11.040 -52.275 -21.829  1.00  0.00     0.166 C 
ENDROOT
BRANCH   1   2
ATOM      2  N   UNL     1      10.417 -53.264 -22.714  1.00  0.00    -0.279 NA
BRANCH   2   3
ATOM      3  C   UNL     1      10.996 -54.403 -22.910  1.00  0.00     0.109 C 
ATOM      4  C   UNL     1      11.974 -55.886 -24.604  1.00  0.00     0.129 C 
ATOM      5  C   UNL     1      11.620 -54.655 -24.225  1.00  0.00     0.079 C 
ATOM      6  C   UNL     1      11.767 -57.075 -23.747  1.00  0.00     0.069 A 
ATOM      7  C   UNL     1      11.996 -58.396 -24.177  1.00  0.00     0.127 A 
ATOM      8  C   UNL     1      11.337 -56.901 -22.423  1.00  0.00     0.039 A 
ATOM      9  C   UNL     1      11.102 -55.539 -21.900  1.00  0.00     0.211 C 
ATOM     10  C   UNL     1      11.804 -59.492 -23.329  1.00  0.00     0.047 A 
ATOM     11  C   UNL     1      11.151 -57.995 -21.562  1.00  0.00     0.013 A 
ATOM     12  C   UNL     1      11.382 -59.288 -22.018  1.00  0.00     0.005 A 
ATOM     13  O   UNL     1      11.041 -55.339 -20.695  1.00  0.00    -0.287 OA
BRANCH   4  14
ATOM     14  O   UNL     1      12.527 -56.061 -25.858  1.00  0.00    -0.507 OA
ATOM     15  H   UNL     1      11.793 -56.176 -26.496  1.00  0.00     0.293 HD
ENDBRANCH   4  14
BRANCH   7  16
ATOM     16  O   UNL     1      12.427 -58.623 -25.463  1.00  0.00    -0.507 OA
ATOM     17  H   UNL     1      12.707 -57.774 -25.852  1.00  0.00     0.293 HD
ENDBRANCH   7  16
ENDBRANCH   2   3
ENDBRANCH   1   2
BRANCH   1  18
ATOM     18  C   UNL     1      10.650 -50.860 -22.291  1.00  0.00     0.166 C 
BRANCH  18  19
ATOM     19  N   UNL     1      11.848 -50.038 -22.382  1.00  0.00    -0.282 NA
BRANCH  19  20
ATOM     20  C   UNL     1      12.076 -49.132 -23.272  1.00  0.00     0.072 A 
ATOM     21  C   UNL     1      12.905 -49.555 -24.463  1.00  0.00    -0.003 A 
ATOM     22  C   UNL     1      11.644 -47.691 -23.269  1.00  0.00     0.024 A 
ATOM     23  C   UNL     1      13.510 -48.601 -25.199  1.00  0.00     0.021 A 
ATOM     24  C   UNL     1      13.072 -51.033 -24.708  1.00  0.00     0.039 C 
ATOM     25  C   UNL     1      10.540 -47.222 -22.546  1.00  0.00     0.014 A 
ATOM     26  C   UNL     1      12.352 -46.792 -24.092  1.00  0.00     0.049 A 
ATOM     27  N   UNL     1      13.377 -47.255 -24.930  1.00  0.00    -0.358 N 
ATOM     28  C   UNL     1      14.374 -48.961 -26.389  1.00  0.00     0.054 C 
ATOM     29  C   UNL     1      14.195 -51.366 -25.693  1.00  0.00     0.005 C 
ATOM     30  C   UNL     1      10.212 -45.863 -22.550  1.00  0.00     0.021 A 
ATOM     31  C   UNL     1      12.038 -45.426 -24.067  1.00  0.00     0.047 A 
ATOM     32  C   UNL     1      14.193 -50.402 -26.870  1.00  0.00     0.007 C 
ATOM     33  C   UNL     1      10.974 -44.970 -23.294  1.00  0.00     0.043 A 
ATOM     34  H   UNL     1      13.735 -46.611 -25.626  1.00  0.00     0.166 HD
ATOM     35  Cl  UNL     1      10.578 -43.295 -23.287  1.00  0.00    -0.084 Cl
ENDBRANCH  19  20
ENDBRANCH  18  19
ENDBRANCH   1  18
TORSDOF 7
ENDMDL
MODEL 6
REMARK VINA RESULT:   -10.875      3.901      7.942
REMARK INTER + INTRA:         -15.088
REMARK INTER:                 -14.083
REMARK INTRA:                  -1.004
REMARK UNBOUND:                -0.398
REMARK SMILES O=C1C(=NCCN=c2c3c([nH]c4cc(Cl)ccc24)CCCC3)C=C(O)c2c(O)cccc21
REMARK SMILES IDX 5 1 4 2 3 3 24 4 23 5 26 6 27 7 32 8 2 9 29 10 31 11 30 12
REMARK SMILES IDX 1 13 25 14 28 16 6 18 7 19 8 20 9 21 18 22 10 23 22 24 17 25
REMARK SMILES IDX 12 26 11 27 19 28 21 29 16 30 13 31 20 32 14 33 15 35
REMARK H PARENT 25 15 28 17 11 34
ROOT
ATOM      1  C   UNL     1      10.063 -60.270 -21.490  1.00  0.00     0.166 C 
ENDROOT
BRANCH   1   2
ATOM      2  N   UNL     1       9.075 -59.663 -22.387  1.00  0.00    -0.279 NA
BRANCH   2   3
ATOM      3  C   UNL     1       8.534 -60.374 -23.320  1.00  0.00     0.109 C 
ATOM      4  C   UNL     1       7.257 -62.417 -23.793  1.00  0.00     0.129 C 
ATOM      5  C   UNL     1       7.621 -61.467 -22.927  1.00  0.00     0.079 C 
ATOM      6  C   UNL     1       7.738 -62.447 -25.193  1.00  0.00     0.069 A 
ATOM      7  C   UNL     1       7.487 -63.510 -26.082  1.00  0.00     0.127 A 
ATOM      8  C   UNL     1       8.470 -61.357 -25.691  1.00  0.00     0.039 A 
ATOM      9  C   UNL     1       8.746 -60.197 -24.818  1.00  0.00     0.211 C 
ATOM     10  C   UNL     1       7.946 -63.491 -27.403  1.00  0.00     0.047 A 
ATOM     11  C   UNL     1       8.925 -61.326 -27.019  1.00  0.00     0.013 A 
ATOM     12  C   UNL     1       8.665 -62.394 -27.871  1.00  0.00     0.005 A 
ATOM     13  O   UNL     1       9.090 -59.127 -25.300  1.00  0.00    -0.287 OA
BRANCH   4  14
ATOM     14  O   UNL     1       6.424 -63.429 -23.356  1.00  0.00    -0.507 OA
ATOM     15  H   UNL     1       6.281 -64.043 -24.105  1.00  0.00     0.293 HD
ENDBRANCH   4  14
BRANCH   7  16
ATOM     16  O   UNL     1       6.767 -64.597 -25.647  1.00  0.00    -0.507 OA
ATOM     17  H   UNL     1       6.025 -64.281 -25.100  1.00  0.00     0.293 HD
ENDBRANCH   7  16
ENDBRANCH   2   3
ENDBRANCH   1   2
BRANCH   1  18
ATOM     18  C   UNL     1      10.971 -59.170 -20.912  1.00  0.00     0.166 C 
BRANCH  18  19
ATOM     19  N   UNL     1      11.977 -58.810 -21.900  1.00  0.00    -0.282 NA
BRANCH  19  20
ATOM     20  C   UNL     1      11.808 -57.999 -22.890  1.00  0.00     0.072 A 
ATOM     21  C   UNL     1      12.041 -58.570 -24.271  1.00  0.00    -0.003 A 
ATOM     22  C   UNL     1      11.432 -56.544 -22.850  1.00  0.00     0.024 A 
ATOM     23  C   UNL     1      12.278 -57.717 -25.288  1.00  0.00     0.021 A 
ATOM     24  C   UNL     1      12.073 -60.070 -24.411  1.00  0.00     0.039 C 
ATOM     25  C   UNL     1      10.751 -55.955 -21.777  1.00  0.00     0.014 A 
ATOM     26  C   UNL     1      11.725 -55.759 -23.984  1.00  0.00     0.049 A 
ATOM     27  N   UNL     1      12.286 -56.347 -25.128  1.00  0.00    -0.358 N 
ATOM     28  C   UNL     1      12.543 -58.226 -26.689  1.00  0.00     0.054 C 
ATOM     29  C   UNL     1      12.660 -60.546 -25.741  1.00  0.00     0.005 C 
ATOM     30  C   UNL     1      10.465 -54.587 -21.780  1.00  0.00     0.021 A 
ATOM     31  C   UNL     1      11.464 -54.382 -23.967  1.00  0.00     0.047 A 
ATOM     32  C   UNL     1      12.160 -59.692 -26.896  1.00  0.00     0.007 C 
ATOM     33  C   UNL     1      10.841 -53.804 -22.865  1.00  0.00     0.043 A 
ATOM     34  H   UNL     1      12.315 -55.787 -25.972  1.00  0.00     0.166 HD
ATOM     35  Cl  UNL     1      10.501 -52.117 -22.862  1.00  0.00    -0.084 Cl
ENDBRANCH  19  20
ENDBRANCH  18  19
ENDBRANCH   1  18
TORSDOF 7
ENDMDL
MODEL 7
REMARK VINA RESULT:   -10.213      4.554      9.879
REMARK INTER + INTRA:         -14.192
REMARK INTER:                 -13.681
REMARK INTRA:                  -0.512
REMARK UNBOUND:                -0.398
REMARK SMILES O=C1C(=NCCN=c2c3c([nH]c4cc(Cl)ccc24)CCCC3)C=C(O)c2c(O)cccc21
REMARK SMILES IDX 5 1 4 2 3 3 24 4 23 5 26 6 27 7 32 8 2 9 29 10 31 11 30 12
REMARK SMILES IDX 1 13 25 14 28 16 6 18 7 19 8 20 9 21 18 22 10 23 22 24 17 25
REMARK SMILES IDX 12 26 11 27 19 28 21 29 16 30 13 31 20 32 14 33 15 35
REMARK H PARENT 25 15 28 17 11 34
ROOT
ATOM      1  C   UNL     1      10.722 -51.932 -21.819  1.00  0.00     0.166 C 
ENDROOT
BRANCH   1   2
ATOM      2  N   UNL     1      10.248 -52.889 -22.824  1.00  0.00    -0.279 NA
BRANCH   2   3
ATOM      3  C   UNL     1      10.864 -54.014 -22.977  1.00  0.00     0.109 C 
ATOM      4  C   UNL     1      11.894 -55.525 -24.615  1.00  0.00     0.129 C 
ATOM      5  C   UNL     1      11.500 -54.294 -24.281  1.00  0.00     0.079 C 
ATOM      6  C   UNL     1      11.724 -56.689 -23.715  1.00  0.00     0.069 A 
ATOM      7  C   UNL     1      11.997 -58.017 -24.096  1.00  0.00     0.127 A 
ATOM      8  C   UNL     1      11.285 -56.480 -22.398  1.00  0.00     0.039 A 
ATOM      9  C   UNL     1      11.005 -55.108 -21.926  1.00  0.00     0.211 C 
ATOM     10  C   UNL     1      11.838 -59.087 -23.208  1.00  0.00     0.047 A 
ATOM     11  C   UNL     1      11.133 -57.547 -21.498  1.00  0.00     0.013 A 
ATOM     12  C   UNL     1      11.407 -58.849 -21.906  1.00  0.00     0.005 A 
ATOM     13  O   UNL     1      10.934 -54.867 -20.729  1.00  0.00    -0.287 OA
BRANCH   4  14
ATOM     14  O   UNL     1      12.455 -55.728 -25.861  1.00  0.00    -0.507 OA
ATOM     15  H   UNL     1      11.941 -55.204 -26.510  1.00  0.00     0.293 HD
ENDBRANCH   4  14
BRANCH   7  16
ATOM     16  O   UNL     1      12.438 -58.276 -25.372  1.00  0.00    -0.507 OA
ATOM     17  H   UNL     1      11.767 -58.813 -25.831  1.00  0.00     0.293 HD
ENDBRANCH   7  16
ENDBRANCH   2   3
ENDBRANCH   1   2
BRANCH   1  18
ATOM     18  C   UNL     1      12.134 -51.452 -22.197  1.00  0.00     0.166 C 
BRANCH  18  19
ATOM     19  N   UNL     1      12.091 -50.827 -23.512  1.00  0.00    -0.282 NA
BRANCH  19  20
ATOM     20  C   UNL     1      13.041 -50.140 -24.052  1.00  0.00     0.072 A 
ATOM     21  C   UNL     1      12.756 -48.674 -24.287  1.00  0.00    -0.003 A 
ATOM     22  C   UNL     1      14.394 -50.612 -24.505  1.00  0.00     0.024 A 
ATOM     23  C   UNL     1      13.508 -48.007 -25.185  1.00  0.00     0.021 A 
ATOM     24  C   UNL     1      11.588 -48.063 -23.556  1.00  0.00     0.039 C 
ATOM     25  C   UNL     1      15.020 -51.757 -23.993  1.00  0.00     0.014 A 
ATOM     26  C   UNL     1      15.086 -49.820 -25.442  1.00  0.00     0.049 A 
ATOM     27  N   UNL     1      14.546 -48.599 -25.875  1.00  0.00    -0.358 N 
ATOM     28  C   UNL     1      13.257 -46.545 -25.485  1.00  0.00     0.054 C 
ATOM     29  C   UNL     1      11.160 -46.704 -24.116  1.00  0.00     0.005 C 
ATOM     30  C   UNL     1      16.262 -52.169 -24.484  1.00  0.00     0.021 A 
ATOM     31  C   UNL     1      16.316 -50.255 -25.954  1.00  0.00     0.047 A 
ATOM     32  C   UNL     1      12.370 -45.847 -24.453  1.00  0.00     0.007 C 
ATOM     33  C   UNL     1      16.894 -51.428 -25.476  1.00  0.00     0.043 A 
ATOM     34  H   UNL     1      15.152 -47.985 -26.407  1.00  0.00     0.166 HD
ATOM     35  Cl  UNL     1      18.417 -51.943 -26.090  1.00  0.00    -0.084 Cl
ENDBRANCH  19  20
ENDBRANCH  18  19
ENDBRANCH   1  18
TORSDOF 7
ENDMDL
MODEL 8
REMARK VINA RESULT:   -10.141      4.452      9.136
REMARK INTER + INTRA:         -14.096
REMARK INTER:                 -13.805
REMARK INTRA:                  -0.291
REMARK UNBOUND:                -0.398
REMARK SMILES O=C1C(=NCCN=c2c3c([nH]c4cc(Cl)ccc24)CCCC3)C=C(O)c2c(O)cccc21
REMARK SMILES IDX 5 1 4 2 3 3 24 4 23 5 26 6 27 7 32 8 2 9 29 10 31 11 30 12
REMARK SMILES IDX 1 13 25 14 28 16 6 18 7 19 8 20 9 21 18 22 10 23 22 24 17 25
REMARK SMILES IDX 12 26 11 27 19 28 21 29 16 30 13 31 20 32 14 33 15 35
REMARK H PARENT 25 15 28 17 11 34
ROOT
ATOM      1  C   UNL     1      10.708 -55.605 -21.807  1.00  0.00     0.166 C 
ENDROOT
BRANCH   1   2
ATOM      2  N   UNL     1       9.608 -55.957 -22.710  1.00  0.00    -0.279 NA
BRANCH   2   3
ATOM      3  C   UNL     1       9.496 -57.170 -23.140  1.00  0.00     0.109 C 
ATOM      4  C   UNL     1       7.914 -58.984 -23.623  1.00  0.00     0.129 C 
ATOM      5  C   UNL     1       8.146 -57.680 -23.457  1.00  0.00     0.079 C 
ATOM      6  C   UNL     1       8.979 -60.006 -23.502  1.00  0.00     0.069 A 
ATOM      7  C   UNL     1       8.737 -61.393 -23.529  1.00  0.00     0.127 A 
ATOM      8  C   UNL     1      10.314 -59.593 -23.370  1.00  0.00     0.039 A 
ATOM      9  C   UNL     1      10.640 -58.152 -23.360  1.00  0.00     0.211 C 
ATOM     10  C   UNL     1       9.775 -62.325 -23.427  1.00  0.00     0.047 A 
ATOM     11  C   UNL     1      11.363 -60.523 -23.278  1.00  0.00     0.013 A 
ATOM     12  C   UNL     1      11.091 -61.886 -23.303  1.00  0.00     0.005 A 
ATOM     13  O   UNL     1      11.785 -57.774 -23.565  1.00  0.00    -0.287 OA
BRANCH   4  14
ATOM     14  O   UNL     1       6.624 -59.401 -23.890  1.00  0.00    -0.507 OA
ATOM     15  H   UNL     1       6.036 -58.622 -23.813  1.00  0.00     0.293 HD
ENDBRANCH   4  14
BRANCH   7  16
ATOM     16  O   UNL     1       7.448 -61.851 -23.665  1.00  0.00    -0.507 OA
ATOM     17  H   UNL     1       7.326 -62.171 -24.577  1.00  0.00     0.293 HD
ENDBRANCH   7  16
ENDBRANCH   2   3
ENDBRANCH   1   2
BRANCH   1  18
ATOM     18  C   UNL     1      10.621 -54.109 -21.457  1.00  0.00     0.166 C 
BRANCH  18  19
ATOM     19  N   UNL     1      10.368 -53.347 -22.672  1.00  0.00    -0.282 NA
BRANCH  19  20
ATOM     20  C   UNL     1      11.191 -52.527 -23.234  1.00  0.00     0.072 A 
ATOM     21  C   UNL     1      12.133 -53.121 -24.257  1.00  0.00    -0.003 A 
ATOM     22  C   UNL     1      11.355 -51.053 -22.987  1.00  0.00     0.024 A 
ATOM     23  C   UNL     1      13.253 -52.439 -24.573  1.00  0.00     0.021 A 
ATOM     24  C   UNL     1      11.801 -54.485 -24.804  1.00  0.00     0.039 C 
ATOM     25  C   UNL     1      10.341 -50.245 -22.459  1.00  0.00     0.014 A 
ATOM     26  C   UNL     1      12.572 -50.455 -23.373  1.00  0.00     0.049 A 
ATOM     27  N   UNL     1      13.558 -51.210 -24.026  1.00  0.00    -0.358 N 
ATOM     28  C   UNL     1      14.249 -52.991 -25.571  1.00  0.00     0.054 C 
ATOM     29  C   UNL     1      12.967 -55.148 -25.540  1.00  0.00     0.005 C 
ATOM     30  C   UNL     1      10.567 -48.887 -22.214  1.00  0.00     0.021 A 
ATOM     31  C   UNL     1      12.804 -49.101 -23.095  1.00  0.00     0.047 A 
ATOM     32  C   UNL     1      13.704 -54.144 -26.414  1.00  0.00     0.007 C 
ATOM     33  C   UNL     1      11.804 -48.327 -22.514  1.00  0.00     0.043 A 
ATOM     34  H   UNL     1      14.333 -50.704 -24.439  1.00  0.00     0.166 HD
ATOM     35  Cl  UNL     1      12.087 -46.659 -22.198  1.00  0.00    -0.084 Cl
ENDBRANCH  19  20
ENDBRANCH  18  19
ENDBRANCH   1  18
TORSDOF 7
ENDMDL
MODEL 9
REMARK VINA RESULT:   -10.036      5.442      9.192
REMARK INTER + INTRA:         -13.954
REMARK INTER:                 -13.256
REMARK INTRA:                  -0.698
REMARK UNBOUND:                -0.398
REMARK SMILES O=C1C(=NCCN=c2c3c([nH]c4cc(Cl)ccc24)CCCC3)C=C(O)c2c(O)cccc21
REMARK SMILES IDX 5 1 4 2 3 3 24 4 23 5 26 6 27 7 32 8 2 9 29 10 31 11 30 12
REMARK SMILES IDX 1 13 25 14 28 16 6 18 7 19 8 20 9 21 18 22 10 23 22 24 17 25
REMARK SMILES IDX 12 26 11 27 19 28 21 29 16 30 13 31 20 32 14 33 15 35
REMARK H PARENT 25 15 28 17 11 34
ROOT
ATOM      1  C   UNL     1      10.607 -48.298 -22.970  1.00  0.00     0.166 C 
ENDROOT
BRANCH   1   2
ATOM      2  N   UNL     1      10.311 -47.190 -22.057  1.00  0.00    -0.279 NA
BRANCH   2   3
ATOM      3  C   UNL     1      10.867 -46.039 -22.246  1.00  0.00     0.109 C 
ATOM      4  C   UNL     1      10.853 -44.012 -23.630  1.00  0.00     0.129 C 
ATOM      5  C   UNL     1      10.209 -45.084 -23.161  1.00  0.00     0.079 C 
ATOM      6  C   UNL     1      12.256 -43.704 -23.274  1.00  0.00     0.069 A 
ATOM      7  C   UNL     1      13.002 -42.665 -23.864  1.00  0.00     0.127 A 
ATOM      8  C   UNL     1      12.895 -44.464 -22.282  1.00  0.00     0.039 A 
ATOM      9  C   UNL     1      12.162 -45.554 -21.605  1.00  0.00     0.211 C 
ATOM     10  C   UNL     1      14.322 -42.398 -23.486  1.00  0.00     0.047 A 
ATOM     11  C   UNL     1      14.217 -44.196 -21.889  1.00  0.00     0.013 A 
ATOM     12  C   UNL     1      14.928 -43.165 -22.495  1.00  0.00     0.005 A 
ATOM     13  O   UNL     1      12.568 -46.010 -20.545  1.00  0.00    -0.287 OA
BRANCH   4  14
ATOM     14  O   UNL     1      10.192 -43.172 -24.507  1.00  0.00    -0.507 OA
ATOM     15  H   UNL     1       9.313 -43.562 -24.690  1.00  0.00     0.293 HD
ENDBRANCH   4  14
BRANCH   7  16
ATOM     16  O   UNL     1      12.421 -41.884 -24.835  1.00  0.00    -0.507 OA
ATOM     17  H   UNL     1      11.681 -41.391 -24.436  1.00  0.00     0.293 HD
ENDBRANCH   7  16
ENDBRANCH   2   3
ENDBRANCH   1   2
BRANCH   1  18
ATOM     18  C   UNL     1      10.282 -49.632 -22.275  1.00  0.00     0.166 C 
BRANCH  18  19
ATOM     19  N   UNL     1      11.517 -50.372 -22.058  1.00  0.00    -0.282 NA
BRANCH  19  20
ATOM     20  C   UNL     1      11.914 -51.393 -22.740  1.00  0.00     0.072 A 
ATOM     21  C   UNL     1      13.049 -51.151 -23.709  1.00  0.00    -0.003 A 
ATOM     22  C   UNL     1      11.377 -52.798 -22.717  1.00  0.00     0.024 A 
ATOM     23  C   UNL     1      13.237 -52.030 -24.714  1.00  0.00     0.021 A 
ATOM     24  C   UNL     1      13.855 -49.889 -23.539  1.00  0.00     0.039 C 
ATOM     25  C   UNL     1      10.682 -53.337 -21.627  1.00  0.00     0.014 A 
ATOM     26  C   UNL     1      11.652 -53.624 -23.825  1.00  0.00     0.049 A 
ATOM     27  N   UNL     1      12.458 -53.157 -24.875  1.00  0.00    -0.358 N 
ATOM     28  C   UNL     1      14.340 -51.831 -25.732  1.00  0.00     0.054 C 
ATOM     29  C   UNL     1      14.727 -49.554 -24.751  1.00  0.00     0.005 C 
ATOM     30  C   UNL     1      10.171 -54.637 -21.680  1.00  0.00     0.021 A 
ATOM     31  C   UNL     1      11.110 -54.915 -23.887  1.00  0.00     0.047 A 
ATOM     32  C   UNL     1      15.391 -50.803 -25.310  1.00  0.00     0.007 C 
ATOM     33  C   UNL     1      10.370 -55.412 -22.817  1.00  0.00     0.043 A 
ATOM     34  H   UNL     1      12.772 -53.838 -25.558  1.00  0.00     0.166 HD
ATOM     35  Cl  UNL     1       9.728 -57.007 -22.889  1.00  0.00    -0.084 Cl
ENDBRANCH  19  20
ENDBRANCH  18  19
ENDBRANCH   1  18
TORSDOF 7
ENDMDL
