MODEL 1
REMARK VINA RESULT:   -10.389      0.000      0.000
REMARK INTER + INTRA:         -13.279
REMARK INTER:                 -12.818
REMARK INTRA:                  -0.461
REMARK UNBOUND:                -0.461
REMARK SMILES C[N@H+]1CC[C@H](CCC[C@@H]2Cc3ccccc3C2=O)CC1
REMARK SMILES IDX 7 1 6 2 5 3 2 4 20 5 3 6 19 7 4 8 1 9 8 11 9 12 10 13 17 14
REMARK SMILES IDX 11 15 16 16 12 17 15 18 13 19 14 20 18 21
REMARK H PARENT 2 10
ROOT
ATOM      1  C   UNL     1      11.385 -57.302 -22.486  1.00  0.00     0.001 C 
ENDROOT
BRANCH   1   2
ATOM      2  C   UNL     1      11.386 -58.438 -21.458  1.00  0.00     0.004 C 
BRANCH   2   3
ATOM      3  C   UNL     1      10.749 -59.739 -21.987  1.00  0.00    -0.000 C 
ATOM      4  N   UNL     1       9.632 -61.233 -24.248  1.00  0.00    -0.337 N 
ATOM      5  C   UNL     1       8.724 -60.751 -23.147  1.00  0.00     0.262 C 
ATOM      6  C   UNL     1      11.010 -61.563 -23.735  1.00  0.00     0.262 C 
ATOM      7  C   UNL     1       9.319 -59.506 -22.508  1.00  0.00     0.065 C 
ATOM      8  C   UNL     1      11.626 -60.321 -23.107  1.00  0.00     0.065 C 
ATOM      9  C   UNL     1       9.027 -62.378 -25.009  1.00  0.00     0.332 C 
ATOM     10  H   UNL     1       9.730 -60.457 -24.918  1.00  0.00     0.347 HD
ENDBRANCH   2   3
ENDBRANCH   1   2
BRANCH   1  11
ATOM     11  C   UNL     1      11.036 -55.927 -21.900  1.00  0.00     0.012 C 
BRANCH  11  12
ATOM     12  C   UNL     1      10.489 -54.893 -22.894  1.00  0.00     0.065 C 
ATOM     13  C   UNL     1      11.353 -54.828 -24.180  1.00  0.00     0.048 C 
ATOM     14  C   UNL     1      10.521 -53.473 -22.347  1.00  0.00     0.166 C 
ATOM     15  C   UNL     1      11.947 -53.455 -24.162  1.00  0.00    -0.036 A 
ATOM     16  C   UNL     1      11.454 -52.672 -23.126  1.00  0.00     0.021 A 
ATOM     17  C   UNL     1      12.863 -52.919 -25.053  1.00  0.00     0.004 A 
ATOM     18  C   UNL     1      11.836 -51.358 -22.928  1.00  0.00     0.012 A 
ATOM     19  C   UNL     1      13.271 -51.592 -24.875  1.00  0.00     0.000 A 
ATOM     20  C   UNL     1      12.761 -50.816 -23.819  1.00  0.00     0.001 A 
ATOM     21  O   UNL     1       9.875 -53.046 -21.403  1.00  0.00    -0.294 OA
ENDBRANCH  11  12
ENDBRANCH   1  11
TORSDOF 4
ENDMDL
MODEL 2
REMARK VINA RESULT:    -9.628      2.840      8.250
REMARK INTER + INTRA:         -12.341
REMARK INTER:                 -11.843
REMARK INTRA:                  -0.498
REMARK UNBOUND:                -0.461
REMARK SMILES C[N@H+]1CC[C@H](CCC[C@@H]2Cc3ccccc3C2=O)CC1
REMARK SMILES IDX 7 1 6 2 5 3 2 4 20 5 3 6 19 7 4 8 1 9 8 11 9 12 10 13 17 14
REMARK SMILES IDX 11 15 16 16 12 17 15 18 13 19 14 20 18 21
REMARK H PARENT 2 10
ROOT
ATOM      1  C   UNL     1      11.357 -56.583 -22.562  1.00  0.00     0.001 C 
ENDROOT
BRANCH   1   2
ATOM      2  C   UNL     1      10.086 -55.768 -22.821  1.00  0.00     0.004 C 
BRANCH   2   3
ATOM      3  C   UNL     1      10.365 -54.275 -23.092  1.00  0.00    -0.000 C 
ATOM      4  N   UNL     1      12.148 -51.970 -22.776  1.00  0.00    -0.337 N 
ATOM      5  C   UNL     1      10.841 -52.014 -22.029  1.00  0.00     0.262 C 
ATOM      6  C   UNL     1      12.059 -52.676 -24.104  1.00  0.00     0.262 C 
ATOM      7  C   UNL     1      10.443 -53.461 -21.787  1.00  0.00     0.065 C 
ATOM      8  C   UNL     1      11.678 -54.132 -23.877  1.00  0.00     0.065 C 
ATOM      9  C   UNL     1      12.662 -50.566 -22.920  1.00  0.00     0.332 C 
ATOM     10  H   UNL     1      12.838 -52.476 -22.203  1.00  0.00     0.347 HD
ENDBRANCH   2   3
ENDBRANCH   1   2
BRANCH   1  11
ATOM     11  C   UNL     1      11.230 -58.070 -22.919  1.00  0.00     0.012 C 
BRANCH  11  12
ATOM     12  C   UNL     1       9.939 -58.763 -22.457  1.00  0.00     0.065 C 
ATOM     13  C   UNL     1      10.245 -60.023 -21.606  1.00  0.00     0.048 C 
ATOM     14  C   UNL     1       9.102 -59.285 -23.616  1.00  0.00     0.166 C 
ATOM     15  C   UNL     1       9.727 -61.162 -22.426  1.00  0.00    -0.036 A 
ATOM     16  C   UNL     1       9.055 -60.739 -23.565  1.00  0.00     0.021 A 
ATOM     17  C   UNL     1       9.827 -62.516 -22.148  1.00  0.00     0.004 A 
ATOM     18  C   UNL     1       8.466 -61.614 -24.460  1.00  0.00     0.012 A 
ATOM     19  C   UNL     1       9.243 -63.425 -23.038  1.00  0.00     0.000 A 
ATOM     20  C   UNL     1       8.567 -62.977 -24.187  1.00  0.00     0.001 A 
ATOM     21  O   UNL     1       8.546 -58.612 -24.469  1.00  0.00    -0.294 OA
ENDBRANCH  11  12
ENDBRANCH   1  11
TORSDOF 4
ENDMDL
MODEL 3
REMARK VINA RESULT:    -9.395      3.105      8.454
REMARK INTER + INTRA:         -12.053
REMARK INTER:                 -11.762
REMARK INTRA:                  -0.291
REMARK UNBOUND:                -0.461
REMARK SMILES C[N@H+]1CC[C@H](CCC[C@@H]2Cc3ccccc3C2=O)CC1
REMARK SMILES IDX 7 1 6 2 5 3 2 4 20 5 3 6 19 7 4 8 1 9 8 11 9 12 10 13 17 14
REMARK SMILES IDX 11 15 16 16 12 17 15 18 13 19 14 20 18 21
REMARK H PARENT 2 10
ROOT
ATOM      1  C   UNL     1      11.039 -55.782 -22.310  1.00  0.00     0.001 C 
ENDROOT
BRANCH   1   2
ATOM      2  C   UNL     1      10.993 -54.668 -23.361  1.00  0.00     0.004 C 
BRANCH   2   3
ATOM      3  C   UNL     1      11.390 -53.287 -22.801  1.00  0.00    -0.000 C 
ATOM      4  N   UNL     1      11.201 -50.368 -22.990  1.00  0.00    -0.337 N 
ATOM      5  C   UNL     1      12.496 -51.059 -23.332  1.00  0.00     0.262 C 
ATOM      6  C   UNL     1      10.439 -51.103 -21.919  1.00  0.00     0.262 C 
ATOM      7  C   UNL     1      12.205 -52.469 -23.820  1.00  0.00     0.065 C 
ATOM      8  C   UNL     1      10.124 -52.512 -22.400  1.00  0.00     0.065 C 
ATOM      9  C   UNL     1      11.416 -48.924 -22.635  1.00  0.00     0.332 C 
ATOM     10  H   UNL     1      10.623 -50.376 -23.842  1.00  0.00     0.347 HD
ENDBRANCH   2   3
ENDBRANCH   1   2
BRANCH   1  11
ATOM     11  C   UNL     1      10.432 -57.111 -22.780  1.00  0.00     0.012 C 
BRANCH  11  12
ATOM     12  C   UNL     1      11.335 -58.346 -22.646  1.00  0.00     0.065 C 
ATOM     13  C   UNL     1      11.347 -59.184 -23.951  1.00  0.00     0.048 C 
ATOM     14  C   UNL     1      10.853 -59.318 -21.579  1.00  0.00     0.166 C 
ATOM     15  C   UNL     1      10.710 -60.482 -23.568  1.00  0.00    -0.036 A 
ATOM     16  C   UNL     1      10.447 -60.567 -22.207  1.00  0.00     0.021 A 
ATOM     17  C   UNL     1      10.409 -61.551 -24.396  1.00  0.00     0.004 A 
ATOM     18  C   UNL     1       9.886 -61.686 -21.618  1.00  0.00     0.012 A 
ATOM     19  C   UNL     1       9.837 -62.695 -23.827  1.00  0.00     0.000 A 
ATOM     20  C   UNL     1       9.577 -62.763 -22.447  1.00  0.00     0.001 A 
ATOM     21  O   UNL     1      10.804 -59.109 -20.378  1.00  0.00    -0.294 OA
ENDBRANCH  11  12
ENDBRANCH   1  11
TORSDOF 4
ENDMDL
MODEL 4
REMARK VINA RESULT:    -9.353      3.083      7.582
REMARK INTER + INTRA:         -12.001
REMARK INTER:                 -11.365
REMARK INTRA:                  -0.636
REMARK UNBOUND:                -0.461
REMARK SMILES C[N@H+]1CC[C@H](CCC[C@@H]2Cc3ccccc3C2=O)CC1
REMARK SMILES IDX 7 1 6 2 5 3 2 4 20 5 3 6 19 7 4 8 1 9 8 11 9 12 10 13 17 14
REMARK SMILES IDX 11 15 16 16 12 17 15 18 13 19 14 20 18 21
REMARK H PARENT 2 10
ROOT
ATOM      1  C   UNL     1      11.285 -57.175 -22.170  1.00  0.00     0.001 C 
ENDROOT
BRANCH   1   2
ATOM      2  C   UNL     1      10.080 -56.512 -22.845  1.00  0.00     0.004 C 
BRANCH   2   3
ATOM      3  C   UNL     1      10.214 -54.980 -22.962  1.00  0.00    -0.000 C 
ATOM      4  N   UNL     1      11.853 -52.581 -22.579  1.00  0.00    -0.337 N 
ATOM      5  C   UNL     1      10.658 -52.821 -21.694  1.00  0.00     0.262 C 
ATOM      6  C   UNL     1      11.647 -53.137 -23.964  1.00  0.00     0.262 C 
ATOM      7  C   UNL     1      10.399 -54.315 -21.586  1.00  0.00     0.065 C 
ATOM      8  C   UNL     1      11.403 -54.637 -23.874  1.00  0.00     0.065 C 
ATOM      9  C   UNL     1      12.242 -51.130 -22.610  1.00  0.00     0.332 C 
ATOM     10  H   UNL     1      12.645 -53.086 -22.158  1.00  0.00     0.347 HD
ENDBRANCH   2   3
ENDBRANCH   1   2
BRANCH   1  11
ATOM     11  C   UNL     1      11.008 -58.591 -21.647  1.00  0.00     0.012 C 
BRANCH  11  12
ATOM     12  C   UNL     1      11.628 -59.739 -22.458  1.00  0.00     0.065 C 
ATOM     13  C   UNL     1      12.103 -59.256 -23.854  1.00  0.00     0.048 C 
ATOM     14  C   UNL     1      10.635 -60.851 -22.763  1.00  0.00     0.166 C 
ATOM     15  C   UNL     1      11.226 -59.987 -24.820  1.00  0.00    -0.036 A 
ATOM     16  C   UNL     1      10.401 -60.915 -24.198  1.00  0.00     0.021 A 
ATOM     17  C   UNL     1      11.191 -59.849 -26.199  1.00  0.00     0.004 A 
ATOM     18  C   UNL     1       9.524 -61.728 -24.893  1.00  0.00     0.012 A 
ATOM     19  C   UNL     1      10.310 -60.656 -26.928  1.00  0.00     0.000 A 
ATOM     20  C   UNL     1       9.482 -61.590 -26.280  1.00  0.00     0.001 A 
ATOM     21  O   UNL     1      10.102 -61.589 -21.950  1.00  0.00    -0.294 OA
ENDBRANCH  11  12
ENDBRANCH   1  11
TORSDOF 4
ENDMDL
MODEL 5
REMARK VINA RESULT:    -9.150      1.361      2.143
REMARK INTER + INTRA:         -11.751
REMARK INTER:                 -11.400
REMARK INTRA:                  -0.352
REMARK UNBOUND:                -0.461
REMARK SMILES C[N@H+]1CC[C@H](CCC[C@@H]2Cc3ccccc3C2=O)CC1
REMARK SMILES IDX 7 1 6 2 5 3 2 4 20 5 3 6 19 7 4 8 1 9 8 11 9 12 10 13 17 14
REMARK SMILES IDX 11 15 16 16 12 17 15 18 13 19 14 20 18 21
REMARK H PARENT 2 10
ROOT
ATOM      1  C   UNL     1      10.428 -55.640 -21.813  1.00  0.00     0.001 C 
ENDROOT
BRANCH   1   2
ATOM      2  C   UNL     1      11.404 -56.630 -22.458  1.00  0.00     0.004 C 
BRANCH   2   3
ATOM      3  C   UNL     1      10.771 -58.006 -22.750  1.00  0.00    -0.000 C 
ATOM      4  N   UNL     1      11.109 -60.907 -23.004  1.00  0.00    -0.337 N 
ATOM      5  C   UNL     1      10.857 -60.071 -24.232  1.00  0.00     0.262 C 
ATOM      6  C   UNL     1      10.434 -60.332 -21.786  1.00  0.00     0.262 C 
ATOM      7  C   UNL     1      11.380 -58.662 -24.003  1.00  0.00     0.065 C 
ATOM      8  C   UNL     1      10.960 -58.927 -21.533  1.00  0.00     0.065 C 
ATOM      9  C   UNL     1      10.740 -62.346 -23.223  1.00  0.00     0.332 C 
ATOM     10  H   UNL     1      12.124 -60.888 -22.832  1.00  0.00     0.347 HD
ENDBRANCH   2   3
ENDBRANCH   1   2
BRANCH   1  11
ATOM     11  C   UNL     1      10.969 -54.209 -21.705  1.00  0.00     0.012 C 
BRANCH  11  12
ATOM     12  C   UNL     1      10.636 -53.275 -22.878  1.00  0.00     0.065 C 
ATOM     13  C   UNL     1      11.903 -52.924 -23.702  1.00  0.00     0.048 C 
ATOM     14  C   UNL     1      10.096 -51.927 -22.426  1.00  0.00     0.166 C 
ATOM     15  C   UNL     1      12.083 -51.453 -23.501  1.00  0.00    -0.036 A 
ATOM     16  C   UNL     1      11.038 -50.878 -22.790  1.00  0.00     0.021 A 
ATOM     17  C   UNL     1      13.120 -50.659 -23.963  1.00  0.00     0.004 A 
ATOM     18  C   UNL     1      10.974 -49.526 -22.508  1.00  0.00     0.012 A 
ATOM     19  C   UNL     1      13.084 -49.287 -23.689  1.00  0.00     0.000 A 
ATOM     20  C   UNL     1      12.017 -48.723 -22.967  1.00  0.00     0.001 A 
ATOM     21  O   UNL     1       9.041 -51.727 -21.846  1.00  0.00    -0.294 OA
ENDBRANCH  11  12
ENDBRANCH   1  11
TORSDOF 4
ENDMDL
MODEL 6
REMARK VINA RESULT:    -8.980      3.075      8.486
REMARK INTER + INTRA:         -11.542
REMARK INTER:                 -11.105
REMARK INTRA:                  -0.436
REMARK UNBOUND:                -0.461
REMARK SMILES C[N@H+]1CC[C@H](CCC[C@@H]2Cc3ccccc3C2=O)CC1
REMARK SMILES IDX 7 1 6 2 5 3 2 4 20 5 3 6 19 7 4 8 1 9 8 11 9 12 10 13 17 14
REMARK SMILES IDX 11 15 16 16 12 17 15 18 13 19 14 20 18 21
REMARK H PARENT 2 10
ROOT
ATOM      1  C   UNL     1      11.753 -58.423 -24.037  1.00  0.00     0.001 C 
ENDROOT
BRANCH   1   2
ATOM      2  C   UNL     1      11.413 -57.811 -22.675  1.00  0.00     0.004 C 
BRANCH   2   3
ATOM      3  C   UNL     1      10.872 -56.369 -22.772  1.00  0.00    -0.000 C 
ATOM      4  N   UNL     1      11.404 -53.489 -22.660  1.00  0.00    -0.337 N 
ATOM      5  C   UNL     1      10.614 -54.149 -21.559  1.00  0.00     0.262 C 
ATOM      6  C   UNL     1      11.183 -54.162 -23.989  1.00  0.00     0.262 C 
ATOM      7  C   UNL     1      11.027 -55.608 -21.443  1.00  0.00     0.065 C 
ATOM      8  C   UNL     1      11.608 -55.620 -23.895  1.00  0.00     0.065 C 
ATOM      9  C   UNL     1      11.139 -52.012 -22.727  1.00  0.00     0.332 C 
ATOM     10  H   UNL     1      12.400 -53.597 -22.421  1.00  0.00     0.347 HD
ENDBRANCH   2   3
ENDBRANCH   1   2
BRANCH   1  11
ATOM     11  C   UNL     1      10.585 -59.165 -24.699  1.00  0.00     0.012 C 
BRANCH  11  12
ATOM     12  C   UNL     1      10.819 -60.653 -25.001  1.00  0.00     0.065 C 
ATOM     13  C   UNL     1       9.771 -61.200 -26.004  1.00  0.00     0.048 C 
ATOM     14  C   UNL     1      10.662 -61.537 -23.772  1.00  0.00     0.166 C 
ATOM     15  C   UNL     1       8.993 -62.207 -25.219  1.00  0.00    -0.036 A 
ATOM     16  C   UNL     1       9.515 -62.416 -23.949  1.00  0.00     0.021 A 
ATOM     17  C   UNL     1       7.884 -62.928 -25.634  1.00  0.00     0.004 A 
ATOM     18  C   UNL     1       8.978 -63.323 -23.054  1.00  0.00     0.012 A 
ATOM     19  C   UNL     1       7.317 -63.851 -24.747  1.00  0.00     0.000 A 
ATOM     20  C   UNL     1       7.861 -64.048 -23.465  1.00  0.00     0.001 A 
ATOM     21  O   UNL     1      11.372 -61.531 -22.780  1.00  0.00    -0.294 OA
ENDBRANCH  11  12
ENDBRANCH   1  11
TORSDOF 4
ENDMDL
MODEL 7
REMARK VINA RESULT:    -8.787      3.445      7.275
REMARK INTER + INTRA:         -11.303
REMARK INTER:                 -10.073
REMARK INTRA:                  -1.230
REMARK UNBOUND:                -0.461
REMARK SMILES C[N@H+]1CC[C@H](CCC[C@@H]2Cc3ccccc3C2=O)CC1
REMARK SMILES IDX 7 1 6 2 5 3 2 4 20 5 3 6 19 7 4 8 1 9 8 11 9 12 10 13 17 14
REMARK SMILES IDX 11 15 16 16 12 17 15 18 13 19 14 20 18 21
REMARK H PARENT 2 10
ROOT
ATOM      1  C   UNL     1       7.308 -60.633 -23.694  1.00  0.00     0.001 C 
ENDROOT
BRANCH   1   2
ATOM      2  C   UNL     1       8.160 -60.066 -22.555  1.00  0.00     0.004 C 
BRANCH   2   3
ATOM      3  C   UNL     1       9.096 -58.925 -23.004  1.00  0.00    -0.000 C 
ATOM      4  N   UNL     1      10.376 -56.359 -22.397  1.00  0.00    -0.337 N 
ATOM      5  C   UNL     1       9.284 -56.425 -23.433  1.00  0.00     0.262 C 
ATOM      6  C   UNL     1      11.181 -57.631 -22.349  1.00  0.00     0.262 C 
ATOM      7  C   UNL     1       8.351 -57.582 -23.113  1.00  0.00     0.065 C 
ATOM      8  C   UNL     1      10.264 -58.797 -22.012  1.00  0.00     0.065 C 
ATOM      9  C   UNL     1      11.248 -55.149 -22.582  1.00  0.00     0.332 C 
ATOM     10  H   UNL     1       9.915 -56.250 -21.482  1.00  0.00     0.347 HD
ENDBRANCH   2   3
ENDBRANCH   1   2
BRANCH   1  11
ATOM     11  C   UNL     1       7.347 -62.163 -23.803  1.00  0.00     0.012 C 
BRANCH  11  12
ATOM     12  C   UNL     1       8.597 -62.756 -24.469  1.00  0.00     0.065 C 
ATOM     13  C   UNL     1       9.830 -62.680 -23.531  1.00  0.00     0.048 C 
ATOM     14  C   UNL     1       9.023 -61.991 -25.714  1.00  0.00     0.166 C 
ATOM     15  C   UNL     1      10.769 -61.743 -24.224  1.00  0.00    -0.036 A 
ATOM     16  C   UNL     1      10.317 -61.366 -25.482  1.00  0.00     0.021 A 
ATOM     17  C   UNL     1      11.988 -61.274 -23.761  1.00  0.00     0.004 A 
ATOM     18  C   UNL     1      11.032 -60.528 -26.319  1.00  0.00     0.012 A 
ATOM     19  C   UNL     1      12.731 -60.421 -24.585  1.00  0.00     0.000 A 
ATOM     20  C   UNL     1      12.257 -60.050 -25.856  1.00  0.00     0.001 A 
ATOM     21  O   UNL     1       8.397 -61.900 -26.758  1.00  0.00    -0.294 OA
ENDBRANCH  11  12
ENDBRANCH   1  11
TORSDOF 4
ENDMDL
MODEL 8
REMARK VINA RESULT:    -8.768      2.173      3.821
REMARK INTER + INTRA:         -11.280
REMARK INTER:                 -10.942
REMARK INTRA:                  -0.338
REMARK UNBOUND:                -0.461
REMARK SMILES C[N@H+]1CC[C@H](CCC[C@@H]2Cc3ccccc3C2=O)CC1
REMARK SMILES IDX 7 1 6 2 5 3 2 4 20 5 3 6 19 7 4 8 1 9 8 11 9 12 10 13 17 14
REMARK SMILES IDX 11 15 16 16 12 17 15 18 13 19 14 20 18 21
REMARK H PARENT 2 10
ROOT
ATOM      1  C   UNL     1      10.996 -54.178 -22.143  1.00  0.00     0.001 C 
ENDROOT
BRANCH   1   2
ATOM      2  C   UNL     1       9.858 -55.061 -22.663  1.00  0.00     0.004 C 
BRANCH   2   3
ATOM      3  C   UNL     1      10.293 -56.515 -22.941  1.00  0.00    -0.000 C 
ATOM      4  N   UNL     1      10.210 -59.339 -22.161  1.00  0.00    -0.337 N 
ATOM      5  C   UNL     1      11.486 -58.554 -21.997  1.00  0.00     0.262 C 
ATOM      6  C   UNL     1       9.404 -58.861 -23.340  1.00  0.00     0.262 C 
ATOM      7  C   UNL     1      11.153 -57.083 -21.797  1.00  0.00     0.065 C 
ATOM      8  C   UNL     1       9.049 -57.394 -23.146  1.00  0.00     0.065 C 
ATOM      9  C   UNL     1      10.469 -60.817 -22.222  1.00  0.00     0.332 C 
ATOM     10  H   UNL     1       9.646 -59.176 -21.315  1.00  0.00     0.347 HD
ENDBRANCH   2   3
ENDBRANCH   1   2
BRANCH   1  11
ATOM     11  C   UNL     1      11.389 -53.039 -23.093  1.00  0.00     0.012 C 
BRANCH  11  12
ATOM     12  C   UNL     1      12.097 -51.840 -22.447  1.00  0.00     0.065 C 
ATOM     13  C   UNL     1      11.079 -50.782 -21.945  1.00  0.00     0.048 C 
ATOM     14  C   UNL     1      12.980 -51.077 -23.425  1.00  0.00     0.166 C 
ATOM     15  C   UNL     1      11.340 -49.580 -22.795  1.00  0.00    -0.036 A 
ATOM     16  C   UNL     1      12.441 -49.740 -23.626  1.00  0.00     0.021 A 
ATOM     17  C   UNL     1      10.642 -48.382 -22.800  1.00  0.00     0.004 A 
ATOM     18  C   UNL     1      12.889 -48.750 -24.481  1.00  0.00     0.012 A 
ATOM     19  C   UNL     1      11.071 -47.363 -23.659  1.00  0.00     0.000 A 
ATOM     20  C   UNL     1      12.188 -47.545 -24.494  1.00  0.00     0.001 A 
ATOM     21  O   UNL     1      13.988 -51.498 -23.970  1.00  0.00    -0.294 OA
ENDBRANCH  11  12
ENDBRANCH   1  11
TORSDOF 4
ENDMDL
MODEL 9
REMARK VINA RESULT:    -8.650      5.641     10.484
REMARK INTER + INTRA:         -11.134
REMARK INTER:                 -10.569
REMARK INTRA:                  -0.565
REMARK UNBOUND:                -0.461
REMARK SMILES C[N@H+]1CC[C@H](CCC[C@@H]2Cc3ccccc3C2=O)CC1
REMARK SMILES IDX 7 1 6 2 5 3 2 4 20 5 3 6 19 7 4 8 1 9 8 11 9 12 10 13 17 14
REMARK SMILES IDX 11 15 16 16 12 17 15 18 13 19 14 20 18 21
REMARK H PARENT 2 10
ROOT
ATOM      1  C   UNL     1      10.652 -48.521 -23.111  1.00  0.00     0.001 C 
ENDROOT
BRANCH   1   2
ATOM      2  C   UNL     1      10.579 -47.204 -22.331  1.00  0.00     0.004 C 
BRANCH   2   3
ATOM      3  C   UNL     1      11.445 -46.084 -22.944  1.00  0.00    -0.000 C 
ATOM      4  N   UNL     1      11.793 -44.054 -25.029  1.00  0.00    -0.337 N 
ATOM      5  C   UNL     1      12.657 -45.289 -25.034  1.00  0.00     0.262 C 
ATOM      6  C   UNL     1      11.415 -43.639 -23.631  1.00  0.00     0.262 C 
ATOM      7  C   UNL     1      11.909 -46.434 -24.370  1.00  0.00     0.065 C 
ATOM      8  C   UNL     1      10.649 -44.769 -22.959  1.00  0.00     0.065 C 
ATOM      9  C   UNL     1      12.426 -42.929 -25.797  1.00  0.00     0.332 C 
ATOM     10  H   UNL     1      10.924 -44.295 -25.526  1.00  0.00     0.347 HD
ENDBRANCH   2   3
ENDBRANCH   1   2
BRANCH   1  11
ATOM     11  C   UNL     1      10.274 -49.758 -22.287  1.00  0.00     0.012 C 
BRANCH  11  12
ATOM     12  C   UNL     1      11.394 -50.786 -22.066  1.00  0.00     0.065 C 
ATOM     13  C   UNL     1      12.502 -50.658 -23.144  1.00  0.00     0.048 C 
ATOM     14  C   UNL     1      10.910 -52.223 -22.192  1.00  0.00     0.166 C 
ATOM     15  C   UNL     1      12.434 -51.945 -23.904  1.00  0.00    -0.036 A 
ATOM     16  C   UNL     1      11.539 -52.849 -23.346  1.00  0.00     0.021 A 
ATOM     17  C   UNL     1      13.164 -52.303 -25.026  1.00  0.00     0.004 A 
ATOM     18  C   UNL     1      11.329 -54.115 -23.861  1.00  0.00     0.012 A 
ATOM     19  C   UNL     1      12.970 -53.577 -25.571  1.00  0.00     0.000 A 
ATOM     20  C   UNL     1      12.058 -54.478 -24.992  1.00  0.00     0.001 A 
ATOM     21  O   UNL     1      10.118 -52.788 -21.455  1.00  0.00    -0.294 OA
ENDBRANCH  11  12
ENDBRANCH   1  11
TORSDOF 4
ENDMDL
