MODEL 1
REMARK VINA RESULT:   -11.777      0.000      0.000
REMARK INTER + INTRA:         -17.288
REMARK INTER:                 -16.596
REMARK INTRA:                  -0.692
REMARK UNBOUND:                -0.692
REMARK SMILES O=C(NCCCCNc1c2c(nc3ccccc13)CCCC2)c1ccc(F)cc1
REMARK SMILES IDX 5 1 6 2 7 3 8 4 9 6 10 7 18 8 11 9 22 10 17 11 13 12 12 13
REMARK SMILES IDX 19 14 21 15 16 16 14 17 20 18 15 19 4 20 3 21 2 22 1 24
REMARK SMILES IDX 23 25 24 26 29 27 25 28 28 29 26 30 27 31
REMARK H PARENT 8 5 3 23
ROOT
ATOM      1  C   UNL     1      11.397 -58.353 -21.282  1.00  0.00     0.023 C 
ENDROOT
BRANCH   1   2
ATOM      2  C   UNL     1      10.621 -59.669 -21.232  1.00  0.00     0.023 C 
BRANCH   2   3
ATOM      3  C   UNL     1       9.977 -60.046 -22.567  1.00  0.00     0.113 C 
BRANCH   3   4
ATOM      4  N   UNL     1      10.746 -61.140 -23.177  1.00  0.00    -0.384 N 
ATOM      5  H   UNL     1      11.733 -60.899 -23.222  1.00  0.00     0.160 HD
BRANCH   4   6
ATOM      6  C   UNL     1      10.253 -61.468 -24.476  1.00  0.00     0.049 A 
ATOM      7  C   UNL     1      10.778 -60.845 -25.627  1.00  0.00    -0.003 A 
ATOM      8  C   UNL     1       9.144 -62.351 -24.598  1.00  0.00     0.024 A 
ATOM      9  C   UNL     1      10.146 -61.107 -26.847  1.00  0.00     0.046 A 
ATOM     10  C   UNL     1      11.933 -59.873 -25.554  1.00  0.00     0.039 C 
ATOM     11  C   UNL     1       8.575 -63.052 -23.507  1.00  0.00     0.012 A 
ATOM     12  C   UNL     1       8.604 -62.550 -25.882  1.00  0.00     0.073 A 
ATOM     13  N   UNL     1       9.088 -61.942 -26.973  1.00  0.00    -0.252 NA
ATOM     14  C   UNL     1      10.632 -60.502 -28.140  1.00  0.00     0.056 C 
ATOM     15  C   UNL     1      12.559 -59.531 -26.905  1.00  0.00     0.005 C 
ATOM     16  C   UNL     1       7.490 -63.909 -23.678  1.00  0.00     0.001 A 
ATOM     17  C   UNL     1       7.522 -63.408 -26.032  1.00  0.00     0.029 A 
ATOM     18  C   UNL     1      11.481 -59.253 -27.939  1.00  0.00     0.007 C 
ATOM     19  C   UNL     1       6.960 -64.086 -24.948  1.00  0.00     0.002 A 
ENDBRANCH   4   6
ENDBRANCH   3   4
ENDBRANCH   2   3
ENDBRANCH   1   2
BRANCH   1  20
ATOM     20  C   UNL     1      11.133 -57.540 -22.549  1.00  0.00     0.116 C 
BRANCH  20  21
ATOM     21  N   UNL     1      11.384 -56.129 -22.337  1.00  0.00    -0.352 N 
ATOM     22  C   UNL     1      10.702 -55.167 -23.056  1.00  0.00     0.251 C 
ATOM     23  H   UNL     1      12.227 -55.870 -21.844  1.00  0.00     0.163 HD
ATOM     24  O   UNL     1       9.826 -55.428 -23.872  1.00  0.00    -0.269 OA
BRANCH  22  25
ATOM     25  C   UNL     1      11.109 -53.754 -22.823  1.00  0.00     0.040 A 
ATOM     26  C   UNL     1      11.877 -53.037 -23.752  1.00  0.00     0.017 A 
ATOM     27  C   UNL     1      10.730 -53.143 -21.617  1.00  0.00     0.017 A 
ATOM     28  C   UNL     1      12.238 -51.714 -23.486  1.00  0.00     0.040 A 
ATOM     29  C   UNL     1      11.092 -51.820 -21.356  1.00  0.00     0.040 A 
ATOM     30  C   UNL     1      11.840 -51.117 -22.294  1.00  0.00     0.123 A 
ATOM     31  F   UNL     1      12.188 -49.850 -22.043  1.00  0.00    -0.207 F 
ENDBRANCH  22  25
ENDBRANCH  20  21
ENDBRANCH   1  20
TORSDOF 7
ENDMDL
MODEL 2
REMARK VINA RESULT:   -11.640      1.202      1.494
REMARK INTER + INTRA:         -17.095
REMARK INTER:                 -16.242
REMARK INTRA:                  -0.853
REMARK UNBOUND:                -0.692
REMARK SMILES O=C(NCCCCNc1c2c(nc3ccccc13)CCCC2)c1ccc(F)cc1
REMARK SMILES IDX 5 1 6 2 7 3 8 4 9 6 10 7 18 8 11 9 22 10 17 11 13 12 12 13
REMARK SMILES IDX 19 14 21 15 16 16 14 17 20 18 15 19 4 20 3 21 2 22 1 24
REMARK SMILES IDX 23 25 24 26 29 27 25 28 28 29 26 30 27 31
REMARK H PARENT 8 5 3 23
ROOT
ATOM      1  C   UNL     1      11.357 -57.950 -21.669  1.00  0.00     0.023 C 
ENDROOT
BRANCH   1   2
ATOM      2  C   UNL     1      10.911 -59.353 -21.255  1.00  0.00     0.023 C 
BRANCH   2   3
ATOM      3  C   UNL     1      10.051 -60.053 -22.308  1.00  0.00     0.113 C 
BRANCH   3   4
ATOM      4  N   UNL     1      10.846 -61.111 -22.948  1.00  0.00    -0.384 N 
ATOM      5  H   UNL     1      11.815 -60.819 -23.045  1.00  0.00     0.160 HD
BRANCH   4   6
ATOM      6  C   UNL     1      10.306 -61.477 -24.218  1.00  0.00     0.049 A 
ATOM      7  C   UNL     1      10.766 -60.864 -25.402  1.00  0.00    -0.003 A 
ATOM      8  C   UNL     1       9.217 -62.390 -24.277  1.00  0.00     0.024 A 
ATOM      9  C   UNL     1      10.090 -61.166 -26.589  1.00  0.00     0.046 A 
ATOM     10  C   UNL     1      11.898 -59.863 -25.397  1.00  0.00     0.039 C 
ATOM     11  C   UNL     1       8.713 -63.082 -23.149  1.00  0.00     0.012 A 
ATOM     12  C   UNL     1       8.628 -62.627 -25.533  1.00  0.00     0.073 A 
ATOM     13  N   UNL     1       9.049 -62.030 -26.654  1.00  0.00    -0.252 NA
ATOM     14  C   UNL     1      10.505 -60.575 -27.913  1.00  0.00     0.056 C 
ATOM     15  C   UNL     1      12.457 -59.532 -26.780  1.00  0.00     0.005 C 
ATOM     16  C   UNL     1       7.644 -63.970 -23.258  1.00  0.00     0.001 A 
ATOM     17  C   UNL     1       7.563 -63.516 -25.619  1.00  0.00     0.029 A 
ATOM     18  C   UNL     1      11.329 -59.301 -27.772  1.00  0.00     0.007 C 
ATOM     19  C   UNL     1       7.065 -64.185 -24.500  1.00  0.00     0.002 A 
ENDBRANCH   4   6
ENDBRANCH   3   4
ENDBRANCH   2   3
ENDBRANCH   1   2
BRANCH   1  20
ATOM     20  C   UNL     1      10.568 -57.388 -22.852  1.00  0.00     0.116 C 
BRANCH  20  21
ATOM     21  N   UNL     1      11.272 -56.290 -23.485  1.00  0.00    -0.352 N 
ATOM     22  C   UNL     1      11.015 -54.980 -23.133  1.00  0.00     0.251 C 
ATOM     23  H   UNL     1      11.764 -56.482 -24.346  1.00  0.00     0.163 HD
ATOM     24  O   UNL     1      10.226 -54.659 -22.252  1.00  0.00    -0.269 OA
BRANCH  22  25
ATOM     25  C   UNL     1      11.727 -53.932 -23.916  1.00  0.00     0.040 A 
ATOM     26  C   UNL     1      12.361 -54.216 -25.134  1.00  0.00     0.017 A 
ATOM     27  C   UNL     1      11.780 -52.632 -23.391  1.00  0.00     0.017 A 
ATOM     28  C   UNL     1      13.021 -53.199 -25.830  1.00  0.00     0.040 A 
ATOM     29  C   UNL     1      12.439 -51.619 -24.090  1.00  0.00     0.040 A 
ATOM     30  C   UNL     1      13.050 -51.911 -25.304  1.00  0.00     0.123 A 
ATOM     31  F   UNL     1      13.683 -50.941 -25.974  1.00  0.00    -0.207 F 
ENDBRANCH  22  25
ENDBRANCH  20  21
ENDBRANCH   1  20
TORSDOF 7
ENDMDL
MODEL 3
REMARK VINA RESULT:   -11.344      0.988      3.595
REMARK INTER + INTRA:         -16.678
REMARK INTER:                 -16.331
REMARK INTRA:                  -0.347
REMARK UNBOUND:                -0.692
REMARK SMILES O=C(NCCCCNc1c2c(nc3ccccc13)CCCC2)c1ccc(F)cc1
REMARK SMILES IDX 5 1 6 2 7 3 8 4 9 6 10 7 18 8 11 9 22 10 17 11 13 12 12 13
REMARK SMILES IDX 19 14 21 15 16 16 14 17 20 18 15 19 4 20 3 21 2 22 1 24
REMARK SMILES IDX 23 25 24 26 29 27 25 28 28 29 26 30 27 31
REMARK H PARENT 8 5 3 23
ROOT
ATOM      1  C   UNL     1      11.366 -57.674 -21.679  1.00  0.00     0.023 C 
ENDROOT
BRANCH   1   2
ATOM      2  C   UNL     1      11.347 -59.168 -22.007  1.00  0.00     0.023 C 
BRANCH   2   3
ATOM      3  C   UNL     1      12.246 -59.542 -23.186  1.00  0.00     0.113 C 
BRANCH   3   4
ATOM      4  N   UNL     1      12.109 -60.981 -23.452  1.00  0.00    -0.384 N 
ATOM      5  H   UNL     1      12.986 -61.365 -23.797  1.00  0.00     0.160 HD
BRANCH   4   6
ATOM      6  C   UNL     1      11.053 -61.245 -24.376  1.00  0.00     0.049 A 
ATOM      7  C   UNL     1       9.951 -62.044 -24.005  1.00  0.00    -0.003 A 
ATOM      8  C   UNL     1      11.168 -60.788 -25.718  1.00  0.00     0.024 A 
ATOM      9  C   UNL     1       9.032 -62.380 -25.004  1.00  0.00     0.046 A 
ATOM     10  C   UNL     1       9.793 -62.585 -22.603  1.00  0.00     0.039 C 
ATOM     11  C   UNL     1      12.215 -59.950 -26.173  1.00  0.00     0.012 A 
ATOM     12  C   UNL     1      10.170 -61.176 -26.631  1.00  0.00     0.073 A 
ATOM     13  N   UNL     1       9.136 -61.953 -26.285  1.00  0.00    -0.252 NA
ATOM     14  C   UNL     1       7.814 -63.220 -24.715  1.00  0.00     0.056 C 
ATOM     15  C   UNL     1       8.412 -63.169 -22.302  1.00  0.00     0.005 C 
ATOM     16  C   UNL     1      12.283 -59.525 -27.499  1.00  0.00     0.001 A 
ATOM     17  C   UNL     1      10.257 -60.742 -27.948  1.00  0.00     0.029 A 
ATOM     18  C   UNL     1       7.945 -64.053 -23.446  1.00  0.00     0.007 C 
ATOM     19  C   UNL     1      11.300 -59.926 -28.391  1.00  0.00     0.002 A 
ENDBRANCH   4   6
ENDBRANCH   3   4
ENDBRANCH   2   3
ENDBRANCH   1   2
BRANCH   1  20
ATOM     20  C   UNL     1      10.651 -56.815 -22.721  1.00  0.00     0.116 C 
BRANCH  20  21
ATOM     21  N   UNL     1      10.856 -55.401 -22.475  1.00  0.00    -0.352 N 
ATOM     22  C   UNL     1      11.111 -54.526 -23.512  1.00  0.00     0.251 C 
ATOM     23  H   UNL     1      11.052 -55.113 -21.527  1.00  0.00     0.163 HD
ATOM     24  O   UNL     1      11.138 -54.863 -24.690  1.00  0.00    -0.269 OA
BRANCH  22  25
ATOM     25  C   UNL     1      11.398 -53.115 -23.132  1.00  0.00     0.040 A 
ATOM     26  C   UNL     1      10.775 -52.497 -22.038  1.00  0.00     0.017 A 
ATOM     27  C   UNL     1      12.302 -52.386 -23.920  1.00  0.00     0.017 A 
ATOM     28  C   UNL     1      11.075 -51.169 -21.724  1.00  0.00     0.040 A 
ATOM     29  C   UNL     1      12.600 -51.059 -23.601  1.00  0.00     0.040 A 
ATOM     30  C   UNL     1      11.986 -50.464 -22.505  1.00  0.00     0.123 A 
ATOM     31  F   UNL     1      12.270 -49.193 -22.200  1.00  0.00    -0.207 F 
ENDBRANCH  22  25
ENDBRANCH  20  21
ENDBRANCH   1  20
TORSDOF 7
ENDMDL
MODEL 4
REMARK VINA RESULT:   -10.415      4.248     11.061
REMARK INTER + INTRA:         -15.368
REMARK INTER:                 -14.717
REMARK INTRA:                  -0.652
REMARK UNBOUND:                -0.692
REMARK SMILES O=C(NCCCCNc1c2c(nc3ccccc13)CCCC2)c1ccc(F)cc1
REMARK SMILES IDX 5 1 6 2 7 3 8 4 9 6 10 7 18 8 11 9 22 10 17 11 13 12 12 13
REMARK SMILES IDX 19 14 21 15 16 16 14 17 20 18 15 19 4 20 3 21 2 22 1 24
REMARK SMILES IDX 23 25 24 26 29 27 25 28 28 29 26 30 27 31
REMARK H PARENT 8 5 3 23
ROOT
ATOM      1  C   UNL     1       9.897 -52.904 -22.772  1.00  0.00     0.023 C 
ENDROOT
BRANCH   1   2
ATOM      2  C   UNL     1       9.823 -51.766 -21.752  1.00  0.00     0.023 C 
BRANCH   2   3
ATOM      3  C   UNL     1      10.054 -50.384 -22.366  1.00  0.00     0.113 C 
BRANCH   3   4
ATOM      4  N   UNL     1      11.393 -49.912 -21.986  1.00  0.00    -0.384 N 
ATOM      5  H   UNL     1      11.347 -49.358 -21.135  1.00  0.00     0.160 HD
BRANCH   4   6
ATOM      6  C   UNL     1      12.002 -49.162 -23.037  1.00  0.00     0.049 A 
ATOM      7  C   UNL     1      11.761 -47.778 -23.172  1.00  0.00    -0.003 A 
ATOM      8  C   UNL     1      12.772 -49.839 -24.023  1.00  0.00     0.024 A 
ATOM      9  C   UNL     1      12.272 -47.142 -24.307  1.00  0.00     0.046 A 
ATOM     10  C   UNL     1      10.924 -47.013 -22.174  1.00  0.00     0.039 C 
ATOM     11  C   UNL     1      13.099 -51.216 -23.953  1.00  0.00     0.012 A 
ATOM     12  C   UNL     1      13.248 -49.088 -25.113  1.00  0.00     0.073 A 
ATOM     13  N   UNL     1      13.001 -47.779 -25.253  1.00  0.00    -0.252 NA
ATOM     14  C   UNL     1      12.081 -45.665 -24.544  1.00  0.00     0.056 C 
ATOM     15  C   UNL     1      11.015 -45.492 -22.305  1.00  0.00     0.005 C 
ATOM     16  C   UNL     1      13.859 -51.834 -24.943  1.00  0.00     0.001 A 
ATOM     17  C   UNL     1      14.004 -49.724 -26.090  1.00  0.00     0.029 A 
ATOM     18  C   UNL     1      10.914 -45.075 -23.763  1.00  0.00     0.007 C 
ATOM     19  C   UNL     1      14.312 -51.084 -26.019  1.00  0.00     0.002 A 
ENDBRANCH   4   6
ENDBRANCH   3   4
ENDBRANCH   2   3
ENDBRANCH   1   2
BRANCH   1  20
ATOM     20  C   UNL     1      11.200 -53.699 -22.700  1.00  0.00     0.116 C 
BRANCH  20  21
ATOM     21  N   UNL     1      10.973 -55.050 -22.231  1.00  0.00    -0.352 N 
ATOM     22  C   UNL     1      11.233 -56.140 -23.038  1.00  0.00     0.251 C 
ATOM     23  H   UNL     1      10.397 -55.172 -21.409  1.00  0.00     0.163 HD
ATOM     24  O   UNL     1      11.705 -56.048 -24.166  1.00  0.00    -0.269 OA
BRANCH  22  25
ATOM     25  C   UNL     1      10.872 -57.475 -22.485  1.00  0.00     0.040 A 
ATOM     26  C   UNL     1      11.394 -57.944 -21.271  1.00  0.00     0.017 A 
ATOM     27  C   UNL     1      10.004 -58.289 -23.230  1.00  0.00     0.017 A 
ATOM     28  C   UNL     1      11.028 -59.206 -20.796  1.00  0.00     0.040 A 
ATOM     29  C   UNL     1       9.641 -59.550 -22.751  1.00  0.00     0.040 A 
ATOM     30  C   UNL     1      10.154 -59.995 -21.537  1.00  0.00     0.123 A 
ATOM     31  F   UNL     1       9.807 -61.203 -21.079  1.00  0.00    -0.207 F 
ENDBRANCH  22  25
ENDBRANCH  20  21
ENDBRANCH   1  20
TORSDOF 7
ENDMDL
MODEL 5
REMARK VINA RESULT:   -10.324      1.806      4.070
REMARK INTER + INTRA:         -15.240
REMARK INTER:                 -14.723
REMARK INTRA:                  -0.517
REMARK UNBOUND:                -0.692
REMARK SMILES O=C(NCCCCNc1c2c(nc3ccccc13)CCCC2)c1ccc(F)cc1
REMARK SMILES IDX 5 1 6 2 7 3 8 4 9 6 10 7 18 8 11 9 22 10 17 11 13 12 12 13
REMARK SMILES IDX 19 14 21 15 16 16 14 17 20 18 15 19 4 20 3 21 2 22 1 24
REMARK SMILES IDX 23 25 24 26 29 27 25 28 28 29 26 30 27 31
REMARK H PARENT 8 5 3 23
ROOT
ATOM      1  C   UNL     1      10.148 -55.919 -23.230  1.00  0.00     0.023 C 
ENDROOT
BRANCH   1   2
ATOM      2  C   UNL     1      11.428 -56.739 -23.065  1.00  0.00     0.023 C 
BRANCH   2   3
ATOM      3  C   UNL     1      12.049 -57.171 -24.395  1.00  0.00     0.113 C 
BRANCH   3   4
ATOM      4  N   UNL     1      12.549 -58.546 -24.263  1.00  0.00    -0.384 N 
ATOM      5  H   UNL     1      13.433 -58.652 -24.755  1.00  0.00     0.160 HD
BRANCH   4   6
ATOM      6  C   UNL     1      11.597 -59.499 -24.737  1.00  0.00     0.049 A 
ATOM      7  C   UNL     1      10.863 -60.297 -23.835  1.00  0.00    -0.003 A 
ATOM      8  C   UNL     1      11.470 -59.721 -26.136  1.00  0.00     0.024 A 
ATOM      9  C   UNL     1      10.060 -61.307 -24.373  1.00  0.00     0.046 A 
ATOM     10  C   UNL     1      10.982 -60.127 -22.338  1.00  0.00     0.039 C 
ATOM     11  C   UNL     1      12.136 -58.947 -27.117  1.00  0.00     0.012 A 
ATOM     12  C   UNL     1      10.617 -60.757 -26.560  1.00  0.00     0.073 A 
ATOM     13  N   UNL     1       9.936 -61.529 -25.704  1.00  0.00    -0.252 NA
ATOM     14  C   UNL     1       9.225 -62.210 -23.501  1.00  0.00     0.056 C 
ATOM     15  C   UNL     1       9.908 -60.856 -21.531  1.00  0.00     0.005 C 
ATOM     16  C   UNL     1      11.976 -59.202 -28.477  1.00  0.00     0.001 A 
ATOM     17  C   UNL     1      10.472 -60.996 -27.921  1.00  0.00     0.029 A 
ATOM     18  C   UNL     1       9.709 -62.267 -22.058  1.00  0.00     0.007 C 
ATOM     19  C   UNL     1      11.142 -60.234 -28.880  1.00  0.00     0.002 A 
ENDBRANCH   4   6
ENDBRANCH   3   4
ENDBRANCH   2   3
ENDBRANCH   1   2
BRANCH   1  20
ATOM     20  C   UNL     1       9.913 -54.924 -22.095  1.00  0.00     0.116 C 
BRANCH  20  21
ATOM     21  N   UNL     1      10.701 -53.721 -22.272  1.00  0.00    -0.352 N 
ATOM     22  C   UNL     1      10.116 -52.471 -22.218  1.00  0.00     0.251 C 
ATOM     23  H   UNL     1      11.622 -53.817 -22.675  1.00  0.00     0.163 HD
ATOM     24  O   UNL     1       8.928 -52.290 -21.979  1.00  0.00    -0.269 OA
BRANCH  22  25
ATOM     25  C   UNL     1      11.005 -51.311 -22.508  1.00  0.00     0.040 A 
ATOM     26  C   UNL     1      10.564 -49.986 -22.383  1.00  0.00     0.017 A 
ATOM     27  C   UNL     1      12.312 -51.570 -22.948  1.00  0.00     0.017 A 
ATOM     28  C   UNL     1      11.434 -48.931 -22.671  1.00  0.00     0.040 A 
ATOM     29  C   UNL     1      13.178 -50.513 -23.235  1.00  0.00     0.040 A 
ATOM     30  C   UNL     1      12.733 -49.204 -23.090  1.00  0.00     0.123 A 
ATOM     31  F   UNL     1      13.562 -48.191 -23.366  1.00  0.00    -0.207 F 
ENDBRANCH  22  25
ENDBRANCH  20  21
ENDBRANCH   1  20
TORSDOF 7
ENDMDL
MODEL 6
REMARK VINA RESULT:   -10.166      4.086     10.916
REMARK INTER + INTRA:         -15.018
REMARK INTER:                 -14.544
REMARK INTRA:                  -0.474
REMARK UNBOUND:                -0.692
REMARK SMILES O=C(NCCCCNc1c2c(nc3ccccc13)CCCC2)c1ccc(F)cc1
REMARK SMILES IDX 5 1 6 2 7 3 8 4 9 6 10 7 18 8 11 9 22 10 17 11 13 12 12 13
REMARK SMILES IDX 19 14 21 15 16 16 14 17 20 18 15 19 4 20 3 21 2 22 1 24
REMARK SMILES IDX 23 25 24 26 29 27 25 28 28 29 26 30 27 31
REMARK H PARENT 8 5 3 23
ROOT
ATOM      1  C   UNL     1      10.278 -53.802 -21.714  1.00  0.00     0.023 C 
ENDROOT
BRANCH   1   2
ATOM      2  C   UNL     1      10.971 -52.542 -21.195  1.00  0.00     0.023 C 
BRANCH   2   3
ATOM      3  C   UNL     1      10.623 -51.284 -21.994  1.00  0.00     0.113 C 
BRANCH   3   4
ATOM      4  N   UNL     1      11.664 -50.272 -21.767  1.00  0.00    -0.384 N 
ATOM      5  H   UNL     1      11.363 -49.605 -21.061  1.00  0.00     0.160 HD
BRANCH   4   6
ATOM      6  C   UNL     1      12.011 -49.596 -22.976  1.00  0.00     0.049 A 
ATOM      7  C   UNL     1      12.804 -50.229 -23.956  1.00  0.00    -0.003 A 
ATOM      8  C   UNL     1      11.645 -48.232 -23.142  1.00  0.00     0.024 A 
ATOM      9  C   UNL     1      13.225 -49.457 -25.043  1.00  0.00     0.046 A 
ATOM     10  C   UNL     1      13.250 -51.666 -23.816  1.00  0.00     0.039 C 
ATOM     11  C   UNL     1      10.821 -47.524 -22.233  1.00  0.00     0.012 A 
ATOM     12  C   UNL     1      12.115 -47.562 -24.288  1.00  0.00     0.073 A 
ATOM     13  N   UNL     1      12.886 -48.156 -25.208  1.00  0.00    -0.252 NA
ATOM     14  C   UNL     1      14.066 -50.036 -26.152  1.00  0.00     0.056 C 
ATOM     15  C   UNL     1      13.838 -52.273 -25.090  1.00  0.00     0.005 C 
ATOM     16  C   UNL     1      10.487 -46.188 -22.442  1.00  0.00     0.001 A 
ATOM     17  C   UNL     1      11.771 -46.229 -24.477  1.00  0.00     0.029 A 
ATOM     18  C   UNL     1      14.807 -51.304 -25.746  1.00  0.00     0.007 C 
ATOM     19  C   UNL     1      10.968 -45.537 -23.569  1.00  0.00     0.002 A 
ENDBRANCH   4   6
ENDBRANCH   3   4
ENDBRANCH   2   3
ENDBRANCH   1   2
BRANCH   1  20
ATOM     20  C   UNL     1      11.139 -54.614 -22.680  1.00  0.00     0.116 C 
BRANCH  20  21
ATOM     21  N   UNL     1      11.023 -56.037 -22.428  1.00  0.00    -0.352 N 
ATOM     22  C   UNL     1       9.978 -56.771 -22.953  1.00  0.00     0.251 C 
ATOM     23  H   UNL     1      11.569 -56.426 -21.673  1.00  0.00     0.163 HD
ATOM     24  O   UNL     1       9.119 -56.296 -23.687  1.00  0.00    -0.269 OA
BRANCH  22  25
ATOM     25  C   UNL     1       9.907 -58.203 -22.550  1.00  0.00     0.040 A 
ATOM     26  C   UNL     1      10.779 -58.753 -21.599  1.00  0.00     0.017 A 
ATOM     27  C   UNL     1       8.953 -59.022 -23.172  1.00  0.00     0.017 A 
ATOM     28  C   UNL     1      10.677 -60.104 -21.257  1.00  0.00     0.040 A 
ATOM     29  C   UNL     1       8.853 -60.372 -22.827  1.00  0.00     0.040 A 
ATOM     30  C   UNL     1       9.714 -60.899 -21.871  1.00  0.00     0.123 A 
ATOM     31  F   UNL     1       9.620 -62.192 -21.541  1.00  0.00    -0.207 F 
ENDBRANCH  22  25
ENDBRANCH  20  21
ENDBRANCH   1  20
TORSDOF 7
ENDMDL
MODEL 7
REMARK VINA RESULT:   -10.153      2.776      4.446
REMARK INTER + INTRA:         -14.999
REMARK INTER:                 -13.479
REMARK INTRA:                  -1.520
REMARK UNBOUND:                -0.692
REMARK SMILES O=C(NCCCCNc1c2c(nc3ccccc13)CCCC2)c1ccc(F)cc1
REMARK SMILES IDX 5 1 6 2 7 3 8 4 9 6 10 7 18 8 11 9 22 10 17 11 13 12 12 13
REMARK SMILES IDX 19 14 21 15 16 16 14 17 20 18 15 19 4 20 3 21 2 22 1 24
REMARK SMILES IDX 23 25 24 26 29 27 25 28 28 29 26 30 27 31
REMARK H PARENT 8 5 3 23
ROOT
ATOM      1  C   UNL     1      10.074 -63.136 -22.620  1.00  0.00     0.023 C 
ENDROOT
BRANCH   1   2
ATOM      2  C   UNL     1       8.608 -62.705 -22.664  1.00  0.00     0.023 C 
BRANCH   2   3
ATOM      3  C   UNL     1       7.758 -63.541 -23.622  1.00  0.00     0.113 C 
BRANCH   3   4
ATOM      4  N   UNL     1       6.811 -62.655 -24.315  1.00  0.00    -0.384 N 
ATOM      5  H   UNL     1       6.414 -63.123 -25.126  1.00  0.00     0.160 HD
BRANCH   4   6
ATOM      6  C   UNL     1       7.427 -61.426 -24.699  1.00  0.00     0.049 A 
ATOM      7  C   UNL     1       8.387 -61.391 -25.732  1.00  0.00    -0.003 A 
ATOM      8  C   UNL     1       7.150 -60.245 -23.957  1.00  0.00     0.024 A 
ATOM      9  C   UNL     1       9.053 -60.181 -25.953  1.00  0.00     0.046 A 
ATOM     10  C   UNL     1       8.747 -62.622 -26.531  1.00  0.00     0.039 C 
ATOM     11  C   UNL     1       6.176 -60.173 -22.931  1.00  0.00     0.012 A 
ATOM     12  C   UNL     1       7.872 -59.082 -24.283  1.00  0.00     0.073 A 
ATOM     13  N   UNL     1       8.799 -59.052 -25.249  1.00  0.00    -0.252 NA
ATOM     14  C   UNL     1      10.090 -60.030 -27.037  1.00  0.00     0.056 C 
ATOM     15  C   UNL     1       9.569 -62.342 -27.789  1.00  0.00     0.005 C 
ATOM     16  C   UNL     1       5.938 -58.990 -22.235  1.00  0.00     0.001 A 
ATOM     17  C   UNL     1       7.620 -57.912 -23.576  1.00  0.00     0.029 A 
ATOM     18  C   UNL     1      10.687 -61.357 -27.488  1.00  0.00     0.007 C 
ATOM     19  C   UNL     1       6.666 -57.855 -22.557  1.00  0.00     0.002 A 
ENDBRANCH   4   6
ENDBRANCH   3   4
ENDBRANCH   2   3
ENDBRANCH   1   2
BRANCH   1  20
ATOM     20  C   UNL     1      10.990 -62.261 -23.475  1.00  0.00     0.116 C 
BRANCH  20  21
ATOM     21  N   UNL     1      10.836 -60.857 -23.152  1.00  0.00    -0.352 N 
ATOM     22  C   UNL     1      11.893 -59.977 -23.269  1.00  0.00     0.251 C 
ATOM     23  H   UNL     1      10.025 -60.585 -22.613  1.00  0.00     0.163 HD
ATOM     24  O   UNL     1      13.000 -60.302 -23.685  1.00  0.00    -0.269 OA
BRANCH  22  25
ATOM     25  C   UNL     1      11.645 -58.579 -22.819  1.00  0.00     0.040 A 
ATOM     26  C   UNL     1      11.662 -57.497 -23.711  1.00  0.00     0.017 A 
ATOM     27  C   UNL     1      11.417 -58.351 -21.453  1.00  0.00     0.017 A 
ATOM     28  C   UNL     1      11.427 -56.202 -23.240  1.00  0.00     0.040 A 
ATOM     29  C   UNL     1      11.183 -57.056 -20.987  1.00  0.00     0.040 A 
ATOM     30  C   UNL     1      11.186 -55.995 -21.885  1.00  0.00     0.123 A 
ATOM     31  F   UNL     1      10.963 -54.753 -21.439  1.00  0.00    -0.207 F 
ENDBRANCH  22  25
ENDBRANCH  20  21
ENDBRANCH   1  20
TORSDOF 7
ENDMDL
MODEL 8
REMARK VINA RESULT:   -10.051      4.231     11.010
REMARK INTER + INTRA:         -14.857
REMARK INTER:                 -14.241
REMARK INTRA:                  -0.615
REMARK UNBOUND:                -0.692
REMARK SMILES O=C(NCCCCNc1c2c(nc3ccccc13)CCCC2)c1ccc(F)cc1
REMARK SMILES IDX 5 1 6 2 7 3 8 4 9 6 10 7 18 8 11 9 22 10 17 11 13 12 12 13
REMARK SMILES IDX 19 14 21 15 16 16 14 17 20 18 15 19 4 20 3 21 2 22 1 24
REMARK SMILES IDX 23 25 24 26 29 27 25 28 28 29 26 30 27 31
REMARK H PARENT 8 5 3 23
ROOT
ATOM      1  C   UNL     1      12.576 -54.484 -25.852  1.00  0.00     0.023 C 
ENDROOT
BRANCH   1   2
ATOM      2  C   UNL     1      13.809 -53.580 -25.902  1.00  0.00     0.023 C 
BRANCH   2   3
ATOM      3  C   UNL     1      13.468 -52.089 -25.926  1.00  0.00     0.113 C 
BRANCH   3   4
ATOM      4  N   UNL     1      14.091 -51.438 -24.765  1.00  0.00    -0.384 N 
ATOM      5  H   UNL     1      14.119 -52.074 -23.972  1.00  0.00     0.160 HD
BRANCH   4   6
ATOM      6  C   UNL     1      13.412 -50.232 -24.413  1.00  0.00     0.049 A 
ATOM      7  C   UNL     1      12.318 -50.252 -23.523  1.00  0.00    -0.003 A 
ATOM      8  C   UNL     1      13.774 -49.015 -25.053  1.00  0.00     0.024 A 
ATOM      9  C   UNL     1      11.613 -49.059 -23.340  1.00  0.00     0.046 A 
ATOM     10  C   UNL     1      11.868 -51.522 -22.839  1.00  0.00     0.039 C 
ATOM     11  C   UNL     1      14.879 -48.888 -25.930  1.00  0.00     0.012 A 
ATOM     12  C   UNL     1      12.999 -47.873 -24.777  1.00  0.00     0.073 A 
ATOM     13  N   UNL     1      11.947 -47.896 -23.949  1.00  0.00    -0.252 NA
ATOM     14  C   UNL     1      10.434 -48.966 -22.404  1.00  0.00     0.056 C 
ATOM     15  C   UNL     1      10.876 -51.308 -21.695  1.00  0.00     0.005 C 
ATOM     16  C   UNL     1      15.195 -47.672 -26.531  1.00  0.00     0.001 A 
ATOM     17  C   UNL     1      13.331 -46.670 -25.387  1.00  0.00     0.029 A 
ATOM     18  C   UNL     1       9.798 -50.317 -22.102  1.00  0.00     0.007 C 
ATOM     19  C   UNL     1      14.415 -46.558 -26.260  1.00  0.00     0.002 A 
ENDBRANCH   4   6
ENDBRANCH   3   4
ENDBRANCH   2   3
ENDBRANCH   1   2
BRANCH   1  20
ATOM     20  C   UNL     1      11.830 -54.419 -24.520  1.00  0.00     0.116 C 
BRANCH  20  21
ATOM     21  N   UNL     1      11.455 -55.740 -24.057  1.00  0.00    -0.352 N 
ATOM     22  C   UNL     1      10.790 -55.915 -22.860  1.00  0.00     0.251 C 
ATOM     23  H   UNL     1      11.900 -56.535 -24.494  1.00  0.00     0.163 HD
ATOM     24  O   UNL     1      10.437 -54.987 -22.141  1.00  0.00    -0.269 OA
BRANCH  22  25
ATOM     25  C   UNL     1      10.540 -57.322 -22.440  1.00  0.00     0.040 A 
ATOM     26  C   UNL     1      11.311 -57.951 -21.451  1.00  0.00     0.017 A 
ATOM     27  C   UNL     1       9.518 -58.036 -23.084  1.00  0.00     0.017 A 
ATOM     28  C   UNL     1      11.040 -59.275 -21.094  1.00  0.00     0.040 A 
ATOM     29  C   UNL     1       9.251 -59.358 -22.724  1.00  0.00     0.040 A 
ATOM     30  C   UNL     1      10.012 -59.964 -21.730  1.00  0.00     0.123 A 
ATOM     31  F   UNL     1       9.758 -61.232 -21.386  1.00  0.00    -0.207 F 
ENDBRANCH  22  25
ENDBRANCH  20  21
ENDBRANCH   1  20
TORSDOF 7
ENDMDL
MODEL 9
REMARK VINA RESULT:    -9.359      4.114     10.763
REMARK INTER + INTRA:         -13.881
REMARK INTER:                 -13.674
REMARK INTRA:                  -0.208
REMARK UNBOUND:                -0.692
REMARK SMILES O=C(NCCCCNc1c2c(nc3ccccc13)CCCC2)c1ccc(F)cc1
REMARK SMILES IDX 5 1 6 2 7 3 8 4 9 6 10 7 18 8 11 9 22 10 17 11 13 12 12 13
REMARK SMILES IDX 19 14 21 15 16 16 14 17 20 18 15 19 4 20 3 21 2 22 1 24
REMARK SMILES IDX 23 25 24 26 29 27 25 28 28 29 26 30 27 31
REMARK H PARENT 8 5 3 23
ROOT
ATOM      1  C   UNL     1      11.408 -54.290 -24.502  1.00  0.00     0.023 C 
ENDROOT
BRANCH   1   2
ATOM      2  C   UNL     1      12.297 -53.074 -24.241  1.00  0.00     0.023 C 
BRANCH   2   3
ATOM      3  C   UNL     1      11.858 -52.248 -23.031  1.00  0.00     0.113 C 
BRANCH   3   4
ATOM      4  N   UNL     1      12.993 -51.436 -22.570  1.00  0.00    -0.384 N 
ATOM      5  H   UNL     1      12.771 -50.982 -21.688  1.00  0.00     0.160 HD
BRANCH   4   6
ATOM      6  C   UNL     1      13.377 -50.468 -23.547  1.00  0.00     0.049 A 
ATOM      7  C   UNL     1      14.559 -50.630 -24.300  1.00  0.00    -0.003 A 
ATOM      8  C   UNL     1      12.615 -49.275 -23.683  1.00  0.00     0.024 A 
ATOM      9  C   UNL     1      14.945 -49.573 -25.130  1.00  0.00     0.046 A 
ATOM     10  C   UNL     1      15.425 -51.862 -24.173  1.00  0.00     0.039 C 
ATOM     11  C   UNL     1      11.397 -49.040 -23.000  1.00  0.00     0.012 A 
ATOM     12  C   UNL     1      13.096 -48.288 -24.564  1.00  0.00     0.073 A 
ATOM     13  N   UNL     1      14.229 -48.431 -25.262  1.00  0.00    -0.252 NA
ATOM     14  C   UNL     1      16.185 -49.645 -25.985  1.00  0.00     0.056 C 
ATOM     15  C   UNL     1      16.486 -52.005 -25.263  1.00  0.00     0.005 C 
ATOM     16  C   UNL     1      10.684 -47.854 -23.170  1.00  0.00     0.001 A 
ATOM     17  C   UNL     1      12.371 -47.112 -24.718  1.00  0.00     0.029 A 
ATOM     18  C   UNL     1      17.191 -50.680 -25.499  1.00  0.00     0.007 C 
ATOM     19  C   UNL     1      11.176 -46.885 -24.031  1.00  0.00     0.002 A 
ENDBRANCH   4   6
ENDBRANCH   3   4
ENDBRANCH   2   3
ENDBRANCH   1   2
BRANCH   1  20
ATOM     20  C   UNL     1      10.827 -54.901 -23.227  1.00  0.00     0.116 C 
BRANCH  20  21
ATOM     21  N   UNL     1      10.726 -56.343 -23.328  1.00  0.00    -0.352 N 
ATOM     22  C   UNL     1      11.096 -57.160 -22.278  1.00  0.00     0.251 C 
ATOM     23  H   UNL     1      10.619 -56.744 -24.249  1.00  0.00     0.163 HD
ATOM     24  O   UNL     1      11.484 -56.735 -21.195  1.00  0.00    -0.269 OA
BRANCH  22  25
ATOM     25  C   UNL     1      11.040 -58.627 -22.528  1.00  0.00     0.040 A 
ATOM     26  C   UNL     1      10.279 -59.490 -21.726  1.00  0.00     0.017 A 
ATOM     27  C   UNL     1      11.801 -59.150 -23.584  1.00  0.00     0.017 A 
ATOM     28  C   UNL     1      10.262 -60.861 -21.998  1.00  0.00     0.040 A 
ATOM     29  C   UNL     1      11.781 -60.520 -23.853  1.00  0.00     0.040 A 
ATOM     30  C   UNL     1      11.009 -61.362 -23.060  1.00  0.00     0.123 A 
ATOM     31  F   UNL     1      10.990 -62.675 -23.317  1.00  0.00    -0.207 F 
ENDBRANCH  22  25
ENDBRANCH  20  21
ENDBRANCH   1  20
TORSDOF 7
ENDMDL
