MODEL 1
REMARK VINA RESULT:    -9.662      0.000      0.000
REMARK INTER + INTRA:         -14.103
REMARK INTER:                 -13.334
REMARK INTRA:                  -0.769
REMARK UNBOUND:                -0.769
REMARK SMILES COc1cccc([C@@H]2C=C(c3cc(F)ccc3F)NN2c2ccc(S(N)(=O)=O)cc2)c1OC
REMARK SMILES IDX 21 1 22 2 23 3 24 4 29 5 30 6 20 7 19 8 10 9 9 10 8 11 11 13
REMARK SMILES IDX 12 14 17 15 13 16 16 17 15 18 18 19 14 20 7 21 6 22 31 23
REMARK SMILES IDX 5 24 3 25 4 26 32 27 33 28 2 29 1 30 25 31 27 32 28 33 26 34
REMARK H PARENT 19 12 26 35 26 36
ROOT
ATOM      1  C   UNL     1      12.136 -52.236 -23.483  1.00  0.00     0.058 A 
ATOM      2  C   UNL     1      11.507 -52.661 -22.296  1.00  0.00     0.029 A 
ATOM      3  C   UNL     1      11.022 -53.963 -22.141  1.00  0.00     0.024 A 
ATOM      4  C   UNL     1      11.164 -54.872 -23.187  1.00  0.00     0.082 A 
ATOM      5  C   UNL     1      11.806 -54.497 -24.365  1.00  0.00     0.024 A 
ATOM      6  C   UNL     1      12.285 -53.189 -24.504  1.00  0.00     0.029 A 
ENDROOT
BRANCH   1   7
ATOM      7  N   UNL     1      12.626 -50.922 -23.596  1.00  0.00    -0.276 N 
ATOM      8  N   UNL     1      11.872 -49.807 -23.242  1.00  0.00    -0.297 N 
ATOM      9  C   UNL     1      12.279 -48.695 -23.969  1.00  0.00     0.063 C 
ATOM     10  C   UNL     1      13.205 -49.056 -24.870  1.00  0.00     0.033 C 
ATOM     11  C   UNL     1      13.520 -50.536 -24.744  1.00  0.00     0.165 C 
ATOM     12  H   UNL     1      11.821 -49.619 -22.240  1.00  0.00     0.188 HD
BRANCH   9  13
ATOM     13  C   UNL     1      11.722 -47.363 -23.720  1.00  0.00     0.038 A 
ATOM     14  C   UNL     1      12.194 -46.260 -24.450  1.00  0.00     0.052 A 
ATOM     15  C   UNL     1      10.707 -47.136 -22.776  1.00  0.00     0.132 A 
ATOM     16  C   UNL     1      11.666 -44.990 -24.229  1.00  0.00     0.124 A 
ATOM     17  C   UNL     1      10.181 -45.861 -22.559  1.00  0.00     0.043 A 
ATOM     18  C   UNL     1      10.664 -44.780 -23.290  1.00  0.00     0.042 A 
ATOM     19  F   UNL     1      10.198 -48.150 -22.060  1.00  0.00    -0.206 F 
ATOM     20  F   UNL     1      12.134 -43.953 -24.934  1.00  0.00    -0.207 F 
ENDBRANCH   9  13
BRANCH  11  21
ATOM     21  C   UNL     1      14.993 -50.769 -24.452  1.00  0.00     0.026 A 
ATOM     22  C   UNL     1      15.466 -50.866 -23.133  1.00  0.00     0.010 A 
ATOM     23  C   UNL     1      15.924 -50.858 -25.508  1.00  0.00     0.166 A 
ATOM     24  C   UNL     1      16.822 -51.053 -22.873  1.00  0.00     0.004 A 
ATOM     25  C   UNL     1      17.303 -51.004 -25.250  1.00  0.00     0.161 A 
ATOM     26  C   UNL     1      17.736 -51.119 -23.925  1.00  0.00     0.050 A 
BRANCH  23  27
ATOM     27  O   UNL     1      15.414 -50.718 -26.779  1.00  0.00    -0.492 OA
ATOM     28  C   UNL     1      15.677 -49.442 -27.365  1.00  0.00     0.278 C 
ENDBRANCH  23  27
BRANCH  25  29
ATOM     29  O   UNL     1      18.143 -51.012 -26.333  1.00  0.00    -0.493 OA
ATOM     30  C   UNL     1      19.304 -51.829 -26.261  1.00  0.00     0.278 C 
ENDBRANCH  25  29
ENDBRANCH  11  21
ENDBRANCH   1   7
BRANCH   4  31
ATOM     31  S   UNL     1      10.556 -56.527 -23.011  1.00  0.00     0.238 S 
ATOM     32  O   UNL     1       9.206 -56.579 -23.521  1.00  0.00    -0.207 OA
ATOM     33  O   UNL     1      10.910 -57.010 -21.697  1.00  0.00    -0.207 OA
BRANCH  31  34
ATOM     34  N   UNL     1      11.499 -57.350 -24.137  1.00  0.00    -0.225 NA
ATOM     35  H   UNL     1      11.243 -58.332 -24.234  1.00  0.00     0.137 HD
ATOM     36  H   UNL     1      12.484 -57.237 -23.887  1.00  0.00     0.137 HD
ENDBRANCH  31  34
ENDBRANCH   4  31
TORSDOF 7
ENDMDL
MODEL 2
REMARK VINA RESULT:    -9.477      1.359      1.651
REMARK INTER + INTRA:         -13.848
REMARK INTER:                 -12.558
REMARK INTRA:                  -1.290
REMARK UNBOUND:                -0.769
REMARK SMILES COc1cccc([C@@H]2C=C(c3cc(F)ccc3F)NN2c2ccc(S(N)(=O)=O)cc2)c1OC
REMARK SMILES IDX 21 1 22 2 23 3 24 4 29 5 30 6 20 7 19 8 10 9 9 10 8 11 11 13
REMARK SMILES IDX 12 14 17 15 13 16 16 17 15 18 18 19 14 20 7 21 6 22 31 23
REMARK SMILES IDX 5 24 3 25 4 26 32 27 33 28 2 29 1 30 25 31 27 32 28 33 26 34
REMARK H PARENT 19 12 26 35 26 36
ROOT
ATOM      1  C   UNL     1      12.386 -51.501 -23.442  1.00  0.00     0.058 A 
ATOM      2  C   UNL     1      12.576 -52.467 -24.450  1.00  0.00     0.029 A 
ATOM      3  C   UNL     1      12.073 -53.767 -24.334  1.00  0.00     0.024 A 
ATOM      4  C   UNL     1      11.361 -54.122 -23.191  1.00  0.00     0.082 A 
ATOM      5  C   UNL     1      11.129 -53.186 -22.185  1.00  0.00     0.024 A 
ATOM      6  C   UNL     1      11.640 -51.890 -22.317  1.00  0.00     0.029 A 
ENDROOT
BRANCH   1   7
ATOM      7  N   UNL     1      12.892 -50.199 -23.602  1.00  0.00    -0.276 N 
ATOM      8  N   UNL     1      12.272 -49.080 -23.053  1.00  0.00    -0.297 N 
ATOM      9  C   UNL     1      12.561 -47.947 -23.803  1.00  0.00     0.063 C 
ATOM     10  C   UNL     1      13.264 -48.291 -24.893  1.00  0.00     0.033 C 
ATOM     11  C   UNL     1      13.541 -49.784 -24.896  1.00  0.00     0.165 C 
ATOM     12  H   UNL     1      12.439 -48.939 -22.056  1.00  0.00     0.188 HD
BRANCH   9  13
ATOM     13  C   UNL     1      12.121 -46.612 -23.388  1.00  0.00     0.038 A 
ATOM     14  C   UNL     1      12.875 -45.887 -22.452  1.00  0.00     0.052 A 
ATOM     15  C   UNL     1      10.963 -46.008 -23.905  1.00  0.00     0.132 A 
ATOM     16  C   UNL     1      12.471 -44.613 -22.057  1.00  0.00     0.124 A 
ATOM     17  C   UNL     1      10.563 -44.731 -23.506  1.00  0.00     0.043 A 
ATOM     18  C   UNL     1      11.323 -44.029 -22.576  1.00  0.00     0.042 A 
ATOM     19  F   UNL     1      10.210 -46.640 -24.818  1.00  0.00    -0.206 F 
ATOM     20  F   UNL     1      13.204 -43.941 -21.161  1.00  0.00    -0.207 F 
ENDBRANCH   9  13
BRANCH  11  21
ATOM     21  C   UNL     1      15.032 -50.075 -24.930  1.00  0.00     0.026 A 
ATOM     22  C   UNL     1      15.803 -50.058 -23.757  1.00  0.00     0.010 A 
ATOM     23  C   UNL     1      15.680 -50.333 -26.156  1.00  0.00     0.166 A 
ATOM     24  C   UNL     1      17.175 -50.298 -23.799  1.00  0.00     0.004 A 
ATOM     25  C   UNL     1      17.075 -50.535 -26.211  1.00  0.00     0.161 A 
ATOM     26  C   UNL     1      17.808 -50.532 -25.020  1.00  0.00     0.050 A 
BRANCH  23  27
ATOM     27  O   UNL     1      14.886 -50.300 -27.281  1.00  0.00    -0.492 OA
ATOM     28  C   UNL     1      15.054 -49.119 -28.066  1.00  0.00     0.278 C 
ENDBRANCH  23  27
BRANCH  25  29
ATOM     29  O   UNL     1      17.631 -50.711 -27.452  1.00  0.00    -0.493 OA
ATOM     30  C   UNL     1      18.946 -50.212 -27.662  1.00  0.00     0.278 C 
ENDBRANCH  25  29
ENDBRANCH  11  21
ENDBRANCH   1   7
BRANCH   4  31
ATOM     31  S   UNL     1      10.715 -55.764 -23.024  1.00  0.00     0.238 S 
ATOM     32  O   UNL     1       9.389 -55.798 -23.595  1.00  0.00    -0.207 OA
ATOM     33  O   UNL     1      10.999 -56.236 -21.690  1.00  0.00    -0.207 OA
BRANCH  31  34
ATOM     34  N   UNL     1      11.694 -56.617 -24.096  1.00  0.00    -0.225 NA
ATOM     35  H   UNL     1      11.445 -56.466 -25.074  1.00  0.00     0.137 HD
ATOM     36  H   UNL     1      11.670 -57.608 -23.846  1.00  0.00     0.137 HD
ENDBRANCH  31  34
ENDBRANCH   4  31
TORSDOF 7
ENDMDL
MODEL 3
REMARK VINA RESULT:    -9.414      5.255      8.374
REMARK INTER + INTRA:         -13.760
REMARK INTER:                 -12.316
REMARK INTRA:                  -1.444
REMARK UNBOUND:                -0.769
REMARK SMILES COc1cccc([C@@H]2C=C(c3cc(F)ccc3F)NN2c2ccc(S(N)(=O)=O)cc2)c1OC
REMARK SMILES IDX 21 1 22 2 23 3 24 4 29 5 30 6 20 7 19 8 10 9 9 10 8 11 11 13
REMARK SMILES IDX 12 14 17 15 13 16 16 17 15 18 18 19 14 20 7 21 6 22 31 23
REMARK SMILES IDX 5 24 3 25 4 26 32 27 33 28 2 29 1 30 25 31 27 32 28 33 26 34
REMARK H PARENT 19 12 26 35 26 36
ROOT
ATOM      1  C   UNL     1      14.239 -47.661 -20.833  1.00  0.00     0.058 A 
ATOM      2  C   UNL     1      14.003 -46.863 -19.696  1.00  0.00     0.029 A 
ATOM      3  C   UNL     1      15.050 -46.354 -18.921  1.00  0.00     0.024 A 
ATOM      4  C   UNL     1      16.365 -46.639 -19.277  1.00  0.00     0.082 A 
ATOM      5  C   UNL     1      16.638 -47.402 -20.411  1.00  0.00     0.024 A 
ATOM      6  C   UNL     1      15.579 -47.904 -21.177  1.00  0.00     0.029 A 
ENDROOT
BRANCH   1   7
ATOM      7  N   UNL     1      13.162 -48.141 -21.600  1.00  0.00    -0.276 N 
ATOM      8  N   UNL     1      12.656 -49.429 -21.457  1.00  0.00    -0.297 N 
ATOM      9  C   UNL     1      12.073 -49.857 -22.644  1.00  0.00     0.063 C 
ATOM     10  C   UNL     1      12.269 -48.938 -23.602  1.00  0.00     0.033 C 
ATOM     11  C   UNL     1      13.009 -47.737 -23.042  1.00  0.00     0.165 C 
ATOM     12  H   UNL     1      12.043 -49.567 -20.652  1.00  0.00     0.188 HD
BRANCH   9  13
ATOM     13  C   UNL     1      11.369 -51.139 -22.743  1.00  0.00     0.038 A 
ATOM     14  C   UNL     1      11.990 -52.230 -23.372  1.00  0.00     0.052 A 
ATOM     15  C   UNL     1      10.083 -51.333 -22.213  1.00  0.00     0.132 A 
ATOM     16  C   UNL     1      11.335 -53.456 -23.463  1.00  0.00     0.124 A 
ATOM     17  C   UNL     1       9.431 -52.564 -22.307  1.00  0.00     0.043 A 
ATOM     18  C   UNL     1      10.061 -53.633 -22.937  1.00  0.00     0.042 A 
ATOM     19  F   UNL     1       9.444 -50.336 -21.582  1.00  0.00    -0.206 F 
ATOM     20  F   UNL     1      11.943 -54.482 -24.071  1.00  0.00    -0.207 F 
ENDBRANCH   9  13
BRANCH  11  21
ATOM     21  C   UNL     1      12.209 -46.457 -23.217  1.00  0.00     0.026 A 
ATOM     22  C   UNL     1      11.007 -46.251 -22.519  1.00  0.00     0.010 A 
ATOM     23  C   UNL     1      12.642 -45.462 -24.117  1.00  0.00     0.166 A 
ATOM     24  C   UNL     1      10.264 -45.088 -22.705  1.00  0.00     0.004 A 
ATOM     25  C   UNL     1      11.873 -44.301 -24.341  1.00  0.00     0.161 A 
ATOM     26  C   UNL     1      10.692 -44.119 -23.614  1.00  0.00     0.050 A 
BRANCH  23  27
ATOM     27  O   UNL     1      13.805 -45.731 -24.804  1.00  0.00    -0.492 OA
ATOM     28  C   UNL     1      14.985 -45.309 -24.119  1.00  0.00     0.278 C 
ENDBRANCH  23  27
BRANCH  25  29
ATOM     29  O   UNL     1      12.335 -43.420 -25.284  1.00  0.00    -0.493 OA
ATOM     30  C   UNL     1      11.595 -42.222 -25.486  1.00  0.00     0.278 C 
ENDBRANCH  25  29
ENDBRANCH  11  21
ENDBRANCH   1   7
BRANCH   4  31
ATOM     31  S   UNL     1      17.704 -46.004 -18.307  1.00  0.00     0.238 S 
ATOM     32  O   UNL     1      18.079 -44.710 -18.829  1.00  0.00    -0.207 OA
ATOM     33  O   UNL     1      18.662 -47.063 -18.096  1.00  0.00    -0.207 OA
BRANCH  31  34
ATOM     34  N   UNL     1      16.937 -45.698 -16.840  1.00  0.00    -0.225 NA
ATOM     35  H   UNL     1      16.032 -46.160 -16.756  1.00  0.00     0.137 HD
ATOM     36  H   UNL     1      16.861 -44.687 -16.713  1.00  0.00     0.137 HD
ENDBRANCH  31  34
ENDBRANCH   4  31
TORSDOF 7
ENDMDL
MODEL 4
REMARK VINA RESULT:    -9.133      4.388      7.443
REMARK INTER + INTRA:         -13.373
REMARK INTER:                 -11.925
REMARK INTRA:                  -1.448
REMARK UNBOUND:                -0.769
REMARK SMILES COc1cccc([C@@H]2C=C(c3cc(F)ccc3F)NN2c2ccc(S(N)(=O)=O)cc2)c1OC
REMARK SMILES IDX 21 1 22 2 23 3 24 4 29 5 30 6 20 7 19 8 10 9 9 10 8 11 11 13
REMARK SMILES IDX 12 14 17 15 13 16 16 17 15 18 18 19 14 20 7 21 6 22 31 23
REMARK SMILES IDX 5 24 3 25 4 26 32 27 33 28 2 29 1 30 25 31 27 32 28 33 26 34
REMARK H PARENT 19 12 26 35 26 36
ROOT
ATOM      1  C   UNL     1      12.438 -47.741 -23.655  1.00  0.00     0.058 A 
ATOM      2  C   UNL     1      11.317 -47.121 -24.243  1.00  0.00     0.029 A 
ATOM      3  C   UNL     1      11.036 -45.765 -24.049  1.00  0.00     0.024 A 
ATOM      4  C   UNL     1      11.885 -45.000 -23.254  1.00  0.00     0.082 A 
ATOM      5  C   UNL     1      13.018 -45.571 -22.679  1.00  0.00     0.024 A 
ATOM      6  C   UNL     1      13.285 -46.930 -22.882  1.00  0.00     0.029 A 
ENDROOT
BRANCH   1   7
ATOM      7  N   UNL     1      12.699 -49.104 -23.887  1.00  0.00    -0.276 N 
ATOM      8  N   UNL     1      11.840 -50.114 -23.464  1.00  0.00    -0.297 N 
ATOM      9  C   UNL     1      12.543 -51.294 -23.255  1.00  0.00     0.063 C 
ATOM     10  C   UNL     1      13.857 -51.074 -23.420  1.00  0.00     0.033 C 
ATOM     11  C   UNL     1      14.107 -49.633 -23.829  1.00  0.00     0.165 C 
ATOM     12  H   UNL     1      11.015 -50.253 -24.048  1.00  0.00     0.188 HD
BRANCH   9  13
ATOM     13  C   UNL     1      11.867 -52.546 -22.905  1.00  0.00     0.038 A 
ATOM     14  C   UNL     1      11.334 -52.717 -21.618  1.00  0.00     0.052 A 
ATOM     15  C   UNL     1      11.712 -53.598 -23.823  1.00  0.00     0.132 A 
ATOM     16  C   UNL     1      10.681 -53.899 -21.277  1.00  0.00     0.124 A 
ATOM     17  C   UNL     1      11.056 -54.781 -23.476  1.00  0.00     0.043 A 
ATOM     18  C   UNL     1      10.537 -54.933 -22.194  1.00  0.00     0.042 A 
ATOM     19  F   UNL     1      12.180 -53.490 -25.075  1.00  0.00    -0.206 F 
ATOM     20  F   UNL     1      10.184 -54.042 -20.042  1.00  0.00    -0.207 F 
ENDBRANCH   9  13
BRANCH  11  21
ATOM     21  C   UNL     1      14.827 -49.549 -25.164  1.00  0.00     0.026 A 
ATOM     22  C   UNL     1      14.126 -49.657 -26.376  1.00  0.00     0.010 A 
ATOM     23  C   UNL     1      16.228 -49.396 -25.210  1.00  0.00     0.166 A 
ATOM     24  C   UNL     1      14.796 -49.607 -27.596  1.00  0.00     0.004 A 
ATOM     25  C   UNL     1      16.917 -49.387 -26.441  1.00  0.00     0.161 A 
ATOM     26  C   UNL     1      16.184 -49.475 -27.628  1.00  0.00     0.050 A 
BRANCH  23  27
ATOM     27  O   UNL     1      16.872 -49.334 -23.994  1.00  0.00    -0.492 OA
ATOM     28  C   UNL     1      17.121 -48.002 -23.545  1.00  0.00     0.278 C 
ENDBRANCH  23  27
BRANCH  25  29
ATOM     29  O   UNL     1      18.284 -49.303 -26.389  1.00  0.00    -0.493 OA
ATOM     30  C   UNL     1      19.028 -50.076 -27.321  1.00  0.00     0.278 C 
ENDBRANCH  25  29
ENDBRANCH  11  21
ENDBRANCH   1   7
BRANCH   4  31
ATOM     31  S   UNL     1      11.545 -43.280 -22.995  1.00  0.00     0.238 S 
ATOM     32  O   UNL     1      12.022 -42.539 -24.140  1.00  0.00    -0.207 OA
ATOM     33  O   UNL     1      11.909 -42.938 -21.641  1.00  0.00    -0.207 OA
BRANCH  31  34
ATOM     34  N   UNL     1       9.865 -43.252 -23.104  1.00  0.00    -0.225 NA
ATOM     35  H   UNL     1       9.461 -44.165 -23.309  1.00  0.00     0.137 HD
ATOM     36  H   UNL     1       9.592 -42.551 -23.796  1.00  0.00     0.137 HD
ENDBRANCH  31  34
ENDBRANCH   4  31
TORSDOF 7
ENDMDL
MODEL 5
REMARK VINA RESULT:    -9.056      3.308      6.101
REMARK INTER + INTRA:         -13.266
REMARK INTER:                 -11.956
REMARK INTRA:                  -1.310
REMARK UNBOUND:                -0.769
REMARK SMILES COc1cccc([C@@H]2C=C(c3cc(F)ccc3F)NN2c2ccc(S(N)(=O)=O)cc2)c1OC
REMARK SMILES IDX 21 1 22 2 23 3 24 4 29 5 30 6 20 7 19 8 10 9 9 10 8 11 11 13
REMARK SMILES IDX 12 14 17 15 13 16 16 17 15 18 18 19 14 20 7 21 6 22 31 23
REMARK SMILES IDX 5 24 3 25 4 26 32 27 33 28 2 29 1 30 25 31 27 32 28 33 26 34
REMARK H PARENT 19 12 26 35 26 36
ROOT
ATOM      1  C   UNL     1      12.447 -50.869 -23.829  1.00  0.00     0.058 A 
ATOM      2  C   UNL     1      12.433 -52.208 -24.268  1.00  0.00     0.029 A 
ATOM      3  C   UNL     1      11.816 -53.222 -23.530  1.00  0.00     0.024 A 
ATOM      4  C   UNL     1      11.194 -52.906 -22.324  1.00  0.00     0.082 A 
ATOM      5  C   UNL     1      11.164 -51.589 -21.871  1.00  0.00     0.024 A 
ATOM      6  C   UNL     1      11.787 -50.585 -22.622  1.00  0.00     0.029 A 
ENDROOT
BRANCH   1   7
ATOM      7  N   UNL     1      13.063 -49.872 -24.607  1.00  0.00    -0.276 N 
ATOM      8  N   UNL     1      13.732 -50.154 -25.795  1.00  0.00    -0.297 N 
ATOM      9  C   UNL     1      14.715 -49.203 -26.037  1.00  0.00     0.063 C 
ATOM     10  C   UNL     1      14.795 -48.359 -24.997  1.00  0.00     0.033 C 
ATOM     11  C   UNL     1      13.752 -48.706 -23.950  1.00  0.00     0.165 C 
ATOM     12  H   UNL     1      13.129 -50.305 -26.605  1.00  0.00     0.188 HD
BRANCH   9  13
ATOM     13  C   UNL     1      15.501 -49.201 -27.274  1.00  0.00     0.038 A 
ATOM     14  C   UNL     1      14.903 -48.807 -28.481  1.00  0.00     0.052 A 
ATOM     15  C   UNL     1      16.856 -49.568 -27.304  1.00  0.00     0.132 A 
ATOM     16  C   UNL     1      15.642 -48.792 -29.662  1.00  0.00     0.124 A 
ATOM     17  C   UNL     1      17.593 -49.550 -28.490  1.00  0.00     0.043 A 
ATOM     18  C   UNL     1      16.982 -49.160 -29.678  1.00  0.00     0.042 A 
ATOM     19  F   UNL     1      17.492 -49.934 -26.181  1.00  0.00    -0.206 F 
ATOM     20  F   UNL     1      15.050 -48.417 -30.803  1.00  0.00    -0.207 F 
ENDBRANCH   9  13
BRANCH  11  21
ATOM     21  C   UNL     1      12.816 -47.538 -23.686  1.00  0.00     0.026 A 
ATOM     22  C   UNL     1      11.685 -47.317 -24.490  1.00  0.00     0.010 A 
ATOM     23  C   UNL     1      13.088 -46.628 -22.645  1.00  0.00     0.166 A 
ATOM     24  C   UNL     1      10.847 -46.228 -24.260  1.00  0.00     0.004 A 
ATOM     25  C   UNL     1      12.267 -45.500 -22.433  1.00  0.00     0.161 A 
ATOM     26  C   UNL     1      11.138 -45.323 -23.239  1.00  0.00     0.050 A 
BRANCH  23  27
ATOM     27  O   UNL     1      14.229 -46.868 -21.912  1.00  0.00    -0.492 OA
ATOM     28  C   UNL     1      13.982 -47.510 -20.661  1.00  0.00     0.278 C 
ENDBRANCH  23  27
BRANCH  25  29
ATOM     29  O   UNL     1      12.644 -44.631 -21.442  1.00  0.00    -0.493 OA
ATOM     30  C   UNL     1      13.090 -43.339 -21.833  1.00  0.00     0.278 C 
ENDBRANCH  25  29
ENDBRANCH  11  21
ENDBRANCH   1   7
BRANCH   4  31
ATOM     31  S   UNL     1      10.407 -54.177 -21.374  1.00  0.00     0.238 S 
ATOM     32  O   UNL     1       9.012 -54.233 -21.744  1.00  0.00    -0.207 OA
ATOM     33  O   UNL     1      10.843 -54.062 -20.002  1.00  0.00    -0.207 OA
BRANCH  31  34
ATOM     34  N   UNL     1      11.107 -55.563 -22.026  1.00  0.00    -0.225 NA
ATOM     35  H   UNL     1      10.955 -55.654 -23.030  1.00  0.00     0.137 HD
ATOM     36  H   UNL     1      10.762 -56.377 -21.514  1.00  0.00     0.137 HD
ENDBRANCH  31  34
ENDBRANCH   4  31
TORSDOF 7
ENDMDL
MODEL 6
REMARK VINA RESULT:    -9.009      3.255      5.702
REMARK INTER + INTRA:         -13.202
REMARK INTER:                 -11.989
REMARK INTRA:                  -1.213
REMARK UNBOUND:                -0.769
REMARK SMILES COc1cccc([C@@H]2C=C(c3cc(F)ccc3F)NN2c2ccc(S(N)(=O)=O)cc2)c1OC
REMARK SMILES IDX 21 1 22 2 23 3 24 4 29 5 30 6 20 7 19 8 10 9 9 10 8 11 11 13
REMARK SMILES IDX 12 14 17 15 13 16 16 17 15 18 18 19 14 20 7 21 6 22 31 23
REMARK SMILES IDX 5 24 3 25 4 26 32 27 33 28 2 29 1 30 25 31 27 32 28 33 26 34
REMARK H PARENT 19 12 26 35 26 36
ROOT
ATOM      1  C   UNL     1      13.046 -51.720 -25.123  1.00  0.00     0.058 A 
ATOM      2  C   UNL     1      12.343 -51.627 -23.905  1.00  0.00     0.029 A 
ATOM      3  C   UNL     1      11.703 -52.732 -23.336  1.00  0.00     0.024 A 
ATOM      4  C   UNL     1      11.758 -53.963 -23.985  1.00  0.00     0.082 A 
ATOM      5  C   UNL     1      12.467 -54.099 -25.176  1.00  0.00     0.024 A 
ATOM      6  C   UNL     1      13.103 -52.984 -25.734  1.00  0.00     0.029 A 
ENDROOT
BRANCH   1   7
ATOM      7  N   UNL     1      13.693 -50.591 -25.657  1.00  0.00    -0.276 N 
ATOM      8  N   UNL     1      14.139 -50.535 -26.974  1.00  0.00    -0.297 N 
ATOM      9  C   UNL     1      15.212 -49.660 -27.088  1.00  0.00     0.063 C 
ATOM     10  C   UNL     1      15.564 -49.214 -25.872  1.00  0.00     0.033 C 
ATOM     11  C   UNL     1      14.636 -49.778 -24.811  1.00  0.00     0.165 C 
ATOM     12  H   UNL     1      13.413 -50.352 -27.669  1.00  0.00     0.188 HD
BRANCH   9  13
ATOM     13  C   UNL     1      15.809 -49.333 -28.385  1.00  0.00     0.038 A 
ATOM     14  C   UNL     1      15.053 -48.647 -29.349  1.00  0.00     0.052 A 
ATOM     15  C   UNL     1      17.134 -49.668 -28.709  1.00  0.00     0.132 A 
ATOM     16  C   UNL     1      15.613 -48.322 -30.583  1.00  0.00     0.124 A 
ATOM     17  C   UNL     1      17.690 -49.339 -29.947  1.00  0.00     0.043 A 
ATOM     18  C   UNL     1      16.924 -48.662 -30.891  1.00  0.00     0.042 A 
ATOM     19  F   UNL     1      17.916 -50.305 -27.825  1.00  0.00    -0.206 F 
ATOM     20  F   UNL     1      14.873 -47.672 -31.489  1.00  0.00    -0.207 F 
ENDBRANCH   9  13
BRANCH  11  21
ATOM     21  C   UNL     1      13.936 -48.673 -24.038  1.00  0.00     0.026 A 
ATOM     22  C   UNL     1      12.801 -48.029 -24.558  1.00  0.00     0.010 A 
ATOM     23  C   UNL     1      14.438 -48.246 -22.792  1.00  0.00     0.166 A 
ATOM     24  C   UNL     1      12.180 -46.998 -23.857  1.00  0.00     0.004 A 
ATOM     25  C   UNL     1      13.839 -47.174 -22.097  1.00  0.00     0.161 A 
ATOM     26  C   UNL     1      12.698 -46.570 -22.635  1.00  0.00     0.050 A 
BRANCH  23  27
ATOM     27  O   UNL     1      15.574 -48.882 -22.345  1.00  0.00    -0.492 OA
ATOM     28  C   UNL     1      16.769 -48.123 -22.534  1.00  0.00     0.278 C 
ENDBRANCH  23  27
BRANCH  25  29
ATOM     29  O   UNL     1      14.434 -46.780 -20.926  1.00  0.00    -0.493 OA
ATOM     30  C   UNL     1      13.722 -47.004 -19.716  1.00  0.00     0.278 C 
ENDBRANCH  25  29
ENDBRANCH  11  21
ENDBRANCH   1   7
BRANCH   4  31
ATOM     31  S   UNL     1      10.953 -55.374 -23.280  1.00  0.00     0.238 S 
ATOM     32  O   UNL     1       9.593 -55.421 -23.766  1.00  0.00    -0.207 OA
ATOM     33  O   UNL     1      11.278 -55.434 -21.874  1.00  0.00    -0.207 OA
BRANCH  31  34
ATOM     34  N   UNL     1      11.755 -56.637 -24.052  1.00  0.00    -0.225 NA
ATOM     35  H   UNL     1      12.184 -57.296 -23.404  1.00  0.00     0.137 HD
ATOM     36  H   UNL     1      12.438 -56.243 -24.703  1.00  0.00     0.137 HD
ENDBRANCH  31  34
ENDBRANCH   4  31
TORSDOF 7
ENDMDL
MODEL 7
REMARK VINA RESULT:    -8.996      1.732      1.985
REMARK INTER + INTRA:         -13.184
REMARK INTER:                 -11.809
REMARK INTRA:                  -1.375
REMARK UNBOUND:                -0.769
REMARK SMILES COc1cccc([C@@H]2C=C(c3cc(F)ccc3F)NN2c2ccc(S(N)(=O)=O)cc2)c1OC
REMARK SMILES IDX 21 1 22 2 23 3 24 4 29 5 30 6 20 7 19 8 10 9 9 10 8 11 11 13
REMARK SMILES IDX 12 14 17 15 13 16 16 17 15 18 18 19 14 20 7 21 6 22 31 23
REMARK SMILES IDX 5 24 3 25 4 26 32 27 33 28 2 29 1 30 25 31 27 32 28 33 26 34
REMARK H PARENT 19 12 26 35 26 36
ROOT
ATOM      1  C   UNL     1      12.376 -50.658 -23.139  1.00  0.00     0.058 A 
ATOM      2  C   UNL     1      11.598 -50.847 -21.980  1.00  0.00     0.029 A 
ATOM      3  C   UNL     1      10.967 -52.064 -21.703  1.00  0.00     0.024 A 
ATOM      4  C   UNL     1      11.110 -53.125 -22.594  1.00  0.00     0.082 A 
ATOM      5  C   UNL     1      11.895 -52.984 -23.737  1.00  0.00     0.024 A 
ATOM      6  C   UNL     1      12.519 -51.759 -24.000  1.00  0.00     0.029 A 
ENDROOT
BRANCH   1   7
ATOM      7  N   UNL     1      13.010 -49.425 -23.376  1.00  0.00    -0.276 N 
ATOM      8  N   UNL     1      12.505 -48.219 -22.900  1.00  0.00    -0.297 N 
ATOM      9  C   UNL     1      12.905 -47.168 -23.716  1.00  0.00     0.063 C 
ATOM     10  C   UNL     1      13.569 -47.647 -24.779  1.00  0.00     0.033 C 
ATOM     11  C   UNL     1      13.696 -49.157 -24.689  1.00  0.00     0.165 C 
ATOM     12  H   UNL     1      12.686 -48.034 -21.912  1.00  0.00     0.188 HD
BRANCH   9  13
ATOM     13  C   UNL     1      12.600 -45.773 -23.387  1.00  0.00     0.038 A 
ATOM     14  C   UNL     1      11.616 -45.083 -24.113  1.00  0.00     0.052 A 
ATOM     15  C   UNL     1      13.250 -45.086 -22.348  1.00  0.00     0.132 A 
ATOM     16  C   UNL     1      11.311 -43.759 -23.803  1.00  0.00     0.124 A 
ATOM     17  C   UNL     1      12.939 -43.760 -22.041  1.00  0.00     0.043 A 
ATOM     18  C   UNL     1      11.963 -43.091 -22.774  1.00  0.00     0.042 A 
ATOM     19  F   UNL     1      14.184 -45.695 -21.603  1.00  0.00    -0.206 F 
ATOM     20  F   UNL     1      10.372 -43.119 -24.511  1.00  0.00    -0.207 F 
ENDBRANCH   9  13
BRANCH  11  21
ATOM     21  C   UNL     1      15.151 -49.596 -24.697  1.00  0.00     0.026 A 
ATOM     22  C   UNL     1      15.982 -49.378 -23.587  1.00  0.00     0.010 A 
ATOM     23  C   UNL     1      15.705 -50.203 -25.843  1.00  0.00     0.166 A 
ATOM     24  C   UNL     1      17.322 -49.758 -23.612  1.00  0.00     0.004 A 
ATOM     25  C   UNL     1      17.072 -50.552 -25.890  1.00  0.00     0.161 A 
ATOM     26  C   UNL     1      17.865 -50.339 -24.758  1.00  0.00     0.050 A 
BRANCH  23  27
ATOM     27  O   UNL     1      14.858 -50.359 -26.917  1.00  0.00    -0.492 OA
ATOM     28  C   UNL     1      14.984 -49.331 -27.900  1.00  0.00     0.278 C 
ENDBRANCH  23  27
BRANCH  25  29
ATOM     29  O   UNL     1      17.542 -51.073 -27.067  1.00  0.00    -0.493 OA
ATOM     30  C   UNL     1      18.608 -50.390 -27.713  1.00  0.00     0.278 C 
ENDBRANCH  25  29
ENDBRANCH  11  21
ENDBRANCH   1   7
BRANCH   4  31
ATOM     31  S   UNL     1      10.319 -54.674 -22.261  1.00  0.00     0.238 S 
ATOM     32  O   UNL     1       9.082 -54.419 -21.560  1.00  0.00    -0.207 OA
ATOM     33  O   UNL     1      11.311 -55.602 -21.774  1.00  0.00    -0.207 OA
BRANCH  31  34
ATOM     34  N   UNL     1       9.871 -55.160 -23.811  1.00  0.00    -0.225 NA
ATOM     35  H   UNL     1       9.019 -54.709 -24.141  1.00  0.00     0.137 HD
ATOM     36  H   UNL     1       9.794 -56.178 -23.826  1.00  0.00     0.137 HD
ENDBRANCH  31  34
ENDBRANCH   4  31
TORSDOF 7
ENDMDL
MODEL 8
REMARK VINA RESULT:    -8.882      4.656      7.906
REMARK INTER + INTRA:         -13.026
REMARK INTER:                 -11.871
REMARK INTRA:                  -1.156
REMARK UNBOUND:                -0.769
REMARK SMILES COc1cccc([C@@H]2C=C(c3cc(F)ccc3F)NN2c2ccc(S(N)(=O)=O)cc2)c1OC
REMARK SMILES IDX 21 1 22 2 23 3 24 4 29 5 30 6 20 7 19 8 10 9 9 10 8 11 11 13
REMARK SMILES IDX 12 14 17 15 13 16 16 17 15 18 18 19 14 20 7 21 6 22 31 23
REMARK SMILES IDX 5 24 3 25 4 26 32 27 33 28 2 29 1 30 25 31 27 32 28 33 26 34
REMARK H PARENT 19 12 26 35 26 36
ROOT
ATOM      1  C   UNL     1      14.018 -49.189 -25.735  1.00  0.00     0.058 A 
ATOM      2  C   UNL     1      14.375 -50.075 -26.770  1.00  0.00     0.029 A 
ATOM      3  C   UNL     1      14.946 -49.625 -27.964  1.00  0.00     0.024 A 
ATOM      4  C   UNL     1      15.172 -48.263 -28.141  1.00  0.00     0.082 A 
ATOM      5  C   UNL     1      14.858 -47.359 -27.129  1.00  0.00     0.024 A 
ATOM      6  C   UNL     1      14.286 -47.825 -25.939  1.00  0.00     0.029 A 
ENDROOT
BRANCH   1   7
ATOM      7  N   UNL     1      13.461 -49.680 -24.539  1.00  0.00    -0.276 N 
ATOM      8  N   UNL     1      13.158 -51.025 -24.351  1.00  0.00    -0.297 N 
ATOM      9  C   UNL     1      12.126 -51.166 -23.431  1.00  0.00     0.063 C 
ATOM     10  C   UNL     1      11.661 -49.957 -23.083  1.00  0.00     0.033 C 
ATOM     11  C   UNL     1      12.457 -48.863 -23.772  1.00  0.00     0.165 C 
ATOM     12  H   UNL     1      13.957 -51.622 -24.133  1.00  0.00     0.188 HD
BRANCH   9  13
ATOM     13  C   UNL     1      11.677 -52.482 -22.968  1.00  0.00     0.038 A 
ATOM     14  C   UNL     1      11.224 -52.641 -21.649  1.00  0.00     0.052 A 
ATOM     15  C   UNL     1      11.666 -53.610 -23.805  1.00  0.00     0.132 A 
ATOM     16  C   UNL     1      10.786 -53.885 -21.200  1.00  0.00     0.124 A 
ATOM     17  C   UNL     1      11.225 -54.855 -23.350  1.00  0.00     0.043 A 
ATOM     18  C   UNL     1      10.782 -54.993 -22.038  1.00  0.00     0.042 A 
ATOM     19  F   UNL     1      12.067 -53.520 -25.082  1.00  0.00    -0.206 F 
ATOM     20  F   UNL     1      10.361 -54.015 -19.937  1.00  0.00    -0.207 F 
ENDBRANCH   9  13
BRANCH  11  21
ATOM     21  C   UNL     1      13.101 -47.924 -22.766  1.00  0.00     0.026 A 
ATOM     22  C   UNL     1      14.212 -48.325 -22.005  1.00  0.00     0.010 A 
ATOM     23  C   UNL     1      12.570 -46.636 -22.550  1.00  0.00     0.166 A 
ATOM     24  C   UNL     1      14.781 -47.470 -21.065  1.00  0.00     0.004 A 
ATOM     25  C   UNL     1      13.115 -45.780 -21.570  1.00  0.00     0.161 A 
ATOM     26  C   UNL     1      14.234 -46.205 -20.846  1.00  0.00     0.050 A 
BRANCH  23  27
ATOM     27  O   UNL     1      11.458 -46.306 -23.293  1.00  0.00    -0.492 OA
ATOM     28  C   UNL     1      11.761 -45.580 -24.485  1.00  0.00     0.278 C 
ENDBRANCH  23  27
BRANCH  25  29
ATOM     29  O   UNL     1      12.493 -44.574 -21.380  1.00  0.00    -0.493 OA
ATOM     30  C   UNL     1      13.143 -43.411 -21.879  1.00  0.00     0.278 C 
ENDBRANCH  25  29
ENDBRANCH  11  21
ENDBRANCH   1   7
BRANCH   4  31
ATOM     31  S   UNL     1      15.894 -47.673 -29.648  1.00  0.00     0.238 S 
ATOM     32  O   UNL     1      17.076 -48.454 -29.930  1.00  0.00    -0.207 OA
ATOM     33  O   UNL     1      15.906 -46.229 -29.618  1.00  0.00    -0.207 OA
BRANCH  31  34
ATOM     34  N   UNL     1      14.746 -48.159 -30.780  1.00  0.00    -0.225 NA
ATOM     35  H   UNL     1      14.895 -47.750 -31.703  1.00  0.00     0.137 HD
ATOM     36  H   UNL     1      13.815 -47.948 -30.416  1.00  0.00     0.137 HD
ENDBRANCH  31  34
ENDBRANCH   4  31
TORSDOF 7
ENDMDL
MODEL 9
REMARK VINA RESULT:    -8.650      4.253      7.594
REMARK INTER + INTRA:         -12.707
REMARK INTER:                 -11.387
REMARK INTRA:                  -1.319
REMARK UNBOUND:                -0.769
REMARK SMILES COc1cccc([C@@H]2C=C(c3cc(F)ccc3F)NN2c2ccc(S(N)(=O)=O)cc2)c1OC
REMARK SMILES IDX 21 1 22 2 23 3 24 4 29 5 30 6 20 7 19 8 10 9 9 10 8 11 11 13
REMARK SMILES IDX 12 14 17 15 13 16 16 17 15 18 18 19 14 20 7 21 6 22 31 23
REMARK SMILES IDX 5 24 3 25 4 26 32 27 33 28 2 29 1 30 25 31 27 32 28 33 26 34
REMARK H PARENT 19 12 26 35 26 36
ROOT
ATOM      1  C   UNL     1      14.983 -49.987 -25.660  1.00  0.00     0.058 A 
ATOM      2  C   UNL     1      14.473 -49.462 -26.864  1.00  0.00     0.029 A 
ATOM      3  C   UNL     1      15.281 -49.281 -27.992  1.00  0.00     0.024 A 
ATOM      4  C   UNL     1      16.627 -49.630 -27.930  1.00  0.00     0.082 A 
ATOM      5  C   UNL     1      17.160 -50.178 -26.765  1.00  0.00     0.024 A 
ATOM      6  C   UNL     1      16.339 -50.352 -25.644  1.00  0.00     0.029 A 
ENDROOT
BRANCH   1   7
ATOM      7  N   UNL     1      14.136 -50.170 -24.551  1.00  0.00    -0.276 N 
ATOM      8  N   UNL     1      13.661 -51.421 -24.170  1.00  0.00    -0.297 N 
ATOM      9  C   UNL     1      12.448 -51.298 -23.503  1.00  0.00     0.063 C 
ATOM     10  C   UNL     1      12.048 -50.017 -23.523  1.00  0.00     0.033 C 
ATOM     11  C   UNL     1      13.082 -49.149 -24.217  1.00  0.00     0.165 C 
ATOM     12  H   UNL     1      14.328 -51.999 -23.658  1.00  0.00     0.188 HD
BRANCH   9  13
ATOM     13  C   UNL     1      11.776 -52.452 -22.899  1.00  0.00     0.038 A 
ATOM     14  C   UNL     1      11.636 -53.641 -23.633  1.00  0.00     0.052 A 
ATOM     15  C   UNL     1      11.269 -52.426 -21.590  1.00  0.00     0.132 A 
ATOM     16  C   UNL     1      11.007 -54.748 -23.067  1.00  0.00     0.124 A 
ATOM     17  C   UNL     1      10.640 -53.539 -21.027  1.00  0.00     0.043 A 
ATOM     18  C   UNL     1      10.508 -54.708 -21.771  1.00  0.00     0.042 A 
ATOM     19  F   UNL     1      11.389 -51.328 -20.830  1.00  0.00    -0.206 F 
ATOM     20  F   UNL     1      10.881 -55.870 -23.785  1.00  0.00    -0.207 F 
ENDBRANCH   9  13
BRANCH  11  21
ATOM     21  C   UNL     1      13.593 -48.049 -23.301  1.00  0.00     0.026 A 
ATOM     22  C   UNL     1      14.390 -48.346 -22.183  1.00  0.00     0.010 A 
ATOM     23  C   UNL     1      13.242 -46.704 -23.538  1.00  0.00     0.166 A 
ATOM     24  C   UNL     1      14.832 -47.336 -21.332  1.00  0.00     0.004 A 
ATOM     25  C   UNL     1      13.651 -45.681 -22.656  1.00  0.00     0.161 A 
ATOM     26  C   UNL     1      14.462 -46.011 -21.565  1.00  0.00     0.050 A 
BRANCH  23  27
ATOM     27  O   UNL     1      12.428 -46.471 -24.623  1.00  0.00    -0.492 OA
ATOM     28  C   UNL     1      11.038 -46.431 -24.299  1.00  0.00     0.278 C 
ENDBRANCH  23  27
BRANCH  25  29
ATOM     29  O   UNL     1      13.208 -44.412 -22.925  1.00  0.00    -0.493 OA
ATOM     30  C   UNL     1      12.949 -43.556 -21.820  1.00  0.00     0.278 C 
ENDBRANCH  25  29
ENDBRANCH  11  21
ENDBRANCH   1   7
BRANCH   4  31
ATOM     31  S   UNL     1      17.666 -49.408 -29.347  1.00  0.00     0.238 S 
ATOM     32  O   UNL     1      18.128 -50.705 -29.788  1.00  0.00    -0.207 OA
ATOM     33  O   UNL     1      18.567 -48.310 -29.091  1.00  0.00    -0.207 OA
BRANCH  31  34
ATOM     34  N   UNL     1      16.550 -48.906 -30.504  1.00  0.00    -0.225 NA
ATOM     35  H   UNL     1      16.099 -49.681 -30.989  1.00  0.00     0.137 HD
ATOM     36  H   UNL     1      17.014 -48.268 -31.153  1.00  0.00     0.137 HD
ENDBRANCH  31  34
ENDBRANCH   4  31
TORSDOF 7
ENDMDL
