MODEL 1
REMARK VINA RESULT:   -11.622      0.000      0.000
REMARK INTER + INTRA:         -16.519
REMARK INTER:                 -15.698
REMARK INTRA:                  -0.821
REMARK UNBOUND:                -0.821
REMARK SMILES COc1cc2c(cc1OC)C(=O)[C@@H](C[C@H]1CC[N@@H+](Cc3ccccc3)CC1)C2
REMARK SMILES IDX 14 1 15 2 17 3 18 4 16 5 26 6 27 7 19 9 20 10 21 11 25 12
REMARK SMILES IDX 22 13 24 14 23 15 13 16 11 17 28 18 6 19 5 20 7 21 4 22 8 23
REMARK SMILES IDX 3 24 12 25 9 26 10 27 2 28 1 29
REMARK H PARENT 18 8
ROOT
ATOM      1  C   UNL     1      11.338 -56.570 -22.365  1.00  0.00     0.016 C 
ENDROOT
BRANCH   1   2
ATOM      2  C   UNL     1      10.457 -57.798 -22.049  1.00  0.00     0.001 C 
ATOM      3  C   UNL     1      10.342 -60.187 -21.239  1.00  0.00     0.262 C 
ATOM      4  N   UNL     1       9.557 -60.565 -22.470  1.00  0.00    -0.331 N 
ATOM      5  C   UNL     1      11.254 -59.002 -21.525  1.00  0.00     0.065 C 
ATOM      6  C   UNL     1       8.747 -59.406 -22.997  1.00  0.00     0.262 C 
ATOM      7  C   UNL     1       9.639 -58.204 -23.285  1.00  0.00     0.065 C 
ATOM      8  H   UNL     1       8.865 -61.257 -22.158  1.00  0.00     0.348 HD
BRANCH   4   9
ATOM      9  C   UNL     1      10.382 -61.299 -23.507  1.00  0.00     0.299 C 
BRANCH   9  10
ATOM     10  C   UNL     1       9.546 -61.921 -24.593  1.00  0.00     0.006 A 
ATOM     11  C   UNL     1       9.787 -61.615 -25.940  1.00  0.00     0.009 A 
ATOM     12  C   UNL     1       8.499 -62.798 -24.270  1.00  0.00     0.009 A 
ATOM     13  C   UNL     1       8.991 -62.171 -26.943  1.00  0.00     0.001 A 
ATOM     14  C   UNL     1       7.707 -63.352 -25.277  1.00  0.00     0.001 A 
ATOM     15  C   UNL     1       7.952 -63.037 -26.611  1.00  0.00     0.000 A 
ENDBRANCH   9  10
ENDBRANCH   4   9
ENDBRANCH   1   2
BRANCH   1  16
ATOM     16  C   UNL     1      10.653 -55.434 -23.143  1.00  0.00     0.066 C 
ATOM     17  C   UNL     1      11.571 -54.787 -24.166  1.00  0.00     0.166 C 
ATOM     18  C   UNL     1      10.235 -54.267 -22.210  1.00  0.00     0.048 C 
ATOM     19  C   UNL     1      11.749 -53.379 -23.848  1.00  0.00     0.025 A 
ATOM     20  C   UNL     1      10.995 -53.086 -22.721  1.00  0.00    -0.033 A 
ATOM     21  C   UNL     1      12.526 -52.443 -24.506  1.00  0.00     0.062 A 
ATOM     22  C   UNL     1      10.998 -51.798 -22.206  1.00  0.00     0.055 A 
ATOM     23  C   UNL     1      12.541 -51.142 -23.998  1.00  0.00     0.161 A 
ATOM     24  C   UNL     1      11.776 -50.817 -22.842  1.00  0.00     0.161 A 
ATOM     25  O   UNL     1      12.093 -55.347 -25.116  1.00  0.00    -0.294 OA
BRANCH  23  26
ATOM     26  O   UNL     1      13.266 -50.109 -24.542  1.00  0.00    -0.493 OA
ATOM     27  C   UNL     1      13.789 -50.285 -25.851  1.00  0.00     0.278 C 
ENDBRANCH  23  26
BRANCH  24  28
ATOM     28  O   UNL     1      11.862 -49.511 -22.423  1.00  0.00    -0.493 OA
ATOM     29  C   UNL     1      10.792 -48.635 -22.748  1.00  0.00     0.278 C 
ENDBRANCH  24  28
ENDBRANCH   1  16
TORSDOF 6
ENDMDL
MODEL 2
REMARK VINA RESULT:   -10.653      1.161      2.389
REMARK INTER + INTRA:         -15.211
REMARK INTER:                 -14.502
REMARK INTRA:                  -0.709
REMARK UNBOUND:                -0.821
REMARK SMILES COc1cc2c(cc1OC)C(=O)[C@@H](C[C@H]1CC[N@@H+](Cc3ccccc3)CC1)C2
REMARK SMILES IDX 14 1 15 2 17 3 18 4 16 5 26 6 27 7 19 9 20 10 21 11 25 12
REMARK SMILES IDX 22 13 24 14 23 15 13 16 11 17 28 18 6 19 5 20 7 21 4 22 8 23
REMARK SMILES IDX 3 24 12 25 9 26 10 27 2 28 1 29
REMARK H PARENT 18 8
ROOT
ATOM      1  C   UNL     1       9.615 -55.776 -23.240  1.00  0.00     0.016 C 
ENDROOT
BRANCH   1   2
ATOM      2  C   UNL     1       9.341 -57.205 -22.722  1.00  0.00     0.001 C 
ATOM      3  C   UNL     1      10.289 -59.446 -22.045  1.00  0.00     0.262 C 
ATOM      4  N   UNL     1       9.325 -60.134 -22.977  1.00  0.00    -0.331 N 
ATOM      5  C   UNL     1      10.614 -58.044 -22.545  1.00  0.00     0.065 C 
ATOM      6  C   UNL     1       8.053 -59.341 -23.156  1.00  0.00     0.262 C 
ATOM      7  C   UNL     1       8.354 -57.932 -23.651  1.00  0.00     0.065 C 
ATOM      8  H   UNL     1       9.038 -60.996 -22.497  1.00  0.00     0.348 HD
BRANCH   4   9
ATOM      9  C   UNL     1       9.968 -60.615 -24.261  1.00  0.00     0.299 C 
BRANCH   9  10
ATOM     10  C   UNL     1       9.122 -61.609 -25.009  1.00  0.00     0.006 A 
ATOM     11  C   UNL     1       8.306 -62.515 -24.316  1.00  0.00     0.009 A 
ATOM     12  C   UNL     1       9.155 -61.658 -26.412  1.00  0.00     0.009 A 
ATOM     13  C   UNL     1       7.544 -63.455 -25.012  1.00  0.00     0.001 A 
ATOM     14  C   UNL     1       8.390 -62.599 -27.103  1.00  0.00     0.001 A 
ATOM     15  C   UNL     1       7.588 -63.497 -26.404  1.00  0.00     0.000 A 
ENDBRANCH   9  10
ENDBRANCH   4   9
ENDBRANCH   1   2
BRANCH   1  16
ATOM     16  C   UNL     1      10.950 -55.149 -22.807  1.00  0.00     0.066 C 
ATOM     17  C   UNL     1      10.766 -53.886 -21.983  1.00  0.00     0.166 C 
ATOM     18  C   UNL     1      11.794 -54.692 -24.025  1.00  0.00     0.048 C 
ATOM     19  C   UNL     1      11.378 -52.757 -22.666  1.00  0.00     0.025 A 
ATOM     20  C   UNL     1      11.954 -53.217 -23.841  1.00  0.00    -0.033 A 
ATOM     21  C   UNL     1      11.409 -51.432 -22.274  1.00  0.00     0.062 A 
ATOM     22  C   UNL     1      12.603 -52.327 -24.684  1.00  0.00     0.055 A 
ATOM     23  C   UNL     1      12.058 -50.523 -23.113  1.00  0.00     0.161 A 
ATOM     24  C   UNL     1      12.656 -50.971 -24.325  1.00  0.00     0.161 A 
ATOM     25  O   UNL     1      10.190 -53.809 -20.910  1.00  0.00    -0.294 OA
BRANCH  23  26
ATOM     26  O   UNL     1      12.165 -49.178 -22.857  1.00  0.00    -0.493 OA
ATOM     27  C   UNL     1      10.971 -48.409 -22.838  1.00  0.00     0.278 C 
ENDBRANCH  23  26
BRANCH  24  28
ATOM     28  O   UNL     1      13.266 -49.998 -25.079  1.00  0.00    -0.493 OA
ATOM     29  C   UNL     1      14.006 -50.406 -26.221  1.00  0.00     0.278 C 
ENDBRANCH  24  28
ENDBRANCH   1  16
TORSDOF 6
ENDMDL
MODEL 3
REMARK VINA RESULT:    -9.951      3.444      9.846
REMARK INTER + INTRA:         -14.263
REMARK INTER:                 -13.847
REMARK INTRA:                  -0.416
REMARK UNBOUND:                -0.821
REMARK SMILES COc1cc2c(cc1OC)C(=O)[C@@H](C[C@H]1CC[N@@H+](Cc3ccccc3)CC1)C2
REMARK SMILES IDX 14 1 15 2 17 3 18 4 16 5 26 6 27 7 19 9 20 10 21 11 25 12
REMARK SMILES IDX 22 13 24 14 23 15 13 16 11 17 28 18 6 19 5 20 7 21 4 22 8 23
REMARK SMILES IDX 3 24 12 25 9 26 10 27 2 28 1 29
REMARK H PARENT 18 8
ROOT
ATOM      1  C   UNL     1      10.921 -60.028 -22.032  1.00  0.00     0.016 C 
ENDROOT
BRANCH   1   2
ATOM      2  C   UNL     1      10.679 -58.791 -22.925  1.00  0.00     0.001 C 
ATOM      3  C   UNL     1      11.532 -56.566 -23.763  1.00  0.00     0.262 C 
ATOM      4  N   UNL     1      10.228 -55.920 -23.371  1.00  0.00    -0.331 N 
ATOM      5  C   UNL     1      11.825 -57.769 -22.876  1.00  0.00     0.065 C 
ATOM      6  C   UNL     1       9.077 -56.896 -23.428  1.00  0.00     0.262 C 
ATOM      7  C   UNL     1       9.351 -58.112 -22.552  1.00  0.00     0.065 C 
ATOM      8  H   UNL     1      10.028 -55.227 -24.103  1.00  0.00     0.348 HD
BRANCH   4   9
ATOM      9  C   UNL     1      10.318 -55.107 -22.097  1.00  0.00     0.299 C 
BRANCH   9  10
ATOM     10  C   UNL     1      10.928 -53.747 -22.307  1.00  0.00     0.006 A 
ATOM     11  C   UNL     1      10.788 -52.745 -21.335  1.00  0.00     0.009 A 
ATOM     12  C   UNL     1      11.628 -53.456 -23.489  1.00  0.00     0.009 A 
ATOM     13  C   UNL     1      11.330 -51.476 -21.546  1.00  0.00     0.001 A 
ATOM     14  C   UNL     1      12.169 -52.186 -23.694  1.00  0.00     0.001 A 
ATOM     15  C   UNL     1      12.018 -51.197 -22.724  1.00  0.00     0.000 A 
ENDBRANCH   9  10
ENDBRANCH   4   9
ENDBRANCH   1   2
BRANCH   1  16
ATOM     16  C   UNL     1      11.014 -61.376 -22.764  1.00  0.00     0.066 C 
ATOM     17  C   UNL     1      11.091 -61.221 -24.273  1.00  0.00     0.166 C 
ATOM     18  C   UNL     1       9.750 -62.246 -22.532  1.00  0.00     0.048 C 
ATOM     19  C   UNL     1       9.949 -61.873 -24.895  1.00  0.00     0.025 A 
ATOM     20  C   UNL     1       9.175 -62.447 -23.897  1.00  0.00    -0.033 A 
ATOM     21  C   UNL     1       9.627 -61.940 -26.238  1.00  0.00     0.062 A 
ATOM     22  C   UNL     1       8.016 -63.131 -24.232  1.00  0.00     0.055 A 
ATOM     23  C   UNL     1       8.461 -62.623 -26.591  1.00  0.00     0.161 A 
ATOM     24  C   UNL     1       7.650 -63.220 -25.585  1.00  0.00     0.161 A 
ATOM     25  O   UNL     1      11.967 -60.637 -24.889  1.00  0.00    -0.294 OA
BRANCH  23  26
ATOM     26  O   UNL     1       8.012 -62.768 -27.881  1.00  0.00    -0.493 OA
ATOM     27  C   UNL     1       8.900 -63.337 -28.832  1.00  0.00     0.278 C 
ENDBRANCH  23  26
BRANCH  24  28
ATOM     28  O   UNL     1       6.524 -63.866 -26.036  1.00  0.00    -0.493 OA
ATOM     29  C   UNL     1       6.219 -65.138 -25.484  1.00  0.00     0.278 C 
ENDBRANCH  24  28
ENDBRANCH   1  16
TORSDOF 6
ENDMDL
MODEL 4
REMARK VINA RESULT:    -9.852      2.458      4.414
REMARK INTER + INTRA:         -14.129
REMARK INTER:                 -13.323
REMARK INTRA:                  -0.806
REMARK UNBOUND:                -0.821
REMARK SMILES COc1cc2c(cc1OC)C(=O)[C@@H](C[C@H]1CC[N@@H+](Cc3ccccc3)CC1)C2
REMARK SMILES IDX 14 1 15 2 17 3 18 4 16 5 26 6 27 7 19 9 20 10 21 11 25 12
REMARK SMILES IDX 22 13 24 14 23 15 13 16 11 17 28 18 6 19 5 20 7 21 4 22 8 23
REMARK SMILES IDX 3 24 12 25 9 26 10 27 2 28 1 29
REMARK H PARENT 18 8
ROOT
ATOM      1  C   UNL     1      10.045 -52.692 -22.454  1.00  0.00     0.016 C 
ENDROOT
BRANCH   1   2
ATOM      2  C   UNL     1      10.896 -53.977 -22.550  1.00  0.00     0.001 C 
ATOM      3  C   UNL     1      11.631 -55.948 -23.948  1.00  0.00     0.262 C 
ATOM      4  N   UNL     1      11.245 -56.884 -22.830  1.00  0.00    -0.331 N 
ATOM      5  C   UNL     1      10.783 -54.684 -23.909  1.00  0.00     0.065 C 
ATOM      6  C   UNL     1      11.364 -56.223 -21.478  1.00  0.00     0.262 C 
ATOM      7  C   UNL     1      10.529 -54.950 -21.417  1.00  0.00     0.065 C 
ATOM      8  H   UNL     1      11.954 -57.627 -22.828  1.00  0.00     0.348 HD
BRANCH   4   9
ATOM      9  C   UNL     1       9.939 -57.610 -23.077  1.00  0.00     0.299 C 
BRANCH   9  10
ATOM     10  C   UNL     1      10.088 -59.107 -23.079  1.00  0.00     0.006 A 
ATOM     11  C   UNL     1      10.374 -59.793 -24.268  1.00  0.00     0.009 A 
ATOM     12  C   UNL     1       9.920 -59.840 -21.893  1.00  0.00     0.009 A 
ATOM     13  C   UNL     1      10.483 -61.185 -24.272  1.00  0.00     0.001 A 
ATOM     14  C   UNL     1      10.031 -61.232 -21.902  1.00  0.00     0.001 A 
ATOM     15  C   UNL     1      10.310 -61.903 -23.090  1.00  0.00     0.000 A 
ENDBRANCH   9  10
ENDBRANCH   4   9
ENDBRANCH   1   2
BRANCH   1  16
ATOM     16  C   UNL     1      10.728 -51.482 -21.796  1.00  0.00     0.066 C 
ATOM     17  C   UNL     1       9.950 -50.192 -21.989  1.00  0.00     0.166 C 
ATOM     18  C   UNL     1      12.116 -51.191 -22.424  1.00  0.00     0.048 C 
ATOM     19  C   UNL     1      10.760 -49.233 -22.724  1.00  0.00     0.025 A 
ATOM     20  C   UNL     1      11.993 -49.810 -22.985  1.00  0.00    -0.033 A 
ATOM     21  C   UNL     1      10.417 -47.957 -23.132  1.00  0.00     0.062 A 
ATOM     22  C   UNL     1      12.954 -49.096 -23.685  1.00  0.00     0.055 A 
ATOM     23  C   UNL     1      11.374 -47.225 -23.840  1.00  0.00     0.161 A 
ATOM     24  C   UNL     1      12.647 -47.796 -24.120  1.00  0.00     0.161 A 
ATOM     25  O   UNL     1       8.814 -49.975 -21.599  1.00  0.00    -0.294 OA
BRANCH  23  26
ATOM     26  O   UNL     1      11.176 -45.950 -24.312  1.00  0.00    -0.493 OA
ATOM     27  C   UNL     1      10.789 -44.951 -23.379  1.00  0.00     0.278 C 
ENDBRANCH  23  26
BRANCH  24  28
ATOM     28  O   UNL     1      13.514 -46.995 -24.824  1.00  0.00    -0.493 OA
ATOM     29  C   UNL     1      14.318 -47.602 -25.825  1.00  0.00     0.278 C 
ENDBRANCH  24  28
ENDBRANCH   1  16
TORSDOF 6
ENDMDL
MODEL 5
REMARK VINA RESULT:    -9.716      1.493      2.640
REMARK INTER + INTRA:         -13.945
REMARK INTER:                 -13.194
REMARK INTRA:                  -0.751
REMARK UNBOUND:                -0.821
REMARK SMILES COc1cc2c(cc1OC)C(=O)[C@@H](C[C@H]1CC[N@@H+](Cc3ccccc3)CC1)C2
REMARK SMILES IDX 14 1 15 2 17 3 18 4 16 5 26 6 27 7 19 9 20 10 21 11 25 12
REMARK SMILES IDX 22 13 24 14 23 15 13 16 11 17 28 18 6 19 5 20 7 21 4 22 8 23
REMARK SMILES IDX 3 24 12 25 9 26 10 27 2 28 1 29
REMARK H PARENT 18 8
ROOT
ATOM      1  C   UNL     1      10.341 -54.799 -23.476  1.00  0.00     0.016 C 
ENDROOT
BRANCH   1   2
ATOM      2  C   UNL     1      10.055 -56.121 -22.732  1.00  0.00     0.001 C 
ATOM      3  C   UNL     1      10.977 -58.263 -21.760  1.00  0.00     0.262 C 
ATOM      4  N   UNL     1       9.949 -59.053 -22.529  1.00  0.00    -0.331 N 
ATOM      5  C   UNL     1      11.314 -56.967 -22.485  1.00  0.00     0.065 C 
ATOM      6  C   UNL     1       8.691 -58.254 -22.770  1.00  0.00     0.262 C 
ATOM      7  C   UNL     1       9.004 -56.948 -23.491  1.00  0.00     0.065 C 
ATOM      8  H   UNL     1       9.664 -59.821 -21.909  1.00  0.00     0.348 HD
BRANCH   4   9
ATOM      9  C   UNL     1      10.514 -59.746 -23.751  1.00  0.00     0.299 C 
BRANCH   9  10
ATOM     10  C   UNL     1       9.790 -61.020 -24.094  1.00  0.00     0.006 A 
ATOM     11  C   UNL     1       9.135 -61.158 -25.326  1.00  0.00     0.009 A 
ATOM     12  C   UNL     1       9.743 -62.081 -23.175  1.00  0.00     0.009 A 
ATOM     13  C   UNL     1       8.440 -62.331 -25.629  1.00  0.00     0.001 A 
ATOM     14  C   UNL     1       9.048 -63.251 -23.483  1.00  0.00     0.001 A 
ATOM     15  C   UNL     1       8.396 -63.375 -24.708  1.00  0.00     0.000 A 
ENDBRANCH   9  10
ENDBRANCH   4   9
ENDBRANCH   1   2
BRANCH   1  16
ATOM     16  C   UNL     1      11.518 -53.968 -22.942  1.00  0.00     0.066 C 
ATOM     17  C   UNL     1      11.068 -52.763 -22.134  1.00  0.00     0.166 C 
ATOM     18  C   UNL     1      12.365 -53.363 -24.092  1.00  0.00     0.048 C 
ATOM     19  C   UNL     1      11.537 -51.541 -22.767  1.00  0.00     0.025 A 
ATOM     20  C   UNL     1      12.267 -51.884 -23.895  1.00  0.00    -0.033 A 
ATOM     21  C   UNL     1      11.320 -50.233 -22.372  1.00  0.00     0.062 A 
ATOM     22  C   UNL     1      12.823 -50.889 -24.685  1.00  0.00     0.055 A 
ATOM     23  C   UNL     1      11.872 -49.219 -23.158  1.00  0.00     0.161 A 
ATOM     24  C   UNL     1      12.625 -49.547 -24.321  1.00  0.00     0.161 A 
ATOM     25  O   UNL     1      10.408 -52.796 -21.108  1.00  0.00    -0.294 OA
BRANCH  23  26
ATOM     26  O   UNL     1      11.737 -47.878 -22.894  1.00  0.00    -0.493 OA
ATOM     27  C   UNL     1      12.605 -47.303 -21.928  1.00  0.00     0.278 C 
ENDBRANCH  23  26
BRANCH  24  28
ATOM     28  O   UNL     1      13.122 -48.477 -25.026  1.00  0.00    -0.493 OA
ATOM     29  C   UNL     1      14.287 -48.680 -25.812  1.00  0.00     0.278 C 
ENDBRANCH  24  28
ENDBRANCH   1  16
TORSDOF 6
ENDMDL
MODEL 6
REMARK VINA RESULT:    -9.285      2.798      5.579
REMARK INTER + INTRA:         -13.363
REMARK INTER:                 -12.610
REMARK INTRA:                  -0.753
REMARK UNBOUND:                -0.821
REMARK SMILES COc1cc2c(cc1OC)C(=O)[C@@H](C[C@H]1CC[N@@H+](Cc3ccccc3)CC1)C2
REMARK SMILES IDX 14 1 15 2 17 3 18 4 16 5 26 6 27 7 19 9 20 10 21 11 25 12
REMARK SMILES IDX 22 13 24 14 23 15 13 16 11 17 28 18 6 19 5 20 7 21 4 22 8 23
REMARK SMILES IDX 3 24 12 25 9 26 10 27 2 28 1 29
REMARK H PARENT 18 8
ROOT
ATOM      1  C   UNL     1      12.183 -51.432 -22.326  1.00  0.00     0.016 C 
ENDROOT
BRANCH   1   2
ATOM      2  C   UNL     1      11.151 -52.519 -22.701  1.00  0.00     0.001 C 
ATOM      3  C   UNL     1       9.673 -54.413 -21.925  1.00  0.00     0.262 C 
ATOM      4  N   UNL     1      10.258 -55.305 -22.991  1.00  0.00    -0.331 N 
ATOM      5  C   UNL     1      10.678 -53.350 -21.500  1.00  0.00     0.065 C 
ATOM      6  C   UNL     1      10.715 -54.516 -24.194  1.00  0.00     0.262 C 
ATOM      7  C   UNL     1      11.719 -53.441 -23.792  1.00  0.00     0.065 C 
ATOM      8  H   UNL     1       9.480 -55.884 -23.330  1.00  0.00     0.348 HD
BRANCH   4   9
ATOM      9  C   UNL     1      11.264 -56.302 -22.455  1.00  0.00     0.299 C 
BRANCH   9  10
ATOM     10  C   UNL     1      10.686 -57.678 -22.264  1.00  0.00     0.006 A 
ATOM     11  C   UNL     1      11.230 -58.554 -21.313  1.00  0.00     0.009 A 
ATOM     12  C   UNL     1       9.608 -58.113 -23.052  1.00  0.00     0.009 A 
ATOM     13  C   UNL     1      10.710 -59.841 -21.159  1.00  0.00     0.001 A 
ATOM     14  C   UNL     1       9.091 -59.399 -22.893  1.00  0.00     0.001 A 
ATOM     15  C   UNL     1       9.643 -60.262 -21.949  1.00  0.00     0.000 A 
ENDBRANCH   9  10
ENDBRANCH   4   9
ENDBRANCH   1   2
BRANCH   1  16
ATOM     16  C   UNL     1      12.312 -50.260 -23.312  1.00  0.00     0.066 C 
ATOM     17  C   UNL     1      13.609 -49.488 -23.140  1.00  0.00     0.166 C 
ATOM     18  C   UNL     1      11.203 -49.197 -23.094  1.00  0.00     0.048 C 
ATOM     19  C   UNL     1      13.320 -48.108 -22.785  1.00  0.00     0.025 A 
ATOM     20  C   UNL     1      11.943 -47.946 -22.745  1.00  0.00    -0.033 A 
ATOM     21  C   UNL     1      14.212 -47.088 -22.512  1.00  0.00     0.062 A 
ATOM     22  C   UNL     1      11.404 -46.710 -22.421  1.00  0.00     0.055 A 
ATOM     23  C   UNL     1      13.685 -45.837 -22.182  1.00  0.00     0.161 A 
ATOM     24  C   UNL     1      12.275 -45.646 -22.134  1.00  0.00     0.161 A 
ATOM     25  O   UNL     1      14.735 -49.942 -23.271  1.00  0.00    -0.294 OA
BRANCH  23  26
ATOM     26  O   UNL     1      14.446 -44.733 -21.883  1.00  0.00    -0.493 OA
ATOM     27  C   UNL     1      15.280 -44.795 -20.735  1.00  0.00     0.278 C 
ENDBRANCH  23  26
BRANCH  24  28
ATOM     28  O   UNL     1      11.860 -44.380 -21.798  1.00  0.00    -0.493 OA
ATOM     29  C   UNL     1      11.081 -43.661 -22.743  1.00  0.00     0.278 C 
ENDBRANCH  24  28
ENDBRANCH   1  16
TORSDOF 6
ENDMDL
MODEL 7
REMARK VINA RESULT:    -9.148      2.708      5.462
REMARK INTER + INTRA:         -13.178
REMARK INTER:                 -12.913
REMARK INTRA:                  -0.265
REMARK UNBOUND:                -0.821
REMARK SMILES COc1cc2c(cc1OC)C(=O)[C@@H](C[C@H]1CC[N@@H+](Cc3ccccc3)CC1)C2
REMARK SMILES IDX 14 1 15 2 17 3 18 4 16 5 26 6 27 7 19 9 20 10 21 11 25 12
REMARK SMILES IDX 22 13 24 14 23 15 13 16 11 17 28 18 6 19 5 20 7 21 4 22 8 23
REMARK SMILES IDX 3 24 12 25 9 26 10 27 2 28 1 29
REMARK H PARENT 18 8
ROOT
ATOM      1  C   UNL     1      12.414 -51.913 -23.800  1.00  0.00     0.016 C 
ENDROOT
BRANCH   1   2
ATOM      2  C   UNL     1      11.253 -52.809 -23.314  1.00  0.00     0.001 C 
ATOM      3  C   UNL     1      10.226 -54.130 -21.422  1.00  0.00     0.262 C 
ATOM      4  N   UNL     1      10.119 -55.334 -22.324  1.00  0.00    -0.331 N 
ATOM      5  C   UNL     1      11.388 -53.242 -21.847  1.00  0.00     0.065 C 
ATOM      6  C   UNL     1       9.965 -54.940 -23.773  1.00  0.00     0.262 C 
ATOM      7  C   UNL     1      11.114 -54.044 -24.219  1.00  0.00     0.065 C 
ATOM      8  H   UNL     1       9.234 -55.792 -22.075  1.00  0.00     0.348 HD
BRANCH   4   9
ATOM      9  C   UNL     1      11.175 -56.385 -22.052  1.00  0.00     0.299 C 
BRANCH   9  10
ATOM     10  C   UNL     1      10.631 -57.788 -22.074  1.00  0.00     0.006 A 
ATOM     11  C   UNL     1      11.086 -58.743 -21.152  1.00  0.00     0.009 A 
ATOM     12  C   UNL     1       9.677 -58.166 -23.032  1.00  0.00     0.009 A 
ATOM     13  C   UNL     1      10.601 -60.051 -21.193  1.00  0.00     0.001 A 
ATOM     14  C   UNL     1       9.195 -59.475 -23.068  1.00  0.00     0.001 A 
ATOM     15  C   UNL     1       9.657 -60.416 -22.151  1.00  0.00     0.000 A 
ENDBRANCH   9  10
ENDBRANCH   4   9
ENDBRANCH   1   2
BRANCH   1  16
ATOM     16  C   UNL     1      12.706 -50.670 -22.944  1.00  0.00     0.066 C 
ATOM     17  C   UNL     1      11.501 -49.756 -22.807  1.00  0.00     0.166 C 
ATOM     18  C   UNL     1      13.797 -49.773 -23.585  1.00  0.00     0.048 C 
ATOM     19  C   UNL     1      11.805 -48.450 -23.371  1.00  0.00     0.025 A 
ATOM     20  C   UNL     1      13.114 -48.465 -23.828  1.00  0.00    -0.033 A 
ATOM     21  C   UNL     1      10.978 -47.347 -23.473  1.00  0.00     0.062 A 
ATOM     22  C   UNL     1      13.650 -47.331 -24.420  1.00  0.00     0.055 A 
ATOM     23  C   UNL     1      11.503 -46.197 -24.069  1.00  0.00     0.161 A 
ATOM     24  C   UNL     1      12.843 -46.188 -24.547  1.00  0.00     0.161 A 
ATOM     25  O   UNL     1      10.429 -50.054 -22.306  1.00  0.00    -0.294 OA
BRANCH  23  26
ATOM     26  O   UNL     1      10.800 -45.029 -24.243  1.00  0.00    -0.493 OA
ATOM     27  C   UNL     1      10.482 -44.269 -23.087  1.00  0.00     0.278 C 
ENDBRANCH  23  26
BRANCH  24  28
ATOM     28  O   UNL     1      13.261 -45.011 -25.118  1.00  0.00    -0.493 OA
ATOM     29  C   UNL     1      13.550 -45.010 -26.508  1.00  0.00     0.278 C 
ENDBRANCH  24  28
ENDBRANCH   1  16
TORSDOF 6
ENDMDL
MODEL 8
REMARK VINA RESULT:    -9.036      3.832     11.423
REMARK INTER + INTRA:         -13.027
REMARK INTER:                 -12.394
REMARK INTRA:                  -0.633
REMARK UNBOUND:                -0.821
REMARK SMILES COc1cc2c(cc1OC)C(=O)[C@@H](C[C@H]1CC[N@@H+](Cc3ccccc3)CC1)C2
REMARK SMILES IDX 14 1 15 2 17 3 18 4 16 5 26 6 27 7 19 9 20 10 21 11 25 12
REMARK SMILES IDX 22 13 24 14 23 15 13 16 11 17 28 18 6 19 5 20 7 21 4 22 8 23
REMARK SMILES IDX 3 24 12 25 9 26 10 27 2 28 1 29
REMARK H PARENT 18 8
ROOT
ATOM      1  C   UNL     1      11.960 -52.306 -22.578  1.00  0.00     0.016 C 
ENDROOT
BRANCH   1   2
ATOM      2  C   UNL     1      11.693 -50.910 -23.183  1.00  0.00     0.001 C 
ATOM      3  C   UNL     1      12.657 -48.760 -24.091  1.00  0.00     0.262 C 
ATOM      4  N   UNL     1      11.781 -47.971 -23.151  1.00  0.00    -0.331 N 
ATOM      5  C   UNL     1      12.975 -50.130 -23.509  1.00  0.00     0.065 C 
ATOM      6  C   UNL     1      10.502 -48.704 -22.827  1.00  0.00     0.262 C 
ATOM      7  C   UNL     1      10.795 -50.083 -22.248  1.00  0.00     0.065 C 
ATOM      8  H   UNL     1      11.487 -47.138 -23.674  1.00  0.00     0.348 HD
BRANCH   4   9
ATOM      9  C   UNL     1      12.527 -47.420 -21.954  1.00  0.00     0.299 C 
BRANCH   9  10
ATOM     10  C   UNL     1      12.654 -45.920 -21.978  1.00  0.00     0.006 A 
ATOM     11  C   UNL     1      13.883 -45.305 -21.696  1.00  0.00     0.009 A 
ATOM     12  C   UNL     1      11.539 -45.116 -22.261  1.00  0.00     0.009 A 
ATOM     13  C   UNL     1      13.991 -43.914 -21.690  1.00  0.00     0.001 A 
ATOM     14  C   UNL     1      11.653 -43.725 -22.255  1.00  0.00     0.001 A 
ATOM     15  C   UNL     1      12.877 -43.125 -21.968  1.00  0.00     0.000 A 
ENDBRANCH   9  10
ENDBRANCH   4   9
ENDBRANCH   1   2
BRANCH   1  16
ATOM     16  C   UNL     1      10.907 -53.383 -22.883  1.00  0.00     0.066 C 
ATOM     17  C   UNL     1      10.730 -54.371 -21.742  1.00  0.00     0.166 C 
ATOM     18  C   UNL     1      11.316 -54.263 -24.092  1.00  0.00     0.048 C 
ATOM     19  C   UNL     1      11.065 -55.712 -22.194  1.00  0.00     0.025 A 
ATOM     20  C   UNL     1      11.413 -55.647 -23.535  1.00  0.00    -0.033 A 
ATOM     21  C   UNL     1      11.067 -56.886 -21.465  1.00  0.00     0.062 A 
ATOM     22  C   UNL     1      11.783 -56.803 -24.207  1.00  0.00     0.055 A 
ATOM     23  C   UNL     1      11.439 -58.059 -22.127  1.00  0.00     0.161 A 
ATOM     24  C   UNL     1      11.801 -58.018 -23.503  1.00  0.00     0.161 A 
ATOM     25  O   UNL     1      10.368 -54.098 -20.609  1.00  0.00    -0.294 OA
BRANCH  23  26
ATOM     26  O   UNL     1      11.491 -59.297 -21.534  1.00  0.00    -0.493 OA
ATOM     27  C   UNL     1      10.283 -60.038 -21.438  1.00  0.00     0.278 C 
ENDBRANCH  23  26
BRANCH  24  28
ATOM     28  O   UNL     1      12.153 -59.224 -24.059  1.00  0.00    -0.493 OA
ATOM     29  C   UNL     1      11.916 -59.413 -25.447  1.00  0.00     0.278 C 
ENDBRANCH  24  28
ENDBRANCH   1  16
TORSDOF 6
ENDMDL
MODEL 9
REMARK VINA RESULT:    -8.676      5.152     12.891
REMARK INTER + INTRA:         -12.540
REMARK INTER:                 -11.820
REMARK INTRA:                  -0.720
REMARK UNBOUND:                -0.821
REMARK SMILES COc1cc2c(cc1OC)C(=O)[C@@H](C[C@H]1CC[N@@H+](Cc3ccccc3)CC1)C2
REMARK SMILES IDX 14 1 15 2 17 3 18 4 16 5 26 6 27 7 19 9 20 10 21 11 25 12
REMARK SMILES IDX 22 13 24 14 23 15 13 16 11 17 28 18 6 19 5 20 7 21 4 22 8 23
REMARK SMILES IDX 3 24 12 25 9 26 10 27 2 28 1 29
REMARK H PARENT 18 8
ROOT
ATOM      1  C   UNL     1      11.335 -48.697 -23.205  1.00  0.00     0.016 C 
ENDROOT
BRANCH   1   2
ATOM      2  C   UNL     1      12.034 -47.323 -23.113  1.00  0.00     0.001 C 
ATOM      3  C   UNL     1      12.175 -45.076 -21.968  1.00  0.00     0.262 C 
ATOM      4  N   UNL     1      12.100 -44.390 -23.309  1.00  0.00    -0.331 N 
ATOM      5  C   UNL     1      11.461 -46.420 -22.011  1.00  0.00     0.065 C 
ATOM      6  C   UNL     1      12.675 -45.246 -24.411  1.00  0.00     0.262 C 
ATOM      7  C   UNL     1      11.979 -46.601 -24.469  1.00  0.00     0.065 C 
ATOM      8  H   UNL     1      12.728 -43.579 -23.244  1.00  0.00     0.348 HD
BRANCH   4   9
ATOM      9  C   UNL     1      10.741 -43.791 -23.603  1.00  0.00     0.299 C 
BRANCH   9  10
ATOM     10  C   UNL     1      10.786 -42.302 -23.818  1.00  0.00     0.006 A 
ATOM     11  C   UNL     1      10.603 -41.421 -22.742  1.00  0.00     0.009 A 
ATOM     12  C   UNL     1      10.990 -41.775 -25.103  1.00  0.00     0.009 A 
ATOM     13  C   UNL     1      10.616 -40.041 -22.950  1.00  0.00     0.001 A 
ATOM     14  C   UNL     1      11.003 -40.394 -25.305  1.00  0.00     0.001 A 
ATOM     15  C   UNL     1      10.815 -39.529 -24.230  1.00  0.00     0.000 A 
ENDBRANCH   9  10
ENDBRANCH   4   9
ENDBRANCH   1   2
BRANCH   1  16
ATOM     16  C   UNL     1      12.165 -49.905 -22.740  1.00  0.00     0.066 C 
ATOM     17  C   UNL     1      12.784 -50.672 -23.896  1.00  0.00     0.166 C 
ATOM     18  C   UNL     1      11.291 -50.956 -22.007  1.00  0.00     0.048 C 
ATOM     19  C   UNL     1      12.283 -52.038 -23.906  1.00  0.00     0.025 A 
ATOM     20  C   UNL     1      11.418 -52.195 -22.833  1.00  0.00    -0.033 A 
ATOM     21  C   UNL     1      12.571 -53.049 -24.804  1.00  0.00     0.062 A 
ATOM     22  C   UNL     1      10.798 -53.418 -22.623  1.00  0.00     0.055 A 
ATOM     23  C   UNL     1      11.952 -54.286 -24.606  1.00  0.00     0.161 A 
ATOM     24  C   UNL     1      11.060 -54.472 -23.513  1.00  0.00     0.161 A 
ATOM     25  O   UNL     1      13.580 -50.227 -24.707  1.00  0.00    -0.294 OA
BRANCH  23  26
ATOM     26  O   UNL     1      12.137 -55.380 -25.417  1.00  0.00    -0.493 OA
ATOM     27  C   UNL     1      13.067 -55.263 -26.484  1.00  0.00     0.278 C 
ENDBRANCH  23  26
BRANCH  24  28
ATOM     28  O   UNL     1      10.502 -55.723 -23.409  1.00  0.00    -0.493 OA
ATOM     29  C   UNL     1      10.976 -56.580 -22.380  1.00  0.00     0.278 C 
ENDBRANCH  24  28
ENDBRANCH   1  16
TORSDOF 6
ENDMDL
