MODEL 1
REMARK VINA RESULT:   -10.080      0.000      0.000
REMARK INTER + INTRA:         -10.080
REMARK INTER:                 -10.080
REMARK INTRA:                   0.000
REMARK UNBOUND:                 0.000
REMARK SMILES CC1=C[C@@H]2Cc3[nH]c4cc(Cl)ccc4c(=N)c3[C@H](C1)C2
REMARK SMILES IDX 7 1 6 2 17 3 15 4 14 5 13 6 12 7 10 8 11 9 9 10 8 11 18 12
REMARK SMILES IDX 19 13 2 14 1 15 3 16 4 17 5 18 20 19 16 21
REMARK H PARENT 7 20 16 22
ROOT
ATOM      1  N   UNL     1      10.634 -59.342 -21.649  1.00  0.00    -0.358 N 
ATOM      2  C   UNL     1      10.763 -61.010 -22.365  1.00  0.00     0.021 A 
ATOM      3  C   UNL     1      11.382 -61.250 -23.875  1.00  0.00     0.000 A 
ATOM      4  C   UNL     1      12.231 -59.744 -24.849  1.00  0.00     0.068 A 
ATOM      5  C   UNL     1      11.812 -57.996 -24.168  1.00  0.00     0.023 A 
ATOM      6  C   UNL     1      12.147 -56.840 -24.812  1.00  0.00     0.014 A 
ATOM      7  C   UNL     1      11.808 -55.652 -24.114  1.00  0.00     0.021 A 
ATOM      8  C   UNL     1      11.166 -55.566 -22.799  1.00  0.00     0.043 A 
ATOM      9  Cl  UNL     1      10.881 -53.970 -22.177  1.00  0.00    -0.084 Cl
ATOM     10  C   UNL     1      10.766 -56.648 -22.000  1.00  0.00     0.047 A 
ATOM     11  C   UNL     1      11.032 -57.847 -22.602  1.00  0.00     0.049 A 
ATOM     12  C   UNL     1      10.330 -61.607 -24.944  1.00  0.00     0.028 C 
ATOM     13  C   UNL     1      10.054 -60.166 -25.355  1.00  0.00     0.039 C 
ATOM     14  C   UNL     1      10.320 -59.471 -23.840  1.00  0.00    -0.076 C 
ATOM     15  C   UNL     1      12.222 -59.623 -22.867  1.00  0.00     0.039 C 
ATOM     16  C   UNL     1       8.974 -59.668 -23.405  1.00  0.00    -0.024 C 
ATOM     17  C   UNL     1       8.603 -61.204 -23.135  1.00  0.00     0.018 C 
ATOM     18  C   UNL     1       9.484 -61.705 -22.003  1.00  0.00     0.062 C 
ATOM     19  C   UNL     1       8.983 -62.090 -24.363  1.00  0.00     0.017 C 
ATOM     20  H   UNL     1       9.675 -59.182 -21.329  1.00  0.00     0.166 HD
ENDROOT
BRANCH   4  21
ATOM     21  N   UNL     1      13.019 -59.910 -25.864  1.00  0.00    -0.300 NA
ATOM     22  H   UNL     1      13.728 -60.613 -25.640  1.00  0.00     0.188 HD
ENDBRANCH   4  21
TORSDOF 1
ENDMDL
MODEL 2
REMARK VINA RESULT:    -9.934      3.030      5.588
REMARK INTER + INTRA:          -9.934
REMARK INTER:                  -9.934
REMARK INTRA:                   0.000
REMARK UNBOUND:                 0.000
REMARK SMILES CC1=C[C@@H]2Cc3[nH]c4cc(Cl)ccc4c(=N)c3[C@H](C1)C2
REMARK SMILES IDX 7 1 6 2 17 3 15 4 14 5 13 6 12 7 10 8 11 9 9 10 8 11 18 12
REMARK SMILES IDX 19 13 2 14 1 15 3 16 4 17 5 18 20 19 16 21
REMARK H PARENT 7 20 16 22
ROOT
ATOM      1  N   UNL     1      11.322 -60.561 -25.322  1.00  0.00    -0.358 N 
ATOM      2  C   UNL     1      11.832 -60.028 -23.659  1.00  0.00     0.021 A 
ATOM      3  C   UNL     1      11.079 -60.598 -22.306  1.00  0.00     0.000 A 
ATOM      4  C   UNL     1       9.759 -62.073 -22.453  1.00  0.00     0.068 A 
ATOM      5  C   UNL     1       9.078 -62.381 -24.224  1.00  0.00     0.023 A 
ATOM      6  C   UNL     1       8.035 -63.218 -24.492  1.00  0.00     0.014 A 
ATOM      7  C   UNL     1       7.726 -63.361 -25.870  1.00  0.00     0.021 A 
ATOM      8  C   UNL     1       8.420 -62.719 -26.990  1.00  0.00     0.043 A 
ATOM      9  Cl  UNL     1       7.831 -63.089 -28.582  1.00  0.00    -0.084 Cl
ATOM     10  C   UNL     1       9.511 -61.842 -26.896  1.00  0.00     0.047 A 
ATOM     11  C   UNL     1       9.872 -61.622 -25.595  1.00  0.00     0.049 A 
ATOM     12  C   UNL     1      10.155 -59.577 -21.614  1.00  0.00     0.028 C 
ATOM     13  C   UNL     1       8.906 -59.965 -22.396  1.00  0.00     0.039 C 
ATOM     14  C   UNL     1       9.691 -60.386 -23.830  1.00  0.00    -0.076 C 
ATOM     15  C   UNL     1      11.133 -61.969 -23.883  1.00  0.00     0.039 C 
ATOM     16  C   UNL     1       9.672 -59.054 -24.345  1.00  0.00    -0.024 C 
ATOM     17  C   UNL     1      10.656 -58.052 -23.574  1.00  0.00     0.018 C 
ATOM     18  C   UNL     1      12.079 -58.552 -23.765  1.00  0.00     0.062 C 
ATOM     19  C   UNL     1      10.413 -58.112 -22.033  1.00  0.00     0.017 C 
ATOM     20  H   UNL     1      11.138 -59.739 -25.902  1.00  0.00     0.166 HD
ENDROOT
BRANCH   4  21
ATOM     21  N   UNL     1       9.381 -62.790 -21.443  1.00  0.00    -0.300 NA
ATOM     22  H   UNL     1       8.833 -62.216 -20.797  1.00  0.00     0.188 HD
ENDBRANCH   4  21
TORSDOF 1
ENDMDL
MODEL 3
REMARK VINA RESULT:    -9.810      3.425      5.442
REMARK INTER + INTRA:          -9.810
REMARK INTER:                  -9.810
REMARK INTRA:                   0.000
REMARK UNBOUND:                 0.000
REMARK SMILES CC1=C[C@@H]2Cc3[nH]c4cc(Cl)ccc4c(=N)c3[C@H](C1)C2
REMARK SMILES IDX 7 1 6 2 17 3 15 4 14 5 13 6 12 7 10 8 11 9 9 10 8 11 18 12
REMARK SMILES IDX 19 13 2 14 1 15 3 16 4 17 5 18 20 19 16 21
REMARK H PARENT 7 20 16 22
ROOT
ATOM      1  N   UNL     1       8.361 -60.618 -23.400  1.00  0.00    -0.358 N 
ATOM      2  C   UNL     1       9.601 -59.287 -23.373  1.00  0.00     0.021 A 
ATOM      3  C   UNL     1      10.557 -58.976 -24.681  1.00  0.00     0.000 A 
ATOM      4  C   UNL     1      10.202 -59.890 -26.407  1.00  0.00     0.068 A 
ATOM      5  C   UNL     1       9.089 -61.453 -26.286  1.00  0.00     0.023 A 
ATOM      6  C   UNL     1       8.889 -62.313 -27.325  1.00  0.00     0.014 A 
ATOM      7  C   UNL     1       7.980 -63.370 -27.055  1.00  0.00     0.021 A 
ATOM      8  C   UNL     1       7.254 -63.596 -25.802  1.00  0.00     0.043 A 
ATOM      9  Cl  UNL     1       6.190 -64.968 -25.759  1.00  0.00    -0.084 Cl
ATOM     10  C   UNL     1       7.334 -62.808 -24.644  1.00  0.00     0.047 A 
ATOM     11  C   UNL     1       8.210 -61.769 -24.799  1.00  0.00     0.049 A 
ATOM     12  C   UNL     1      12.023 -59.425 -24.519  1.00  0.00     0.028 C 
ATOM     13  C   UNL     1      11.806 -60.822 -25.088  1.00  0.00     0.039 C 
ATOM     14  C   UNL     1      10.220 -61.017 -24.542  1.00  0.00    -0.076 C 
ATOM     15  C   UNL     1       8.657 -59.695 -25.175  1.00  0.00     0.039 C 
ATOM     16  C   UNL     1      10.619 -61.532 -23.271  1.00  0.00    -0.024 C 
ATOM     17  C   UNL     1      11.291 -60.436 -22.314  1.00  0.00     0.018 C 
ATOM     18  C   UNL     1      10.250 -59.367 -22.023  1.00  0.00     0.062 C 
ATOM     19  C   UNL     1      12.442 -59.684 -23.055  1.00  0.00     0.017 C 
ATOM     20  H   UNL     1       8.500 -61.230 -22.592  1.00  0.00     0.166 HD
ENDROOT
BRANCH   4  21
ATOM     21  N   UNL     1      10.671 -59.473 -27.539  1.00  0.00    -0.300 NA
ATOM     22  H   UNL     1      10.081 -59.810 -28.304  1.00  0.00     0.188 HD
ENDBRANCH   4  21
TORSDOF 1
ENDMDL
MODEL 4
REMARK VINA RESULT:    -9.747      3.070      4.241
REMARK INTER + INTRA:          -9.747
REMARK INTER:                  -9.747
REMARK INTRA:                   0.000
REMARK UNBOUND:                 0.000
REMARK SMILES CC1=C[C@@H]2Cc3[nH]c4cc(Cl)ccc4c(=N)c3[C@H](C1)C2
REMARK SMILES IDX 7 1 6 2 17 3 15 4 14 5 13 6 12 7 10 8 11 9 9 10 8 11 18 12
REMARK SMILES IDX 19 13 2 14 1 15 3 16 4 17 5 18 20 19 16 21
REMARK H PARENT 7 20 16 22
ROOT
ATOM      1  N   UNL     1       8.286 -60.640 -25.539  1.00  0.00    -0.358 N 
ATOM      2  C   UNL     1       7.923 -60.980 -23.789  1.00  0.00     0.021 A 
ATOM      3  C   UNL     1       9.096 -60.872 -22.633  1.00  0.00     0.000 A 
ATOM      4  C   UNL     1      10.875 -60.124 -23.093  1.00  0.00     0.068 A 
ATOM      5  C   UNL     1      11.267 -60.055 -24.973  1.00  0.00     0.023 A 
ATOM      6  C   UNL     1      12.500 -59.751 -25.472  1.00  0.00     0.014 A 
ATOM      7  C   UNL     1      12.569 -59.686 -26.888  1.00  0.00     0.021 A 
ATOM      8  C   UNL     1      11.461 -59.897 -27.825  1.00  0.00     0.043 A 
ATOM      9  Cl  UNL     1      11.834 -59.741 -29.514  1.00  0.00    -0.084 Cl
ATOM     10  C   UNL     1      10.135 -60.207 -27.486  1.00  0.00     0.047 A 
ATOM     11  C   UNL     1       9.973 -60.314 -26.131  1.00  0.00     0.049 A 
ATOM     12  C   UNL     1       9.586 -62.231 -22.095  1.00  0.00     0.028 C 
ATOM     13  C   UNL     1      10.702 -62.392 -23.121  1.00  0.00     0.039 C 
ATOM     14  C   UNL     1       9.925 -61.594 -24.390  1.00  0.00    -0.076 C 
ATOM     15  C   UNL     1       9.350 -59.537 -24.221  1.00  0.00     0.039 C 
ATOM     16  C   UNL     1       9.253 -62.769 -24.846  1.00  0.00    -0.024 C 
ATOM     17  C   UNL     1       8.096 -63.274 -23.859  1.00  0.00     0.018 C 
ATOM     18  C   UNL     1       7.035 -62.189 -23.788  1.00  0.00     0.062 C 
ATOM     19  C   UNL     1       8.633 -63.408 -22.399  1.00  0.00     0.017 C 
ATOM     20  H   UNL     1       7.972 -61.427 -26.111  1.00  0.00     0.166 HD
ENDROOT
BRANCH   4  21
ATOM     21  N   UNL     1      11.717 -59.701 -22.204  1.00  0.00    -0.300 NA
ATOM     22  H   UNL     1      12.194 -60.497 -21.773  1.00  0.00     0.188 HD
ENDBRANCH   4  21
TORSDOF 1
ENDMDL
MODEL 5
REMARK VINA RESULT:    -8.770      7.960     11.719
REMARK INTER + INTRA:          -8.770
REMARK INTER:                  -8.770
REMARK INTRA:                   0.000
REMARK UNBOUND:                 0.000
REMARK SMILES CC1=C[C@@H]2Cc3[nH]c4cc(Cl)ccc4c(=N)c3[C@H](C1)C2
REMARK SMILES IDX 7 1 6 2 17 3 15 4 14 5 13 6 12 7 10 8 11 9 9 10 8 11 18 12
REMARK SMILES IDX 19 13 2 14 1 15 3 16 4 17 5 18 20 19 16 21
REMARK H PARENT 7 20 16 22
ROOT
ATOM      1  N   UNL     1      14.080 -49.293 -22.993  1.00  0.00    -0.358 N 
ATOM      2  C   UNL     1      14.195 -47.484 -23.144  1.00  0.00     0.021 A 
ATOM      3  C   UNL     1      12.872 -46.519 -22.937  1.00  0.00     0.000 A 
ATOM      4  C   UNL     1      11.173 -47.297 -22.272  1.00  0.00     0.068 A 
ATOM      5  C   UNL     1      11.047 -49.210 -22.406  1.00  0.00     0.023 A 
ATOM      6  C   UNL     1       9.894 -49.904 -22.176  1.00  0.00     0.014 A 
ATOM      7  C   UNL     1      10.024 -51.316 -22.260  1.00  0.00     0.021 A 
ATOM      8  C   UNL     1      11.252 -52.062 -22.548  1.00  0.00     0.043 A 
ATOM      9  Cl  UNL     1      11.118 -53.794 -22.575  1.00  0.00    -0.084 Cl
ATOM     10  C   UNL     1      12.518 -51.512 -22.798  1.00  0.00     0.047 A 
ATOM     11  C   UNL     1      12.491 -50.145 -22.760  1.00  0.00     0.049 A 
ATOM     12  C   UNL     1      12.315 -45.915 -24.241  1.00  0.00     0.028 C 
ATOM     13  C   UNL     1      11.355 -47.062 -24.528  1.00  0.00     0.039 C 
ATOM     14  C   UNL     1      12.299 -48.288 -23.851  1.00  0.00    -0.076 C 
ATOM     15  C   UNL     1      12.838 -48.258 -21.779  1.00  0.00     0.039 C 
ATOM     16  C   UNL     1      13.031 -48.521 -25.055  1.00  0.00    -0.024 C 
ATOM     17  C   UNL     1      14.040 -47.335 -25.435  1.00  0.00     0.018 C 
ATOM     18  C   UNL     1      15.078 -47.232 -24.330  1.00  0.00     0.062 C 
ATOM     19  C   UNL     1      13.305 -45.958 -25.426  1.00  0.00     0.017 C 
ATOM     20  H   UNL     1      14.472 -49.730 -23.831  1.00  0.00     0.166 HD
ENDROOT
BRANCH   4  21
ATOM     21  N   UNL     1      10.213 -46.583 -21.774  1.00  0.00    -0.300 NA
ATOM     22  H   UNL     1      10.600 -45.866 -21.156  1.00  0.00     0.188 HD
ENDBRANCH   4  21
TORSDOF 1
ENDMDL
MODEL 6
REMARK VINA RESULT:    -8.581      3.166      4.880
REMARK INTER + INTRA:          -8.581
REMARK INTER:                  -8.581
REMARK INTRA:                   0.000
REMARK UNBOUND:                 0.000
REMARK SMILES CC1=C[C@@H]2Cc3[nH]c4cc(Cl)ccc4c(=N)c3[C@H](C1)C2
REMARK SMILES IDX 7 1 6 2 17 3 15 4 14 5 13 6 12 7 10 8 11 9 9 10 8 11 18 12
REMARK SMILES IDX 19 13 2 14 1 15 3 16 4 17 5 18 20 19 16 21
REMARK H PARENT 7 20 16 22
ROOT
ATOM      1  N   UNL     1      11.093 -60.115 -24.442  1.00  0.00    -0.358 N 
ATOM      2  C   UNL     1      10.078 -60.629 -23.022  1.00  0.00     0.021 A 
ATOM      3  C   UNL     1       8.773 -61.621 -23.213  1.00  0.00     0.000 A 
ATOM      4  C   UNL     1       8.428 -62.476 -24.970  1.00  0.00     0.068 A 
ATOM      5  C   UNL     1       9.350 -61.682 -26.457  1.00  0.00     0.023 A 
ATOM      6  C   UNL     1       9.098 -62.009 -27.758  1.00  0.00     0.014 A 
ATOM      7  C   UNL     1       9.931 -61.359 -28.706  1.00  0.00     0.021 A 
ATOM      8  C   UNL     1      11.011 -60.413 -28.413  1.00  0.00     0.043 A 
ATOM      9  Cl  UNL     1      11.881 -59.782 -29.778  1.00  0.00    -0.084 Cl
ATOM     10  C   UNL     1      11.409 -59.976 -27.140  1.00  0.00     0.047 A 
ATOM     11  C   UNL     1      10.643 -60.534 -26.153  1.00  0.00     0.049 A 
ATOM     12  C   UNL     1       7.411 -60.914 -23.068  1.00  0.00     0.028 C 
ATOM     13  C   UNL     1       7.279 -60.560 -24.544  1.00  0.00     0.039 C 
ATOM     14  C   UNL     1       8.927 -60.360 -24.851  1.00  0.00    -0.076 C 
ATOM     15  C   UNL     1      10.310 -61.974 -24.586  1.00  0.00     0.039 C 
ATOM     16  C   UNL     1       8.932 -58.986 -24.460  1.00  0.00    -0.024 C 
ATOM     17  C   UNL     1       8.738 -58.764 -22.884  1.00  0.00     0.018 C 
ATOM     18  C   UNL     1       9.920 -59.403 -22.174  1.00  0.00     0.062 C 
ATOM     19  C   UNL     1       7.488 -59.541 -22.364  1.00  0.00     0.017 C 
ATOM     20  H   UNL     1      11.174 -59.096 -24.452  1.00  0.00     0.166 HD
ENDROOT
BRANCH   4  21
ATOM     21  N   UNL     1       7.648 -63.500 -25.118  1.00  0.00    -0.300 NA
ATOM     22  H   UNL     1       7.012 -63.340 -25.904  1.00  0.00     0.188 HD
ENDBRANCH   4  21
TORSDOF 1
ENDMDL
MODEL 7
REMARK VINA RESULT:    -8.150      1.841      3.103
REMARK INTER + INTRA:          -8.150
REMARK INTER:                  -8.150
REMARK INTRA:                   0.000
REMARK UNBOUND:                 0.000
REMARK SMILES CC1=C[C@@H]2Cc3[nH]c4cc(Cl)ccc4c(=N)c3[C@H](C1)C2
REMARK SMILES IDX 7 1 6 2 17 3 15 4 14 5 13 6 12 7 10 8 11 9 9 10 8 11 18 12
REMARK SMILES IDX 19 13 2 14 1 15 3 16 4 17 5 18 20 19 16 21
REMARK H PARENT 7 20 16 22
ROOT
ATOM      1  N   UNL     1       8.538 -58.559 -24.385  1.00  0.00    -0.358 N 
ATOM      2  C   UNL     1       8.160 -60.321 -24.636  1.00  0.00     0.021 A 
ATOM      3  C   UNL     1       8.750 -61.479 -23.620  1.00  0.00     0.000 A 
ATOM      4  C   UNL     1       9.686 -60.951 -21.952  1.00  0.00     0.068 A 
ATOM      5  C   UNL     1      10.285 -59.125 -21.899  1.00  0.00     0.023 A 
ATOM      6  C   UNL     1      11.103 -58.632 -20.925  1.00  0.00     0.014 A 
ATOM      7  C   UNL     1      11.377 -57.243 -21.026  1.00  0.00     0.021 A 
ATOM      8  C   UNL     1      10.860 -56.325 -22.044  1.00  0.00     0.043 A 
ATOM      9  Cl  UNL     1      11.352 -54.664 -21.913  1.00  0.00    -0.084 Cl
ATOM     10  C   UNL     1      10.005 -56.659 -23.105  1.00  0.00     0.047 A 
ATOM     11  C   UNL     1       9.699 -57.993 -23.106  1.00  0.00     0.049 A 
ATOM     12  C   UNL     1       9.885 -62.333 -24.220  1.00  0.00     0.028 C 
ATOM     13  C   UNL     1      11.011 -61.427 -23.739  1.00  0.00     0.039 C 
ATOM     14  C   UNL     1      10.157 -59.974 -23.841  1.00  0.00    -0.076 C 
ATOM     15  C   UNL     1       8.383 -59.646 -22.687  1.00  0.00     0.039 C 
ATOM     16  C   UNL     1      10.492 -59.761 -25.213  1.00  0.00    -0.024 C 
ATOM     17  C   UNL     1       9.767 -60.779 -26.218  1.00  0.00     0.018 C 
ATOM     18  C   UNL     1       8.268 -60.551 -26.114  1.00  0.00     0.062 C 
ATOM     19  C   UNL     1       9.982 -62.256 -25.760  1.00  0.00     0.017 C 
ATOM     20  H   UNL     1       8.914 -58.165 -25.251  1.00  0.00     0.166 HD
ENDROOT
BRANCH   4  21
ATOM     21  N   UNL     1       9.879 -61.761 -20.961  1.00  0.00    -0.300 NA
ATOM     22  H   UNL     1      10.625 -62.422 -21.193  1.00  0.00     0.188 HD
ENDBRANCH   4  21
TORSDOF 1
ENDMDL
MODEL 8
REMARK VINA RESULT:    -8.065      6.566     10.161
REMARK INTER + INTRA:          -8.065
REMARK INTER:                  -8.065
REMARK INTRA:                   0.000
REMARK UNBOUND:                 0.000
REMARK SMILES CC1=C[C@@H]2Cc3[nH]c4cc(Cl)ccc4c(=N)c3[C@H](C1)C2
REMARK SMILES IDX 7 1 6 2 17 3 15 4 14 5 13 6 12 7 10 8 11 9 9 10 8 11 18 12
REMARK SMILES IDX 19 13 2 14 1 15 3 16 4 17 5 18 20 19 16 21
REMARK H PARENT 7 20 16 22
ROOT
ATOM      1  N   UNL     1      14.682 -52.074 -24.908  1.00  0.00    -0.358 N 
ATOM      2  C   UNL     1      15.657 -50.538 -24.924  1.00  0.00     0.021 A 
ATOM      3  C   UNL     1      15.190 -49.215 -24.056  1.00  0.00     0.000 A 
ATOM      4  C   UNL     1      13.681 -49.353 -22.775  1.00  0.00     0.068 A 
ATOM      5  C   UNL     1      12.547 -50.886 -23.016  1.00  0.00     0.023 A 
ATOM      6  C   UNL     1      11.362 -51.054 -22.359  1.00  0.00     0.014 A 
ATOM      7  C   UNL     1      10.705 -52.284 -22.624  1.00  0.00     0.021 A 
ATOM      8  C   UNL     1      11.184 -53.357 -23.501  1.00  0.00     0.043 A 
ATOM      9  Cl  UNL     1      10.174 -54.764 -23.627  1.00  0.00    -0.084 Cl
ATOM     10  C   UNL     1      12.377 -53.354 -24.240  1.00  0.00     0.047 A 
ATOM     11  C   UNL     1      13.075 -52.190 -24.067  1.00  0.00     0.049 A 
ATOM     12  C   UNL     1      14.619 -48.065 -24.908  1.00  0.00     0.028 C 
ATOM     13  C   UNL     1      13.174 -48.542 -24.839  1.00  0.00     0.039 C 
ATOM     14  C   UNL     1      13.512 -50.195 -24.776  1.00  0.00    -0.076 C 
ATOM     15  C   UNL     1      14.659 -51.035 -23.174  1.00  0.00     0.039 C 
ATOM     16  C   UNL     1      13.554 -50.339 -26.197  1.00  0.00    -0.024 C 
ATOM     17  C   UNL     1      14.829 -49.645 -26.876  1.00  0.00     0.018 C 
ATOM     18  C   UNL     1      16.075 -50.340 -26.351  1.00  0.00     0.062 C 
ATOM     19  C   UNL     1      14.969 -48.162 -26.409  1.00  0.00     0.017 C 
ATOM     20  H   UNL     1      14.478 -52.358 -25.869  1.00  0.00     0.166 HD
ENDROOT
BRANCH   4  21
ATOM     21  N   UNL     1      13.468 -48.488 -21.835  1.00  0.00    -0.300 NA
ATOM     22  H   UNL     1      14.181 -48.584 -21.107  1.00  0.00     0.188 HD
ENDBRANCH   4  21
TORSDOF 1
ENDMDL
MODEL 9
REMARK VINA RESULT:    -7.739      7.961     11.664
REMARK INTER + INTRA:          -7.739
REMARK INTER:                  -7.739
REMARK INTRA:                   0.000
REMARK UNBOUND:                 0.000
REMARK SMILES CC1=C[C@@H]2Cc3[nH]c4cc(Cl)ccc4c(=N)c3[C@H](C1)C2
REMARK SMILES IDX 7 1 6 2 17 3 15 4 14 5 13 6 12 7 10 8 11 9 9 10 8 11 18 12
REMARK SMILES IDX 19 13 2 14 1 15 3 16 4 17 5 18 20 19 16 21
REMARK H PARENT 7 20 16 22
ROOT
ATOM      1  N   UNL     1      10.998 -47.970 -22.178  1.00  0.00    -0.358 N 
ATOM      2  C   UNL     1      11.873 -46.512 -22.823  1.00  0.00     0.021 A 
ATOM      3  C   UNL     1      13.045 -46.654 -23.976  1.00  0.00     0.000 A 
ATOM      4  C   UNL     1      13.352 -48.400 -24.866  1.00  0.00     0.068 A 
ATOM      5  C   UNL     1      12.607 -49.920 -23.955  1.00  0.00     0.023 A 
ATOM      6  C   UNL     1      12.870 -51.211 -24.310  1.00  0.00     0.014 A 
ATOM      7  C   UNL     1      12.171 -52.189 -23.556  1.00  0.00     0.021 A 
ATOM      8  C   UNL     1      11.212 -51.936 -22.477  1.00  0.00     0.043 A 
ATOM      9  Cl  UNL     1      10.492 -53.332 -21.735  1.00  0.00    -0.084 Cl
ATOM     10  C   UNL     1      10.819 -50.678 -21.994  1.00  0.00     0.047 A 
ATOM     11  C   UNL     1      11.462 -49.663 -22.649  1.00  0.00     0.049 A 
ATOM     12  C   UNL     1      14.480 -46.445 -23.454  1.00  0.00     0.028 C 
ATOM     13  C   UNL     1      14.722 -47.911 -23.117  1.00  0.00     0.039 C 
ATOM     14  C   UNL     1      13.129 -48.287 -22.703  1.00  0.00    -0.076 C 
ATOM     15  C   UNL     1      11.537 -48.093 -24.123  1.00  0.00     0.039 C 
ATOM     16  C   UNL     1      13.286 -47.886 -21.341  1.00  0.00    -0.024 C 
ATOM     17  C   UNL     1      13.438 -46.302 -21.149  1.00  0.00     0.018 C 
ATOM     18  C   UNL     1      12.154 -45.648 -21.629  1.00  0.00     0.062 C 
ATOM     19  C   UNL     1      14.553 -45.735 -22.084  1.00  0.00     0.017 C 
ATOM     20  H   UNL     1      11.051 -47.975 -21.157  1.00  0.00     0.166 HD
ENDROOT
BRANCH   4  21
ATOM     21  N   UNL     1      13.997 -48.523 -25.983  1.00  0.00    -0.300 NA
ATOM     22  H   UNL     1      13.385 -48.935 -26.693  1.00  0.00     0.188 HD
ENDBRANCH   4  21
TORSDOF 1
ENDMDL
