MODEL 1
REMARK VINA RESULT:   -12.820      0.000      0.000
REMARK INTER + INTRA:         -18.925
REMARK INTER:                 -18.066
REMARK INTRA:                  -0.860
REMARK UNBOUND:                -0.860
REMARK SMILES O=C(Nc1ccc2c(c1)C(=O)N(CC[C@H]1CC[N@@H+](Cc3ccccc3)CC1)C2=O)c1ccccc1
REMARK SMILES IDX 14 1 15 2 17 3 18 4 16 5 26 6 27 7 19 9 20 10 21 11 25 12
REMARK SMILES IDX 22 13 24 14 23 15 13 16 12 17 10 18 28 19 8 20 7 21 9 22
REMARK SMILES IDX 6 23 4 24 5 25 11 26 29 27 3 28 2 29 1 31 30 32 31 33 35 34
REMARK SMILES IDX 32 35 34 36 33 37
REMARK H PARENT 18 8 3 30
ROOT
ATOM      1  C   UNL     1      11.377 -57.229 -21.857  1.00  0.00     0.026 C 
ENDROOT
BRANCH   1   2
ATOM      2  C   UNL     1      11.510 -58.703 -22.284  1.00  0.00     0.002 C 
ATOM      3  C   UNL     1      10.422 -60.999 -22.291  1.00  0.00     0.262 C 
ATOM      4  N   UNL     1      10.485 -61.017 -23.794  1.00  0.00    -0.331 N 
ATOM      5  C   UNL     1      10.351 -59.570 -21.766  1.00  0.00     0.065 C 
ATOM      6  C   UNL     1      11.660 -60.227 -24.312  1.00  0.00     0.262 C 
ATOM      7  C   UNL     1      11.606 -58.789 -23.818  1.00  0.00     0.065 C 
ATOM      8  H   UNL     1      10.676 -61.990 -24.060  1.00  0.00     0.348 HD
BRANCH   4   9
ATOM      9  C   UNL     1       9.156 -60.705 -24.455  1.00  0.00     0.299 C 
BRANCH   9  10
ATOM     10  C   UNL     1       8.867 -61.590 -25.638  1.00  0.00     0.006 A 
ATOM     11  C   UNL     1       7.998 -62.685 -25.514  1.00  0.00     0.009 A 
ATOM     12  C   UNL     1       9.444 -61.319 -26.888  1.00  0.00     0.009 A 
ATOM     13  C   UNL     1       7.708 -63.485 -26.619  1.00  0.00     0.001 A 
ATOM     14  C   UNL     1       9.152 -62.123 -27.990  1.00  0.00     0.001 A 
ATOM     15  C   UNL     1       8.283 -63.204 -27.855  1.00  0.00     0.000 A 
ENDBRANCH   9  10
ENDBRANCH   4   9
ENDBRANCH   1   2
BRANCH   1  16
ATOM     16  C   UNL     1      10.417 -56.416 -22.734  1.00  0.00     0.129 C 
BRANCH  16  17
ATOM     17  N   UNL     1      10.962 -55.110 -23.034  1.00  0.00    -0.274 N 
ATOM     18  C   UNL     1      10.665 -53.976 -22.327  1.00  0.00     0.261 C 
ATOM     19  C   UNL     1      11.726 -54.836 -24.135  1.00  0.00     0.261 C 
ATOM     20  C   UNL     1      11.370 -52.879 -22.987  1.00  0.00     0.055 A 
ATOM     21  C   UNL     1      12.014 -53.403 -24.091  1.00  0.00     0.053 A 
ATOM     22  C   UNL     1      11.433 -51.536 -22.664  1.00  0.00     0.040 A 
ATOM     23  C   UNL     1      12.758 -52.610 -24.937  1.00  0.00     0.017 A 
ATOM     24  C   UNL     1      12.191 -50.700 -23.497  1.00  0.00     0.042 A 
ATOM     25  C   UNL     1      12.841 -51.245 -24.628  1.00  0.00     0.027 A 
ATOM     26  O   UNL     1       9.936 -53.854 -21.361  1.00  0.00    -0.269 OA
ATOM     27  O   UNL     1      12.085 -55.595 -25.015  1.00  0.00    -0.269 OA
BRANCH  24  28
ATOM     28  N   UNL     1      12.245 -49.333 -23.149  1.00  0.00    -0.322 N 
ATOM     29  C   UNL     1      11.194 -48.532 -22.736  1.00  0.00     0.255 C 
ATOM     30  H   UNL     1      13.135 -48.871 -23.290  1.00  0.00     0.170 HD
ATOM     31  O   UNL     1      10.016 -48.856 -22.658  1.00  0.00    -0.269 OA
BRANCH  29  32
ATOM     32  C   UNL     1      11.567 -47.128 -22.404  1.00  0.00     0.040 A 
ATOM     33  C   UNL     1      12.817 -46.889 -21.821  1.00  0.00     0.014 A 
ATOM     34  C   UNL     1      10.714 -46.051 -22.685  1.00  0.00     0.014 A 
ATOM     35  C   UNL     1      13.200 -45.588 -21.493  1.00  0.00     0.001 A 
ATOM     36  C   UNL     1      11.103 -44.750 -22.357  1.00  0.00     0.001 A 
ATOM     37  C   UNL     1      12.342 -44.521 -21.758  1.00  0.00     0.000 A 
ENDBRANCH  29  32
ENDBRANCH  24  28
ENDBRANCH  16  17
ENDBRANCH   1  16
TORSDOF 7
ENDMDL
MODEL 2
REMARK VINA RESULT:   -12.203      2.944      4.375
REMARK INTER + INTRA:         -18.057
REMARK INTER:                 -17.154
REMARK INTRA:                  -0.903
REMARK UNBOUND:                -0.860
REMARK SMILES O=C(Nc1ccc2c(c1)C(=O)N(CC[C@H]1CC[N@@H+](Cc3ccccc3)CC1)C2=O)c1ccccc1
REMARK SMILES IDX 14 1 15 2 17 3 18 4 16 5 26 6 27 7 19 9 20 10 21 11 25 12
REMARK SMILES IDX 22 13 24 14 23 15 13 16 12 17 10 18 28 19 8 20 7 21 9 22
REMARK SMILES IDX 6 23 4 24 5 25 11 26 29 27 3 28 2 29 1 31 30 32 31 33 35 34
REMARK SMILES IDX 32 35 34 36 33 37
REMARK H PARENT 18 8 3 30
ROOT
ATOM      1  C   UNL     1      11.236 -56.651 -22.197  1.00  0.00     0.026 C 
ENDROOT
BRANCH   1   2
ATOM      2  C   UNL     1      10.662 -58.081 -22.191  1.00  0.00     0.002 C 
ATOM      3  C   UNL     1       8.931 -59.657 -23.179  1.00  0.00     0.262 C 
ATOM      4  N   UNL     1      10.035 -60.575 -23.628  1.00  0.00    -0.331 N 
ATOM      5  C   UNL     1       9.424 -58.217 -23.093  1.00  0.00     0.065 C 
ATOM      6  C   UNL     1      11.229 -60.503 -22.710  1.00  0.00     0.262 C 
ATOM      7  C   UNL     1      11.753 -59.078 -22.617  1.00  0.00     0.065 C 
ATOM      8  H   UNL     1       9.671 -61.531 -23.522  1.00  0.00     0.348 HD
BRANCH   4   9
ATOM      9  C   UNL     1      10.350 -60.461 -25.107  1.00  0.00     0.299 C 
BRANCH   9  10
ATOM     10  C   UNL     1       9.531 -61.395 -25.956  1.00  0.00     0.006 A 
ATOM     11  C   UNL     1       9.645 -61.370 -27.355  1.00  0.00     0.009 A 
ATOM     12  C   UNL     1       8.659 -62.319 -25.362  1.00  0.00     0.009 A 
ATOM     13  C   UNL     1       8.907 -62.258 -28.139  1.00  0.00     0.001 A 
ATOM     14  C   UNL     1       7.922 -63.204 -26.150  1.00  0.00     0.001 A 
ATOM     15  C   UNL     1       8.048 -63.173 -27.537  1.00  0.00     0.000 A 
ENDBRANCH   9  10
ENDBRANCH   4   9
ENDBRANCH   1   2
BRANCH   1  16
ATOM     16  C   UNL     1      10.219 -55.578 -22.600  1.00  0.00     0.129 C 
BRANCH  16  17
ATOM     17  N   UNL     1      10.880 -54.389 -23.092  1.00  0.00    -0.274 N 
ATOM     18  C   UNL     1      11.604 -54.340 -24.253  1.00  0.00     0.261 C 
ATOM     19  C   UNL     1      10.971 -53.219 -22.388  1.00  0.00     0.261 C 
ATOM     20  C   UNL     1      12.145 -52.986 -24.348  1.00  0.00     0.055 A 
ATOM     21  C   UNL     1      11.762 -52.304 -23.210  1.00  0.00     0.053 A 
ATOM     22  C   UNL     1      12.918 -52.401 -25.334  1.00  0.00     0.040 A 
ATOM     23  C   UNL     1      12.134 -50.995 -22.992  1.00  0.00     0.017 A 
ATOM     24  C   UNL     1      13.307 -51.065 -25.152  1.00  0.00     0.042 A 
ATOM     25  C   UNL     1      12.915 -50.378 -23.980  1.00  0.00     0.027 A 
ATOM     26  O   UNL     1      11.811 -55.231 -25.055  1.00  0.00    -0.269 OA
ATOM     27  O   UNL     1      10.528 -52.964 -21.285  1.00  0.00    -0.269 OA
BRANCH  24  28
ATOM     28  N   UNL     1      14.093 -50.486 -26.170  1.00  0.00    -0.322 N 
ATOM     29  C   UNL     1      15.461 -50.266 -26.150  1.00  0.00     0.255 C 
ATOM     30  H   UNL     1      13.591 -50.121 -26.970  1.00  0.00     0.170 HD
ATOM     31  O   UNL     1      16.221 -50.484 -25.216  1.00  0.00    -0.269 OA
BRANCH  29  32
ATOM     32  C   UNL     1      16.018 -49.663 -27.394  1.00  0.00     0.040 A 
ATOM     33  C   UNL     1      17.398 -49.744 -27.614  1.00  0.00     0.014 A 
ATOM     34  C   UNL     1      15.196 -49.048 -28.349  1.00  0.00     0.014 A 
ATOM     35  C   UNL     1      17.957 -49.189 -28.766  1.00  0.00     0.001 A 
ATOM     36  C   UNL     1      15.760 -48.495 -29.500  1.00  0.00     0.001 A 
ATOM     37  C   UNL     1      17.139 -48.562 -29.705  1.00  0.00     0.000 A 
ENDBRANCH  29  32
ENDBRANCH  24  28
ENDBRANCH  16  17
ENDBRANCH   1  16
TORSDOF 7
ENDMDL
MODEL 3
REMARK VINA RESULT:   -11.470      1.704      2.157
REMARK INTER + INTRA:         -17.024
REMARK INTER:                 -16.261
REMARK INTRA:                  -0.763
REMARK UNBOUND:                -0.860
REMARK SMILES O=C(Nc1ccc2c(c1)C(=O)N(CC[C@H]1CC[N@@H+](Cc3ccccc3)CC1)C2=O)c1ccccc1
REMARK SMILES IDX 14 1 15 2 17 3 18 4 16 5 26 6 27 7 19 9 20 10 21 11 25 12
REMARK SMILES IDX 22 13 24 14 23 15 13 16 12 17 10 18 28 19 8 20 7 21 9 22
REMARK SMILES IDX 6 23 4 24 5 25 11 26 29 27 3 28 2 29 1 31 30 32 31 33 35 34
REMARK SMILES IDX 32 35 34 36 33 37
REMARK H PARENT 18 8 3 30
ROOT
ATOM      1  C   UNL     1      11.047 -56.591 -22.804  1.00  0.00     0.026 C 
ENDROOT
BRANCH   1   2
ATOM      2  C   UNL     1      10.312 -57.833 -22.262  1.00  0.00     0.002 C 
ATOM      3  C   UNL     1       8.563 -59.614 -22.732  1.00  0.00     0.262 C 
ATOM      4  N   UNL     1       9.602 -60.681 -22.519  1.00  0.00    -0.331 N 
ATOM      5  C   UNL     1       9.205 -58.318 -23.212  1.00  0.00     0.065 C 
ATOM      6  C   UNL     1      10.657 -60.243 -21.535  1.00  0.00     0.262 C 
ATOM      7  C   UNL     1      11.328 -58.958 -21.997  1.00  0.00     0.065 C 
ATOM      8  H   UNL     1       9.118 -61.464 -22.064  1.00  0.00     0.348 HD
BRANCH   4   9
ATOM      9  C   UNL     1      10.131 -61.273 -23.812  1.00  0.00     0.299 C 
BRANCH   9  10
ATOM     10  C   UNL     1       9.136 -62.169 -24.498  1.00  0.00     0.006 A 
ATOM     11  C   UNL     1       8.354 -63.066 -23.755  1.00  0.00     0.009 A 
ATOM     12  C   UNL     1       8.961 -62.105 -25.889  1.00  0.00     0.009 A 
ATOM     13  C   UNL     1       7.411 -63.875 -24.391  1.00  0.00     0.001 A 
ATOM     14  C   UNL     1       8.019 -62.917 -26.521  1.00  0.00     0.001 A 
ATOM     15  C   UNL     1       7.244 -63.799 -25.771  1.00  0.00     0.000 A 
ENDBRANCH   9  10
ENDBRANCH   4   9
ENDBRANCH   1   2
BRANCH   1  16
ATOM     16  C   UNL     1      10.138 -55.373 -23.001  1.00  0.00     0.129 C 
BRANCH  16  17
ATOM     17  N   UNL     1      10.911 -54.184 -23.287  1.00  0.00    -0.274 N 
ATOM     18  C   UNL     1      10.849 -53.034 -22.548  1.00  0.00     0.261 C 
ATOM     19  C   UNL     1      11.687 -54.029 -24.404  1.00  0.00     0.261 C 
ATOM     20  C   UNL     1      11.732 -52.071 -23.203  1.00  0.00     0.055 A 
ATOM     21  C   UNL     1      12.240 -52.677 -24.336  1.00  0.00     0.053 A 
ATOM     22  C   UNL     1      12.054 -50.773 -22.852  1.00  0.00     0.040 A 
ATOM     23  C   UNL     1      13.100 -52.015 -25.185  1.00  0.00     0.017 A 
ATOM     24  C   UNL     1      12.936 -50.071 -23.688  1.00  0.00     0.042 A 
ATOM     25  C   UNL     1      13.444 -50.697 -24.848  1.00  0.00     0.027 A 
ATOM     26  O   UNL     1      10.179 -52.804 -21.559  1.00  0.00    -0.269 OA
ATOM     27  O   UNL     1      11.875 -54.817 -25.310  1.00  0.00    -0.269 OA
BRANCH  24  28
ATOM     28  N   UNL     1      13.254 -48.749 -23.311  1.00  0.00    -0.322 N 
ATOM     29  C   UNL     1      14.516 -48.219 -23.100  1.00  0.00     0.255 C 
ATOM     30  H   UNL     1      12.470 -48.144 -23.096  1.00  0.00     0.170 HD
ATOM     31  O   UNL     1      15.578 -48.824 -23.146  1.00  0.00    -0.269 OA
BRANCH  29  32
ATOM     32  C   UNL     1      14.537 -46.773 -22.739  1.00  0.00     0.040 A 
ATOM     33  C   UNL     1      14.924 -45.847 -23.715  1.00  0.00     0.014 A 
ATOM     34  C   UNL     1      14.157 -46.323 -21.467  1.00  0.00     0.014 A 
ATOM     35  C   UNL     1      14.959 -44.485 -23.414  1.00  0.00     0.001 A 
ATOM     36  C   UNL     1      14.192 -44.959 -21.171  1.00  0.00     0.001 A 
ATOM     37  C   UNL     1      14.598 -44.043 -22.142  1.00  0.00     0.000 A 
ENDBRANCH  29  32
ENDBRANCH  24  28
ENDBRANCH  16  17
ENDBRANCH   1  16
TORSDOF 7
ENDMDL
MODEL 4
REMARK VINA RESULT:   -11.279      4.412     11.189
REMARK INTER + INTRA:         -16.755
REMARK INTER:                 -15.670
REMARK INTRA:                  -1.085
REMARK UNBOUND:                -0.860
REMARK SMILES O=C(Nc1ccc2c(c1)C(=O)N(CC[C@H]1CC[N@@H+](Cc3ccccc3)CC1)C2=O)c1ccccc1
REMARK SMILES IDX 14 1 15 2 17 3 18 4 16 5 26 6 27 7 19 9 20 10 21 11 25 12
REMARK SMILES IDX 22 13 24 14 23 15 13 16 12 17 10 18 28 19 8 20 7 21 9 22
REMARK SMILES IDX 6 23 4 24 5 25 11 26 29 27 3 28 2 29 1 31 30 32 31 33 35 34
REMARK SMILES IDX 32 35 34 36 33 37
REMARK H PARENT 18 8 3 30
ROOT
ATOM      1  C   UNL     1      13.264 -47.533 -24.963  1.00  0.00     0.026 C 
ENDROOT
BRANCH   1   2
ATOM      2  C   UNL     1      14.526 -47.804 -25.804  1.00  0.00     0.002 C 
ATOM      3  C   UNL     1      15.584 -49.248 -27.608  1.00  0.00     0.262 C 
ATOM      4  N   UNL     1      15.829 -48.018 -28.438  1.00  0.00    -0.331 N 
ATOM      5  C   UNL     1      14.383 -49.053 -26.689  1.00  0.00     0.065 C 
ATOM      6  C   UNL     1      16.041 -46.798 -27.580  1.00  0.00     0.262 C 
ATOM      7  C   UNL     1      14.849 -46.568 -26.663  1.00  0.00     0.065 C 
ATOM      8  H   UNL     1      16.726 -48.171 -28.916  1.00  0.00     0.348 HD
BRANCH   4   9
ATOM      9  C   UNL     1      14.832 -47.847 -29.569  1.00  0.00     0.299 C 
BRANCH   9  10
ATOM     10  C   UNL     1      15.291 -48.472 -30.858  1.00  0.00     0.006 A 
ATOM     11  C   UNL     1      14.391 -48.664 -31.917  1.00  0.00     0.009 A 
ATOM     12  C   UNL     1      16.631 -48.853 -31.027  1.00  0.00     0.009 A 
ATOM     13  C   UNL     1      14.826 -49.217 -33.122  1.00  0.00     0.001 A 
ATOM     14  C   UNL     1      17.061 -49.407 -32.234  1.00  0.00     0.001 A 
ATOM     15  C   UNL     1      16.159 -49.587 -33.280  1.00  0.00     0.000 A 
ENDBRANCH   9  10
ENDBRANCH   4   9
ENDBRANCH   1   2
BRANCH   1  16
ATOM     16  C   UNL     1      13.431 -47.863 -23.475  1.00  0.00     0.129 C 
BRANCH  16  17
ATOM     17  N   UNL     1      12.621 -49.000 -23.097  1.00  0.00    -0.274 N 
ATOM     18  C   UNL     1      13.043 -50.300 -23.176  1.00  0.00     0.261 C 
ATOM     19  C   UNL     1      11.301 -48.915 -22.749  1.00  0.00     0.261 C 
ATOM     20  C   UNL     1      11.913 -51.129 -22.760  1.00  0.00     0.055 A 
ATOM     21  C   UNL     1      10.850 -50.284 -22.503  1.00  0.00     0.053 A 
ATOM     22  C   UNL     1      11.813 -52.502 -22.631  1.00  0.00     0.040 A 
ATOM     23  C   UNL     1       9.623 -50.767 -22.103  1.00  0.00     0.017 A 
ATOM     24  C   UNL     1      10.581 -53.029 -22.215  1.00  0.00     0.042 A 
ATOM     25  C   UNL     1       9.498 -52.157 -21.962  1.00  0.00     0.027 A 
ATOM     26  O   UNL     1      14.120 -50.727 -23.546  1.00  0.00    -0.269 OA
ATOM     27  O   UNL     1      10.599 -47.924 -22.681  1.00  0.00    -0.269 OA
BRANCH  24  28
ATOM     28  N   UNL     1      10.500 -54.432 -22.087  1.00  0.00    -0.322 N 
ATOM     29  C   UNL     1      10.665 -55.376 -23.088  1.00  0.00     0.255 C 
ATOM     30  H   UNL     1      10.213 -54.783 -21.181  1.00  0.00     0.170 HD
ATOM     31  O   UNL     1      10.852 -55.153 -24.276  1.00  0.00    -0.269 OA
BRANCH  29  32
ATOM     32  C   UNL     1      10.553 -56.793 -22.640  1.00  0.00     0.040 A 
ATOM     33  C   UNL     1      11.398 -57.239 -21.617  1.00  0.00     0.014 A 
ATOM     34  C   UNL     1       9.610 -57.670 -23.195  1.00  0.00     0.014 A 
ATOM     35  C   UNL     1      11.324 -58.559 -21.173  1.00  0.00     0.001 A 
ATOM     36  C   UNL     1       9.539 -58.991 -22.746  1.00  0.00     0.001 A 
ATOM     37  C   UNL     1      10.398 -59.434 -21.740  1.00  0.00     0.000 A 
ENDBRANCH  29  32
ENDBRANCH  24  28
ENDBRANCH  16  17
ENDBRANCH   1  16
TORSDOF 7
ENDMDL
MODEL 5
REMARK VINA RESULT:   -11.227      2.313     12.576
REMARK INTER + INTRA:         -16.681
REMARK INTER:                 -15.584
REMARK INTRA:                  -1.097
REMARK UNBOUND:                -0.860
REMARK SMILES O=C(Nc1ccc2c(c1)C(=O)N(CC[C@H]1CC[N@@H+](Cc3ccccc3)CC1)C2=O)c1ccccc1
REMARK SMILES IDX 14 1 15 2 17 3 18 4 16 5 26 6 27 7 19 9 20 10 21 11 25 12
REMARK SMILES IDX 22 13 24 14 23 15 13 16 12 17 10 18 28 19 8 20 7 21 9 22
REMARK SMILES IDX 6 23 4 24 5 25 11 26 29 27 3 28 2 29 1 31 30 32 31 33 35 34
REMARK SMILES IDX 32 35 34 36 33 37
REMARK H PARENT 18 8 3 30
ROOT
ATOM      1  C   UNL     1      14.333 -50.397 -24.152  1.00  0.00     0.026 C 
ENDROOT
BRANCH   1   2
ATOM      2  C   UNL     1      14.736 -48.912 -24.069  1.00  0.00     0.002 C 
ATOM      3  C   UNL     1      14.000 -46.508 -24.434  1.00  0.00     0.262 C 
ATOM      4  N   UNL     1      14.281 -46.210 -22.987  1.00  0.00    -0.331 N 
ATOM      5  C   UNL     1      13.650 -47.979 -24.628  1.00  0.00     0.065 C 
ATOM      6  C   UNL     1      15.393 -47.071 -22.445  1.00  0.00     0.262 C 
ATOM      7  C   UNL     1      15.064 -48.547 -22.610  1.00  0.00     0.065 C 
ATOM      8  H   UNL     1      14.645 -45.250 -22.960  1.00  0.00     0.348 HD
BRANCH   4   9
ATOM      9  C   UNL     1      13.030 -46.156 -22.130  1.00  0.00     0.299 C 
BRANCH   9  10
ATOM     10  C   UNL     1      12.219 -44.908 -22.351  1.00  0.00     0.006 A 
ATOM     11  C   UNL     1      12.725 -43.654 -21.978  1.00  0.00     0.009 A 
ATOM     12  C   UNL     1      10.954 -44.979 -22.953  1.00  0.00     0.009 A 
ATOM     13  C   UNL     1      11.983 -42.495 -22.211  1.00  0.00     0.001 A 
ATOM     14  C   UNL     1      10.214 -43.818 -23.183  1.00  0.00     0.001 A 
ATOM     15  C   UNL     1      10.731 -42.578 -22.813  1.00  0.00     0.000 A 
ENDBRANCH   9  10
ENDBRANCH   4   9
ENDBRANCH   1   2
BRANCH   1  16
ATOM     16  C   UNL     1      12.886 -50.620 -24.605  1.00  0.00     0.129 C 
BRANCH  16  17
ATOM     17  N   UNL     1      12.337 -51.828 -24.029  1.00  0.00    -0.274 N 
ATOM     18  C   UNL     1      12.522 -53.078 -24.554  1.00  0.00     0.261 C 
ATOM     19  C   UNL     1      11.464 -51.843 -22.976  1.00  0.00     0.261 C 
ATOM     20  C   UNL     1      11.760 -53.999 -23.712  1.00  0.00     0.055 A 
ATOM     21  C   UNL     1      11.113 -53.245 -22.751  1.00  0.00     0.053 A 
ATOM     22  C   UNL     1      11.630 -55.374 -23.783  1.00  0.00     0.040 A 
ATOM     23  C   UNL     1      10.295 -53.826 -21.808  1.00  0.00     0.017 A 
ATOM     24  C   UNL     1      10.812 -56.001 -22.831  1.00  0.00     0.042 A 
ATOM     25  C   UNL     1      10.149 -55.220 -21.857  1.00  0.00     0.027 A 
ATOM     26  O   UNL     1      13.153 -53.400 -25.542  1.00  0.00    -0.269 OA
ATOM     27  O   UNL     1      11.017 -50.901 -22.350  1.00  0.00    -0.269 OA
BRANCH  24  28
ATOM     28  N   UNL     1      10.694 -57.404 -22.919  1.00  0.00    -0.322 N 
ATOM     29  C   UNL     1      11.060 -58.337 -21.963  1.00  0.00     0.255 C 
ATOM     30  H   UNL     1      10.380 -57.772 -23.809  1.00  0.00     0.170 HD
ATOM     31  O   UNL     1      11.607 -58.109 -20.892  1.00  0.00    -0.269 OA
BRANCH  29  32
ATOM     32  C   UNL     1      10.782 -59.755 -22.330  1.00  0.00     0.040 A 
ATOM     33  C   UNL     1      11.509 -60.327 -23.381  1.00  0.00     0.014 A 
ATOM     34  C   UNL     1       9.840 -60.527 -21.635  1.00  0.00     0.014 A 
ATOM     35  C   UNL     1      11.275 -61.651 -23.755  1.00  0.00     0.001 A 
ATOM     36  C   UNL     1       9.611 -61.852 -22.012  1.00  0.00     0.001 A 
ATOM     37  C   UNL     1      10.324 -62.410 -23.073  1.00  0.00     0.000 A 
ENDBRANCH  29  32
ENDBRANCH  24  28
ENDBRANCH  16  17
ENDBRANCH   1  16
TORSDOF 7
ENDMDL
MODEL 6
REMARK VINA RESULT:   -10.974      4.642     11.807
REMARK INTER + INTRA:         -16.325
REMARK INTER:                 -15.287
REMARK INTRA:                  -1.038
REMARK UNBOUND:                -0.860
REMARK SMILES O=C(Nc1ccc2c(c1)C(=O)N(CC[C@H]1CC[N@@H+](Cc3ccccc3)CC1)C2=O)c1ccccc1
REMARK SMILES IDX 14 1 15 2 17 3 18 4 16 5 26 6 27 7 19 9 20 10 21 11 25 12
REMARK SMILES IDX 22 13 24 14 23 15 13 16 12 17 10 18 28 19 8 20 7 21 9 22
REMARK SMILES IDX 6 23 4 24 5 25 11 26 29 27 3 28 2 29 1 31 30 32 31 33 35 34
REMARK SMILES IDX 32 35 34 36 33 37
REMARK H PARENT 18 8 3 30
ROOT
ATOM      1  C   UNL     1      13.732 -49.613 -25.643  1.00  0.00     0.026 C 
ENDROOT
BRANCH   1   2
ATOM      2  C   UNL     1      14.759 -48.635 -26.246  1.00  0.00     0.002 C 
ATOM      3  C   UNL     1      16.248 -48.111 -28.237  1.00  0.00     0.262 C 
ATOM      4  N   UNL     1      15.550 -46.789 -28.402  1.00  0.00    -0.331 N 
ATOM      5  C   UNL     1      15.326 -49.134 -27.585  1.00  0.00     0.065 C 
ATOM      6  C   UNL     1      15.050 -46.253 -27.084  1.00  0.00     0.262 C 
ATOM      7  C   UNL     1      14.113 -47.249 -26.416  1.00  0.00     0.065 C 
ATOM      8  H   UNL     1      16.270 -46.122 -28.707  1.00  0.00     0.348 HD
BRANCH   4   9
ATOM      9  C   UNL     1      14.535 -46.779 -29.528  1.00  0.00     0.299 C 
BRANCH   9  10
ATOM     10  C   UNL     1      15.086 -47.315 -30.822  1.00  0.00     0.006 A 
ATOM     11  C   UNL     1      14.511 -48.441 -31.430  1.00  0.00     0.009 A 
ATOM     12  C   UNL     1      16.170 -46.682 -31.450  1.00  0.00     0.009 A 
ATOM     13  C   UNL     1      15.006 -48.917 -32.644  1.00  0.00     0.001 A 
ATOM     14  C   UNL     1      16.663 -47.163 -32.664  1.00  0.00     0.001 A 
ATOM     15  C   UNL     1      16.079 -48.279 -33.260  1.00  0.00     0.000 A 
ENDBRANCH   9  10
ENDBRANCH   4   9
ENDBRANCH   1   2
BRANCH   1  16
ATOM     16  C   UNL     1      14.352 -50.664 -24.714  1.00  0.00     0.129 C 
BRANCH  16  17
ATOM     17  N   UNL     1      13.341 -51.547 -24.175  1.00  0.00    -0.274 N 
ATOM     18  C   UNL     1      12.992 -52.745 -24.739  1.00  0.00     0.261 C 
ATOM     19  C   UNL     1      12.528 -51.225 -23.123  1.00  0.00     0.261 C 
ATOM     20  C   UNL     1      11.905 -53.285 -23.925  1.00  0.00     0.055 A 
ATOM     21  C   UNL     1      11.620 -52.357 -22.942  1.00  0.00     0.053 A 
ATOM     22  C   UNL     1      11.212 -54.477 -24.039  1.00  0.00     0.040 A 
ATOM     23  C   UNL     1      10.622 -52.568 -22.016  1.00  0.00     0.017 A 
ATOM     24  C   UNL     1      10.195 -54.731 -23.106  1.00  0.00     0.042 A 
ATOM     25  C   UNL     1       9.907 -53.772 -22.109  1.00  0.00     0.027 A 
ATOM     26  O   UNL     1      13.444 -53.273 -25.737  1.00  0.00    -0.269 OA
ATOM     27  O   UNL     1      12.508 -50.200 -22.468  1.00  0.00    -0.269 OA
BRANCH  24  28
ATOM     28  N   UNL     1       9.502 -55.953 -23.238  1.00  0.00    -0.322 N 
ATOM     29  C   UNL     1       9.953 -57.214 -22.884  1.00  0.00     0.255 C 
ATOM     30  H   UNL     1       8.609 -55.912 -23.714  1.00  0.00     0.170 HD
ATOM     31  O   UNL     1      11.061 -57.497 -22.448  1.00  0.00    -0.269 OA
BRANCH  29  32
ATOM     32  C   UNL     1       8.978 -58.317 -23.113  1.00  0.00     0.040 A 
ATOM     33  C   UNL     1       9.388 -59.633 -22.870  1.00  0.00     0.014 A 
ATOM     34  C   UNL     1       7.664 -58.066 -23.536  1.00  0.00     0.014 A 
ATOM     35  C   UNL     1       8.504 -60.692 -23.076  1.00  0.00     0.001 A 
ATOM     36  C   UNL     1       6.782 -59.129 -23.738  1.00  0.00     0.001 A 
ATOM     37  C   UNL     1       7.204 -60.440 -23.513  1.00  0.00     0.000 A 
ENDBRANCH  29  32
ENDBRANCH  24  28
ENDBRANCH  16  17
ENDBRANCH   1  16
TORSDOF 7
ENDMDL
MODEL 7
REMARK VINA RESULT:   -10.817      2.625     13.104
REMARK INTER + INTRA:         -16.104
REMARK INTER:                 -15.413
REMARK INTRA:                  -0.691
REMARK UNBOUND:                -0.860
REMARK SMILES O=C(Nc1ccc2c(c1)C(=O)N(CC[C@H]1CC[N@@H+](Cc3ccccc3)CC1)C2=O)c1ccccc1
REMARK SMILES IDX 14 1 15 2 17 3 18 4 16 5 26 6 27 7 19 9 20 10 21 11 25 12
REMARK SMILES IDX 22 13 24 14 23 15 13 16 12 17 10 18 28 19 8 20 7 21 9 22
REMARK SMILES IDX 6 23 4 24 5 25 11 26 29 27 3 28 2 29 1 31 30 32 31 33 35 34
REMARK SMILES IDX 32 35 34 36 33 37
REMARK H PARENT 18 8 3 30
ROOT
ATOM      1  C   UNL     1      12.229 -48.089 -24.242  1.00  0.00     0.026 C 
ENDROOT
BRANCH   1   2
ATOM      2  C   UNL     1      11.636 -46.978 -23.354  1.00  0.00     0.002 C 
ATOM      3  C   UNL     1      12.117 -45.206 -21.598  1.00  0.00     0.262 C 
ATOM      4  N   UNL     1      11.568 -44.153 -22.521  1.00  0.00    -0.331 N 
ATOM      5  C   UNL     1      12.674 -46.384 -22.388  1.00  0.00     0.065 C 
ATOM      6  C   UNL     1      10.497 -44.707 -23.426  1.00  0.00     0.262 C 
ATOM      7  C   UNL     1      11.031 -45.876 -24.241  1.00  0.00     0.065 C 
ATOM      8  H   UNL     1      11.087 -43.471 -21.922  1.00  0.00     0.348 HD
BRANCH   4   9
ATOM      9  C   UNL     1      12.644 -43.341 -23.217  1.00  0.00     0.299 C 
BRANCH   9  10
ATOM     10  C   UNL     1      12.092 -42.174 -23.991  1.00  0.00     0.006 A 
ATOM     11  C   UNL     1      12.246 -42.107 -25.384  1.00  0.00     0.009 A 
ATOM     12  C   UNL     1      11.396 -41.148 -23.334  1.00  0.00     0.009 A 
ATOM     13  C   UNL     1      11.708 -41.039 -26.103  1.00  0.00     0.001 A 
ATOM     14  C   UNL     1      10.861 -40.082 -24.057  1.00  0.00     0.001 A 
ATOM     15  C   UNL     1      11.016 -40.029 -25.440  1.00  0.00     0.000 A 
ENDBRANCH   9  10
ENDBRANCH   4   9
ENDBRANCH   1   2
BRANCH   1  16
ATOM     16  C   UNL     1      13.135 -49.067 -23.485  1.00  0.00     0.129 C 
BRANCH  16  17
ATOM     17  N   UNL     1      12.839 -50.438 -23.842  1.00  0.00    -0.274 N 
ATOM     18  C   UNL     1      12.187 -51.318 -23.022  1.00  0.00     0.261 C 
ATOM     19  C   UNL     1      13.294 -51.045 -24.981  1.00  0.00     0.261 C 
ATOM     20  C   UNL     1      12.146 -52.595 -23.733  1.00  0.00     0.055 A 
ATOM     21  C   UNL     1      12.823 -52.428 -24.926  1.00  0.00     0.053 A 
ATOM     22  C   UNL     1      11.580 -53.802 -23.368  1.00  0.00     0.040 A 
ATOM     23  C   UNL     1      12.975 -53.465 -25.821  1.00  0.00     0.017 A 
ATOM     24  C   UNL     1      11.705 -54.878 -24.260  1.00  0.00     0.042 A 
ATOM     25  C   UNL     1      12.407 -54.699 -25.474  1.00  0.00     0.027 A 
ATOM     26  O   UNL     1      11.746 -51.130 -21.905  1.00  0.00    -0.269 OA
ATOM     27  O   UNL     1      13.983 -50.575 -25.866  1.00  0.00    -0.269 OA
BRANCH  24  28
ATOM     28  N   UNL     1      11.119 -56.101 -23.870  1.00  0.00    -0.322 N 
ATOM     29  C   UNL     1      10.973 -56.586 -22.581  1.00  0.00     0.255 C 
ATOM     30  H   UNL     1      10.845 -56.725 -24.619  1.00  0.00     0.170 HD
ATOM     31  O   UNL     1      11.383 -56.062 -21.553  1.00  0.00    -0.269 OA
BRANCH  29  32
ATOM     32  C   UNL     1      10.280 -57.901 -22.479  1.00  0.00     0.040 A 
ATOM     33  C   UNL     1       9.088 -58.085 -23.189  1.00  0.00     0.014 A 
ATOM     34  C   UNL     1      10.806 -58.956 -21.719  1.00  0.00     0.014 A 
ATOM     35  C   UNL     1       8.409 -59.302 -23.117  1.00  0.00     0.001 A 
ATOM     36  C   UNL     1      10.124 -60.173 -21.651  1.00  0.00     0.001 A 
ATOM     37  C   UNL     1       8.926 -60.342 -22.345  1.00  0.00     0.000 A 
ENDBRANCH  29  32
ENDBRANCH  24  28
ENDBRANCH  16  17
ENDBRANCH   1  16
TORSDOF 7
ENDMDL
MODEL 8
REMARK VINA RESULT:   -10.731      4.254     11.415
REMARK INTER + INTRA:         -15.982
REMARK INTER:                 -14.918
REMARK INTRA:                  -1.064
REMARK UNBOUND:                -0.860
REMARK SMILES O=C(Nc1ccc2c(c1)C(=O)N(CC[C@H]1CC[N@@H+](Cc3ccccc3)CC1)C2=O)c1ccccc1
REMARK SMILES IDX 14 1 15 2 17 3 18 4 16 5 26 6 27 7 19 9 20 10 21 11 25 12
REMARK SMILES IDX 22 13 24 14 23 15 13 16 12 17 10 18 28 19 8 20 7 21 9 22
REMARK SMILES IDX 6 23 4 24 5 25 11 26 29 27 3 28 2 29 1 31 30 32 31 33 35 34
REMARK SMILES IDX 32 35 34 36 33 37
REMARK H PARENT 18 8 3 30
ROOT
ATOM      1  C   UNL     1      13.954 -49.881 -23.769  1.00  0.00     0.026 C 
ENDROOT
BRANCH   1   2
ATOM      2  C   UNL     1      15.155 -50.822 -23.551  1.00  0.00     0.002 C 
ATOM      3  C   UNL     1      17.020 -52.145 -24.659  1.00  0.00     0.262 C 
ATOM      4  N   UNL     1      18.032 -51.384 -23.846  1.00  0.00    -0.331 N 
ATOM      5  C   UNL     1      15.761 -51.313 -24.876  1.00  0.00     0.065 C 
ATOM      6  C   UNL     1      17.471 -50.957 -22.514  1.00  0.00     0.262 C 
ATOM      7  C   UNL     1      16.221 -50.110 -22.700  1.00  0.00     0.065 C 
ATOM      8  H   UNL     1      18.779 -52.053 -23.622  1.00  0.00     0.348 HD
BRANCH   4   9
ATOM      9  C   UNL     1      18.735 -50.293 -24.630  1.00  0.00     0.299 C 
BRANCH   9  10
ATOM     10  C   UNL     1      19.861 -50.812 -25.482  1.00  0.00     0.006 A 
ATOM     11  C   UNL     1      20.013 -50.374 -26.806  1.00  0.00     0.009 A 
ATOM     12  C   UNL     1      20.788 -51.726 -24.958  1.00  0.00     0.009 A 
ATOM     13  C   UNL     1      21.076 -50.835 -27.585  1.00  0.00     0.001 A 
ATOM     14  C   UNL     1      21.848 -52.185 -25.740  1.00  0.00     0.001 A 
ATOM     15  C   UNL     1      21.992 -51.738 -27.052  1.00  0.00     0.000 A 
ENDBRANCH   9  10
ENDBRANCH   4   9
ENDBRANCH   1   2
BRANCH   1  16
ATOM     16  C   UNL     1      12.821 -50.506 -24.590  1.00  0.00     0.129 C 
BRANCH  16  17
ATOM     17  N   UNL     1      12.356 -51.737 -23.989  1.00  0.00    -0.274 N 
ATOM     18  C   UNL     1      12.483 -52.969 -24.571  1.00  0.00     0.261 C 
ATOM     19  C   UNL     1      11.619 -51.793 -22.837  1.00  0.00     0.261 C 
ATOM     20  C   UNL     1      11.838 -53.923 -23.670  1.00  0.00     0.055 A 
ATOM     21  C   UNL     1      11.309 -53.205 -22.615  1.00  0.00     0.053 A 
ATOM     22  C   UNL     1      11.709 -55.296 -23.768  1.00  0.00     0.040 A 
ATOM     23  C   UNL     1      10.618 -53.823 -21.596  1.00  0.00     0.017 A 
ATOM     24  C   UNL     1      11.020 -55.961 -22.742  1.00  0.00     0.042 A 
ATOM     25  C   UNL     1      10.477 -55.217 -21.671  1.00  0.00     0.027 A 
ATOM     26  O   UNL     1      12.990 -53.254 -25.640  1.00  0.00    -0.269 OA
ATOM     27  O   UNL     1      11.247 -50.876 -22.132  1.00  0.00    -0.269 OA
BRANCH  24  28
ATOM     28  N   UNL     1      10.902 -57.362 -22.859  1.00  0.00    -0.322 N 
ATOM     29  C   UNL     1      11.113 -58.306 -21.868  1.00  0.00     0.255 C 
ATOM     30  H   UNL     1      10.719 -57.719 -23.789  1.00  0.00     0.170 HD
ATOM     31  O   UNL     1      11.498 -58.091 -20.726  1.00  0.00    -0.269 OA
BRANCH  29  32
ATOM     32  C   UNL     1      10.878 -59.717 -22.284  1.00  0.00     0.040 A 
ATOM     33  C   UNL     1       9.981 -60.492 -21.541  1.00  0.00     0.014 A 
ATOM     34  C   UNL     1      11.509 -60.271 -23.408  1.00  0.00     0.014 A 
ATOM     35  C   UNL     1       9.737 -61.819 -21.899  1.00  0.00     0.001 A 
ATOM     36  C   UNL     1      11.261 -61.598 -23.763  1.00  0.00     0.001 A 
ATOM     37  C   UNL     1      10.381 -62.371 -23.006  1.00  0.00     0.000 A 
ENDBRANCH  29  32
ENDBRANCH  24  28
ENDBRANCH  16  17
ENDBRANCH   1  16
TORSDOF 7
ENDMDL
MODEL 9
REMARK VINA RESULT:   -10.644      2.367     12.530
REMARK INTER + INTRA:         -15.859
REMARK INTER:                 -14.588
REMARK INTRA:                  -1.271
REMARK UNBOUND:                -0.860
REMARK SMILES O=C(Nc1ccc2c(c1)C(=O)N(CC[C@H]1CC[N@@H+](Cc3ccccc3)CC1)C2=O)c1ccccc1
REMARK SMILES IDX 14 1 15 2 17 3 18 4 16 5 26 6 27 7 19 9 20 10 21 11 25 12
REMARK SMILES IDX 22 13 24 14 23 15 13 16 12 17 10 18 28 19 8 20 7 21 9 22
REMARK SMILES IDX 6 23 4 24 5 25 11 26 29 27 3 28 2 29 1 31 30 32 31 33 35 34
REMARK SMILES IDX 32 35 34 36 33 37
REMARK H PARENT 18 8 3 30
ROOT
ATOM      1  C   UNL     1      13.261 -49.327 -25.395  1.00  0.00     0.026 C 
ENDROOT
BRANCH   1   2
ATOM      2  C   UNL     1      13.341 -47.834 -25.020  1.00  0.00     0.002 C 
ATOM      3  C   UNL     1      12.250 -45.922 -23.752  1.00  0.00     0.262 C 
ATOM      4  N   UNL     1      13.514 -45.735 -22.959  1.00  0.00    -0.331 N 
ATOM      5  C   UNL     1      12.112 -47.364 -24.225  1.00  0.00     0.065 C 
ATOM      6  C   UNL     1      14.734 -46.127 -23.754  1.00  0.00     0.262 C 
ATOM      7  C   UNL     1      14.632 -47.570 -24.225  1.00  0.00     0.065 C 
ATOM      8  H   UNL     1      13.607 -44.724 -22.804  1.00  0.00     0.348 HD
BRANCH   4   9
ATOM      9  C   UNL     1      13.440 -46.319 -21.562  1.00  0.00     0.299 C 
BRANCH   9  10
ATOM     10  C   UNL     1      14.551 -45.844 -20.666  1.00  0.00     0.006 A 
ATOM     11  C   UNL     1      15.080 -44.552 -20.809  1.00  0.00     0.009 A 
ATOM     12  C   UNL     1      15.061 -46.678 -19.659  1.00  0.00     0.009 A 
ATOM     13  C   UNL     1      16.090 -44.103 -19.958  1.00  0.00     0.001 A 
ATOM     14  C   UNL     1      16.072 -46.226 -18.810  1.00  0.00     0.001 A 
ATOM     15  C   UNL     1      16.584 -44.938 -18.960  1.00  0.00     0.000 A 
ENDBRANCH   9  10
ENDBRANCH   4   9
ENDBRANCH   1   2
BRANCH   1  16
ATOM     16  C   UNL     1      13.969 -50.253 -24.399  1.00  0.00     0.129 C 
BRANCH  16  17
ATOM     17  N   UNL     1      13.073 -51.279 -23.911  1.00  0.00    -0.274 N 
ATOM     18  C   UNL     1      12.815 -52.447 -24.574  1.00  0.00     0.261 C 
ATOM     19  C   UNL     1      12.283 -51.138 -22.803  1.00  0.00     0.261 C 
ATOM     20  C   UNL     1      11.823 -53.167 -23.776  1.00  0.00     0.055 A 
ATOM     21  C   UNL     1      11.497 -52.367 -22.698  1.00  0.00     0.053 A 
ATOM     22  C   UNL     1      11.244 -54.406 -23.979  1.00  0.00     0.040 A 
ATOM     23  C   UNL     1      10.568 -52.762 -21.761  1.00  0.00     0.017 A 
ATOM     24  C   UNL     1      10.300 -54.846 -23.038  1.00  0.00     0.042 A 
ATOM     25  C   UNL     1       9.968 -54.016 -21.942  1.00  0.00     0.027 A 
ATOM     26  O   UNL     1      13.268 -52.833 -25.635  1.00  0.00    -0.269 OA
ATOM     27  O   UNL     1      12.196 -50.186 -22.051  1.00  0.00    -0.269 OA
BRANCH  24  28
ATOM     28  N   UNL     1       9.722 -56.113 -23.261  1.00  0.00    -0.322 N 
ATOM     29  C   UNL     1      10.153 -57.330 -22.762  1.00  0.00     0.255 C 
ATOM     30  H   UNL     1       8.954 -56.145 -23.921  1.00  0.00     0.170 HD
ATOM     31  O   UNL     1      11.152 -57.527 -22.083  1.00  0.00    -0.269 OA
BRANCH  29  32
ATOM     32  C   UNL     1       9.315 -58.501 -23.147  1.00  0.00     0.040 A 
ATOM     33  C   UNL     1       7.982 -58.276 -23.510  1.00  0.00     0.014 A 
ATOM     34  C   UNL     1       9.834 -59.803 -23.179  1.00  0.00     0.014 A 
ATOM     35  C   UNL     1       7.165 -59.347 -23.875  1.00  0.00     0.001 A 
ATOM     36  C   UNL     1       9.014 -60.871 -23.545  1.00  0.00     0.001 A 
ATOM     37  C   UNL     1       7.681 -60.644 -23.887  1.00  0.00     0.000 A 
ENDBRANCH  29  32
ENDBRANCH  24  28
ENDBRANCH  16  17
ENDBRANCH   1  16
TORSDOF 7
ENDMDL
