MODEL 1
REMARK VINA RESULT:   -12.203      0.000      0.000
REMARK INTER + INTRA:         -17.536
REMARK INTER:                 -16.483
REMARK INTRA:                  -1.053
REMARK UNBOUND:                -1.053
REMARK SMILES COc1cc2c(cc1OC)C(=O)[C@H](Cc1cc[n+](Cc3ccccc3)cc1Br)C2
REMARK SMILES IDX 14 1 13 2 3 3 4 4 8 5 5 6 7 7 6 8 29 9 11 10 12 11 2 12 1 13
REMARK SMILES IDX 9 14 10 15 15 16 16 17 27 18 17 19 26 20 18 21 28 22 19 23
REMARK SMILES IDX 20 24 21 25 25 26 22 27 24 28 23 29
REMARK H PARENT
ROOT
ATOM      1  C   UNL     1      10.357 -60.147 -21.929  1.00  0.00     0.049 C 
ENDROOT
BRANCH   1   2
ATOM      2  C   UNL     1      11.034 -61.043 -22.979  1.00  0.00     0.070 C 
ATOM      3  C   UNL     1      10.868 -60.445 -27.703  1.00  0.00     0.161 A 
ATOM      4  C   UNL     1      11.581 -60.022 -26.570  1.00  0.00     0.055 A 
ATOM      5  C   UNL     1       9.798 -61.374 -27.574  1.00  0.00     0.161 A 
ATOM      6  C   UNL     1      11.222 -60.523 -25.329  1.00  0.00    -0.032 A 
ATOM      7  C   UNL     1       9.447 -61.871 -26.316  1.00  0.00     0.062 A 
ATOM      8  C   UNL     1      10.176 -61.427 -25.227  1.00  0.00     0.025 A 
ATOM      9  C   UNL     1      11.845 -60.209 -24.006  1.00  0.00     0.048 C 
ATOM     10  C   UNL     1      10.010 -61.782 -23.826  1.00  0.00     0.167 C 
ATOM     11  O   UNL     1       9.164 -62.560 -23.415  1.00  0.00    -0.294 OA
BRANCH   3  12
ATOM     12  O   UNL     1      11.130 -60.017 -28.981  1.00  0.00    -0.493 OA
ATOM     13  C   UNL     1      11.878 -58.821 -29.144  1.00  0.00     0.278 C 
ENDBRANCH   3  12
BRANCH   5  14
ATOM     14  O   UNL     1       9.165 -61.722 -28.743  1.00  0.00    -0.493 OA
ATOM     15  C   UNL     1       8.563 -63.006 -28.815  1.00  0.00     0.278 C 
ENDBRANCH   5  14
ENDBRANCH   1   2
BRANCH   1  16
ATOM     16  C   UNL     1      10.333 -58.643 -22.160  1.00  0.00    -0.021 A 
ATOM     17  C   UNL     1      11.343 -57.805 -21.674  1.00  0.00     0.075 A 
ATOM     18  C   UNL     1       9.296 -58.034 -22.882  1.00  0.00     0.085 A 
ATOM     19  C   UNL     1      11.270 -56.424 -21.841  1.00  0.00     0.308 A 
ATOM     20  C   UNL     1       9.266 -56.647 -23.037  1.00  0.00     0.324 A 
ATOM     21  N   UNL     1      10.235 -55.868 -22.505  1.00  0.00    -0.200 N 
ATOM     22  Br  UNL     1       7.888 -59.016 -23.694  1.00  0.00    -0.044 Br
BRANCH  21  23
ATOM     23  C   UNL     1      10.160 -54.393 -22.660  1.00  0.00     0.393 C 
BRANCH  23  24
ATOM     24  C   UNL     1      11.220 -53.889 -23.607  1.00  0.00     0.017 A 
ATOM     25  C   UNL     1      11.661 -54.676 -24.682  1.00  0.00     0.010 A 
ATOM     26  C   UNL     1      11.772 -52.610 -23.430  1.00  0.00     0.010 A 
ATOM     27  C   UNL     1      12.647 -54.200 -25.547  1.00  0.00     0.001 A 
ATOM     28  C   UNL     1      12.756 -52.139 -24.300  1.00  0.00     0.001 A 
ATOM     29  C   UNL     1      13.195 -52.935 -25.355  1.00  0.00     0.000 A 
ENDBRANCH  23  24
ENDBRANCH  21  23
ENDBRANCH   1  16
TORSDOF 6
ENDMDL
MODEL 2
REMARK VINA RESULT:   -11.132      3.911      8.720
REMARK INTER + INTRA:         -16.090
REMARK INTER:                 -15.709
REMARK INTRA:                  -0.381
REMARK UNBOUND:                -1.053
REMARK SMILES COc1cc2c(cc1OC)C(=O)[C@H](Cc1cc[n+](Cc3ccccc3)cc1Br)C2
REMARK SMILES IDX 14 1 13 2 3 3 4 4 8 5 5 6 7 7 6 8 29 9 11 10 12 11 2 12 1 13
REMARK SMILES IDX 9 14 10 15 15 16 16 17 27 18 17 19 26 20 18 21 28 22 19 23
REMARK SMILES IDX 20 24 21 25 25 26 22 27 24 28 23 29
REMARK H PARENT
ROOT
ATOM      1  C   UNL     1      11.023 -56.388 -22.003  1.00  0.00     0.049 C 
ENDROOT
BRANCH   1   2
ATOM      2  C   UNL     1      10.455 -55.201 -22.800  1.00  0.00     0.070 C 
ATOM      3  C   UNL     1      12.912 -51.415 -24.325  1.00  0.00     0.161 A 
ATOM      4  C   UNL     1      12.590 -52.731 -24.691  1.00  0.00     0.055 A 
ATOM      5  C   UNL     1      12.412 -50.863 -23.112  1.00  0.00     0.161 A 
ATOM      6  C   UNL     1      11.780 -53.480 -23.851  1.00  0.00    -0.032 A 
ATOM      7  C   UNL     1      11.596 -51.629 -22.276  1.00  0.00     0.062 A 
ATOM      8  C   UNL     1      11.305 -52.921 -22.675  1.00  0.00     0.025 A 
ATOM      9  C   UNL     1      11.318 -54.888 -24.051  1.00  0.00     0.048 C 
ATOM     10  C   UNL     1      10.493 -53.915 -21.990  1.00  0.00     0.167 C 
ATOM     11  O   UNL     1       9.937 -53.722 -20.921  1.00  0.00    -0.294 OA
BRANCH   3  12
ATOM     12  O   UNL     1      13.705 -50.580 -25.072  1.00  0.00    -0.493 OA
ATOM     13  C   UNL     1      14.042 -50.984 -26.391  1.00  0.00     0.278 C 
ENDBRANCH   3  12
BRANCH   5  14
ATOM     14  O   UNL     1      12.787 -49.568 -22.846  1.00  0.00    -0.493 OA
ATOM     15  C   UNL     1      11.766 -48.583 -22.776  1.00  0.00     0.278 C 
ENDBRANCH   5  14
ENDBRANCH   1   2
BRANCH   1  16
ATOM     16  C   UNL     1      11.006 -57.769 -22.640  1.00  0.00    -0.021 A 
ATOM     17  C   UNL     1      12.141 -58.589 -22.656  1.00  0.00     0.075 A 
ATOM     18  C   UNL     1       9.843 -58.286 -23.231  1.00  0.00     0.085 A 
ATOM     19  C   UNL     1      12.123 -59.824 -23.299  1.00  0.00     0.308 A 
ATOM     20  C   UNL     1       9.864 -59.534 -23.855  1.00  0.00     0.324 A 
ATOM     21  N   UNL     1      10.998 -60.271 -23.895  1.00  0.00    -0.200 N 
ATOM     22  Br  UNL     1       8.186 -57.360 -23.226  1.00  0.00    -0.044 Br
BRANCH  21  23
ATOM     23  C   UNL     1      10.998 -61.581 -24.593  1.00  0.00     0.393 C 
BRANCH  23  24
ATOM     24  C   UNL     1       9.818 -62.422 -24.177  1.00  0.00     0.017 A 
ATOM     25  C   UNL     1       8.731 -62.619 -25.043  1.00  0.00     0.010 A 
ATOM     26  C   UNL     1       9.798 -63.032 -22.913  1.00  0.00     0.010 A 
ATOM     27  C   UNL     1       7.642 -63.394 -24.644  1.00  0.00     0.001 A 
ATOM     28  C   UNL     1       8.707 -63.808 -22.520  1.00  0.00     0.001 A 
ATOM     29  C   UNL     1       7.628 -63.985 -23.384  1.00  0.00     0.000 A 
ENDBRANCH  23  24
ENDBRANCH  21  23
ENDBRANCH   1  16
TORSDOF 6
ENDMDL
MODEL 3
REMARK VINA RESULT:   -10.552      3.635      8.534
REMARK INTER + INTRA:         -15.306
REMARK INTER:                 -15.465
REMARK INTRA:                   0.159
REMARK UNBOUND:                -1.053
REMARK SMILES COc1cc2c(cc1OC)C(=O)[C@H](Cc1cc[n+](Cc3ccccc3)cc1Br)C2
REMARK SMILES IDX 14 1 13 2 3 3 4 4 8 5 5 6 7 7 6 8 29 9 11 10 12 11 2 12 1 13
REMARK SMILES IDX 9 14 10 15 15 16 16 17 27 18 17 19 26 20 18 21 28 22 19 23
REMARK SMILES IDX 20 24 21 25 25 26 22 27 24 28 23 29
REMARK H PARENT
ROOT
ATOM      1  C   UNL     1       9.278 -56.331 -22.784  1.00  0.00     0.049 C 
ENDROOT
BRANCH   1   2
ATOM      2  C   UNL     1      10.640 -55.717 -22.419  1.00  0.00     0.070 C 
ATOM      3  C   UNL     1      11.887 -51.147 -22.935  1.00  0.00     0.161 A 
ATOM      4  C   UNL     1      11.237 -52.011 -22.038  1.00  0.00     0.055 A 
ATOM      5  C   UNL     1      12.418 -51.647 -24.157  1.00  0.00     0.161 A 
ATOM      6  C   UNL     1      11.124 -53.353 -22.366  1.00  0.00    -0.032 A 
ATOM      7  C   UNL     1      12.296 -53.002 -24.474  1.00  0.00     0.062 A 
ATOM      8  C   UNL     1      11.649 -53.817 -23.562  1.00  0.00     0.025 A 
ATOM      9  C   UNL     1      10.478 -54.435 -21.561  1.00  0.00     0.048 C 
ATOM     10  C   UNL     1      11.389 -55.245 -23.656  1.00  0.00     0.167 C 
ATOM     11  O   UNL     1      11.729 -55.940 -24.600  1.00  0.00    -0.294 OA
BRANCH   3  12
ATOM     12  O   UNL     1      12.057 -49.802 -22.720  1.00  0.00    -0.493 OA
ATOM     13  C   UNL     1      10.904 -48.974 -22.727  1.00  0.00     0.278 C 
ENDBRANCH   3  12
BRANCH   5  14
ATOM     14  O   UNL     1      13.032 -50.719 -24.963  1.00  0.00    -0.493 OA
ATOM     15  C   UNL     1      13.926 -51.195 -25.960  1.00  0.00     0.278 C 
ENDBRANCH   5  14
ENDBRANCH   1   2
BRANCH   1  16
ATOM     16  C   UNL     1       9.211 -57.814 -23.114  1.00  0.00    -0.021 A 
ATOM     17  C   UNL     1       8.306 -58.322 -24.054  1.00  0.00     0.075 A 
ATOM     18  C   UNL     1      10.066 -58.738 -22.495  1.00  0.00     0.085 A 
ATOM     19  C   UNL     1       8.217 -59.691 -24.296  1.00  0.00     0.308 A 
ATOM     20  C   UNL     1       9.952 -60.101 -22.774  1.00  0.00     0.324 A 
ATOM     21  N   UNL     1       9.027 -60.555 -23.649  1.00  0.00    -0.200 N 
ATOM     22  Br  UNL     1      11.418 -58.227 -21.264  1.00  0.00    -0.044 Br
BRANCH  21  23
ATOM     23  C   UNL     1       8.909 -62.014 -23.904  1.00  0.00     0.393 C 
BRANCH  23  24
ATOM     24  C   UNL     1       8.777 -62.302 -25.377  1.00  0.00     0.017 A 
ATOM     25  C   UNL     1       9.625 -61.690 -26.312  1.00  0.00     0.010 A 
ATOM     26  C   UNL     1       7.803 -63.205 -25.833  1.00  0.00     0.010 A 
ATOM     27  C   UNL     1       9.489 -61.961 -27.674  1.00  0.00     0.001 A 
ATOM     28  C   UNL     1       7.672 -63.474 -27.197  1.00  0.00     0.001 A 
ATOM     29  C   UNL     1       8.512 -62.849 -28.116  1.00  0.00     0.000 A 
ENDBRANCH  23  24
ENDBRANCH  21  23
ENDBRANCH   1  16
TORSDOF 6
ENDMDL
MODEL 4
REMARK VINA RESULT:   -10.536      3.823      8.819
REMARK INTER + INTRA:         -15.285
REMARK INTER:                 -14.908
REMARK INTRA:                  -0.378
REMARK UNBOUND:                -1.053
REMARK SMILES COc1cc2c(cc1OC)C(=O)[C@H](Cc1cc[n+](Cc3ccccc3)cc1Br)C2
REMARK SMILES IDX 14 1 13 2 3 3 4 4 8 5 5 6 7 7 6 8 29 9 11 10 12 11 2 12 1 13
REMARK SMILES IDX 9 14 10 15 15 16 16 17 27 18 17 19 26 20 18 21 28 22 19 23
REMARK SMILES IDX 20 24 21 25 25 26 22 27 24 28 23 29
REMARK H PARENT
ROOT
ATOM      1  C   UNL     1       9.841 -56.473 -22.717  1.00  0.00     0.049 C 
ENDROOT
BRANCH   1   2
ATOM      2  C   UNL     1      11.070 -55.641 -22.314  1.00  0.00     0.070 C 
ATOM      3  C   UNL     1      11.469 -50.902 -22.607  1.00  0.00     0.161 A 
ATOM      4  C   UNL     1      10.988 -51.911 -21.756  1.00  0.00     0.055 A 
ATOM      5  C   UNL     1      12.080 -51.240 -23.847  1.00  0.00     0.161 A 
ATOM      6  C   UNL     1      11.118 -53.234 -22.147  1.00  0.00    -0.032 A 
ATOM      7  C   UNL     1      12.206 -52.578 -24.228  1.00  0.00     0.062 A 
ATOM      8  C   UNL     1      11.717 -53.538 -23.360  1.00  0.00     0.025 A 
ATOM      9  C   UNL     1      10.680 -54.451 -21.398  1.00  0.00     0.048 C 
ATOM     10  C   UNL     1      11.719 -54.984 -23.522  1.00  0.00     0.167 C 
ATOM     11  O   UNL     1      12.178 -55.561 -24.494  1.00  0.00    -0.294 OA
BRANCH   3  12
ATOM     12  O   UNL     1      11.394 -49.560 -22.329  1.00  0.00    -0.493 OA
ATOM     13  C   UNL     1      10.140 -48.914 -22.495  1.00  0.00     0.278 C 
ENDBRANCH   3  12
BRANCH   5  14
ATOM     14  O   UNL     1      12.516 -50.180 -24.605  1.00  0.00    -0.493 OA
ATOM     15  C   UNL     1      13.787 -50.288 -25.229  1.00  0.00     0.278 C 
ENDBRANCH   5  14
ENDBRANCH   1   2
BRANCH   1  16
ATOM     16  C   UNL     1      10.006 -57.974 -22.906  1.00  0.00    -0.021 A 
ATOM     17  C   UNL     1      11.198 -58.633 -22.581  1.00  0.00     0.075 A 
ATOM     18  C   UNL     1       8.960 -58.765 -23.406  1.00  0.00     0.085 A 
ATOM     19  C   UNL     1      11.350 -59.996 -22.821  1.00  0.00     0.308 A 
ATOM     20  C   UNL     1       9.151 -60.131 -23.620  1.00  0.00     0.324 A 
ATOM     21  N   UNL     1      10.337 -60.718 -23.343  1.00  0.00    -0.200 N 
ATOM     22  Br  UNL     1       7.243 -58.066 -23.815  1.00  0.00    -0.044 Br
BRANCH  21  23
ATOM     23  C   UNL     1      10.520 -62.167 -23.610  1.00  0.00     0.393 C 
BRANCH  23  24
ATOM     24  C   UNL     1       9.266 -62.780 -24.180  1.00  0.00     0.017 A 
ATOM     25  C   UNL     1       8.916 -62.589 -25.525  1.00  0.00     0.010 A 
ATOM     26  C   UNL     1       8.434 -63.566 -23.367  1.00  0.00     0.010 A 
ATOM     27  C   UNL     1       7.749 -63.157 -26.039  1.00  0.00     0.001 A 
ATOM     28  C   UNL     1       7.269 -64.133 -23.886  1.00  0.00     0.001 A 
ATOM     29  C   UNL     1       6.926 -63.925 -25.220  1.00  0.00     0.000 A 
ENDBRANCH  23  24
ENDBRANCH  21  23
ENDBRANCH   1  16
TORSDOF 6
ENDMDL
MODEL 5
REMARK VINA RESULT:   -10.171      3.973      8.666
REMARK INTER + INTRA:         -14.792
REMARK INTER:                 -14.319
REMARK INTRA:                  -0.473
REMARK UNBOUND:                -1.053
REMARK SMILES COc1cc2c(cc1OC)C(=O)[C@H](Cc1cc[n+](Cc3ccccc3)cc1Br)C2
REMARK SMILES IDX 14 1 13 2 3 3 4 4 8 5 5 6 7 7 6 8 29 9 11 10 12 11 2 12 1 13
REMARK SMILES IDX 9 14 10 15 15 16 16 17 27 18 17 19 26 20 18 21 28 22 19 23
REMARK SMILES IDX 20 24 21 25 25 26 22 27 24 28 23 29
REMARK H PARENT
ROOT
ATOM      1  C   UNL     1      10.403 -55.982 -22.387  1.00  0.00     0.049 C 
ENDROOT
BRANCH   1   2
ATOM      2  C   UNL     1      10.164 -54.806 -23.348  1.00  0.00     0.070 C 
ATOM      3  C   UNL     1      13.346 -51.464 -24.536  1.00  0.00     0.161 A 
ATOM      4  C   UNL     1      12.935 -52.760 -24.889  1.00  0.00     0.055 A 
ATOM      5  C   UNL     1      12.690 -50.763 -23.486  1.00  0.00     0.161 A 
ATOM      6  C   UNL     1      11.884 -53.339 -24.195  1.00  0.00    -0.032 A 
ATOM      7  C   UNL     1      11.632 -51.360 -22.796  1.00  0.00     0.062 A 
ATOM      8  C   UNL     1      11.260 -52.637 -23.176  1.00  0.00     0.025 A 
ATOM      9  C   UNL     1      11.291 -54.696 -24.408  1.00  0.00     0.048 C 
ATOM     10  C   UNL     1      10.207 -53.472 -22.619  1.00  0.00     0.167 C 
ATOM     11  O   UNL     1       9.479 -53.130 -21.701  1.00  0.00    -0.294 OA
BRANCH   3  12
ATOM     12  O   UNL     1      14.373 -50.790 -25.148  1.00  0.00    -0.493 OA
ATOM     13  C   UNL     1      14.169 -50.324 -26.474  1.00  0.00     0.278 C 
ENDBRANCH   3  12
BRANCH   5  14
ATOM     14  O   UNL     1      13.170 -49.503 -23.220  1.00  0.00    -0.493 OA
ATOM     15  C   UNL     1      12.289 -48.405 -23.406  1.00  0.00     0.278 C 
ENDBRANCH   5  14
ENDBRANCH   1   2
BRANCH   1  16
ATOM     16  C   UNL     1       9.719 -57.311 -22.676  1.00  0.00    -0.021 A 
ATOM     17  C   UNL     1       8.625 -57.405 -23.544  1.00  0.00     0.075 A 
ATOM     18  C   UNL     1      10.168 -58.504 -22.089  1.00  0.00     0.085 A 
ATOM     19  C   UNL     1       7.974 -58.620 -23.746  1.00  0.00     0.308 A 
ATOM     20  C   UNL     1       9.494 -59.703 -22.327  1.00  0.00     0.324 A 
ATOM     21  N   UNL     1       8.407 -59.740 -23.131  1.00  0.00    -0.200 N 
ATOM     22  Br  UNL     1      11.690 -58.588 -20.958  1.00  0.00    -0.044 Br
BRANCH  21  23
ATOM     23  C   UNL     1       7.692 -61.025 -23.342  1.00  0.00     0.393 C 
BRANCH  23  24
ATOM     24  C   UNL     1       8.038 -61.629 -24.679  1.00  0.00     0.017 A 
ATOM     25  C   UNL     1       9.028 -61.059 -25.495  1.00  0.00     0.010 A 
ATOM     26  C   UNL     1       7.378 -62.787 -25.121  1.00  0.00     0.010 A 
ATOM     27  C   UNL     1       9.335 -61.625 -26.733  1.00  0.00     0.001 A 
ATOM     28  C   UNL     1       7.690 -63.349 -26.359  1.00  0.00     0.001 A 
ATOM     29  C   UNL     1       8.665 -62.766 -27.165  1.00  0.00     0.000 A 
ENDBRANCH  23  24
ENDBRANCH  21  23
ENDBRANCH   1  16
TORSDOF 6
ENDMDL
MODEL 6
REMARK VINA RESULT:    -9.907      3.137      4.976
REMARK INTER + INTRA:         -14.435
REMARK INTER:                 -13.489
REMARK INTRA:                  -0.946
REMARK UNBOUND:                -1.053
REMARK SMILES COc1cc2c(cc1OC)C(=O)[C@H](Cc1cc[n+](Cc3ccccc3)cc1Br)C2
REMARK SMILES IDX 14 1 13 2 3 3 4 4 8 5 5 6 7 7 6 8 29 9 11 10 12 11 2 12 1 13
REMARK SMILES IDX 9 14 10 15 15 16 16 17 27 18 17 19 26 20 18 21 28 22 19 23
REMARK SMILES IDX 20 24 21 25 25 26 22 27 24 28 23 29
REMARK H PARENT
ROOT
ATOM      1  C   UNL     1       9.850 -54.868 -23.499  1.00  0.00     0.049 C 
ENDROOT
BRANCH   1   2
ATOM      2  C   UNL     1       9.970 -56.122 -22.617  1.00  0.00     0.070 C 
ATOM      3  C   UNL     1      11.988 -60.251 -23.874  1.00  0.00     0.161 A 
ATOM      4  C   UNL     1      12.311 -58.988 -23.353  1.00  0.00     0.055 A 
ATOM      5  C   UNL     1      10.638 -60.576 -24.186  1.00  0.00     0.161 A 
ATOM      6  C   UNL     1      11.294 -58.068 -23.151  1.00  0.00    -0.032 A 
ATOM      7  C   UNL     1       9.623 -59.639 -23.976  1.00  0.00     0.062 A 
ATOM      8  C   UNL     1       9.987 -58.407 -23.462  1.00  0.00     0.025 A 
ATOM      9  C   UNL     1      11.418 -56.680 -22.610  1.00  0.00     0.048 C 
ATOM     10  C   UNL     1       9.132 -57.269 -23.162  1.00  0.00     0.167 C 
ATOM     11  O   UNL     1       7.924 -57.259 -23.332  1.00  0.00    -0.294 OA
BRANCH   3  12
ATOM     12  O   UNL     1      12.907 -61.241 -24.118  1.00  0.00    -0.493 OA
ATOM     13  C   UNL     1      14.088 -60.894 -24.826  1.00  0.00     0.278 C 
ENDBRANCH   3  12
BRANCH   5  14
ATOM     14  O   UNL     1      10.429 -61.837 -24.691  1.00  0.00    -0.493 OA
ATOM     15  C   UNL     1       9.505 -61.979 -25.760  1.00  0.00     0.278 C 
ENDBRANCH   5  14
ENDBRANCH   1   2
BRANCH   1  16
ATOM     16  C   UNL     1      10.678 -53.642 -23.140  1.00  0.00    -0.021 A 
ATOM     17  C   UNL     1      10.388 -52.858 -22.017  1.00  0.00     0.075 A 
ATOM     18  C   UNL     1      11.778 -53.252 -23.918  1.00  0.00     0.085 A 
ATOM     19  C   UNL     1      11.118 -51.704 -21.742  1.00  0.00     0.308 A 
ATOM     20  C   UNL     1      12.491 -52.096 -23.601  1.00  0.00     0.324 A 
ATOM     21  N   UNL     1      12.144 -51.336 -22.537  1.00  0.00    -0.200 N 
ATOM     22  Br  UNL     1      12.379 -54.241 -25.423  1.00  0.00    -0.044 Br
BRANCH  21  23
ATOM     23  C   UNL     1      12.902 -50.094 -22.241  1.00  0.00     0.393 C 
BRANCH  23  24
ATOM     24  C   UNL     1      12.383 -48.932 -23.049  1.00  0.00     0.017 A 
ATOM     25  C   UNL     1      13.095 -48.447 -24.157  1.00  0.00     0.010 A 
ATOM     26  C   UNL     1      11.164 -48.325 -22.706  1.00  0.00     0.010 A 
ATOM     27  C   UNL     1      12.606 -47.366 -24.892  1.00  0.00     0.001 A 
ATOM     28  C   UNL     1      10.680 -47.245 -23.446  1.00  0.00     0.001 A 
ATOM     29  C   UNL     1      11.403 -46.765 -24.536  1.00  0.00     0.000 A 
ENDBRANCH  23  24
ENDBRANCH  21  23
ENDBRANCH   1  16
TORSDOF 6
ENDMDL
MODEL 7
REMARK VINA RESULT:    -9.499      2.883      7.239
REMARK INTER + INTRA:         -13.884
REMARK INTER:                 -13.726
REMARK INTRA:                  -0.157
REMARK UNBOUND:                -1.053
REMARK SMILES COc1cc2c(cc1OC)C(=O)[C@H](Cc1cc[n+](Cc3ccccc3)cc1Br)C2
REMARK SMILES IDX 14 1 13 2 3 3 4 4 8 5 5 6 7 7 6 8 29 9 11 10 12 11 2 12 1 13
REMARK SMILES IDX 9 14 10 15 15 16 16 17 27 18 17 19 26 20 18 21 28 22 19 23
REMARK SMILES IDX 20 24 21 25 25 26 22 27 24 28 23 29
REMARK H PARENT
ROOT
ATOM      1  C   UNL     1      10.015 -60.205 -21.023  1.00  0.00     0.049 C 
ENDROOT
BRANCH   1   2
ATOM      2  C   UNL     1      11.267 -59.364 -21.327  1.00  0.00     0.070 C 
ATOM      3  C   UNL     1      11.318 -54.792 -22.667  1.00  0.00     0.161 A 
ATOM      4  C   UNL     1      11.268 -55.596 -21.517  1.00  0.00     0.055 A 
ATOM      5  C   UNL     1      11.381 -55.388 -23.958  1.00  0.00     0.161 A 
ATOM      6  C   UNL     1      11.281 -56.974 -21.664  1.00  0.00    -0.032 A 
ATOM      7  C   UNL     1      11.394 -56.779 -24.090  1.00  0.00     0.062 A 
ATOM      8  C   UNL     1      11.343 -57.532 -22.931  1.00  0.00     0.025 A 
ATOM      9  C   UNL     1      11.238 -58.005 -20.580  1.00  0.00     0.048 C 
ATOM     10  C   UNL     1      11.338 -58.981 -22.797  1.00  0.00     0.167 C 
ATOM     11  O   UNL     1      11.381 -59.753 -23.741  1.00  0.00    -0.294 OA
BRANCH   3  12
ATOM     12  O   UNL     1      11.308 -53.420 -22.648  1.00  0.00    -0.493 OA
ATOM     13  C   UNL     1      10.092 -52.766 -22.316  1.00  0.00     0.278 C 
ENDBRANCH   3  12
BRANCH   5  14
ATOM     14  O   UNL     1      11.424 -54.514 -25.017  1.00  0.00    -0.493 OA
ATOM     15  C   UNL     1      12.602 -54.491 -25.811  1.00  0.00     0.278 C 
ENDBRANCH   5  14
ENDBRANCH   1   2
BRANCH   1  16
ATOM     16  C   UNL     1       9.397 -61.025 -22.145  1.00  0.00    -0.021 A 
ATOM     17  C   UNL     1       9.784 -62.348 -22.393  1.00  0.00     0.075 A 
ATOM     18  C   UNL     1       8.401 -60.490 -22.976  1.00  0.00     0.085 A 
ATOM     19  C   UNL     1       9.252 -63.060 -23.465  1.00  0.00     0.308 A 
ATOM     20  C   UNL     1       7.885 -61.242 -24.032  1.00  0.00     0.324 A 
ATOM     21  N   UNL     1       8.326 -62.499 -24.270  1.00  0.00    -0.200 N 
ATOM     22  Br  UNL     1       7.684 -58.748 -22.736  1.00  0.00    -0.044 Br
BRANCH  21  23
ATOM     23  C   UNL     1       7.780 -63.264 -25.419  1.00  0.00     0.393 C 
BRANCH  23  24
ATOM     24  C   UNL     1       8.390 -62.806 -26.719  1.00  0.00     0.017 A 
ATOM     25  C   UNL     1       9.269 -61.712 -26.759  1.00  0.00     0.010 A 
ATOM     26  C   UNL     1       8.095 -63.482 -27.913  1.00  0.00     0.010 A 
ATOM     27  C   UNL     1       9.822 -61.294 -27.970  1.00  0.00     0.001 A 
ATOM     28  C   UNL     1       8.652 -63.060 -29.121  1.00  0.00     0.001 A 
ATOM     29  C   UNL     1       9.512 -61.965 -29.149  1.00  0.00     0.000 A 
ENDBRANCH  23  24
ENDBRANCH  21  23
ENDBRANCH   1  16
TORSDOF 6
ENDMDL
MODEL 8
REMARK VINA RESULT:    -9.422      4.468      9.385
REMARK INTER + INTRA:         -13.780
REMARK INTER:                 -12.950
REMARK INTRA:                  -0.830
REMARK UNBOUND:                -1.053
REMARK SMILES COc1cc2c(cc1OC)C(=O)[C@H](Cc1cc[n+](Cc3ccccc3)cc1Br)C2
REMARK SMILES IDX 14 1 13 2 3 3 4 4 8 5 5 6 7 7 6 8 29 9 11 10 12 11 2 12 1 13
REMARK SMILES IDX 9 14 10 15 15 16 16 17 27 18 17 19 26 20 18 21 28 22 19 23
REMARK SMILES IDX 20 24 21 25 25 26 22 27 24 28 23 29
REMARK H PARENT
ROOT
ATOM      1  C   UNL     1      11.496 -53.833 -24.061  1.00  0.00     0.049 C 
ENDROOT
BRANCH   1   2
ATOM      2  C   UNL     1      12.724 -52.949 -23.785  1.00  0.00     0.070 C 
ATOM      3  C   UNL     1      13.348 -48.469 -25.280  1.00  0.00     0.161 A 
ATOM      4  C   UNL     1      12.758 -49.204 -24.240  1.00  0.00     0.055 A 
ATOM      5  C   UNL     1      14.041 -49.136 -26.329  1.00  0.00     0.161 A 
ATOM      6  C   UNL     1      12.862 -50.586 -24.255  1.00  0.00    -0.032 A 
ATOM      7  C   UNL     1      14.139 -50.530 -26.331  1.00  0.00     0.062 A 
ATOM      8  C   UNL     1      13.542 -51.214 -25.287  1.00  0.00     0.025 A 
ATOM      9  C   UNL     1      12.314 -51.551 -23.253  1.00  0.00     0.048 C 
ATOM     10  C   UNL     1      13.495 -52.651 -25.061  1.00  0.00     0.167 C 
ATOM     11  O   UNL     1      14.005 -53.475 -25.803  1.00  0.00    -0.294 OA
BRANCH   3  12
ATOM     12  O   UNL     1      13.309 -47.100 -25.374  1.00  0.00    -0.493 OA
ATOM     13  C   UNL     1      12.226 -46.420 -24.756  1.00  0.00     0.278 C 
ENDBRANCH   3  12
BRANCH   5  14
ATOM     14  O   UNL     1      14.581 -48.325 -27.298  1.00  0.00    -0.493 OA
ATOM     15  C   UNL     1      15.256 -48.946 -28.383  1.00  0.00     0.278 C 
ENDBRANCH   5  14
ENDBRANCH   1   2
BRANCH   1  16
ATOM     16  C   UNL     1      11.458 -55.234 -23.468  1.00  0.00    -0.021 A 
ATOM     17  C   UNL     1      11.852 -56.358 -24.203  1.00  0.00     0.075 A 
ATOM     18  C   UNL     1      11.033 -55.456 -22.149  1.00  0.00     0.085 A 
ATOM     19  C   UNL     1      11.750 -57.638 -23.664  1.00  0.00     0.308 A 
ATOM     20  C   UNL     1      10.956 -56.754 -21.643  1.00  0.00     0.324 A 
ATOM     21  N   UNL     1      11.296 -57.818 -22.406  1.00  0.00    -0.200 N 
ATOM     22  Br  UNL     1      10.548 -54.048 -20.972  1.00  0.00    -0.044 Br
BRANCH  21  23
ATOM     23  C   UNL     1      11.175 -59.190 -21.850  1.00  0.00     0.393 C 
BRANCH  23  24
ATOM     24  C   UNL     1      10.393 -60.087 -22.775  1.00  0.00     0.017 A 
ATOM     25  C   UNL     1       9.056 -59.805 -23.095  1.00  0.00     0.010 A 
ATOM     26  C   UNL     1      11.003 -61.217 -23.343  1.00  0.00     0.010 A 
ATOM     27  C   UNL     1       8.341 -60.647 -23.948  1.00  0.00     0.001 A 
ATOM     28  C   UNL     1      10.283 -62.055 -24.196  1.00  0.00     0.001 A 
ATOM     29  C   UNL     1       8.953 -61.771 -24.495  1.00  0.00     0.000 A 
ENDBRANCH  23  24
ENDBRANCH  21  23
ENDBRANCH   1  16
TORSDOF 6
ENDMDL
MODEL 9
REMARK VINA RESULT:    -9.246      4.945      9.937
REMARK INTER + INTRA:         -13.542
REMARK INTER:                 -12.870
REMARK INTRA:                  -0.672
REMARK UNBOUND:                -1.053
REMARK SMILES COc1cc2c(cc1OC)C(=O)[C@H](Cc1cc[n+](Cc3ccccc3)cc1Br)C2
REMARK SMILES IDX 14 1 13 2 3 3 4 4 8 5 5 6 7 7 6 8 29 9 11 10 12 11 2 12 1 13
REMARK SMILES IDX 9 14 10 15 15 16 16 17 27 18 17 19 26 20 18 21 28 22 19 23
REMARK SMILES IDX 20 24 21 25 25 26 22 27 24 28 23 29
REMARK H PARENT
ROOT
ATOM      1  C   UNL     1      10.796 -53.802 -23.619  1.00  0.00     0.049 C 
ENDROOT
BRANCH   1   2
ATOM      2  C   UNL     1      11.529 -52.769 -22.747  1.00  0.00     0.070 C 
ATOM      3  C   UNL     1      11.100 -48.033 -23.051  1.00  0.00     0.161 A 
ATOM      4  C   UNL     1      10.492 -49.153 -22.460  1.00  0.00     0.055 A 
ATOM      5  C   UNL     1      12.254 -48.190 -23.869  1.00  0.00     0.161 A 
ATOM      6  C   UNL     1      11.035 -50.407 -22.689  1.00  0.00    -0.032 A 
ATOM      7  C   UNL     1      12.790 -49.461 -24.090  1.00  0.00     0.062 A 
ATOM      8  C   UNL     1      12.159 -50.536 -23.489  1.00  0.00     0.025 A 
ATOM      9  C   UNL     1      10.550 -51.719 -22.159  1.00  0.00     0.048 C 
ATOM     10  C   UNL     1      12.511 -51.945 -23.565  1.00  0.00     0.167 C 
ATOM     11  O   UNL     1      13.459 -52.378 -24.202  1.00  0.00    -0.294 OA
BRANCH   3  12
ATOM     12  O   UNL     1      10.653 -46.744 -22.899  1.00  0.00    -0.493 OA
ATOM     13  C   UNL     1      11.225 -45.958 -21.864  1.00  0.00     0.278 C 
ENDBRANCH   3  12
BRANCH   5  14
ATOM     14  O   UNL     1      12.770 -47.033 -24.400  1.00  0.00    -0.493 OA
ATOM     15  C   UNL     1      14.183 -46.900 -24.452  1.00  0.00     0.278 C 
ENDBRANCH   5  14
ENDBRANCH   1   2
BRANCH   1  16
ATOM     16  C   UNL     1      11.090 -55.279 -23.402  1.00  0.00    -0.021 A 
ATOM     17  C   UNL     1      10.600 -55.975 -22.290  1.00  0.00     0.075 A 
ATOM     18  C   UNL     1      11.861 -56.011 -24.318  1.00  0.00     0.085 A 
ATOM     19  C   UNL     1      10.933 -57.310 -22.077  1.00  0.00     0.308 A 
ATOM     20  C   UNL     1      12.162 -57.352 -24.073  1.00  0.00     0.324 A 
ATOM     21  N   UNL     1      11.712 -57.972 -22.958  1.00  0.00    -0.200 N 
ATOM     22  Br  UNL     1      12.534 -55.264 -25.928  1.00  0.00    -0.044 Br
BRANCH  21  23
ATOM     23  C   UNL     1      12.074 -59.390 -22.709  1.00  0.00     0.393 C 
BRANCH  23  24
ATOM     24  C   UNL     1      11.002 -60.323 -23.210  1.00  0.00     0.017 A 
ATOM     25  C   UNL     1      10.012 -60.818 -22.347  1.00  0.00     0.010 A 
ATOM     26  C   UNL     1      10.972 -60.700 -24.563  1.00  0.00     0.010 A 
ATOM     27  C   UNL     1       9.029 -61.686 -22.823  1.00  0.00     0.001 A 
ATOM     28  C   UNL     1       9.986 -61.568 -25.033  1.00  0.00     0.001 A 
ATOM     29  C   UNL     1       9.017 -62.062 -24.163  1.00  0.00     0.000 A 
ENDBRANCH  23  24
ENDBRANCH  21  23
ENDBRANCH   1  16
TORSDOF 6
ENDMDL
