MODEL 1
REMARK VINA RESULT:   -10.025      0.000      0.000
REMARK INTER + INTRA:         -17.145
REMARK INTER:                 -15.299
REMARK INTRA:                  -1.846
REMARK UNBOUND:                -1.846
REMARK SMILES CNC(=O)Oc1cccc(C[N@@H+](C)CCCOc2ccc3ccc(=O)oc3c2)c1
REMARK SMILES IDX 12 1 13 2 11 4 10 5 9 6 29 7 8 8 6 9 7 10 5 11 3 12 2 13
REMARK SMILES IDX 4 14 1 15 14 17 15 18 16 19 17 20 18 21 19 22 28 23 20 24
REMARK SMILES IDX 27 25 21 26 26 27 22 28 24 29 23 30 25 31
REMARK H PARENT 12 3 2 16
ROOT
ATOM      1  N   UNL     1       6.770 -59.274 -22.997  1.00  0.00    -0.334 N 
ATOM      2  C   UNL     1       5.528 -58.628 -22.436  1.00  0.00     0.333 C 
ATOM      3  H   UNL     1       7.336 -59.544 -22.184  1.00  0.00     0.348 HD
ENDROOT
BRANCH   1   4
ATOM      4  C   UNL     1       7.611 -58.278 -23.779  1.00  0.00     0.298 C 
BRANCH   4   5
ATOM      5  C   UNL     1       8.935 -57.989 -23.127  1.00  0.00     0.010 A 
ATOM      6  C   UNL     1       9.636 -58.992 -22.441  1.00  0.00     0.010 A 
ATOM      7  C   UNL     1       9.486 -56.698 -23.199  1.00  0.00     0.056 A 
ATOM      8  C   UNL     1      10.865 -58.711 -21.837  1.00  0.00     0.004 A 
ATOM      9  C   UNL     1      10.697 -56.421 -22.565  1.00  0.00     0.133 A 
ATOM     10  C   UNL     1      11.399 -57.424 -21.901  1.00  0.00     0.047 A 
BRANCH   9  11
ATOM     11  O   UNL     1      11.308 -55.152 -22.594  1.00  0.00    -0.410 OA
BRANCH  11  12
ATOM     12  C   UNL     1      10.714 -54.065 -21.959  1.00  0.00     0.412 C 
ATOM     13  N   UNL     1      11.090 -52.913 -22.585  1.00  0.00    -0.324 N 
ATOM     14  O   UNL     1       9.958 -54.128 -20.999  1.00  0.00    -0.224 OA
ATOM     15  C   UNL     1      10.595 -51.619 -22.196  1.00  0.00     0.146 C 
ATOM     16  H   UNL     1      11.670 -53.002 -23.409  1.00  0.00     0.166 HD
ENDBRANCH  11  12
ENDBRANCH   9  11
ENDBRANCH   4   5
ENDBRANCH   1   4
BRANCH   1  17
ATOM     17  C   UNL     1       6.438 -60.513 -23.802  1.00  0.00     0.265 C 
BRANCH  17  18
ATOM     18  C   UNL     1       6.927 -61.786 -23.121  1.00  0.00     0.103 C 
BRANCH  18  19
ATOM     19  C   UNL     1       6.981 -62.988 -24.065  1.00  0.00     0.235 C 
BRANCH  19  20
ATOM     20  O   UNL     1       8.324 -63.437 -24.211  1.00  0.00    -0.493 OA
BRANCH  20  21
ATOM     21  C   UNL     1       9.286 -62.550 -24.605  1.00  0.00     0.123 A 
ATOM     22  C   UNL     1      10.349 -62.408 -23.704  1.00  0.00     0.047 A 
ATOM     23  C   UNL     1       9.285 -61.797 -25.777  1.00  0.00     0.094 A 
ATOM     24  C   UNL     1      11.408 -61.529 -23.967  1.00  0.00     0.016 A 
ATOM     25  C   UNL     1      10.346 -60.924 -26.025  1.00  0.00     0.142 A 
ATOM     26  C   UNL     1      11.409 -60.778 -25.140  1.00  0.00     0.018 A 
ATOM     27  O   UNL     1      10.294 -60.182 -27.223  1.00  0.00    -0.423 OA
ATOM     28  C   UNL     1      12.478 -59.850 -25.467  1.00  0.00     0.019 A 
ATOM     29  C   UNL     1      11.299 -59.284 -27.557  1.00  0.00     0.336 A 
ATOM     30  C   UNL     1      12.418 -59.152 -26.607  1.00  0.00     0.094 A 
ATOM     31  O   UNL     1      11.266 -58.626 -28.589  1.00  0.00    -0.246 OA
ENDBRANCH  20  21
ENDBRANCH  19  20
ENDBRANCH  18  19
ENDBRANCH  17  18
ENDBRANCH   1  17
TORSDOF 9
ENDMDL
MODEL 2
REMARK VINA RESULT:    -9.637      3.199      7.756
REMARK INTER + INTRA:         -16.554
REMARK INTER:                 -15.684
REMARK INTRA:                  -0.871
REMARK UNBOUND:                -1.846
REMARK SMILES CNC(=O)Oc1cccc(C[N@@H+](C)CCCOc2ccc3ccc(=O)oc3c2)c1
REMARK SMILES IDX 12 1 13 2 11 4 10 5 9 6 29 7 8 8 6 9 7 10 5 11 3 12 2 13
REMARK SMILES IDX 4 14 1 15 14 17 15 18 16 19 17 20 18 21 19 22 28 23 20 24
REMARK SMILES IDX 27 25 21 26 26 27 22 28 24 29 23 30 25 31
REMARK H PARENT 12 3 2 16
ROOT
ATOM      1  N   UNL     1      10.026 -59.811 -22.504  1.00  0.00    -0.334 N 
ATOM      2  C   UNL     1      10.452 -59.856 -21.057  1.00  0.00     0.333 C 
ATOM      3  H   UNL     1       9.102 -60.256 -22.537  1.00  0.00     0.348 HD
ENDROOT
BRANCH   1   4
ATOM      4  C   UNL     1      10.933 -60.664 -23.377  1.00  0.00     0.298 C 
BRANCH   4   5
ATOM      5  C   UNL     1      10.258 -61.137 -24.635  1.00  0.00     0.010 A 
ATOM      6  C   UNL     1       9.227 -62.087 -24.589  1.00  0.00     0.010 A 
ATOM      7  C   UNL     1      10.662 -60.629 -25.882  1.00  0.00     0.056 A 
ATOM      8  C   UNL     1       8.610 -62.521 -25.765  1.00  0.00     0.004 A 
ATOM      9  C   UNL     1      10.062 -61.093 -27.052  1.00  0.00     0.133 A 
ATOM     10  C   UNL     1       9.025 -62.021 -26.999  1.00  0.00     0.047 A 
BRANCH   9  11
ATOM     11  O   UNL     1      10.415 -60.630 -28.334  1.00  0.00    -0.410 OA
BRANCH  11  12
ATOM     12  C   UNL     1      11.579 -59.891 -28.525  1.00  0.00     0.412 C 
ATOM     13  N   UNL     1      11.277 -58.561 -28.524  1.00  0.00    -0.324 N 
ATOM     14  O   UNL     1      12.703 -60.356 -28.657  1.00  0.00    -0.224 OA
ATOM     15  C   UNL     1      12.280 -57.536 -28.643  1.00  0.00     0.146 C 
ATOM     16  H   UNL     1      10.316 -58.304 -28.341  1.00  0.00     0.166 HD
ENDBRANCH  11  12
ENDBRANCH   9  11
ENDBRANCH   4   5
ENDBRANCH   1   4
BRANCH   1  17
ATOM     17  C   UNL     1       9.907 -58.387 -23.005  1.00  0.00     0.265 C 
BRANCH  17  18
ATOM     18  C   UNL     1      11.228 -57.632 -22.902  1.00  0.00     0.103 C 
BRANCH  18  19
ATOM     19  C   UNL     1      11.051 -56.113 -22.913  1.00  0.00     0.235 C 
BRANCH  19  20
ATOM     20  O   UNL     1      11.374 -55.591 -24.199  1.00  0.00    -0.493 OA
BRANCH  20  21
ATOM     21  C   UNL     1      11.813 -54.302 -24.304  1.00  0.00     0.123 A 
ATOM     22  C   UNL     1      11.399 -53.461 -23.263  1.00  0.00     0.047 A 
ATOM     23  C   UNL     1      12.597 -53.777 -25.329  1.00  0.00     0.094 A 
ATOM     24  C   UNL     1      11.766 -52.108 -23.236  1.00  0.00     0.016 A 
ATOM     25  C   UNL     1      12.953 -52.427 -25.290  1.00  0.00     0.142 A 
ATOM     26  C   UNL     1      12.551 -51.583 -24.260  1.00  0.00     0.018 A 
ATOM     27  O   UNL     1      13.742 -51.946 -26.354  1.00  0.00    -0.423 OA
ATOM     28  C   UNL     1      12.962 -50.190 -24.287  1.00  0.00     0.019 A 
ATOM     29  C   UNL     1      14.143 -50.618 -26.408  1.00  0.00     0.336 A 
ATOM     30  C   UNL     1      13.712 -49.744 -25.302  1.00  0.00     0.094 A 
ATOM     31  O   UNL     1      14.823 -50.181 -27.329  1.00  0.00    -0.246 OA
ENDBRANCH  20  21
ENDBRANCH  19  20
ENDBRANCH  18  19
ENDBRANCH  17  18
ENDBRANCH   1  17
TORSDOF 9
ENDMDL
MODEL 3
REMARK VINA RESULT:    -9.362      3.431      9.718
REMARK INTER + INTRA:         -16.134
REMARK INTER:                 -15.155
REMARK INTRA:                  -0.979
REMARK UNBOUND:                -1.846
REMARK SMILES CNC(=O)Oc1cccc(C[N@@H+](C)CCCOc2ccc3ccc(=O)oc3c2)c1
REMARK SMILES IDX 12 1 13 2 11 4 10 5 9 6 29 7 8 8 6 9 7 10 5 11 3 12 2 13
REMARK SMILES IDX 4 14 1 15 14 17 15 18 16 19 17 20 18 21 19 22 28 23 20 24
REMARK SMILES IDX 27 25 21 26 26 27 22 28 24 29 23 30 25 31
REMARK H PARENT 12 3 2 16
ROOT
ATOM      1  N   UNL     1      10.333 -54.992 -22.248  1.00  0.00    -0.334 N 
ATOM      2  C   UNL     1      10.433 -54.059 -21.067  1.00  0.00     0.333 C 
ATOM      3  H   UNL     1       9.433 -55.475 -22.147  1.00  0.00     0.348 HD
ENDROOT
BRANCH   1   4
ATOM      4  C   UNL     1      11.397 -56.076 -22.193  1.00  0.00     0.298 C 
BRANCH   4   5
ATOM      5  C   UNL     1      10.820 -57.465 -22.198  1.00  0.00     0.010 A 
ATOM      6  C   UNL     1      11.242 -58.426 -21.268  1.00  0.00     0.010 A 
ATOM      7  C   UNL     1       9.846 -57.816 -23.148  1.00  0.00     0.056 A 
ATOM      8  C   UNL     1      10.701 -59.714 -21.285  1.00  0.00     0.004 A 
ATOM      9  C   UNL     1       9.337 -59.114 -23.177  1.00  0.00     0.133 A 
ATOM     10  C   UNL     1       9.744 -60.059 -22.238  1.00  0.00     0.047 A 
BRANCH   9  11
ATOM     11  O   UNL     1       8.360 -59.537 -24.099  1.00  0.00    -0.410 OA
BRANCH  11  12
ATOM     12  C   UNL     1       8.732 -60.105 -25.315  1.00  0.00     0.412 C 
ATOM     13  N   UNL     1       8.562 -61.457 -25.253  1.00  0.00    -0.324 N 
ATOM     14  O   UNL     1       9.133 -59.491 -26.294  1.00  0.00    -0.224 OA
ATOM     15  C   UNL     1       8.808 -62.323 -26.377  1.00  0.00     0.146 C 
ATOM     16  H   UNL     1       8.162 -61.836 -24.406  1.00  0.00     0.166 HD
ENDBRANCH  11  12
ENDBRANCH   9  11
ENDBRANCH   4   5
ENDBRANCH   1   4
BRANCH   1  17
ATOM     17  C   UNL     1      10.342 -54.234 -23.559  1.00  0.00     0.265 C 
BRANCH  17  18
ATOM     18  C   UNL     1      11.635 -54.451 -24.337  1.00  0.00     0.103 C 
BRANCH  18  19
ATOM     19  C   UNL     1      12.440 -53.165 -24.532  1.00  0.00     0.235 C 
BRANCH  19  20
ATOM     20  O   UNL     1      12.335 -52.341 -23.375  1.00  0.00    -0.493 OA
BRANCH  20  21
ATOM     21  C   UNL     1      12.226 -50.988 -23.527  1.00  0.00     0.123 A 
ATOM     22  C   UNL     1      13.038 -50.450 -24.533  1.00  0.00     0.047 A 
ATOM     23  C   UNL     1      11.413 -50.135 -22.784  1.00  0.00     0.094 A 
ATOM     24  C   UNL     1      13.041 -49.075 -24.804  1.00  0.00     0.016 A 
ATOM     25  C   UNL     1      11.428 -48.767 -23.062  1.00  0.00     0.142 A 
ATOM     26  C   UNL     1      12.227 -48.222 -24.061  1.00  0.00     0.018 A 
ATOM     27  O   UNL     1      10.591 -47.948 -22.277  1.00  0.00    -0.423 OA
ATOM     28  C   UNL     1      12.187 -46.788 -24.295  1.00  0.00     0.019 A 
ATOM     29  C   UNL     1      10.538 -46.575 -22.475  1.00  0.00     0.336 A 
ATOM     30  C   UNL     1      11.389 -46.021 -23.543  1.00  0.00     0.094 A 
ATOM     31  O   UNL     1       9.823 -45.848 -21.797  1.00  0.00    -0.246 OA
ENDBRANCH  20  21
ENDBRANCH  19  20
ENDBRANCH  18  19
ENDBRANCH  17  18
ENDBRANCH   1  17
TORSDOF 9
ENDMDL
MODEL 4
REMARK VINA RESULT:    -9.350      2.935      7.493
REMARK INTER + INTRA:         -16.116
REMARK INTER:                 -15.793
REMARK INTRA:                  -0.323
REMARK UNBOUND:                -1.846
REMARK SMILES CNC(=O)Oc1cccc(C[N@@H+](C)CCCOc2ccc3ccc(=O)oc3c2)c1
REMARK SMILES IDX 12 1 13 2 11 4 10 5 9 6 29 7 8 8 6 9 7 10 5 11 3 12 2 13
REMARK SMILES IDX 4 14 1 15 14 17 15 18 16 19 17 20 18 21 19 22 28 23 20 24
REMARK SMILES IDX 27 25 21 26 26 27 22 28 24 29 23 30 25 31
REMARK H PARENT 12 3 2 16
ROOT
ATOM      1  N   UNL     1      11.876 -59.685 -23.359  1.00  0.00    -0.334 N 
ATOM      2  C   UNL     1      11.701 -60.433 -24.658  1.00  0.00     0.333 C 
ATOM      3  H   UNL     1      12.878 -59.730 -23.143  1.00  0.00     0.348 HD
ENDROOT
BRANCH   1   4
ATOM      4  C   UNL     1      11.167 -60.387 -22.213  1.00  0.00     0.298 C 
BRANCH   4   5
ATOM      5  C   UNL     1      10.038 -61.268 -22.673  1.00  0.00     0.010 A 
ATOM      6  C   UNL     1      10.188 -62.662 -22.731  1.00  0.00     0.010 A 
ATOM      7  C   UNL     1       8.813 -60.697 -23.055  1.00  0.00     0.056 A 
ATOM      8  C   UNL     1       9.132 -63.470 -23.163  1.00  0.00     0.004 A 
ATOM      9  C   UNL     1       7.778 -61.510 -23.516  1.00  0.00     0.133 A 
ATOM     10  C   UNL     1       7.924 -62.894 -23.553  1.00  0.00     0.047 A 
BRANCH   9  11
ATOM     11  O   UNL     1       6.524 -61.007 -23.916  1.00  0.00    -0.410 OA
BRANCH  11  12
ATOM     12  C   UNL     1       6.142 -59.711 -23.583  1.00  0.00     0.412 C 
ATOM     13  N   UNL     1       5.074 -59.757 -22.736  1.00  0.00    -0.324 N 
ATOM     14  O   UNL     1       6.685 -58.686 -23.974  1.00  0.00    -0.224 OA
ATOM     15  C   UNL     1       4.483 -58.574 -22.167  1.00  0.00     0.146 C 
ATOM     16  H   UNL     1       4.758 -60.669 -22.438  1.00  0.00     0.166 HD
ENDBRANCH  11  12
ENDBRANCH   9  11
ENDBRANCH   4   5
ENDBRANCH   1   4
BRANCH   1  17
ATOM     17  C   UNL     1      11.464 -58.233 -23.495  1.00  0.00     0.265 C 
BRANCH  17  18
ATOM     18  C   UNL     1      11.112 -57.610 -22.150  1.00  0.00     0.103 C 
BRANCH  18  19
ATOM     19  C   UNL     1      10.583 -56.180 -22.272  1.00  0.00     0.235 C 
BRANCH  19  20
ATOM     20  O   UNL     1      10.795 -55.690 -23.593  1.00  0.00    -0.493 OA
BRANCH  20  21
ATOM     21  C   UNL     1      11.333 -54.446 -23.765  1.00  0.00     0.123 A 
ATOM     22  C   UNL     1      11.006 -53.529 -22.759  1.00  0.00     0.047 A 
ATOM     23  C   UNL     1      12.138 -54.033 -24.824  1.00  0.00     0.094 A 
ATOM     24  C   UNL     1      11.479 -52.210 -22.800  1.00  0.00     0.016 A 
ATOM     25  C   UNL     1      12.599 -52.716 -24.854  1.00  0.00     0.142 A 
ATOM     26  C   UNL     1      12.284 -51.797 -23.858  1.00  0.00     0.018 A 
ATOM     27  O   UNL     1      13.405 -52.348 -25.950  1.00  0.00    -0.423 OA
ATOM     28  C   UNL     1      12.804 -50.443 -23.957  1.00  0.00     0.019 A 
ATOM     29  C   UNL     1      13.909 -51.060 -26.072  1.00  0.00     0.336 A 
ATOM     30  C   UNL     1      13.568 -50.106 -25.002  1.00  0.00     0.094 A 
ATOM     31  O   UNL     1      14.605 -50.721 -27.022  1.00  0.00    -0.246 OA
ENDBRANCH  20  21
ENDBRANCH  19  20
ENDBRANCH  18  19
ENDBRANCH  17  18
ENDBRANCH   1  17
TORSDOF 9
ENDMDL
MODEL 5
REMARK VINA RESULT:    -9.234      3.074      8.255
REMARK INTER + INTRA:         -15.940
REMARK INTER:                 -15.628
REMARK INTRA:                  -0.311
REMARK UNBOUND:                -1.846
REMARK SMILES CNC(=O)Oc1cccc(C[N@@H+](C)CCCOc2ccc3ccc(=O)oc3c2)c1
REMARK SMILES IDX 12 1 13 2 11 4 10 5 9 6 29 7 8 8 6 9 7 10 5 11 3 12 2 13
REMARK SMILES IDX 4 14 1 15 14 17 15 18 16 19 17 20 18 21 19 22 28 23 20 24
REMARK SMILES IDX 27 25 21 26 26 27 22 28 24 29 23 30 25 31
REMARK H PARENT 12 3 2 16
ROOT
ATOM      1  N   UNL     1      11.712 -59.629 -22.858  1.00  0.00    -0.334 N 
ATOM      2  C   UNL     1      11.919 -60.566 -24.023  1.00  0.00     0.333 C 
ATOM      3  H   UNL     1      12.601 -59.622 -22.344  1.00  0.00     0.348 HD
ENDROOT
BRANCH   1   4
ATOM      4  C   UNL     1      10.672 -60.167 -21.889  1.00  0.00     0.298 C 
BRANCH   4   5
ATOM      5  C   UNL     1       9.363 -60.491 -22.555  1.00  0.00     0.010 A 
ATOM      6  C   UNL     1       8.384 -59.503 -22.741  1.00  0.00     0.010 A 
ATOM      7  C   UNL     1       9.105 -61.799 -22.997  1.00  0.00     0.056 A 
ATOM      8  C   UNL     1       7.170 -59.816 -23.359  1.00  0.00     0.004 A 
ATOM      9  C   UNL     1       7.877 -62.108 -23.582  1.00  0.00     0.133 A 
ATOM     10  C   UNL     1       6.916 -61.120 -23.783  1.00  0.00     0.047 A 
BRANCH   9  11
ATOM     11  O   UNL     1       7.549 -63.396 -24.048  1.00  0.00    -0.410 OA
BRANCH  11  12
ATOM     12  C   UNL     1       7.240 -63.607 -25.389  1.00  0.00     0.412 C 
ATOM     13  N   UNL     1       8.171 -62.987 -26.171  1.00  0.00    -0.324 N 
ATOM     14  O   UNL     1       6.293 -64.259 -25.807  1.00  0.00    -0.224 OA
ATOM     15  C   UNL     1       8.158 -63.069 -27.607  1.00  0.00     0.146 C 
ATOM     16  H   UNL     1       8.942 -62.533 -25.701  1.00  0.00     0.166 HD
ENDBRANCH  11  12
ENDBRANCH   9  11
ENDBRANCH   4   5
ENDBRANCH   1   4
BRANCH   1  17
ATOM     17  C   UNL     1      11.400 -58.223 -23.324  1.00  0.00     0.265 C 
BRANCH  17  18
ATOM     18  C   UNL     1      11.364 -57.230 -22.167  1.00  0.00     0.103 C 
BRANCH  18  19
ATOM     19  C   UNL     1      10.700 -55.903 -22.537  1.00  0.00     0.235 C 
BRANCH  19  20
ATOM     20  O   UNL     1      11.121 -55.489 -23.833  1.00  0.00    -0.493 OA
BRANCH  20  21
ATOM     21  C   UNL     1      11.605 -54.222 -24.004  1.00  0.00     0.123 A 
ATOM     22  C   UNL     1      11.251 -53.324 -22.989  1.00  0.00     0.047 A 
ATOM     23  C   UNL     1      12.379 -53.770 -25.070  1.00  0.00     0.094 A 
ATOM     24  C   UNL     1      11.668 -51.987 -23.028  1.00  0.00     0.016 A 
ATOM     25  C   UNL     1      12.785 -52.435 -25.097  1.00  0.00     0.142 A 
ATOM     26  C   UNL     1      12.443 -51.535 -24.093  1.00  0.00     0.018 A 
ATOM     27  O   UNL     1      13.562 -52.028 -26.201  1.00  0.00    -0.423 OA
ATOM     28  C   UNL     1      12.905 -50.160 -24.190  1.00  0.00     0.019 A 
ATOM     29  C   UNL     1      14.010 -50.719 -26.321  1.00  0.00     0.336 A 
ATOM     30  C   UNL     1      13.642 -49.785 -25.241  1.00  0.00     0.094 A 
ATOM     31  O   UNL     1      14.680 -50.347 -27.276  1.00  0.00    -0.246 OA
ENDBRANCH  20  21
ENDBRANCH  19  20
ENDBRANCH  18  19
ENDBRANCH  17  18
ENDBRANCH   1  17
TORSDOF 9
ENDMDL
MODEL 6
REMARK VINA RESULT:    -9.134      2.552      6.994
REMARK INTER + INTRA:         -15.786
REMARK INTER:                 -14.729
REMARK INTRA:                  -1.057
REMARK UNBOUND:                -1.846
REMARK SMILES CNC(=O)Oc1cccc(C[N@@H+](C)CCCOc2ccc3ccc(=O)oc3c2)c1
REMARK SMILES IDX 12 1 13 2 11 4 10 5 9 6 29 7 8 8 6 9 7 10 5 11 3 12 2 13
REMARK SMILES IDX 4 14 1 15 14 17 15 18 16 19 17 20 18 21 19 22 28 23 20 24
REMARK SMILES IDX 27 25 21 26 26 27 22 28 24 29 23 30 25 31
REMARK H PARENT 12 3 2 16
ROOT
ATOM      1  N   UNL     1       8.250 -60.330 -23.994  1.00  0.00    -0.334 N 
ATOM      2  C   UNL     1       7.424 -61.586 -24.111  1.00  0.00     0.333 C 
ATOM      3  H   UNL     1       8.505 -60.073 -24.954  1.00  0.00     0.348 HD
ENDROOT
BRANCH   1   4
ATOM      4  C   UNL     1       9.560 -60.590 -23.268  1.00  0.00     0.298 C 
BRANCH   4   5
ATOM      5  C   UNL     1      10.763 -60.453 -24.161  1.00  0.00     0.010 A 
ATOM      6  C   UNL     1      12.010 -60.967 -23.778  1.00  0.00     0.010 A 
ATOM      7  C   UNL     1      10.646 -59.798 -25.399  1.00  0.00     0.056 A 
ATOM      8  C   UNL     1      13.121 -60.830 -24.615  1.00  0.00     0.004 A 
ATOM      9  C   UNL     1      11.768 -59.638 -26.212  1.00  0.00     0.133 A 
ATOM     10  C   UNL     1      13.000 -60.168 -25.836  1.00  0.00     0.047 A 
BRANCH   9  11
ATOM     11  O   UNL     1      11.726 -58.994 -27.464  1.00  0.00    -0.410 OA
BRANCH  11  12
ATOM     12  C   UNL     1      11.371 -59.697 -28.611  1.00  0.00     0.412 C 
ATOM     13  N   UNL     1      12.018 -59.164 -29.688  1.00  0.00    -0.324 N 
ATOM     14  O   UNL     1      10.610 -60.654 -28.652  1.00  0.00    -0.224 OA
ATOM     15  C   UNL     1      11.900 -59.711 -31.014  1.00  0.00     0.146 C 
ATOM     16  H   UNL     1      12.670 -58.413 -29.511  1.00  0.00     0.166 HD
ENDBRANCH  11  12
ENDBRANCH   9  11
ENDBRANCH   4   5
ENDBRANCH   1   4
BRANCH   1  17
ATOM     17  C   UNL     1       7.457 -59.199 -23.374  1.00  0.00     0.265 C 
BRANCH  17  18
ATOM     18  C   UNL     1       8.022 -57.832 -23.745  1.00  0.00     0.103 C 
BRANCH  18  19
ATOM     19  C   UNL     1       9.025 -57.301 -22.721  1.00  0.00     0.235 C 
BRANCH  19  20
ATOM     20  O   UNL     1      10.222 -56.890 -23.375  1.00  0.00    -0.493 OA
BRANCH  20  21
ATOM     21  C   UNL     1      10.652 -55.601 -23.234  1.00  0.00     0.123 A 
ATOM     22  C   UNL     1      10.280 -54.995 -22.027  1.00  0.00     0.047 A 
ATOM     23  C   UNL     1      11.389 -54.869 -24.161  1.00  0.00     0.094 A 
ATOM     24  C   UNL     1      10.642 -53.672 -21.740  1.00  0.00     0.016 A 
ATOM     25  C   UNL     1      11.741 -53.552 -23.863  1.00  0.00     0.142 A 
ATOM     26  C   UNL     1      11.381 -52.940 -22.667  1.00  0.00     0.018 A 
ATOM     27  O   UNL     1      12.482 -52.854 -24.839  1.00  0.00    -0.423 OA
ATOM     28  C   UNL     1      11.786 -51.565 -22.427  1.00  0.00     0.019 A 
ATOM     29  C   UNL     1      12.876 -51.537 -24.637  1.00  0.00     0.336 A 
ATOM     30  C   UNL     1      12.489 -50.913 -23.359  1.00  0.00     0.094 A 
ATOM     31  O   UNL     1      13.513 -50.914 -25.477  1.00  0.00    -0.246 OA
ENDBRANCH  20  21
ENDBRANCH  19  20
ENDBRANCH  18  19
ENDBRANCH  17  18
ENDBRANCH   1  17
TORSDOF 9
ENDMDL
MODEL 7
REMARK VINA RESULT:    -9.052      3.174      9.674
REMARK INTER + INTRA:         -15.661
REMARK INTER:                 -15.108
REMARK INTRA:                  -0.553
REMARK UNBOUND:                -1.846
REMARK SMILES CNC(=O)Oc1cccc(C[N@@H+](C)CCCOc2ccc3ccc(=O)oc3c2)c1
REMARK SMILES IDX 12 1 13 2 11 4 10 5 9 6 29 7 8 8 6 9 7 10 5 11 3 12 2 13
REMARK SMILES IDX 4 14 1 15 14 17 15 18 16 19 17 20 18 21 19 22 28 23 20 24
REMARK SMILES IDX 27 25 21 26 26 27 22 28 24 29 23 30 25 31
REMARK H PARENT 12 3 2 16
ROOT
ATOM      1  N   UNL     1      10.921 -56.790 -22.480  1.00  0.00    -0.334 N 
ATOM      2  C   UNL     1       9.548 -56.932 -23.089  1.00  0.00     0.333 C 
ATOM      3  H   UNL     1      11.581 -56.839 -23.264  1.00  0.00     0.348 HD
ENDROOT
BRANCH   1   4
ATOM      4  C   UNL     1      11.254 -57.967 -21.577  1.00  0.00     0.298 C 
BRANCH   4   5
ATOM      5  C   UNL     1      11.203 -59.288 -22.294  1.00  0.00     0.010 A 
ATOM      6  C   UNL     1      12.201 -59.650 -23.212  1.00  0.00     0.010 A 
ATOM      7  C   UNL     1      10.144 -60.179 -22.051  1.00  0.00     0.056 A 
ATOM      8  C   UNL     1      12.142 -60.879 -23.874  1.00  0.00     0.004 A 
ATOM      9  C   UNL     1      10.078 -61.388 -22.742  1.00  0.00     0.133 A 
ATOM     10  C   UNL     1      11.081 -61.752 -23.637  1.00  0.00     0.047 A 
BRANCH   9  11
ATOM     11  O   UNL     1       9.047 -62.329 -22.550  1.00  0.00    -0.410 OA
BRANCH  11  12
ATOM     12  C   UNL     1       7.947 -62.357 -23.402  1.00  0.00     0.412 C 
ATOM     13  N   UNL     1       7.988 -63.493 -24.157  1.00  0.00    -0.324 N 
ATOM     14  O   UNL     1       7.068 -61.507 -23.459  1.00  0.00    -0.224 OA
ATOM     15  C   UNL     1       6.954 -63.840 -25.096  1.00  0.00     0.146 C 
ATOM     16  H   UNL     1       8.735 -64.148 -23.969  1.00  0.00     0.166 HD
ENDBRANCH  11  12
ENDBRANCH   9  11
ENDBRANCH   4   5
ENDBRANCH   1   4
BRANCH   1  17
ATOM     17  C   UNL     1      11.082 -55.456 -21.780  1.00  0.00     0.265 C 
BRANCH  17  18
ATOM     18  C   UNL     1       9.819 -54.608 -21.867  1.00  0.00     0.103 C 
BRANCH  18  19
ATOM     19  C   UNL     1       9.976 -53.392 -22.782  1.00  0.00     0.235 C 
BRANCH  19  20
ATOM     20  O   UNL     1      11.274 -52.826 -22.627  1.00  0.00    -0.493 OA
BRANCH  20  21
ATOM     21  C   UNL     1      11.459 -51.499 -22.891  1.00  0.00     0.123 A 
ATOM     22  C   UNL     1      12.479 -51.227 -23.811  1.00  0.00     0.047 A 
ATOM     23  C   UNL     1      10.750 -50.438 -22.331  1.00  0.00     0.094 A 
ATOM     24  C   UNL     1      12.792 -49.911 -24.178  1.00  0.00     0.016 A 
ATOM     25  C   UNL     1      11.074 -49.132 -22.703  1.00  0.00     0.142 A 
ATOM     26  C   UNL     1      12.083 -48.850 -23.619  1.00  0.00     0.018 A 
ATOM     27  O   UNL     1      10.330 -48.096 -22.103  1.00  0.00    -0.423 OA
ATOM     28  C   UNL     1      12.360 -47.465 -23.959  1.00  0.00     0.019 A 
ATOM     29  C   UNL     1      10.580 -46.764 -22.405  1.00  0.00     0.336 A 
ATOM     30  C   UNL     1      11.648 -46.490 -23.383  1.00  0.00     0.094 A 
ATOM     31  O   UNL     1       9.948 -45.851 -21.887  1.00  0.00    -0.246 OA
ENDBRANCH  20  21
ENDBRANCH  19  20
ENDBRANCH  18  19
ENDBRANCH  17  18
ENDBRANCH   1  17
TORSDOF 9
ENDMDL
MODEL 8
REMARK VINA RESULT:    -9.019      2.919      4.905
REMARK INTER + INTRA:         -15.611
REMARK INTER:                 -15.008
REMARK INTRA:                  -0.603
REMARK UNBOUND:                -1.846
REMARK SMILES CNC(=O)Oc1cccc(C[N@@H+](C)CCCOc2ccc3ccc(=O)oc3c2)c1
REMARK SMILES IDX 12 1 13 2 11 4 10 5 9 6 29 7 8 8 6 9 7 10 5 11 3 12 2 13
REMARK SMILES IDX 4 14 1 15 14 17 15 18 16 19 17 20 18 21 19 22 28 23 20 24
REMARK SMILES IDX 27 25 21 26 26 27 22 28 24 29 23 30 25 31
REMARK H PARENT 12 3 2 16
ROOT
ATOM      1  N   UNL     1      11.160 -55.560 -22.498  1.00  0.00    -0.334 N 
ATOM      2  C   UNL     1      10.953 -54.964 -21.128  1.00  0.00     0.333 C 
ATOM      3  H   UNL     1      12.176 -55.598 -22.635  1.00  0.00     0.348 HD
ENDROOT
BRANCH   1   4
ATOM      4  C   UNL     1      10.625 -54.647 -23.589  1.00  0.00     0.298 C 
BRANCH   4   5
ATOM      5  C   UNL     1      11.638 -53.640 -24.060  1.00  0.00     0.010 A 
ATOM      6  C   UNL     1      12.411 -53.876 -25.207  1.00  0.00     0.010 A 
ATOM      7  C   UNL     1      11.823 -52.444 -23.347  1.00  0.00     0.056 A 
ATOM      8  C   UNL     1      13.351 -52.934 -25.633  1.00  0.00     0.004 A 
ATOM      9  C   UNL     1      12.787 -51.526 -23.763  1.00  0.00     0.133 A 
ATOM     10  C   UNL     1      13.538 -51.755 -24.913  1.00  0.00     0.047 A 
BRANCH   9  11
ATOM     11  O   UNL     1      13.027 -50.308 -23.098  1.00  0.00    -0.410 OA
BRANCH  11  12
ATOM     12  C   UNL     1      12.344 -49.152 -23.467  1.00  0.00     0.412 C 
ATOM     13  N   UNL     1      11.445 -48.827 -22.493  1.00  0.00    -0.324 N 
ATOM     14  O   UNL     1      12.527 -48.515 -24.495  1.00  0.00    -0.224 OA
ATOM     15  C   UNL     1      10.624 -47.647 -22.556  1.00  0.00     0.146 C 
ATOM     16  H   UNL     1      11.435 -49.402 -21.661  1.00  0.00     0.166 HD
ENDBRANCH  11  12
ENDBRANCH   9  11
ENDBRANCH   4   5
ENDBRANCH   1   4
BRANCH   1  17
ATOM     17  C   UNL     1      10.596 -56.963 -22.585  1.00  0.00     0.265 C 
BRANCH  17  18
ATOM     18  C   UNL     1      11.394 -57.954 -21.744  1.00  0.00     0.103 C 
BRANCH  18  19
ATOM     19  C   UNL     1      10.737 -59.332 -21.660  1.00  0.00     0.235 C 
BRANCH  19  20
ATOM     20  O   UNL     1      11.381 -60.238 -22.551  1.00  0.00    -0.493 OA
BRANCH  20  21
ATOM     21  C   UNL     1      10.640 -60.873 -23.508  1.00  0.00     0.123 A 
ATOM     22  C   UNL     1       9.783 -61.864 -23.014  1.00  0.00     0.047 A 
ATOM     23  C   UNL     1      10.678 -60.630 -24.879  1.00  0.00     0.094 A 
ATOM     24  C   UNL     1       8.963 -62.607 -23.875  1.00  0.00     0.016 A 
ATOM     25  C   UNL     1       9.858 -61.380 -25.725  1.00  0.00     0.142 A 
ATOM     26  C   UNL     1       9.000 -62.364 -25.246  1.00  0.00     0.018 A 
ATOM     27  O   UNL     1       9.939 -61.098 -27.104  1.00  0.00    -0.423 OA
ATOM     28  C   UNL     1       8.175 -63.101 -26.188  1.00  0.00     0.019 A 
ATOM     29  C   UNL     1       9.167 -61.792 -28.026  1.00  0.00     0.336 A 
ATOM     30  C   UNL     1       8.260 -62.825 -27.494  1.00  0.00     0.094 A 
ATOM     31  O   UNL     1       9.230 -61.566 -29.228  1.00  0.00    -0.246 OA
ENDBRANCH  20  21
ENDBRANCH  19  20
ENDBRANCH  18  19
ENDBRANCH  17  18
ENDBRANCH   1  17
TORSDOF 9
ENDMDL
MODEL 9
REMARK VINA RESULT:    -8.828      2.716      9.178
REMARK INTER + INTRA:         -15.319
REMARK INTER:                 -14.688
REMARK INTRA:                  -0.631
REMARK UNBOUND:                -1.846
REMARK SMILES CNC(=O)Oc1cccc(C[N@@H+](C)CCCOc2ccc3ccc(=O)oc3c2)c1
REMARK SMILES IDX 12 1 13 2 11 4 10 5 9 6 29 7 8 8 6 9 7 10 5 11 3 12 2 13
REMARK SMILES IDX 4 14 1 15 14 17 15 18 16 19 17 20 18 21 19 22 28 23 20 24
REMARK SMILES IDX 27 25 21 26 26 27 22 28 24 29 23 30 25 31
REMARK H PARENT 12 3 2 16
ROOT
ATOM      1  N   UNL     1      11.165 -58.303 -22.815  1.00  0.00    -0.334 N 
ATOM      2  C   UNL     1      11.208 -58.546 -21.327  1.00  0.00     0.333 C 
ATOM      3  H   UNL     1      10.200 -58.500 -23.103  1.00  0.00     0.348 HD
ENDROOT
BRANCH   1   4
ATOM      4  C   UNL     1      12.038 -59.294 -23.567  1.00  0.00     0.298 C 
BRANCH   4   5
ATOM      5  C   UNL     1      11.389 -59.813 -24.821  1.00  0.00     0.010 A 
ATOM      6  C   UNL     1      11.820 -59.387 -26.087  1.00  0.00     0.010 A 
ATOM      7  C   UNL     1      10.332 -60.735 -24.735  1.00  0.00     0.056 A 
ATOM      8  C   UNL     1      11.208 -59.874 -27.245  1.00  0.00     0.004 A 
ATOM      9  C   UNL     1       9.707 -61.189 -25.896  1.00  0.00     0.133 A 
ATOM     10  C   UNL     1      10.151 -60.779 -27.150  1.00  0.00     0.047 A 
BRANCH   9  11
ATOM     11  O   UNL     1       8.643 -62.112 -25.886  1.00  0.00    -0.410 OA
BRANCH  11  12
ATOM     12  C   UNL     1       7.890 -62.313 -24.732  1.00  0.00     0.412 C 
ATOM     13  N   UNL     1       8.381 -63.388 -24.052  1.00  0.00    -0.324 N 
ATOM     14  O   UNL     1       6.944 -61.625 -24.371  1.00  0.00    -0.224 OA
ATOM     15  C   UNL     1       7.849 -63.816 -22.785  1.00  0.00     0.146 C 
ATOM     16  H   UNL     1       9.208 -63.834 -24.425  1.00  0.00     0.166 HD
ENDBRANCH  11  12
ENDBRANCH   9  11
ENDBRANCH   4   5
ENDBRANCH   1   4
BRANCH   1  17
ATOM     17  C   UNL     1      11.497 -56.864 -23.152  1.00  0.00     0.265 C 
BRANCH  17  18
ATOM     18  C   UNL     1      10.316 -55.931 -22.907  1.00  0.00     0.103 C 
BRANCH  18  19
ATOM     19  C   UNL     1      10.595 -54.884 -21.828  1.00  0.00     0.235 C 
BRANCH  19  20
ATOM     20  O   UNL     1       9.756 -53.748 -22.019  1.00  0.00    -0.493 OA
BRANCH  20  21
ATOM     21  C   UNL     1      10.322 -52.544 -22.328  1.00  0.00     0.123 A 
ATOM     22  C   UNL     1      11.546 -52.635 -23.003  1.00  0.00     0.047 A 
ATOM     23  C   UNL     1       9.805 -51.286 -22.028  1.00  0.00     0.094 A 
ATOM     24  C   UNL     1      12.251 -51.485 -23.382  1.00  0.00     0.016 A 
ATOM     25  C   UNL     1      10.519 -50.149 -22.409  1.00  0.00     0.142 A 
ATOM     26  C   UNL     1      11.734 -50.227 -23.083  1.00  0.00     0.018 A 
ATOM     27  O   UNL     1       9.955 -48.901 -22.076  1.00  0.00    -0.423 OA
ATOM     28  C   UNL     1      12.418 -48.998 -23.449  1.00  0.00     0.019 A 
ATOM     29  C   UNL     1      10.591 -47.712 -22.408  1.00  0.00     0.336 A 
ATOM     30  C   UNL     1      11.873 -47.819 -23.128  1.00  0.00     0.094 A 
ATOM     31  O   UNL     1      10.118 -46.620 -22.120  1.00  0.00    -0.246 OA
ENDBRANCH  20  21
ENDBRANCH  19  20
ENDBRANCH  18  19
ENDBRANCH  17  18
ENDBRANCH   1  17
TORSDOF 9
ENDMDL
