MODEL 1
REMARK VINA RESULT:    -7.660      0.000      0.000
REMARK INTER + INTRA:         -10.316
REMARK INTER:                  -9.898
REMARK INTRA:                  -0.417
REMARK UNBOUND:                -0.417
REMARK SMILES CCC[C@H](C)n1cc(C(=O)C(F)(F)F)cn1
REMARK SMILES IDX 6 1 7 2 8 3 15 4 16 5 4 6 5 7 3 8 2 9 1 10 9 11 10 12 11 13
REMARK SMILES IDX 12 14 13 15 14 16
REMARK H PARENT
ROOT
ATOM      1  N   UNL     1      11.230 -55.626 -23.370  1.00  0.00    -0.269 N 
ATOM      2  C   UNL     1      10.953 -56.141 -22.132  1.00  0.00     0.121 A 
ATOM      3  C   UNL     1      11.298 -57.479 -22.176  1.00  0.00     0.065 A 
ATOM      4  C   UNL     1      11.774 -57.661 -23.494  1.00  0.00     0.147 A 
ATOM      5  N   UNL     1      11.732 -56.541 -24.218  1.00  0.00    -0.180 NA
ENDROOT
BRANCH   1   6
ATOM      6  C   UNL     1      11.026 -54.241 -23.806  1.00  0.00     0.104 C 
ATOM      7  C   UNL     1      10.740 -53.334 -22.606  1.00  0.00     0.033 C 
BRANCH   6   8
ATOM      8  C   UNL     1      12.216 -53.763 -24.658  1.00  0.00     0.027 C 
BRANCH   8   9
ATOM      9  C   UNL     1      12.702 -52.338 -24.375  1.00  0.00    -0.001 C 
ATOM     10  C   UNL     1      13.337 -51.661 -25.580  1.00  0.00     0.004 C 
ENDBRANCH   8   9
ENDBRANCH   6   8
ENDBRANCH   1   6
BRANCH   3  11
ATOM     11  C   UNL     1      11.206 -58.485 -21.126  1.00  0.00     0.269 C 
ATOM     12  O   UNL     1      11.726 -58.272 -20.027  1.00  0.00    -0.284 OA
BRANCH  11  13
ATOM     13  C   UNL     1      10.458 -59.778 -21.441  1.00  0.00     0.454 C 
ATOM     14  F   UNL     1      11.222 -60.663 -22.145  1.00  0.00    -0.163 F 
ATOM     15  F   UNL     1       9.330 -59.583 -22.181  1.00  0.00    -0.163 F 
ATOM     16  F   UNL     1      10.061 -60.438 -20.315  1.00  0.00    -0.163 F 
ENDBRANCH  11  13
ENDBRANCH   3  11
TORSDOF 5
ENDMDL
MODEL 2
REMARK VINA RESULT:    -7.637      3.580      4.689
REMARK INTER + INTRA:         -10.287
REMARK INTER:                  -9.803
REMARK INTRA:                  -0.484
REMARK UNBOUND:                -0.417
REMARK SMILES CCC[C@H](C)n1cc(C(=O)C(F)(F)F)cn1
REMARK SMILES IDX 6 1 7 2 8 3 15 4 16 5 4 6 5 7 3 8 2 9 1 10 9 11 10 12 11 13
REMARK SMILES IDX 12 14 13 15 14 16
REMARK H PARENT
ROOT
ATOM      1  N   UNL     1       9.527 -58.492 -23.013  1.00  0.00    -0.269 N 
ATOM      2  C   UNL     1       9.349 -59.848 -22.958  1.00  0.00     0.121 A 
ATOM      3  C   UNL     1       8.331 -60.147 -23.843  1.00  0.00     0.065 A 
ATOM      4  C   UNL     1       7.967 -58.891 -24.377  1.00  0.00     0.147 A 
ATOM      5  N   UNL     1       8.691 -57.887 -23.875  1.00  0.00    -0.180 NA
ENDROOT
BRANCH   1   6
ATOM      6  C   UNL     1      10.499 -57.706 -22.245  1.00  0.00     0.104 C 
ATOM      7  C   UNL     1      11.352 -58.619 -21.360  1.00  0.00     0.033 C 
BRANCH   6   8
ATOM      8  C   UNL     1      11.335 -56.816 -23.183  1.00  0.00     0.027 C 
BRANCH   8   9
ATOM      9  C   UNL     1      11.007 -55.320 -23.140  1.00  0.00    -0.001 C 
ATOM     10  C   UNL     1      10.671 -54.811 -21.747  1.00  0.00     0.004 C 
ENDBRANCH   8   9
ENDBRANCH   6   8
ENDBRANCH   1   6
BRANCH   3  11
ATOM     11  C   UNL     1       7.749 -61.444 -24.169  1.00  0.00     0.269 C 
ATOM     12  O   UNL     1       6.543 -61.634 -23.993  1.00  0.00    -0.284 OA
BRANCH  11  13
ATOM     13  C   UNL     1       8.679 -62.523 -24.718  1.00  0.00     0.454 C 
ATOM     14  F   UNL     1       9.317 -63.213 -23.729  1.00  0.00    -0.163 F 
ATOM     15  F   UNL     1       9.658 -62.032 -25.527  1.00  0.00    -0.163 F 
ATOM     16  F   UNL     1       8.012 -63.458 -25.457  1.00  0.00    -0.163 F 
ENDBRANCH  11  13
ENDBRANCH   3  11
TORSDOF 5
ENDMDL
MODEL 3
REMARK VINA RESULT:    -7.604      3.681      6.766
REMARK INTER + INTRA:         -10.245
REMARK INTER:                  -9.821
REMARK INTRA:                  -0.424
REMARK UNBOUND:                -0.417
REMARK SMILES CCC[C@H](C)n1cc(C(=O)C(F)(F)F)cn1
REMARK SMILES IDX 6 1 7 2 8 3 15 4 16 5 4 6 5 7 3 8 2 9 1 10 9 11 10 12 11 13
REMARK SMILES IDX 12 14 13 15 14 16
REMARK H PARENT
ROOT
ATOM      1  N   UNL     1      10.700 -61.446 -23.245  1.00  0.00    -0.269 N 
ATOM      2  C   UNL     1      10.265 -60.503 -22.353  1.00  0.00     0.121 A 
ATOM      3  C   UNL     1      11.238 -59.522 -22.312  1.00  0.00     0.065 A 
ATOM      4  C   UNL     1      12.217 -59.978 -23.221  1.00  0.00     0.147 A 
ATOM      5  N   UNL     1      11.894 -61.143 -23.787  1.00  0.00    -0.180 NA
ENDROOT
BRANCH   1   6
ATOM      6  C   UNL     1      10.004 -62.680 -23.622  1.00  0.00     0.104 C 
ATOM      7  C   UNL     1       9.351 -63.326 -22.398  1.00  0.00     0.033 C 
BRANCH   6   8
ATOM      8  C   UNL     1       9.011 -62.411 -24.769  1.00  0.00     0.027 C 
BRANCH   8   9
ATOM      9  C   UNL     1       7.553 -62.778 -24.480  1.00  0.00    -0.001 C 
ATOM     10  C   UNL     1       6.984 -63.812 -25.440  1.00  0.00     0.004 C 
ENDBRANCH   8   9
ENDBRANCH   6   8
ENDBRANCH   1   6
BRANCH   3  11
ATOM     11  C   UNL     1      11.270 -58.296 -21.524  1.00  0.00     0.269 C 
ATOM     12  O   UNL     1      11.485 -58.354 -20.311  1.00  0.00    -0.284 OA
BRANCH  11  13
ATOM     13  C   UNL     1      11.029 -56.976 -22.252  1.00  0.00     0.454 C 
ATOM     14  F   UNL     1       9.758 -56.873 -22.737  1.00  0.00    -0.163 F 
ATOM     15  F   UNL     1      11.855 -56.787 -23.319  1.00  0.00    -0.163 F 
ATOM     16  F   UNL     1      11.209 -55.893 -21.440  1.00  0.00    -0.163 F 
ENDBRANCH  11  13
ENDBRANCH   3  11
TORSDOF 5
ENDMDL
MODEL 4
REMARK VINA RESULT:    -7.383      1.098      2.061
REMARK INTER + INTRA:          -9.959
REMARK INTER:                  -9.486
REMARK INTRA:                  -0.472
REMARK UNBOUND:                -0.417
REMARK SMILES CCC[C@H](C)n1cc(C(=O)C(F)(F)F)cn1
REMARK SMILES IDX 6 1 7 2 8 3 15 4 16 5 4 6 5 7 3 8 2 9 1 10 9 11 10 12 11 13
REMARK SMILES IDX 12 14 13 15 14 16
REMARK H PARENT
ROOT
ATOM      1  N   UNL     1      11.443 -55.994 -23.366  1.00  0.00    -0.269 N 
ATOM      2  C   UNL     1      11.085 -56.480 -22.137  1.00  0.00     0.121 A 
ATOM      3  C   UNL     1      11.229 -57.853 -22.200  1.00  0.00     0.065 A 
ATOM      4  C   UNL     1      11.682 -58.086 -23.517  1.00  0.00     0.147 A 
ATOM      5  N   UNL     1      11.811 -56.962 -24.225  1.00  0.00    -0.180 NA
ENDROOT
BRANCH   1   6
ATOM      6  C   UNL     1      11.449 -54.588 -23.783  1.00  0.00     0.104 C 
ATOM      7  C   UNL     1      12.018 -54.447 -25.197  1.00  0.00     0.033 C 
BRANCH   6   8
ATOM      8  C   UNL     1      10.044 -53.975 -23.630  1.00  0.00     0.027 C 
BRANCH   8   9
ATOM      9  C   UNL     1       9.938 -52.803 -22.650  1.00  0.00    -0.001 C 
ATOM     10  C   UNL     1      10.812 -52.962 -21.415  1.00  0.00     0.004 C 
ENDBRANCH   8   9
ENDBRANCH   6   8
ENDBRANCH   1   6
BRANCH   3  11
ATOM     11  C   UNL     1      10.982 -58.848 -21.164  1.00  0.00     0.269 C 
ATOM     12  O   UNL     1      11.380 -58.646 -20.014  1.00  0.00    -0.284 OA
BRANCH  11  13
ATOM     13  C   UNL     1      10.231 -60.117 -21.560  1.00  0.00     0.454 C 
ATOM     14  F   UNL     1       9.815 -60.836 -20.477  1.00  0.00    -0.163 F 
ATOM     15  F   UNL     1      10.974 -60.972 -22.317  1.00  0.00    -0.163 F 
ATOM     16  F   UNL     1       9.106 -59.851 -22.287  1.00  0.00    -0.163 F 
ENDBRANCH  11  13
ENDBRANCH   3  11
TORSDOF 5
ENDMDL
MODEL 5
REMARK VINA RESULT:    -7.288      3.984      6.237
REMARK INTER + INTRA:          -9.836
REMARK INTER:                  -9.379
REMARK INTRA:                  -0.457
REMARK UNBOUND:                -0.417
REMARK SMILES CCC[C@H](C)n1cc(C(=O)C(F)(F)F)cn1
REMARK SMILES IDX 6 1 7 2 8 3 15 4 16 5 4 6 5 7 3 8 2 9 1 10 9 11 10 12 11 13
REMARK SMILES IDX 12 14 13 15 14 16
REMARK H PARENT
ROOT
ATOM      1  N   UNL     1      10.549 -57.233 -22.714  1.00  0.00    -0.269 N 
ATOM      2  C   UNL     1      11.110 -56.373 -21.808  1.00  0.00     0.121 A 
ATOM      3  C   UNL     1      10.502 -55.147 -22.002  1.00  0.00     0.065 A 
ATOM      4  C   UNL     1       9.590 -55.384 -23.054  1.00  0.00     0.147 A 
ATOM      5  N   UNL     1       9.617 -56.646 -23.487  1.00  0.00    -0.180 NA
ENDROOT
BRANCH   1   6
ATOM      6  C   UNL     1      10.876 -58.651 -22.891  1.00  0.00     0.104 C 
ATOM      7  C   UNL     1      12.087 -58.815 -23.813  1.00  0.00     0.033 C 
BRANCH   6   8
ATOM      8  C   UNL     1      11.056 -59.338 -21.524  1.00  0.00     0.027 C 
BRANCH   8   9
ATOM      9  C   UNL     1      10.059 -60.457 -21.211  1.00  0.00    -0.001 C 
ATOM     10  C   UNL     1       9.919 -61.478 -22.330  1.00  0.00     0.004 C 
ENDBRANCH   8   9
ENDBRANCH   6   8
ENDBRANCH   1   6
BRANCH   3  11
ATOM     11  C   UNL     1      10.731 -53.889 -21.300  1.00  0.00     0.269 C 
ATOM     12  O   UNL     1      10.657 -53.855 -20.069  1.00  0.00    -0.284 OA
BRANCH  11  13
ATOM     13  C   UNL     1      11.052 -52.654 -22.138  1.00  0.00     0.454 C 
ATOM     14  F   UNL     1      11.614 -51.655 -21.397  1.00  0.00    -0.163 F 
ATOM     15  F   UNL     1       9.959 -52.108 -22.739  1.00  0.00    -0.163 F 
ATOM     16  F   UNL     1      11.940 -52.921 -23.140  1.00  0.00    -0.163 F 
ENDBRANCH  11  13
ENDBRANCH   3  11
TORSDOF 5
ENDMDL
MODEL 6
REMARK VINA RESULT:    -7.175      3.778      5.148
REMARK INTER + INTRA:          -9.689
REMARK INTER:                  -9.327
REMARK INTRA:                  -0.362
REMARK UNBOUND:                -0.417
REMARK SMILES CCC[C@H](C)n1cc(C(=O)C(F)(F)F)cn1
REMARK SMILES IDX 6 1 7 2 8 3 15 4 16 5 4 6 5 7 3 8 2 9 1 10 9 11 10 12 11 13
REMARK SMILES IDX 12 14 13 15 14 16
REMARK H PARENT
ROOT
ATOM      1  N   UNL     1      10.277 -59.697 -22.723  1.00  0.00    -0.269 N 
ATOM      2  C   UNL     1       9.058 -59.279 -23.186  1.00  0.00     0.121 A 
ATOM      3  C   UNL     1       8.195 -60.349 -23.044  1.00  0.00     0.065 A 
ATOM      4  C   UNL     1       9.002 -61.363 -22.483  1.00  0.00     0.147 A 
ATOM      5  N   UNL     1      10.263 -60.971 -22.289  1.00  0.00    -0.180 NA
ENDROOT
BRANCH   1   6
ATOM      6  C   UNL     1      11.512 -58.908 -22.674  1.00  0.00     0.104 C 
ATOM      7  C   UNL     1      12.034 -58.636 -24.087  1.00  0.00     0.033 C 
BRANCH   6   8
ATOM      8  C   UNL     1      11.300 -57.626 -21.847  1.00  0.00     0.027 C 
BRANCH   8   9
ATOM      9  C   UNL     1      11.186 -56.330 -22.655  1.00  0.00    -0.001 C 
ATOM     10  C   UNL     1      10.831 -55.115 -21.811  1.00  0.00     0.004 C 
ENDBRANCH   8   9
ENDBRANCH   6   8
ENDBRANCH   1   6
BRANCH   3  11
ATOM     11  C   UNL     1       6.780 -60.436 -23.384  1.00  0.00     0.269 C 
ATOM     12  O   UNL     1       6.352 -61.436 -23.967  1.00  0.00    -0.284 OA
BRANCH  11  13
ATOM     13  C   UNL     1       5.880 -59.265 -22.996  1.00  0.00     0.454 C 
ATOM     14  F   UNL     1       5.901 -59.015 -21.655  1.00  0.00    -0.163 F 
ATOM     15  F   UNL     1       4.572 -59.457 -23.323  1.00  0.00    -0.163 F 
ATOM     16  F   UNL     1       6.254 -58.099 -23.600  1.00  0.00    -0.163 F 
ENDBRANCH  11  13
ENDBRANCH   3  11
TORSDOF 5
ENDMDL
MODEL 7
REMARK VINA RESULT:    -7.168      2.261      2.997
REMARK INTER + INTRA:          -9.681
REMARK INTER:                  -9.266
REMARK INTRA:                  -0.415
REMARK UNBOUND:                -0.417
REMARK SMILES CCC[C@H](C)n1cc(C(=O)C(F)(F)F)cn1
REMARK SMILES IDX 6 1 7 2 8 3 15 4 16 5 4 6 5 7 3 8 2 9 1 10 9 11 10 12 11 13
REMARK SMILES IDX 12 14 13 15 14 16
REMARK H PARENT
ROOT
ATOM      1  N   UNL     1      10.494 -56.894 -22.820  1.00  0.00    -0.269 N 
ATOM      2  C   UNL     1      11.058 -58.036 -22.318  1.00  0.00     0.121 A 
ATOM      3  C   UNL     1      10.208 -59.074 -22.650  1.00  0.00     0.065 A 
ATOM      4  C   UNL     1       9.160 -58.440 -23.354  1.00  0.00     0.147 A 
ATOM      5  N   UNL     1       9.331 -57.120 -23.457  1.00  0.00    -0.180 NA
ENDROOT
BRANCH   1   6
ATOM      6  C   UNL     1      11.032 -55.534 -22.715  1.00  0.00     0.104 C 
ATOM      7  C   UNL     1      11.413 -54.996 -24.096  1.00  0.00     0.033 C 
BRANCH   6   8
ATOM      8  C   UNL     1      10.049 -54.622 -21.957  1.00  0.00     0.027 C 
BRANCH   8   9
ATOM      9  C   UNL     1      10.665 -53.377 -21.312  1.00  0.00    -0.001 C 
ATOM     10  C   UNL     1      10.333 -52.085 -22.043  1.00  0.00     0.004 C 
ENDBRANCH   8   9
ENDBRANCH   6   8
ENDBRANCH   1   6
BRANCH   3  11
ATOM     11  C   UNL     1      10.338 -60.496 -22.357  1.00  0.00     0.269 C 
ATOM     12  O   UNL     1       9.961 -60.932 -21.266  1.00  0.00    -0.284 OA
BRANCH  11  13
ATOM     13  C   UNL     1      10.949 -61.392 -23.432  1.00  0.00     0.454 C 
ATOM     14  F   UNL     1      10.987 -62.703 -23.056  1.00  0.00    -0.163 F 
ATOM     15  F   UNL     1      12.229 -61.055 -23.754  1.00  0.00    -0.163 F 
ATOM     16  F   UNL     1      10.244 -61.358 -24.600  1.00  0.00    -0.163 F 
ENDBRANCH  11  13
ENDBRANCH   3  11
TORSDOF 5
ENDMDL
MODEL 8
REMARK VINA RESULT:    -7.139      3.883      6.820
REMARK INTER + INTRA:          -9.643
REMARK INTER:                  -9.121
REMARK INTRA:                  -0.522
REMARK UNBOUND:                -0.417
REMARK SMILES CCC[C@H](C)n1cc(C(=O)C(F)(F)F)cn1
REMARK SMILES IDX 6 1 7 2 8 3 15 4 16 5 4 6 5 7 3 8 2 9 1 10 9 11 10 12 11 13
REMARK SMILES IDX 12 14 13 15 14 16
REMARK H PARENT
ROOT
ATOM      1  N   UNL     1       8.707 -60.459 -24.113  1.00  0.00    -0.269 N 
ATOM      2  C   UNL     1       9.729 -59.570 -23.913  1.00  0.00     0.121 A 
ATOM      3  C   UNL     1       9.152 -58.408 -23.439  1.00  0.00     0.065 A 
ATOM      4  C   UNL     1       7.772 -58.709 -23.394  1.00  0.00     0.147 A 
ATOM      5  N   UNL     1       7.502 -59.951 -23.803  1.00  0.00    -0.180 NA
ENDROOT
BRANCH   1   6
ATOM      6  C   UNL     1       8.829 -61.833 -24.614  1.00  0.00     0.104 C 
ATOM      7  C   UNL     1       9.170 -61.835 -26.106  1.00  0.00     0.033 C 
BRANCH   6   8
ATOM      8  C   UNL     1       9.832 -62.631 -23.761  1.00  0.00     0.027 C 
BRANCH   8   9
ATOM      9  C   UNL     1       9.218 -63.513 -22.670  1.00  0.00    -0.001 C 
ATOM     10  C   UNL     1       7.761 -63.868 -22.924  1.00  0.00     0.004 C 
ENDBRANCH   8   9
ENDBRANCH   6   8
ENDBRANCH   1   6
BRANCH   3  11
ATOM     11  C   UNL     1       9.791 -57.152 -23.066  1.00  0.00     0.269 C 
ATOM     12  O   UNL     1       9.296 -56.082 -23.429  1.00  0.00    -0.284 OA
BRANCH  11  13
ATOM     13  C   UNL     1      11.067 -57.223 -22.232  1.00  0.00     0.454 C 
ATOM     14  F   UNL     1      10.966 -58.111 -21.200  1.00  0.00    -0.163 F 
ATOM     15  F   UNL     1      11.414 -56.031 -21.671  1.00  0.00    -0.163 F 
ATOM     16  F   UNL     1      12.148 -57.624 -22.964  1.00  0.00    -0.163 F 
ENDBRANCH  11  13
ENDBRANCH   3  11
TORSDOF 5
ENDMDL
MODEL 9
REMARK VINA RESULT:    -7.101      5.663      7.517
REMARK INTER + INTRA:          -9.594
REMARK INTER:                  -9.055
REMARK INTRA:                  -0.539
REMARK UNBOUND:                -0.417
REMARK SMILES CCC[C@H](C)n1cc(C(=O)C(F)(F)F)cn1
REMARK SMILES IDX 6 1 7 2 8 3 15 4 16 5 4 6 5 7 3 8 2 9 1 10 9 11 10 12 11 13
REMARK SMILES IDX 12 14 13 15 14 16
REMARK H PARENT
ROOT
ATOM      1  N   UNL     1      11.289 -60.700 -23.856  1.00  0.00    -0.269 N 
ATOM      2  C   UNL     1      10.853 -59.925 -24.897  1.00  0.00     0.121 A 
ATOM      3  C   UNL     1      11.930 -59.770 -25.749  1.00  0.00     0.065 A 
ATOM      4  C   UNL     1      12.966 -60.496 -25.121  1.00  0.00     0.147 A 
ATOM      5  N   UNL     1      12.580 -61.059 -23.974  1.00  0.00    -0.180 NA
ENDROOT
BRANCH   1   6
ATOM      6  C   UNL     1      10.499 -61.132 -22.698  1.00  0.00     0.104 C 
ATOM      7  C   UNL     1       9.226 -60.292 -22.569  1.00  0.00     0.033 C 
BRANCH   6   8
ATOM      8  C   UNL     1      10.224 -62.645 -22.768  1.00  0.00     0.027 C 
BRANCH   8   9
ATOM      9  C   UNL     1       9.147 -63.076 -23.768  1.00  0.00    -0.001 C 
ATOM     10  C   UNL     1       8.015 -63.874 -23.139  1.00  0.00     0.004 C 
ENDBRANCH   8   9
ENDBRANCH   6   8
ENDBRANCH   1   6
BRANCH   3  11
ATOM     11  C   UNL     1      12.006 -59.037 -27.007  1.00  0.00     0.269 C 
ATOM     12  O   UNL     1      12.204 -57.819 -26.993  1.00  0.00    -0.284 OA
BRANCH  11  13
ATOM     13  C   UNL     1      11.831 -59.824 -28.303  1.00  0.00     0.454 C 
ATOM     14  F   UNL     1      11.548 -59.019 -29.367  1.00  0.00    -0.163 F 
ATOM     15  F   UNL     1      10.826 -60.742 -28.246  1.00  0.00    -0.163 F 
ATOM     16  F   UNL     1      12.956 -60.518 -28.647  1.00  0.00    -0.163 F 
ENDBRANCH  11  13
ENDBRANCH   3  11
TORSDOF 5
ENDMDL
