MODEL 1
REMARK VINA RESULT:   -12.144      0.000      0.000
REMARK INTER + INTRA:         -16.694
REMARK INTER:                 -16.048
REMARK INTRA:                  -0.646
REMARK UNBOUND:                -0.646
REMARK SMILES O=C1C(=NCCN=c2c3c([nH]c4cc(Cl)ccc24)CCCC3)C=C(O)c2ccccc21
REMARK SMILES IDX 5 1 6 2 7 3 8 4 11 5 10 6 12 7 9 8 19 9 13 10 18 11 22 12
REMARK SMILES IDX 20 13 14 14 17 15 21 16 16 17 15 19 4 20 3 21 23 22 2 23
REMARK SMILES IDX 24 24 31 25 26 26 30 27 27 28 29 29 28 30 1 31 25 32
REMARK H PARENT 11 18 25 33
ROOT
ATOM      1  C   UNL     1      10.556 -58.308 -23.093  1.00  0.00     0.166 C 
ENDROOT
BRANCH   1   2
ATOM      2  C   UNL     1      11.247 -59.611 -22.663  1.00  0.00     0.166 C 
BRANCH   2   3
ATOM      3  N   UNL     1      11.490 -60.468 -23.806  1.00  0.00    -0.282 NA
BRANCH   3   4
ATOM      4  C   UNL     1      10.686 -60.863 -24.721  1.00  0.00     0.072 A 
ATOM      5  N   UNL     1       9.421 -61.906 -27.047  1.00  0.00    -0.358 N 
ATOM      6  C   UNL     1       8.931 -62.228 -25.799  1.00  0.00     0.021 A 
ATOM      7  C   UNL     1      10.360 -60.883 -27.215  1.00  0.00     0.049 A 
ATOM      8  C   UNL     1       9.465 -61.768 -24.643  1.00  0.00    -0.003 A 
ATOM      9  C   UNL     1       7.713 -63.134 -25.821  1.00  0.00     0.054 C 
ATOM     10  C   UNL     1      10.711 -60.445 -28.498  1.00  0.00     0.047 A 
ATOM     11  C   UNL     1      11.012 -60.342 -26.101  1.00  0.00     0.024 A 
ATOM     12  C   UNL     1       8.833 -62.080 -23.312  1.00  0.00     0.039 C 
ATOM     13  C   UNL     1       7.301 -63.684 -24.460  1.00  0.00     0.007 C 
ATOM     14  C   UNL     1      11.675 -59.450 -28.660  1.00  0.00     0.043 A 
ATOM     15  C   UNL     1      11.982 -59.341 -26.275  1.00  0.00     0.014 A 
ATOM     16  C   UNL     1       7.396 -62.596 -23.405  1.00  0.00     0.005 C 
ATOM     17  C   UNL     1      12.309 -58.891 -27.555  1.00  0.00     0.021 A 
ATOM     18  H   UNL     1       8.840 -62.138 -27.845  1.00  0.00     0.166 HD
ATOM     19  Cl  UNL     1      12.083 -58.909 -30.243  1.00  0.00    -0.084 Cl
ENDBRANCH   3   4
ENDBRANCH   2   3
ENDBRANCH   1   2
BRANCH   1  20
ATOM     20  N   UNL     1      11.554 -57.362 -23.600  1.00  0.00    -0.279 NA
BRANCH  20  21
ATOM     21  C   UNL     1      11.382 -56.092 -23.435  1.00  0.00     0.109 C 
ATOM     22  C   UNL     1      10.667 -55.658 -22.211  1.00  0.00     0.078 C 
ATOM     23  C   UNL     1      11.842 -54.986 -24.383  1.00  0.00     0.211 C 
ATOM     24  C   UNL     1      10.636 -54.374 -21.840  1.00  0.00     0.125 C 
ATOM     25  C   UNL     1      11.891 -53.607 -23.856  1.00  0.00     0.035 A 
ATOM     26  C   UNL     1      11.303 -53.317 -22.618  1.00  0.00     0.028 A 
ATOM     27  C   UNL     1      12.509 -52.604 -24.617  1.00  0.00     0.013 A 
ATOM     28  C   UNL     1      11.357 -51.993 -22.155  1.00  0.00     0.013 A 
ATOM     29  C   UNL     1      12.554 -51.297 -24.138  1.00  0.00     0.001 A 
ATOM     30  C   UNL     1      11.978 -50.991 -22.906  1.00  0.00     0.001 A 
ATOM     31  O   UNL     1      12.130 -55.216 -25.549  1.00  0.00    -0.287 OA
BRANCH  24  32
ATOM     32  O   UNL     1       9.993 -53.962 -20.691  1.00  0.00    -0.507 OA
ATOM     33  H   UNL     1      10.313 -54.491 -19.940  1.00  0.00     0.293 HD
ENDBRANCH  24  32
ENDBRANCH  20  21
ENDBRANCH   1  20
TORSDOF 6
ENDMDL
MODEL 2
REMARK VINA RESULT:   -11.814      2.023      3.863
REMARK INTER + INTRA:         -16.259
REMARK INTER:                 -15.816
REMARK INTRA:                  -0.443
REMARK UNBOUND:                -0.646
REMARK SMILES O=C1C(=NCCN=c2c3c([nH]c4cc(Cl)ccc24)CCCC3)C=C(O)c2ccccc21
REMARK SMILES IDX 5 1 6 2 7 3 8 4 11 5 10 6 12 7 9 8 19 9 13 10 18 11 22 12
REMARK SMILES IDX 20 13 14 14 17 15 21 16 16 17 15 19 4 20 3 21 23 22 2 23
REMARK SMILES IDX 24 24 31 25 26 26 30 27 27 28 29 29 28 30 1 31 25 32
REMARK H PARENT 11 18 25 33
ROOT
ATOM      1  C   UNL     1      10.660 -57.855 -23.040  1.00  0.00     0.166 C 
ENDROOT
BRANCH   1   2
ATOM      2  C   UNL     1      11.537 -58.985 -22.479  1.00  0.00     0.166 C 
BRANCH   2   3
ATOM      3  N   UNL     1      12.054 -59.817 -23.546  1.00  0.00    -0.282 NA
BRANCH   3   4
ATOM      4  C   UNL     1      11.439 -60.377 -24.521  1.00  0.00     0.072 A 
ATOM      5  N   UNL     1       9.569 -61.505 -26.345  1.00  0.00    -0.358 N 
ATOM      6  C   UNL     1      10.564 -60.673 -26.812  1.00  0.00     0.021 A 
ATOM      7  C   UNL     1       9.603 -62.014 -25.043  1.00  0.00     0.049 A 
ATOM      8  C   UNL     1      11.500 -60.103 -26.017  1.00  0.00    -0.003 A 
ATOM      9  C   UNL     1      10.545 -60.459 -28.316  1.00  0.00     0.054 C 
ATOM     10  C   UNL     1       8.690 -62.997 -24.641  1.00  0.00     0.047 A 
ATOM     11  C   UNL     1      10.502 -61.488 -24.109  1.00  0.00     0.024 A 
ATOM     12  C   UNL     1      12.617 -59.275 -26.595  1.00  0.00     0.039 C 
ATOM     13  C   UNL     1      11.485 -59.369 -28.818  1.00  0.00     0.007 C 
ATOM     14  C   UNL     1       8.706 -63.475 -23.331  1.00  0.00     0.043 A 
ATOM     15  C   UNL     1      10.509 -61.974 -22.791  1.00  0.00     0.014 A 
ATOM     16  C   UNL     1      12.819 -59.456 -28.100  1.00  0.00     0.005 C 
ATOM     17  C   UNL     1       9.614 -62.973 -22.404  1.00  0.00     0.021 A 
ATOM     18  H   UNL     1       9.045 -62.031 -27.036  1.00  0.00     0.166 HD
ATOM     19  Cl  UNL     1       7.589 -64.697 -22.856  1.00  0.00    -0.084 Cl
ENDBRANCH   3   4
ENDBRANCH   2   3
ENDBRANCH   1   2
BRANCH   1  20
ATOM     20  N   UNL     1      11.487 -56.928 -23.819  1.00  0.00    -0.279 NA
BRANCH  20  21
ATOM     21  C   UNL     1      11.385 -55.655 -23.626  1.00  0.00     0.109 C 
ATOM     22  C   UNL     1      10.721 -55.209 -22.378  1.00  0.00     0.078 C 
ATOM     23  C   UNL     1      11.881 -54.555 -24.562  1.00  0.00     0.211 C 
ATOM     24  C   UNL     1      10.766 -53.933 -21.981  1.00  0.00     0.125 C 
ATOM     25  C   UNL     1      12.015 -53.191 -24.010  1.00  0.00     0.035 A 
ATOM     26  C   UNL     1      11.470 -52.897 -22.753  1.00  0.00     0.028 A 
ATOM     27  C   UNL     1      12.667 -52.206 -24.765  1.00  0.00     0.013 A 
ATOM     28  C   UNL     1      11.603 -51.587 -22.266  1.00  0.00     0.013 A 
ATOM     29  C   UNL     1      12.791 -50.913 -24.262  1.00  0.00     0.001 A 
ATOM     30  C   UNL     1      12.260 -50.604 -23.012  1.00  0.00     0.001 A 
ATOM     31  O   UNL     1      12.132 -54.775 -25.739  1.00  0.00    -0.287 OA
BRANCH  24  32
ATOM     32  O   UNL     1      10.171 -53.512 -20.810  1.00  0.00    -0.507 OA
ATOM     33  H   UNL     1       9.913 -52.579 -20.900  1.00  0.00     0.293 HD
ENDBRANCH  24  32
ENDBRANCH  20  21
ENDBRANCH   1  20
TORSDOF 6
ENDMDL
MODEL 3
REMARK VINA RESULT:   -11.374      3.940      9.194
REMARK INTER + INTRA:         -15.677
REMARK INTER:                 -14.890
REMARK INTRA:                  -0.787
REMARK UNBOUND:                -0.646
REMARK SMILES O=C1C(=NCCN=c2c3c([nH]c4cc(Cl)ccc24)CCCC3)C=C(O)c2ccccc21
REMARK SMILES IDX 5 1 6 2 7 3 8 4 11 5 10 6 12 7 9 8 19 9 13 10 18 11 22 12
REMARK SMILES IDX 20 13 14 14 17 15 21 16 16 17 15 19 4 20 3 21 23 22 2 23
REMARK SMILES IDX 24 24 31 25 26 26 30 27 27 28 29 29 28 30 1 31 25 32
REMARK H PARENT 11 18 25 33
ROOT
ATOM      1  C   UNL     1      11.024 -55.779 -21.684  1.00  0.00     0.166 C 
ENDROOT
BRANCH   1   2
ATOM      2  C   UNL     1      10.602 -54.352 -21.302  1.00  0.00     0.166 C 
BRANCH   2   3
ATOM      3  N   UNL     1      10.317 -53.563 -22.484  1.00  0.00    -0.282 NA
BRANCH   3   4
ATOM      4  C   UNL     1      11.102 -52.858 -23.209  1.00  0.00     0.072 A 
ATOM      5  N   UNL     1      13.004 -51.030 -24.278  1.00  0.00    -0.358 N 
ATOM      6  C   UNL     1      13.011 -52.345 -24.692  1.00  0.00     0.021 A 
ATOM      7  C   UNL     1      11.935 -50.508 -23.543  1.00  0.00     0.049 A 
ATOM      8  C   UNL     1      12.137 -53.277 -24.244  1.00  0.00    -0.003 A 
ATOM      9  C   UNL     1      14.075 -52.669 -25.726  1.00  0.00     0.054 C 
ATOM     10  C   UNL     1      11.854 -49.134 -23.286  1.00  0.00     0.047 A 
ATOM     11  C   UNL     1      10.977 -51.368 -22.993  1.00  0.00     0.024 A 
ATOM     12  C   UNL     1      12.134 -54.676 -24.800  1.00  0.00     0.039 C 
ATOM     13  C   UNL     1      14.248 -54.154 -26.021  1.00  0.00     0.007 C 
ATOM     14  C   UNL     1      10.805 -48.624 -22.521  1.00  0.00     0.043 A 
ATOM     15  C   UNL     1       9.926 -50.845 -22.222  1.00  0.00     0.014 A 
ATOM     16  C   UNL     1      12.892 -54.830 -26.119  1.00  0.00     0.005 C 
ATOM     17  C   UNL     1       9.836 -49.472 -21.992  1.00  0.00     0.021 A 
ATOM     18  H   UNL     1      13.563 -50.375 -24.812  1.00  0.00     0.166 HD
ATOM     19  Cl  UNL     1      10.709 -46.930 -22.228  1.00  0.00    -0.084 Cl
ENDBRANCH   3   4
ENDBRANCH   2   3
ENDBRANCH   1   2
BRANCH   1  20
ATOM     20  N   UNL     1      10.002 -56.383 -22.543  1.00  0.00    -0.279 NA
BRANCH  20  21
ATOM     21  C   UNL     1      10.133 -57.607 -22.938  1.00  0.00     0.109 C 
ATOM     22  C   UNL     1      11.510 -58.096 -23.184  1.00  0.00     0.078 C 
ATOM     23  C   UNL     1       9.003 -58.606 -23.180  1.00  0.00     0.211 C 
ATOM     24  C   UNL     1      11.765 -59.395 -23.375  1.00  0.00     0.125 C 
ATOM     25  C   UNL     1       9.357 -60.037 -23.260  1.00  0.00     0.035 A 
ATOM     26  C   UNL     1      10.704 -60.413 -23.354  1.00  0.00     0.028 A 
ATOM     27  C   UNL     1       8.335 -60.998 -23.262  1.00  0.00     0.013 A 
ATOM     28  C   UNL     1      11.002 -61.782 -23.442  1.00  0.00     0.013 A 
ATOM     29  C   UNL     1       8.654 -62.351 -23.348  1.00  0.00     0.001 A 
ATOM     30  C   UNL     1       9.987 -62.744 -23.437  1.00  0.00     0.001 A 
ATOM     31  O   UNL     1       7.845 -58.243 -23.336  1.00  0.00    -0.287 OA
BRANCH  24  32
ATOM     32  O   UNL     1      13.046 -59.864 -23.582  1.00  0.00    -0.507 OA
ATOM     33  H   UNL     1      13.659 -59.109 -23.628  1.00  0.00     0.293 HD
ENDBRANCH  24  32
ENDBRANCH  20  21
ENDBRANCH   1  20
TORSDOF 6
ENDMDL
MODEL 4
REMARK VINA RESULT:   -10.353      5.352     11.123
REMARK INTER + INTRA:         -14.328
REMARK INTER:                 -14.124
REMARK INTRA:                  -0.204
REMARK UNBOUND:                -0.646
REMARK SMILES O=C1C(=NCCN=c2c3c([nH]c4cc(Cl)ccc24)CCCC3)C=C(O)c2ccccc21
REMARK SMILES IDX 5 1 6 2 7 3 8 4 11 5 10 6 12 7 9 8 19 9 13 10 18 11 22 12
REMARK SMILES IDX 20 13 14 14 17 15 21 16 16 17 15 19 4 20 3 21 23 22 2 23
REMARK SMILES IDX 24 24 31 25 26 26 30 27 27 28 29 29 28 30 1 31 25 32
REMARK H PARENT 11 18 25 33
ROOT
ATOM      1  C   UNL     1      10.086 -51.252 -21.974  1.00  0.00     0.166 C 
ENDROOT
BRANCH   1   2
ATOM      2  C   UNL     1      10.214 -49.797 -22.451  1.00  0.00     0.166 C 
BRANCH   2   3
ATOM      3  N   UNL     1      11.603 -49.446 -22.669  1.00  0.00    -0.282 NA
BRANCH   3   4
ATOM      4  C   UNL     1      12.134 -48.736 -23.593  1.00  0.00     0.072 A 
ATOM      5  N   UNL     1      13.478 -46.789 -25.175  1.00  0.00    -0.358 N 
ATOM      6  C   UNL     1      13.702 -48.130 -25.404  1.00  0.00     0.021 A 
ATOM      7  C   UNL     1      12.424 -46.359 -24.364  1.00  0.00     0.049 A 
ATOM      8  C   UNL     1      13.098 -49.121 -24.706  1.00  0.00    -0.003 A 
ATOM      9  C   UNL     1      14.676 -48.417 -26.534  1.00  0.00     0.054 C 
ATOM     10  C   UNL     1      12.097 -45.000 -24.286  1.00  0.00     0.047 A 
ATOM     11  C   UNL     1      11.736 -47.279 -23.564  1.00  0.00     0.024 A 
ATOM     12  C   UNL     1      13.312 -50.569 -25.061  1.00  0.00     0.039 C 
ATOM     13  C   UNL     1      15.111 -49.874 -26.648  1.00  0.00     0.007 C 
ATOM     14  C   UNL     1      11.067 -44.573 -23.447  1.00  0.00     0.043 A 
ATOM     15  C   UNL     1      10.702 -46.839 -22.721  1.00  0.00     0.014 A 
ATOM     16  C   UNL     1      13.919 -50.793 -26.447  1.00  0.00     0.005 C 
ATOM     17  C   UNL     1      10.364 -45.487 -22.668  1.00  0.00     0.021 A 
ATOM     18  H   UNL     1      13.824 -46.138 -25.872  1.00  0.00     0.166 HD
ATOM     19  Cl  UNL     1      10.665 -42.901 -23.375  1.00  0.00    -0.084 Cl
ENDBRANCH   3   4
ENDBRANCH   2   3
ENDBRANCH   1   2
BRANCH   1  20
ATOM     20  N   UNL     1      11.307 -51.991 -22.305  1.00  0.00    -0.279 NA
BRANCH  20  21
ATOM     21  C   UNL     1      11.233 -53.230 -22.664  1.00  0.00     0.109 C 
ATOM     22  C   UNL     1      11.552 -53.547 -24.076  1.00  0.00     0.078 C 
ATOM     23  C   UNL     1      10.846 -54.409 -21.773  1.00  0.00     0.211 C 
ATOM     24  C   UNL     1      11.722 -54.809 -24.487  1.00  0.00     0.125 C 
ATOM     25  C   UNL     1      11.177 -55.768 -22.248  1.00  0.00     0.035 A 
ATOM     26  C   UNL     1      11.604 -55.954 -23.570  1.00  0.00     0.028 A 
ATOM     27  C   UNL     1      11.039 -56.854 -21.373  1.00  0.00     0.013 A 
ATOM     28  C   UNL     1      11.897 -57.260 -23.991  1.00  0.00     0.013 A 
ATOM     29  C   UNL     1      11.338 -58.142 -21.810  1.00  0.00     0.001 A 
ATOM     30  C   UNL     1      11.768 -58.345 -23.119  1.00  0.00     0.001 A 
ATOM     31  O   UNL     1      10.252 -54.249 -20.716  1.00  0.00    -0.287 OA
BRANCH  24  32
ATOM     32  O   UNL     1      12.042 -55.113 -25.794  1.00  0.00    -0.507 OA
ATOM     33  H   UNL     1      12.361 -56.031 -25.839  1.00  0.00     0.293 HD
ENDBRANCH  24  32
ENDBRANCH  20  21
ENDBRANCH   1  20
TORSDOF 6
ENDMDL
MODEL 5
REMARK VINA RESULT:   -10.306      2.032      3.286
REMARK INTER + INTRA:         -14.266
REMARK INTER:                 -14.205
REMARK INTRA:                  -0.061
REMARK UNBOUND:                -0.646
REMARK SMILES O=C1C(=NCCN=c2c3c([nH]c4cc(Cl)ccc24)CCCC3)C=C(O)c2ccccc21
REMARK SMILES IDX 5 1 6 2 7 3 8 4 11 5 10 6 12 7 9 8 19 9 13 10 18 11 22 12
REMARK SMILES IDX 20 13 14 14 17 15 21 16 16 17 15 19 4 20 3 21 23 22 2 23
REMARK SMILES IDX 24 24 31 25 26 26 30 27 27 28 29 29 28 30 1 31 25 32
REMARK H PARENT 11 18 25 33
ROOT
ATOM      1  C   UNL     1      12.201 -56.788 -25.196  1.00  0.00     0.166 C 
ENDROOT
BRANCH   1   2
ATOM      2  C   UNL     1      12.300 -57.787 -26.360  1.00  0.00     0.166 C 
BRANCH   2   3
ATOM      3  N   UNL     1      12.259 -59.152 -25.874  1.00  0.00    -0.282 NA
BRANCH   3   4
ATOM      4  C   UNL     1      11.360 -59.751 -25.187  1.00  0.00     0.072 A 
ATOM      5  N   UNL     1       9.586 -61.591 -23.935  1.00  0.00    -0.358 N 
ATOM      6  C   UNL     1      10.205 -60.617 -23.181  1.00  0.00     0.021 A 
ATOM      7  C   UNL     1       9.604 -61.546 -25.333  1.00  0.00     0.049 A 
ATOM      8  C   UNL     1      11.054 -59.697 -23.697  1.00  0.00    -0.003 A 
ATOM      9  C   UNL     1       9.838 -60.640 -21.708  1.00  0.00     0.054 C 
ATOM     10  C   UNL     1       8.822 -62.434 -26.082  1.00  0.00     0.047 A 
ATOM     11  C   UNL     1      10.463 -60.660 -25.993  1.00  0.00     0.024 A 
ATOM     12  C   UNL     1      11.630 -58.600 -22.841  1.00  0.00     0.039 C 
ATOM     13  C   UNL     1      10.682 -59.728 -20.825  1.00  0.00     0.007 C 
ATOM     14  C   UNL     1       8.872 -62.407 -27.476  1.00  0.00     0.043 A 
ATOM     15  C   UNL     1      10.508 -60.643 -27.397  1.00  0.00     0.014 A 
ATOM     16  C   UNL     1      10.902 -58.392 -21.512  1.00  0.00     0.005 C 
ATOM     17  C   UNL     1       9.707 -61.513 -28.139  1.00  0.00     0.021 A 
ATOM     18  H   UNL     1       8.827 -62.101 -23.497  1.00  0.00     0.166 HD
ATOM     19  Cl  UNL     1       7.892 -63.493 -28.384  1.00  0.00    -0.084 Cl
ENDBRANCH   3   4
ENDBRANCH   2   3
ENDBRANCH   1   2
BRANCH   1  20
ATOM     20  N   UNL     1      12.595 -55.454 -25.655  1.00  0.00    -0.279 NA
BRANCH  20  21
ATOM     21  C   UNL     1      12.216 -54.408 -24.998  1.00  0.00     0.109 C 
ATOM     22  C   UNL     1      11.155 -54.594 -23.980  1.00  0.00     0.078 C 
ATOM     23  C   UNL     1      12.754 -52.988 -25.167  1.00  0.00     0.211 C 
ATOM     24  C   UNL     1      10.854 -53.633 -23.101  1.00  0.00     0.125 C 
ATOM     25  C   UNL     1      12.478 -52.016 -24.090  1.00  0.00     0.035 A 
ATOM     26  C   UNL     1      11.552 -52.337 -23.088  1.00  0.00     0.028 A 
ATOM     27  C   UNL     1      13.131 -50.775 -24.101  1.00  0.00     0.013 A 
ATOM     28  C   UNL     1      11.304 -51.384 -22.088  1.00  0.00     0.013 A 
ATOM     29  C   UNL     1      12.872 -49.844 -23.098  1.00  0.00     0.001 A 
ATOM     30  C   UNL     1      11.960 -50.149 -22.091  1.00  0.00     0.001 A 
ATOM     31  O   UNL     1      13.365 -52.647 -26.170  1.00  0.00    -0.287 OA
BRANCH  24  32
ATOM     32  O   UNL     1       9.884 -53.804 -22.135  1.00  0.00    -0.507 OA
ATOM     33  H   UNL     1       9.034 -53.997 -22.567  1.00  0.00     0.293 HD
ENDBRANCH  24  32
ENDBRANCH  20  21
ENDBRANCH   1  20
TORSDOF 6
ENDMDL
MODEL 6
REMARK VINA RESULT:    -9.833      6.238     11.261
REMARK INTER + INTRA:         -13.640
REMARK INTER:                 -12.120
REMARK INTRA:                  -1.520
REMARK UNBOUND:                -0.646
REMARK SMILES O=C1C(=NCCN=c2c3c([nH]c4cc(Cl)ccc24)CCCC3)C=C(O)c2ccccc21
REMARK SMILES IDX 5 1 6 2 7 3 8 4 11 5 10 6 12 7 9 8 19 9 13 10 18 11 22 12
REMARK SMILES IDX 20 13 14 14 17 15 21 16 16 17 15 19 4 20 3 21 23 22 2 23
REMARK SMILES IDX 24 24 31 25 26 26 30 27 27 28 29 29 28 30 1 31 25 32
REMARK H PARENT 11 18 25 33
ROOT
ATOM      1  C   UNL     1      14.891 -50.867 -26.116  1.00  0.00     0.166 C 
ENDROOT
BRANCH   1   2
ATOM      2  C   UNL     1      14.825 -49.551 -26.907  1.00  0.00     0.166 C 
BRANCH   2   3
ATOM      3  N   UNL     1      15.124 -48.419 -26.053  1.00  0.00    -0.282 NA
BRANCH   3   4
ATOM      4  C   UNL     1      15.161 -48.342 -24.776  1.00  0.00     0.072 A 
ATOM      5  N   UNL     1      14.690 -48.450 -21.971  1.00  0.00    -0.358 N 
ATOM      6  C   UNL     1      15.924 -48.807 -22.472  1.00  0.00     0.021 A 
ATOM      7  C   UNL     1      13.746 -47.797 -22.770  1.00  0.00     0.049 A 
ATOM      8  C   UNL     1      16.236 -48.775 -23.789  1.00  0.00    -0.003 A 
ATOM      9  C   UNL     1      16.931 -49.222 -21.414  1.00  0.00     0.054 C 
ATOM     10  C   UNL     1      12.573 -47.280 -22.204  1.00  0.00     0.047 A 
ATOM     11  C   UNL     1      13.932 -47.722 -24.154  1.00  0.00     0.024 A 
ATOM     12  C   UNL     1      17.629 -49.088 -24.269  1.00  0.00     0.039 C 
ATOM     13  C   UNL     1      18.215 -49.836 -21.960  1.00  0.00     0.007 C 
ATOM     14  C   UNL     1      11.619 -46.661 -23.011  1.00  0.00     0.043 A 
ATOM     15  C   UNL     1      12.964 -47.099 -24.959  1.00  0.00     0.014 A 
ATOM     16  C   UNL     1      18.694 -49.057 -23.172  1.00  0.00     0.005 C 
ATOM     17  C   UNL     1      11.810 -46.563 -24.386  1.00  0.00     0.021 A 
ATOM     18  H   UNL     1      14.618 -48.321 -20.968  1.00  0.00     0.166 HD
ATOM     19  Cl  UNL     1      10.191 -46.015 -22.299  1.00  0.00    -0.084 Cl
ENDBRANCH   3   4
ENDBRANCH   2   3
ENDBRANCH   1   2
BRANCH   1  20
ATOM     20  N   UNL     1      13.595 -51.547 -26.178  1.00  0.00    -0.279 NA
BRANCH  20  21
ATOM     21  C   UNL     1      13.083 -52.058 -25.107  1.00  0.00     0.109 C 
ATOM     22  C   UNL     1      13.055 -51.205 -23.895  1.00  0.00     0.078 C 
ATOM     23  C   UNL     1      12.503 -53.463 -24.962  1.00  0.00     0.211 C 
ATOM     24  C   UNL     1      12.353 -51.554 -22.812  1.00  0.00     0.125 C 
ATOM     25  C   UNL     1      11.638 -53.733 -23.796  1.00  0.00     0.035 A 
ATOM     26  C   UNL     1      11.570 -52.798 -22.754  1.00  0.00     0.028 A 
ATOM     27  C   UNL     1      10.914 -54.933 -23.740  1.00  0.00     0.013 A 
ATOM     28  C   UNL     1      10.748 -53.093 -21.655  1.00  0.00     0.013 A 
ATOM     29  C   UNL     1      10.103 -55.205 -22.641  1.00  0.00     0.001 A 
ATOM     30  C   UNL     1      10.019 -54.285 -21.599  1.00  0.00     0.001 A 
ATOM     31  O   UNL     1      12.763 -54.353 -25.760  1.00  0.00    -0.287 OA
BRANCH  24  32
ATOM     32  O   UNL     1      12.301 -50.756 -21.688  1.00  0.00    -0.507 OA
ATOM     33  H   UNL     1      12.677 -51.242 -20.934  1.00  0.00     0.293 HD
ENDBRANCH  24  32
ENDBRANCH  20  21
ENDBRANCH   1  20
TORSDOF 6
ENDMDL
MODEL 7
REMARK VINA RESULT:    -9.730      6.378     11.497
REMARK INTER + INTRA:         -13.505
REMARK INTER:                 -12.155
REMARK INTRA:                  -1.350
REMARK UNBOUND:                -0.646
REMARK SMILES O=C1C(=NCCN=c2c3c([nH]c4cc(Cl)ccc24)CCCC3)C=C(O)c2ccccc21
REMARK SMILES IDX 5 1 6 2 7 3 8 4 11 5 10 6 12 7 9 8 19 9 13 10 18 11 22 12
REMARK SMILES IDX 20 13 14 14 17 15 21 16 16 17 15 19 4 20 3 21 23 22 2 23
REMARK SMILES IDX 24 24 31 25 26 26 30 27 27 28 29 29 28 30 1 31 25 32
REMARK H PARENT 11 18 25 33
ROOT
ATOM      1  C   UNL     1      14.786 -50.425 -25.739  1.00  0.00     0.166 C 
ENDROOT
BRANCH   1   2
ATOM      2  C   UNL     1      14.933 -48.989 -26.267  1.00  0.00     0.166 C 
BRANCH   2   3
ATOM      3  N   UNL     1      15.370 -48.093 -25.215  1.00  0.00    -0.282 NA
BRANCH   3   4
ATOM      4  C   UNL     1      14.844 -47.850 -24.073  1.00  0.00     0.072 A 
ATOM      5  N   UNL     1      14.207 -47.010 -21.430  1.00  0.00    -0.358 N 
ATOM      6  C   UNL     1      13.271 -46.880 -22.433  1.00  0.00     0.021 A 
ATOM      7  C   UNL     1      15.365 -47.773 -21.614  1.00  0.00     0.049 A 
ATOM      8  C   UNL     1      13.486 -47.263 -23.714  1.00  0.00    -0.003 A 
ATOM      9  C   UNL     1      11.948 -46.287 -21.980  1.00  0.00     0.054 C 
ATOM     10  C   UNL     1      16.214 -48.046 -20.534  1.00  0.00     0.047 A 
ATOM     11  C   UNL     1      15.722 -48.205 -22.896  1.00  0.00     0.024 A 
ATOM     12  C   UNL     1      12.395 -47.181 -24.748  1.00  0.00     0.039 C 
ATOM     13  C   UNL     1      10.991 -45.924 -23.110  1.00  0.00     0.007 C 
ATOM     14  C   UNL     1      17.386 -48.777 -20.731  1.00  0.00     0.043 A 
ATOM     15  C   UNL     1      16.905 -48.938 -23.084  1.00  0.00     0.014 A 
ATOM     16  C   UNL     1      10.990 -47.014 -24.166  1.00  0.00     0.005 C 
ATOM     17  C   UNL     1      17.734 -49.229 -22.000  1.00  0.00     0.021 A 
ATOM     18  H   UNL     1      13.885 -46.879 -20.477  1.00  0.00     0.166 HD
ATOM     19  Cl  UNL     1      18.412 -49.119 -19.391  1.00  0.00    -0.084 Cl
ENDBRANCH   3   4
ENDBRANCH   2   3
ENDBRANCH   1   2
BRANCH   1  20
ATOM     20  N   UNL     1      13.370 -50.799 -25.709  1.00  0.00    -0.279 NA
BRANCH  20  21
ATOM     21  C   UNL     1      12.905 -51.485 -24.718  1.00  0.00     0.109 C 
ATOM     22  C   UNL     1      12.694 -50.770 -23.438  1.00  0.00     0.078 C 
ATOM     23  C   UNL     1      12.551 -52.971 -24.733  1.00  0.00     0.211 C 
ATOM     24  C   UNL     1      12.014 -51.328 -22.430  1.00  0.00     0.125 C 
ATOM     25  C   UNL     1      11.695 -53.484 -23.644  1.00  0.00     0.035 A 
ATOM     26  C   UNL     1      11.438 -52.678 -22.527  1.00  0.00     0.028 A 
ATOM     27  C   UNL     1      11.171 -54.782 -23.737  1.00  0.00     0.013 A 
ATOM     28  C   UNL     1      10.632 -53.204 -21.505  1.00  0.00     0.013 A 
ATOM     29  C   UNL     1      10.371 -55.283 -22.712  1.00  0.00     0.001 A 
ATOM     30  C   UNL     1      10.101 -54.494 -21.597  1.00  0.00     0.001 A 
ATOM     31  O   UNL     1      12.981 -53.727 -25.593  1.00  0.00    -0.287 OA
BRANCH  24  32
ATOM     32  O   UNL     1      11.792 -50.661 -21.243  1.00  0.00    -0.507 OA
ATOM     33  H   UNL     1      11.592 -49.728 -21.433  1.00  0.00     0.293 HD
ENDBRANCH  24  32
ENDBRANCH  20  21
ENDBRANCH   1  20
TORSDOF 6
ENDMDL
MODEL 8
REMARK VINA RESULT:    -9.681      6.003     10.303
REMARK INTER + INTRA:         -13.440
REMARK INTER:                 -12.748
REMARK INTRA:                  -0.692
REMARK UNBOUND:                -0.646
REMARK SMILES O=C1C(=NCCN=c2c3c([nH]c4cc(Cl)ccc24)CCCC3)C=C(O)c2ccccc21
REMARK SMILES IDX 5 1 6 2 7 3 8 4 11 5 10 6 12 7 9 8 19 9 13 10 18 11 22 12
REMARK SMILES IDX 20 13 14 14 17 15 21 16 16 17 15 19 4 20 3 21 23 22 2 23
REMARK SMILES IDX 24 24 31 25 26 26 30 27 27 28 29 29 28 30 1 31 25 32
REMARK H PARENT 11 18 25 33
ROOT
ATOM      1  C   UNL     1      10.899 -47.925 -22.373  1.00  0.00     0.166 C 
ENDROOT
BRANCH   1   2
ATOM      2  C   UNL     1      10.256 -49.320 -22.390  1.00  0.00     0.166 C 
BRANCH   2   3
ATOM      3  N   UNL     1      11.253 -50.351 -22.184  1.00  0.00    -0.282 NA
BRANCH   3   4
ATOM      4  C   UNL     1      11.797 -51.145 -23.028  1.00  0.00     0.072 A 
ATOM      5  N   UNL     1      12.429 -53.115 -24.982  1.00  0.00    -0.358 N 
ATOM      6  C   UNL     1      12.971 -51.852 -25.085  1.00  0.00     0.021 A 
ATOM      7  C   UNL     1      11.783 -53.534 -23.814  1.00  0.00     0.049 A 
ATOM      8  C   UNL     1      12.732 -50.860 -24.195  1.00  0.00    -0.003 A 
ATOM      9  C   UNL     1      13.890 -51.661 -26.278  1.00  0.00     0.054 C 
ATOM     10  C   UNL     1      11.400 -54.872 -23.656  1.00  0.00     0.047 A 
ATOM     11  C   UNL     1      11.449 -52.601 -22.827  1.00  0.00     0.024 A 
ATOM     12  C   UNL     1      13.424 -49.527 -24.307  1.00  0.00     0.039 C 
ATOM     13  C   UNL     1      14.312 -50.219 -26.536  1.00  0.00     0.007 C 
ATOM     14  C   UNL     1      10.725 -55.276 -22.504  1.00  0.00     0.043 A 
ATOM     15  C   UNL     1      10.767 -53.018 -21.671  1.00  0.00     0.014 A 
ATOM     16  C   UNL     1      14.647 -49.529 -25.226  1.00  0.00     0.005 C 
ATOM     17  C   UNL     1      10.410 -54.357 -21.508  1.00  0.00     0.021 A 
ATOM     18  H   UNL     1      12.819 -53.835 -25.580  1.00  0.00     0.166 HD
ATOM     19  Cl  UNL     1      10.275 -56.927 -22.315  1.00  0.00    -0.084 Cl
ENDBRANCH   3   4
ENDBRANCH   2   3
ENDBRANCH   1   2
BRANCH   1  20
ATOM     20  N   UNL     1      10.847 -47.340 -23.717  1.00  0.00    -0.279 NA
BRANCH  20  21
ATOM     21  C   UNL     1      11.207 -46.113 -23.900  1.00  0.00     0.109 C 
ATOM     22  C   UNL     1      10.305 -45.057 -23.383  1.00  0.00     0.078 C 
ATOM     23  C   UNL     1      12.477 -45.638 -24.603  1.00  0.00     0.211 C 
ATOM     24  C   UNL     1      10.690 -43.778 -23.323  1.00  0.00     0.125 C 
ATOM     25  C   UNL     1      12.899 -44.239 -24.389  1.00  0.00     0.035 A 
ATOM     26  C   UNL     1      12.024 -43.340 -23.764  1.00  0.00     0.028 A 
ATOM     27  C   UNL     1      14.164 -43.827 -24.834  1.00  0.00     0.013 A 
ATOM     28  C   UNL     1      12.453 -42.015 -23.588  1.00  0.00     0.013 A 
ATOM     29  C   UNL     1      14.570 -42.508 -24.647  1.00  0.00     0.001 A 
ATOM     30  C   UNL     1      13.716 -41.602 -24.024  1.00  0.00     0.001 A 
ATOM     31  O   UNL     1      13.114 -46.371 -25.347  1.00  0.00    -0.287 OA
BRANCH  24  32
ATOM     32  O   UNL     1       9.867 -42.791 -22.822  1.00  0.00    -0.507 OA
ATOM     33  H   UNL     1       9.159 -43.202 -22.296  1.00  0.00     0.293 HD
ENDBRANCH  24  32
ENDBRANCH  20  21
ENDBRANCH   1  20
TORSDOF 6
ENDMDL
MODEL 9
REMARK VINA RESULT:    -9.661      6.919      9.960
REMARK INTER + INTRA:         -13.414
REMARK INTER:                 -10.909
REMARK INTRA:                  -2.505
REMARK UNBOUND:                -0.646
REMARK SMILES O=C1C(=NCCN=c2c3c([nH]c4cc(Cl)ccc24)CCCC3)C=C(O)c2ccccc21
REMARK SMILES IDX 5 1 6 2 7 3 8 4 11 5 10 6 12 7 9 8 19 9 13 10 18 11 22 12
REMARK SMILES IDX 20 13 14 14 17 15 21 16 16 17 15 19 4 20 3 21 23 22 2 23
REMARK SMILES IDX 24 24 31 25 26 26 30 27 27 28 29 29 28 30 1 31 25 32
REMARK H PARENT 11 18 25 33
ROOT
ATOM      1  C   UNL     1      14.671 -47.478 -21.799  1.00  0.00     0.166 C 
ENDROOT
BRANCH   1   2
ATOM      2  C   UNL     1      13.346 -48.195 -21.500  1.00  0.00     0.166 C 
BRANCH   2   3
ATOM      3  N   UNL     1      12.625 -48.481 -22.725  1.00  0.00    -0.282 NA
BRANCH   3   4
ATOM      4  C   UNL     1      12.576 -49.558 -23.416  1.00  0.00     0.072 A 
ATOM      5  N   UNL     1      13.080 -51.870 -24.997  1.00  0.00    -0.358 N 
ATOM      6  C   UNL     1      12.253 -51.960 -23.898  1.00  0.00     0.021 A 
ATOM      7  C   UNL     1      13.476 -50.629 -25.506  1.00  0.00     0.049 A 
ATOM      8  C   UNL     1      11.951 -50.909 -23.099  1.00  0.00    -0.003 A 
ATOM      9  C   UNL     1      11.675 -53.344 -23.661  1.00  0.00     0.054 C 
ATOM     10  C   UNL     1      14.164 -50.548 -26.723  1.00  0.00     0.047 A 
ATOM     11  C   UNL     1      13.254 -49.464 -24.763  1.00  0.00     0.024 A 
ATOM     12  C   UNL     1      10.969 -51.046 -21.965  1.00  0.00     0.039 C 
ATOM     13  C   UNL     1      10.950 -53.516 -22.331  1.00  0.00     0.007 C 
ATOM     14  C   UNL     1      14.588 -49.311 -27.208  1.00  0.00     0.043 A 
ATOM     15  C   UNL     1      13.687 -48.223 -25.258  1.00  0.00     0.014 A 
ATOM     16  C   UNL     1      10.093 -52.298 -22.041  1.00  0.00     0.005 C 
ATOM     17  C   UNL     1      14.348 -48.146 -26.485  1.00  0.00     0.021 A 
ATOM     18  H   UNL     1      13.086 -52.657 -25.636  1.00  0.00     0.166 HD
ATOM     19  Cl  UNL     1      15.416 -49.224 -28.715  1.00  0.00    -0.084 Cl
ENDBRANCH   3   4
ENDBRANCH   2   3
ENDBRANCH   1   2
BRANCH   1  20
ATOM     20  N   UNL     1      15.775 -48.441 -21.759  1.00  0.00    -0.279 NA
BRANCH  20  21
ATOM     21  C   UNL     1      16.226 -48.951 -22.858  1.00  0.00     0.109 C 
ATOM     22  C   UNL     1      16.843 -48.021 -23.833  1.00  0.00     0.078 C 
ATOM     23  C   UNL     1      16.183 -50.425 -23.256  1.00  0.00     0.211 C 
ATOM     24  C   UNL     1      17.533 -48.472 -24.886  1.00  0.00     0.125 C 
ATOM     25  C   UNL     1      17.066 -50.865 -24.355  1.00  0.00     0.035 A 
ATOM     26  C   UNL     1      17.721 -49.909 -25.143  1.00  0.00     0.028 A 
ATOM     27  C   UNL     1      17.219 -52.237 -24.605  1.00  0.00     0.013 A 
ATOM     28  C   UNL     1      18.542 -50.363 -26.187  1.00  0.00     0.013 A 
ATOM     29  C   UNL     1      18.041 -52.666 -25.645  1.00  0.00     0.001 A 
ATOM     30  C   UNL     1      18.703 -51.730 -26.435  1.00  0.00     0.001 A 
ATOM     31  O   UNL     1      15.424 -51.217 -22.714  1.00  0.00    -0.287 OA
BRANCH  24  32
ATOM     32  O   UNL     1      18.132 -47.615 -25.787  1.00  0.00    -0.507 OA
ATOM     33  H   UNL     1      19.047 -47.446 -25.505  1.00  0.00     0.293 HD
ENDBRANCH  24  32
ENDBRANCH  20  21
ENDBRANCH   1  20
TORSDOF 6
ENDMDL
