MODEL 1
REMARK VINA RESULT:   -11.383      0.000      0.000
REMARK INTER + INTRA:         -16.441
REMARK INTER:                 -15.375
REMARK INTRA:                  -1.065
REMARK UNBOUND:                -1.065
REMARK SMILES COc1ccccc1C(=O)Nc1ccc2c(c1)CN(C(=O)c1ccccc1OC)C(=O)C2
REMARK SMILES IDX 12 1 13 2 14 3 15 4 16 5 17 6 18 7 19 8 30 9 31 10 32 11
REMARK SMILES IDX 11 12 9 13 10 14 8 16 3 17 4 18 5 19 7 20 6 21 2 22 1 23
REMARK SMILES IDX 20 24 21 25 22 26 23 27 27 28 24 29 26 30 25 31 28 32 29 33
REMARK H PARENT 11 15
ROOT
ATOM      1  C   UNL     1      11.030 -55.862 -22.807  1.00  0.00     0.041 A 
ATOM      2  C   UNL     1      10.580 -55.287 -21.611  1.00  0.00     0.026 A 
ATOM      3  C   UNL     1      10.649 -53.907 -21.410  1.00  0.00     0.007 A 
ATOM      4  C   UNL     1      11.184 -53.081 -22.401  1.00  0.00    -0.033 A 
ATOM      5  C   UNL     1      11.635 -53.644 -23.598  1.00  0.00    -0.022 A 
ATOM      6  C   UNL     1      11.550 -55.030 -23.799  1.00  0.00     0.032 A 
ATOM      7  C   UNL     1      12.155 -52.723 -24.665  1.00  0.00     0.164 C 
ATOM      8  N   UNL     1      12.895 -51.605 -24.098  1.00  0.00    -0.274 N 
ATOM      9  C   UNL     1      12.316 -50.888 -23.052  1.00  0.00     0.234 C 
ATOM     10  O   UNL     1      12.620 -49.729 -22.761  1.00  0.00    -0.274 OA
ATOM     11  C   UNL     1      11.233 -51.588 -22.241  1.00  0.00     0.136 C 
ENDROOT
BRANCH   1  12
ATOM     12  N   UNL     1      10.918 -57.261 -22.926  1.00  0.00    -0.322 N 
ATOM     13  C   UNL     1      11.151 -58.225 -21.967  1.00  0.00     0.259 C 
ATOM     14  O   UNL     1      11.509 -57.999 -20.814  1.00  0.00    -0.269 OA
ATOM     15  H   UNL     1      10.631 -57.611 -23.835  1.00  0.00     0.170 HD
BRANCH  13  16
ATOM     16  C   UNL     1      10.944 -59.661 -22.384  1.00  0.00     0.082 A 
ATOM     17  C   UNL     1      11.541 -60.277 -23.508  1.00  0.00     0.131 A 
ATOM     18  C   UNL     1      11.257 -61.626 -23.779  1.00  0.00     0.047 A 
ATOM     19  C   UNL     1      10.399 -62.360 -22.957  1.00  0.00     0.004 A 
ATOM     20  C   UNL     1      10.082 -60.422 -21.568  1.00  0.00     0.018 A 
ATOM     21  C   UNL     1       9.811 -61.759 -21.852  1.00  0.00     0.001 A 
BRANCH  17  22
ATOM     22  O   UNL     1      12.379 -59.518 -24.288  1.00  0.00    -0.496 OA
ATOM     23  C   UNL     1      12.062 -59.379 -25.670  1.00  0.00     0.278 C 
ENDBRANCH  17  22
ENDBRANCH  13  16
ENDBRANCH   1  12
BRANCH   8  24
ATOM     24  C   UNL     1      13.817 -51.007 -24.963  1.00  0.00     0.264 C 
ATOM     25  O   UNL     1      13.493 -50.185 -25.818  1.00  0.00    -0.268 OA
BRANCH  24  26
ATOM     26  C   UNL     1      15.239 -51.428 -24.857  1.00  0.00     0.082 A 
ATOM     27  C   UNL     1      15.600 -52.693 -25.350  1.00  0.00     0.018 A 
ATOM     28  C   UNL     1      16.227 -50.574 -24.353  1.00  0.00     0.131 A 
ATOM     29  C   UNL     1      16.936 -53.096 -25.339  1.00  0.00     0.001 A 
ATOM     30  C   UNL     1      17.567 -50.974 -24.370  1.00  0.00     0.047 A 
ATOM     31  C   UNL     1      17.920 -52.235 -24.853  1.00  0.00     0.004 A 
BRANCH  28  32
ATOM     32  O   UNL     1      15.973 -49.319 -23.868  1.00  0.00    -0.496 OA
ATOM     33  C   UNL     1      16.247 -49.248 -22.468  1.00  0.00     0.278 C 
ENDBRANCH  28  32
ENDBRANCH  24  26
ENDBRANCH   8  24
TORSDOF 6
ENDMDL
MODEL 2
REMARK VINA RESULT:   -10.997      1.855      2.625
REMARK INTER + INTRA:         -15.920
REMARK INTER:                 -14.846
REMARK INTRA:                  -1.074
REMARK UNBOUND:                -1.065
REMARK SMILES COc1ccccc1C(=O)Nc1ccc2c(c1)CN(C(=O)c1ccccc1OC)C(=O)C2
REMARK SMILES IDX 12 1 13 2 14 3 15 4 16 5 17 6 18 7 19 8 30 9 31 10 32 11
REMARK SMILES IDX 11 12 9 13 10 14 8 16 3 17 4 18 5 19 7 20 6 21 2 22 1 23
REMARK SMILES IDX 20 24 21 25 22 26 23 27 27 28 24 29 26 30 25 31 28 32 29 33
REMARK H PARENT 11 15
ROOT
ATOM      1  C   UNL     1      10.512 -55.553 -23.276  1.00  0.00     0.041 A 
ATOM      2  C   UNL     1       9.638 -55.009 -22.327  1.00  0.00     0.026 A 
ATOM      3  C   UNL     1       9.719 -53.661 -21.967  1.00  0.00     0.007 A 
ATOM      4  C   UNL     1      10.690 -52.841 -22.544  1.00  0.00    -0.033 A 
ATOM      5  C   UNL     1      11.568 -53.373 -23.492  1.00  0.00    -0.022 A 
ATOM      6  C   UNL     1      11.471 -54.724 -23.860  1.00  0.00     0.032 A 
ATOM      7  C   UNL     1      12.565 -52.451 -24.135  1.00  0.00     0.164 C 
ATOM      8  N   UNL     1      13.073 -51.466 -23.191  1.00  0.00    -0.274 N 
ATOM      9  C   UNL     1      12.157 -50.756 -22.416  1.00  0.00     0.234 C 
ATOM     10  O   UNL     1      12.394 -49.661 -21.900  1.00  0.00    -0.274 OA
ATOM     11  C   UNL     1      10.781 -51.377 -22.217  1.00  0.00     0.136 C 
ENDROOT
BRANCH   1  12
ATOM     12  N   UNL     1      10.356 -56.918 -23.582  1.00  0.00    -0.322 N 
ATOM     13  C   UNL     1      10.627 -58.013 -22.786  1.00  0.00     0.259 C 
ATOM     14  O   UNL     1      11.067 -57.958 -21.641  1.00  0.00    -0.269 OA
ATOM     15  H   UNL     1       9.999 -57.132 -24.508  1.00  0.00     0.170 HD
BRANCH  13  16
ATOM     16  C   UNL     1      10.354 -59.372 -23.384  1.00  0.00     0.082 A 
ATOM     17  C   UNL     1       9.274 -59.682 -24.242  1.00  0.00     0.131 A 
ATOM     18  C   UNL     1       9.141 -60.994 -24.725  1.00  0.00     0.047 A 
ATOM     19  C   UNL     1      10.056 -61.988 -24.371  1.00  0.00     0.004 A 
ATOM     20  C   UNL     1      11.265 -60.390 -23.041  1.00  0.00     0.018 A 
ATOM     21  C   UNL     1      11.118 -61.688 -23.529  1.00  0.00     0.001 A 
BRANCH  17  22
ATOM     22  O   UNL     1       8.398 -58.673 -24.564  1.00  0.00    -0.496 OA
ATOM     23  C   UNL     1       7.263 -58.481 -23.726  1.00  0.00     0.278 C 
ENDBRANCH  17  22
ENDBRANCH  13  16
ENDBRANCH   1  12
BRANCH   8  24
ATOM     24  C   UNL     1      14.320 -50.923 -23.516  1.00  0.00     0.264 C 
ATOM     25  O   UNL     1      15.306 -51.039 -22.791  1.00  0.00    -0.268 OA
BRANCH  24  26
ATOM     26  C   UNL     1      14.427 -50.139 -24.775  1.00  0.00     0.082 A 
ATOM     27  C   UNL     1      13.813 -48.876 -24.830  1.00  0.00     0.018 A 
ATOM     28  C   UNL     1      15.179 -50.591 -25.865  1.00  0.00     0.131 A 
ATOM     29  C   UNL     1      13.954 -48.076 -25.965  1.00  0.00     0.001 A 
ATOM     30  C   UNL     1      15.338 -49.773 -26.988  1.00  0.00     0.047 A 
ATOM     31  C   UNL     1      14.720 -48.523 -27.041  1.00  0.00     0.004 A 
BRANCH  28  32
ATOM     32  O   UNL     1      15.826 -51.798 -25.896  1.00  0.00    -0.496 OA
ATOM     33  C   UNL     1      17.229 -51.630 -25.692  1.00  0.00     0.278 C 
ENDBRANCH  28  32
ENDBRANCH  24  26
ENDBRANCH   8  24
TORSDOF 6
ENDMDL
MODEL 3
REMARK VINA RESULT:   -10.982      1.083      1.320
REMARK INTER + INTRA:         -15.900
REMARK INTER:                 -14.735
REMARK INTRA:                  -1.165
REMARK UNBOUND:                -1.065
REMARK SMILES COc1ccccc1C(=O)Nc1ccc2c(c1)CN(C(=O)c1ccccc1OC)C(=O)C2
REMARK SMILES IDX 12 1 13 2 14 3 15 4 16 5 17 6 18 7 19 8 30 9 31 10 32 11
REMARK SMILES IDX 11 12 9 13 10 14 8 16 3 17 4 18 5 19 7 20 6 21 2 22 1 23
REMARK SMILES IDX 20 24 21 25 22 26 23 27 27 28 24 29 26 30 25 31 28 32 29 33
REMARK H PARENT 11 15
ROOT
ATOM      1  C   UNL     1      10.833 -55.787 -22.974  1.00  0.00     0.041 A 
ATOM      2  C   UNL     1      10.033 -55.216 -21.977  1.00  0.00     0.026 A 
ATOM      3  C   UNL     1      10.012 -53.833 -21.780  1.00  0.00     0.007 A 
ATOM      4  C   UNL     1      10.807 -53.001 -22.572  1.00  0.00    -0.033 A 
ATOM      5  C   UNL     1      11.609 -53.561 -23.570  1.00  0.00    -0.022 A 
ATOM      6  C   UNL     1      11.614 -54.950 -23.772  1.00  0.00     0.032 A 
ATOM      7  C   UNL     1      12.410 -52.636 -24.441  1.00  0.00     0.164 C 
ATOM      8  N   UNL     1      12.924 -51.499 -23.690  1.00  0.00    -0.274 N 
ATOM      9  C   UNL     1      12.043 -50.789 -22.876  1.00  0.00     0.234 C 
ATOM     10  O   UNL     1      12.223 -49.622 -22.520  1.00  0.00    -0.274 OA
ATOM     11  C   UNL     1      10.778 -51.507 -22.422  1.00  0.00     0.136 C 
ENDROOT
BRANCH   1  12
ATOM     12  N   UNL     1      10.789 -57.189 -23.106  1.00  0.00    -0.322 N 
ATOM     13  C   UNL     1      11.088 -58.149 -22.161  1.00  0.00     0.259 C 
ATOM     14  O   UNL     1      11.456 -57.916 -21.013  1.00  0.00    -0.269 OA
ATOM     15  H   UNL     1      10.502 -57.544 -24.012  1.00  0.00     0.170 HD
BRANCH  13  16
ATOM     16  C   UNL     1      10.944 -59.590 -22.588  1.00  0.00     0.082 A 
ATOM     17  C   UNL     1      11.544 -60.163 -23.732  1.00  0.00     0.131 A 
ATOM     18  C   UNL     1      11.323 -61.522 -24.011  1.00  0.00     0.047 A 
ATOM     19  C   UNL     1      10.523 -62.307 -23.177  1.00  0.00     0.004 A 
ATOM     20  C   UNL     1      10.141 -60.401 -21.761  1.00  0.00     0.018 A 
ATOM     21  C   UNL     1       9.931 -61.748 -22.052  1.00  0.00     0.001 A 
BRANCH  17  22
ATOM     22  O   UNL     1      12.323 -59.355 -24.524  1.00  0.00    -0.496 OA
ATOM     23  C   UNL     1      12.067 -59.343 -25.924  1.00  0.00     0.278 C 
ENDBRANCH  17  22
ENDBRANCH  13  16
ENDBRANCH   1  12
BRANCH   8  24
ATOM     24  C   UNL     1      14.053 -50.886 -24.242  1.00  0.00     0.264 C 
ATOM     25  O   UNL     1      14.111 -50.533 -25.419  1.00  0.00    -0.268 OA
BRANCH  24  26
ATOM     26  C   UNL     1      15.239 -50.704 -23.365  1.00  0.00     0.082 A 
ATOM     27  C   UNL     1      15.990 -51.837 -23.011  1.00  0.00     0.018 A 
ATOM     28  C   UNL     1      15.664 -49.436 -22.952  1.00  0.00     0.131 A 
ATOM     29  C   UNL     1      17.154 -51.700 -22.253  1.00  0.00     0.001 A 
ATOM     30  C   UNL     1      16.845 -49.303 -22.214  1.00  0.00     0.047 A 
ATOM     31  C   UNL     1      17.583 -50.433 -21.859  1.00  0.00     0.004 A 
BRANCH  28  32
ATOM     32  O   UNL     1      15.008 -48.274 -23.261  1.00  0.00    -0.496 OA
ATOM     33  C   UNL     1      15.469 -47.195 -22.448  1.00  0.00     0.278 C 
ENDBRANCH  28  32
ENDBRANCH  24  26
ENDBRANCH   8  24
TORSDOF 6
ENDMDL
MODEL 4
REMARK VINA RESULT:   -10.460      2.280      9.655
REMARK INTER + INTRA:         -15.193
REMARK INTER:                 -13.947
REMARK INTRA:                  -1.247
REMARK UNBOUND:                -1.065
REMARK SMILES COc1ccccc1C(=O)Nc1ccc2c(c1)CN(C(=O)c1ccccc1OC)C(=O)C2
REMARK SMILES IDX 12 1 13 2 14 3 15 4 16 5 17 6 18 7 19 8 30 9 31 10 32 11
REMARK SMILES IDX 11 12 9 13 10 14 8 16 3 17 4 18 5 19 7 20 6 21 2 22 1 23
REMARK SMILES IDX 20 24 21 25 22 26 23 27 27 28 24 29 26 30 25 31 28 32 29 33
REMARK H PARENT 11 15
ROOT
ATOM      1  C   UNL     1      11.502 -54.438 -24.085  1.00  0.00     0.041 A 
ATOM      2  C   UNL     1      10.293 -54.250 -23.405  1.00  0.00     0.026 A 
ATOM      3  C   UNL     1       9.607 -55.333 -22.850  1.00  0.00     0.007 A 
ATOM      4  C   UNL     1      10.117 -56.626 -22.982  1.00  0.00    -0.033 A 
ATOM      5  C   UNL     1      11.323 -56.825 -23.659  1.00  0.00    -0.022 A 
ATOM      6  C   UNL     1      12.015 -55.731 -24.202  1.00  0.00     0.032 A 
ATOM      7  C   UNL     1      11.873 -58.221 -23.736  1.00  0.00     0.164 C 
ATOM      8  N   UNL     1      10.815 -59.209 -23.892  1.00  0.00    -0.274 N 
ATOM      9  C   UNL     1       9.717 -59.146 -23.036  1.00  0.00     0.234 C 
ATOM     10  O   UNL     1       8.981 -60.105 -22.788  1.00  0.00    -0.274 OA
ATOM     11  C   UNL     1       9.433 -57.811 -22.361  1.00  0.00     0.136 C 
ENDROOT
BRANCH   1  12
ATOM     12  N   UNL     1      12.128 -53.290 -24.608  1.00  0.00    -0.322 N 
ATOM     13  C   UNL     1      12.564 -52.168 -23.934  1.00  0.00     0.259 C 
ATOM     14  O   UNL     1      12.464 -51.992 -22.723  1.00  0.00    -0.269 OA
ATOM     15  H   UNL     1      12.280 -53.281 -25.612  1.00  0.00     0.170 HD
BRANCH  13  16
ATOM     16  C   UNL     1      13.209 -51.085 -24.764  1.00  0.00     0.082 A 
ATOM     17  C   UNL     1      14.187 -51.298 -25.762  1.00  0.00     0.131 A 
ATOM     18  C   UNL     1      14.705 -50.194 -26.459  1.00  0.00     0.047 A 
ATOM     19  C   UNL     1      14.268 -48.897 -26.179  1.00  0.00     0.004 A 
ATOM     20  C   UNL     1      12.783 -49.768 -24.499  1.00  0.00     0.018 A 
ATOM     21  C   UNL     1      13.308 -48.683 -25.200  1.00  0.00     0.001 A 
BRANCH  17  22
ATOM     22  O   UNL     1      14.588 -52.590 -26.005  1.00  0.00    -0.496 OA
ATOM     23  C   UNL     1      15.843 -53.010 -25.481  1.00  0.00     0.278 C 
ENDBRANCH  17  22
ENDBRANCH  13  16
ENDBRANCH   1  12
BRANCH   8  24
ATOM     24  C   UNL     1      11.215 -60.419 -24.470  1.00  0.00     0.264 C 
ATOM     25  O   UNL     1      12.062 -61.151 -23.962  1.00  0.00    -0.268 OA
BRANCH  24  26
ATOM     26  C   UNL     1      10.611 -60.795 -25.774  1.00  0.00     0.082 A 
ATOM     27  C   UNL     1      11.091 -60.172 -26.938  1.00  0.00     0.018 A 
ATOM     28  C   UNL     1       9.641 -61.799 -25.877  1.00  0.00     0.131 A 
ATOM     29  C   UNL     1      10.605 -60.552 -28.190  1.00  0.00     0.001 A 
ATOM     30  C   UNL     1       9.178 -62.193 -27.137  1.00  0.00     0.047 A 
ATOM     31  C   UNL     1       9.652 -61.565 -28.289  1.00  0.00     0.004 A 
BRANCH  28  32
ATOM     32  O   UNL     1       9.126 -62.474 -24.802  1.00  0.00    -0.496 OA
ATOM     33  C   UNL     1       7.789 -62.901 -25.061  1.00  0.00     0.278 C 
ENDBRANCH  28  32
ENDBRANCH  24  26
ENDBRANCH   8  24
TORSDOF 6
ENDMDL
MODEL 5
REMARK VINA RESULT:   -10.440      2.576      3.592
REMARK INTER + INTRA:         -15.167
REMARK INTER:                 -14.502
REMARK INTRA:                  -0.665
REMARK UNBOUND:                -1.065
REMARK SMILES COc1ccccc1C(=O)Nc1ccc2c(c1)CN(C(=O)c1ccccc1OC)C(=O)C2
REMARK SMILES IDX 12 1 13 2 14 3 15 4 16 5 17 6 18 7 19 8 30 9 31 10 32 11
REMARK SMILES IDX 11 12 9 13 10 14 8 16 3 17 4 18 5 19 7 20 6 21 2 22 1 23
REMARK SMILES IDX 20 24 21 25 22 26 23 27 27 28 24 29 26 30 25 31 28 32 29 33
REMARK H PARENT 11 15
ROOT
ATOM      1  C   UNL     1      11.183 -53.208 -22.481  1.00  0.00     0.041 A 
ATOM      2  C   UNL     1      10.305 -52.361 -21.794  1.00  0.00     0.026 A 
ATOM      3  C   UNL     1      10.383 -50.974 -21.943  1.00  0.00     0.007 A 
ATOM      4  C   UNL     1      11.355 -50.414 -22.775  1.00  0.00    -0.033 A 
ATOM      5  C   UNL     1      12.237 -51.250 -23.466  1.00  0.00    -0.022 A 
ATOM      6  C   UNL     1      12.143 -52.643 -23.323  1.00  0.00     0.032 A 
ATOM      7  C   UNL     1      13.234 -50.619 -24.395  1.00  0.00     0.164 C 
ATOM      8  N   UNL     1      13.738 -49.359 -23.869  1.00  0.00    -0.274 N 
ATOM      9  C   UNL     1      12.819 -48.420 -23.403  1.00  0.00     0.234 C 
ATOM     10  O   UNL     1      13.053 -47.211 -23.316  1.00  0.00    -0.274 OA
ATOM     11  C   UNL     1      11.443 -48.931 -22.998  1.00  0.00     0.136 C 
ENDROOT
BRANCH   1  12
ATOM     12  N   UNL     1      11.030 -54.593 -22.275  1.00  0.00    -0.322 N 
ATOM     13  C   UNL     1      10.315 -55.499 -23.031  1.00  0.00     0.259 C 
ATOM     14  O   UNL     1       9.674 -55.221 -24.042  1.00  0.00    -0.269 OA
ATOM     15  H   UNL     1      11.504 -54.980 -21.465  1.00  0.00     0.170 HD
BRANCH  13  16
ATOM     16  C   UNL     1      10.334 -56.935 -22.568  1.00  0.00     0.082 A 
ATOM     17  C   UNL     1       9.468 -57.952 -23.031  1.00  0.00     0.131 A 
ATOM     18  C   UNL     1       9.598 -59.249 -22.509  1.00  0.00     0.047 A 
ATOM     19  C   UNL     1      10.565 -59.545 -21.546  1.00  0.00     0.004 A 
ATOM     20  C   UNL     1      11.303 -57.256 -21.596  1.00  0.00     0.018 A 
ATOM     21  C   UNL     1      11.418 -58.549 -21.088  1.00  0.00     0.001 A 
BRANCH  17  22
ATOM     22  O   UNL     1       8.532 -57.617 -23.979  1.00  0.00    -0.496 OA
ATOM     23  C   UNL     1       7.300 -58.331 -23.983  1.00  0.00     0.278 C 
ENDBRANCH  17  22
ENDBRANCH  13  16
ENDBRANCH   1  12
BRANCH   8  24
ATOM     24  C   UNL     1      14.986 -48.967 -24.365  1.00  0.00     0.264 C 
ATOM     25  O   UNL     1      15.959 -48.771 -23.639  1.00  0.00    -0.268 OA
BRANCH  24  26
ATOM     26  C   UNL     1      15.107 -48.739 -25.828  1.00  0.00     0.082 A 
ATOM     27  C   UNL     1      14.614 -47.536 -26.361  1.00  0.00     0.018 A 
ATOM     28  C   UNL     1      15.763 -49.649 -26.666  1.00  0.00     0.131 A 
ATOM     29  C   UNL     1      14.778 -47.249 -27.718  1.00  0.00     0.001 A 
ATOM     30  C   UNL     1      15.946 -49.344 -28.018  1.00  0.00     0.047 A 
ATOM     31  C   UNL     1      15.447 -48.151 -28.544  1.00  0.00     0.004 A 
BRANCH  28  32
ATOM     32  O   UNL     1      16.290 -50.837 -26.234  1.00  0.00    -0.496 OA
ATOM     33  C   UNL     1      17.708 -50.859 -26.408  1.00  0.00     0.278 C 
ENDBRANCH  28  32
ENDBRANCH  24  26
ENDBRANCH   8  24
TORSDOF 6
ENDMDL
MODEL 6
REMARK VINA RESULT:   -10.373      2.589      9.927
REMARK INTER + INTRA:         -15.076
REMARK INTER:                 -14.516
REMARK INTRA:                  -0.560
REMARK UNBOUND:                -1.065
REMARK SMILES COc1ccccc1C(=O)Nc1ccc2c(c1)CN(C(=O)c1ccccc1OC)C(=O)C2
REMARK SMILES IDX 12 1 13 2 14 3 15 4 16 5 17 6 18 7 19 8 30 9 31 10 32 11
REMARK SMILES IDX 11 12 9 13 10 14 8 16 3 17 4 18 5 19 7 20 6 21 2 22 1 23
REMARK SMILES IDX 20 24 21 25 22 26 23 27 27 28 24 29 26 30 25 31 28 32 29 33
REMARK H PARENT 11 15
ROOT
ATOM      1  C   UNL     1      12.371 -51.439 -23.985  1.00  0.00     0.041 A 
ATOM      2  C   UNL     1      13.210 -51.754 -25.062  1.00  0.00     0.026 A 
ATOM      3  C   UNL     1      13.249 -53.049 -25.584  1.00  0.00     0.007 A 
ATOM      4  C   UNL     1      12.458 -54.054 -25.023  1.00  0.00    -0.033 A 
ATOM      5  C   UNL     1      11.618 -53.751 -23.949  1.00  0.00    -0.022 A 
ATOM      6  C   UNL     1      11.572 -52.444 -23.438  1.00  0.00     0.032 A 
ATOM      7  C   UNL     1      10.738 -54.840 -23.404  1.00  0.00     0.164 C 
ATOM      8  N   UNL     1      11.409 -56.132 -23.421  1.00  0.00    -0.274 N 
ATOM      9  C   UNL     1      12.043 -56.536 -24.595  1.00  0.00     0.234 C 
ATOM     10  O   UNL     1      12.285 -57.712 -24.878  1.00  0.00    -0.274 OA
ATOM     11  C   UNL     1      12.438 -55.447 -25.585  1.00  0.00     0.136 C 
ENDROOT
BRANCH   1  12
ATOM     12  N   UNL     1      12.391 -50.108 -23.526  1.00  0.00    -0.322 N 
ATOM     13  C   UNL     1      11.436 -49.440 -22.787  1.00  0.00     0.259 C 
ATOM     14  O   UNL     1      10.376 -49.928 -22.403  1.00  0.00    -0.269 OA
ATOM     15  H   UNL     1      13.213 -49.563 -23.769  1.00  0.00     0.170 HD
BRANCH  13  16
ATOM     16  C   UNL     1      11.734 -48.004 -22.431  1.00  0.00     0.082 A 
ATOM     17  C   UNL     1      12.993 -47.512 -22.020  1.00  0.00     0.131 A 
ATOM     18  C   UNL     1      13.127 -46.147 -21.718  1.00  0.00     0.047 A 
ATOM     19  C   UNL     1      12.039 -45.277 -21.818  1.00  0.00     0.004 A 
ATOM     20  C   UNL     1      10.650 -47.108 -22.526  1.00  0.00     0.018 A 
ATOM     21  C   UNL     1      10.800 -45.756 -22.222  1.00  0.00     0.001 A 
BRANCH  17  22
ATOM     22  O   UNL     1      14.036 -48.402 -21.935  1.00  0.00    -0.496 OA
ATOM     23  C   UNL     1      15.277 -48.037 -22.529  1.00  0.00     0.278 C 
ENDBRANCH  17  22
ENDBRANCH  13  16
ENDBRANCH   1  12
BRANCH   8  24
ATOM     24  C   UNL     1      10.914 -57.068 -22.507  1.00  0.00     0.264 C 
ATOM     25  O   UNL     1      11.385 -57.212 -21.380  1.00  0.00    -0.268 OA
BRANCH  24  26
ATOM     26  C   UNL     1       9.801 -57.947 -22.952  1.00  0.00     0.082 A 
ATOM     27  C   UNL     1       8.587 -57.349 -23.331  1.00  0.00     0.018 A 
ATOM     28  C   UNL     1       9.957 -59.333 -23.074  1.00  0.00     0.131 A 
ATOM     29  C   UNL     1       7.544 -58.132 -23.828  1.00  0.00     0.001 A 
ATOM     30  C   UNL     1       8.916 -60.107 -23.597  1.00  0.00     0.047 A 
ATOM     31  C   UNL     1       7.710 -59.509 -23.964  1.00  0.00     0.004 A 
BRANCH  28  32
ATOM     32  O   UNL     1      11.106 -60.001 -22.746  1.00  0.00    -0.496 OA
ATOM     33  C   UNL     1      11.274 -61.159 -23.565  1.00  0.00     0.278 C 
ENDBRANCH  28  32
ENDBRANCH  24  26
ENDBRANCH   8  24
TORSDOF 6
ENDMDL
MODEL 7
REMARK VINA RESULT:   -10.294      2.842      4.465
REMARK INTER + INTRA:         -14.970
REMARK INTER:                 -14.731
REMARK INTRA:                  -0.239
REMARK UNBOUND:                -1.065
REMARK SMILES COc1ccccc1C(=O)Nc1ccc2c(c1)CN(C(=O)c1ccccc1OC)C(=O)C2
REMARK SMILES IDX 12 1 13 2 14 3 15 4 16 5 17 6 18 7 19 8 30 9 31 10 32 11
REMARK SMILES IDX 11 12 9 13 10 14 8 16 3 17 4 18 5 19 7 20 6 21 2 22 1 23
REMARK SMILES IDX 20 24 21 25 22 26 23 27 27 28 24 29 26 30 25 31 28 32 29 33
REMARK H PARENT 11 15
ROOT
ATOM      1  C   UNL     1      11.767 -54.560 -24.001  1.00  0.00     0.041 A 
ATOM      2  C   UNL     1      12.387 -54.394 -25.246  1.00  0.00     0.026 A 
ATOM      3  C   UNL     1      12.875 -53.147 -25.643  1.00  0.00     0.007 A 
ATOM      4  C   UNL     1      12.736 -52.042 -24.801  1.00  0.00    -0.033 A 
ATOM      5  C   UNL     1      12.120 -52.196 -23.556  1.00  0.00    -0.022 A 
ATOM      6  C   UNL     1      11.645 -53.455 -23.158  1.00  0.00     0.032 A 
ATOM      7  C   UNL     1      12.036 -50.999 -22.652  1.00  0.00     0.164 C 
ATOM      8  N   UNL     1      11.797 -49.774 -23.400  1.00  0.00    -0.274 N 
ATOM      9  C   UNL     1      12.595 -49.510 -24.513  1.00  0.00     0.234 C 
ATOM     10  O   UNL     1      12.777 -48.381 -24.977  1.00  0.00    -0.274 OA
ATOM     11  C   UNL     1      13.288 -50.695 -25.172  1.00  0.00     0.136 C 
ENDROOT
BRANCH   1  12
ATOM     12  N   UNL     1      11.309 -55.853 -23.680  1.00  0.00    -0.322 N 
ATOM     13  C   UNL     1      11.017 -56.377 -22.438  1.00  0.00     0.259 C 
ATOM     14  O   UNL     1      11.120 -55.767 -21.376  1.00  0.00    -0.269 OA
ATOM     15  H   UNL     1      11.176 -56.487 -24.462  1.00  0.00     0.170 HD
BRANCH  13  16
ATOM     16  C   UNL     1      10.535 -57.806 -22.399  1.00  0.00     0.082 A 
ATOM     17  C   UNL     1       9.367 -58.289 -23.031  1.00  0.00     0.131 A 
ATOM     18  C   UNL     1       9.037 -59.649 -22.911  1.00  0.00     0.047 A 
ATOM     19  C   UNL     1       9.844 -60.523 -22.180  1.00  0.00     0.004 A 
ATOM     20  C   UNL     1      11.335 -58.707 -21.668  1.00  0.00     0.018 A 
ATOM     21  C   UNL     1      10.993 -60.054 -21.558  1.00  0.00     0.001 A 
BRANCH  17  22
ATOM     22  O   UNL     1       8.602 -57.394 -23.740  1.00  0.00    -0.496 OA
ATOM     23  C   UNL     1       7.306 -57.807 -24.160  1.00  0.00     0.278 C 
ENDBRANCH  17  22
ENDBRANCH  13  16
ENDBRANCH   1  12
BRANCH   8  24
ATOM     24  C   UNL     1      11.210 -48.737 -22.667  1.00  0.00     0.264 C 
ATOM     25  O   UNL     1      10.009 -48.702 -22.408  1.00  0.00    -0.268 OA
BRANCH  24  26
ATOM     26  C   UNL     1      12.085 -47.618 -22.230  1.00  0.00     0.082 A 
ATOM     27  C   UNL     1      13.252 -47.924 -21.510  1.00  0.00     0.018 A 
ATOM     28  C   UNL     1      11.817 -46.290 -22.581  1.00  0.00     0.131 A 
ATOM     29  C   UNL     1      14.140 -46.909 -21.149  1.00  0.00     0.001 A 
ATOM     30  C   UNL     1      12.724 -45.282 -22.238  1.00  0.00     0.047 A 
ATOM     31  C   UNL     1      13.878 -45.590 -21.516  1.00  0.00     0.004 A 
BRANCH  28  32
ATOM     32  O   UNL     1      10.715 -45.899 -23.295  1.00  0.00    -0.496 OA
ATOM     33  C   UNL     1      10.626 -44.475 -23.356  1.00  0.00     0.278 C 
ENDBRANCH  28  32
ENDBRANCH  24  26
ENDBRANCH   8  24
TORSDOF 6
ENDMDL
MODEL 8
REMARK VINA RESULT:   -10.249      1.972      2.805
REMARK INTER + INTRA:         -14.908
REMARK INTER:                 -14.766
REMARK INTRA:                  -0.142
REMARK UNBOUND:                -1.065
REMARK SMILES COc1ccccc1C(=O)Nc1ccc2c(c1)CN(C(=O)c1ccccc1OC)C(=O)C2
REMARK SMILES IDX 12 1 13 2 14 3 15 4 16 5 17 6 18 7 19 8 30 9 31 10 32 11
REMARK SMILES IDX 11 12 9 13 10 14 8 16 3 17 4 18 5 19 7 20 6 21 2 22 1 23
REMARK SMILES IDX 20 24 21 25 22 26 23 27 27 28 24 29 26 30 25 31 28 32 29 33
REMARK H PARENT 11 15
ROOT
ATOM      1  C   UNL     1      10.582 -53.567 -22.299  1.00  0.00     0.041 A 
ATOM      2  C   UNL     1       9.530 -52.744 -21.878  1.00  0.00     0.026 A 
ATOM      3  C   UNL     1       9.610 -51.355 -22.008  1.00  0.00     0.007 A 
ATOM      4  C   UNL     1      10.755 -50.768 -22.550  1.00  0.00    -0.033 A 
ATOM      5  C   UNL     1      11.811 -51.580 -22.974  1.00  0.00    -0.022 A 
ATOM      6  C   UNL     1      11.718 -52.976 -22.854  1.00  0.00     0.032 A 
ATOM      7  C   UNL     1      13.005 -50.922 -23.604  1.00  0.00     0.164 C 
ATOM      8  N   UNL     1      13.317 -49.650 -22.968  1.00  0.00    -0.274 N 
ATOM      9  C   UNL     1      12.282 -48.736 -22.772  1.00  0.00     0.234 C 
ATOM     10  O   UNL     1      12.454 -47.522 -22.630  1.00  0.00    -0.274 OA
ATOM     11  C   UNL     1      10.861 -49.283 -22.749  1.00  0.00     0.136 C 
ENDROOT
BRANCH   1  12
ATOM     12  N   UNL     1      10.414 -54.955 -22.135  1.00  0.00    -0.322 N 
ATOM     13  C   UNL     1      10.853 -55.976 -22.954  1.00  0.00     0.259 C 
ATOM     14  O   UNL     1      11.483 -55.819 -23.996  1.00  0.00    -0.269 OA
ATOM     15  H   UNL     1       9.902 -55.249 -21.309  1.00  0.00     0.170 HD
BRANCH  13  16
ATOM     16  C   UNL     1      10.527 -57.384 -22.518  1.00  0.00     0.082 A 
ATOM     17  C   UNL     1       9.461 -58.165 -23.019  1.00  0.00     0.131 A 
ATOM     18  C   UNL     1       9.273 -59.464 -22.521  1.00  0.00     0.047 A 
ATOM     19  C   UNL     1      10.121 -59.990 -21.543  1.00  0.00     0.004 A 
ATOM     20  C   UNL     1      11.370 -57.935 -21.532  1.00  0.00     0.018 A 
ATOM     21  C   UNL     1      11.170 -59.226 -21.048  1.00  0.00     0.001 A 
BRANCH  17  22
ATOM     22  O   UNL     1       8.652 -57.608 -23.980  1.00  0.00    -0.496 OA
ATOM     23  C   UNL     1       7.401 -58.235 -24.246  1.00  0.00     0.278 C 
ENDBRANCH  17  22
ENDBRANCH  13  16
ENDBRANCH   1  12
BRANCH   8  24
ATOM     24  C   UNL     1      14.641 -49.225 -23.112  1.00  0.00     0.264 C 
ATOM     25  O   UNL     1      15.012 -48.090 -22.817  1.00  0.00    -0.268 OA
BRANCH  24  26
ATOM     26  C   UNL     1      15.617 -50.186 -23.688  1.00  0.00     0.082 A 
ATOM     27  C   UNL     1      16.159 -51.174 -22.849  1.00  0.00     0.018 A 
ATOM     28  C   UNL     1      15.946 -50.179 -25.049  1.00  0.00     0.131 A 
ATOM     29  C   UNL     1      17.019 -52.143 -23.368  1.00  0.00     0.001 A 
ATOM     30  C   UNL     1      16.788 -51.168 -25.567  1.00  0.00     0.047 A 
ATOM     31  C   UNL     1      17.330 -52.142 -24.727  1.00  0.00     0.004 A 
BRANCH  28  32
ATOM     32  O   UNL     1      15.455 -49.268 -25.946  1.00  0.00    -0.496 OA
ATOM     33  C   UNL     1      14.654 -49.910 -26.939  1.00  0.00     0.278 C 
ENDBRANCH  28  32
ENDBRANCH  24  26
ENDBRANCH   8  24
TORSDOF 6
ENDMDL
MODEL 9
REMARK VINA RESULT:    -9.860      2.306      8.928
REMARK INTER + INTRA:         -14.384
REMARK INTER:                 -13.808
REMARK INTRA:                  -0.576
REMARK UNBOUND:                -1.065
REMARK SMILES COc1ccccc1C(=O)Nc1ccc2c(c1)CN(C(=O)c1ccccc1OC)C(=O)C2
REMARK SMILES IDX 12 1 13 2 14 3 15 4 16 5 17 6 18 7 19 8 30 9 31 10 32 11
REMARK SMILES IDX 11 12 9 13 10 14 8 16 3 17 4 18 5 19 7 20 6 21 2 22 1 23
REMARK SMILES IDX 20 24 21 25 22 26 23 27 27 28 24 29 26 30 25 31 28 32 29 33
REMARK H PARENT 11 15
ROOT
ATOM      1  C   UNL     1      11.328 -53.549 -22.748  1.00  0.00     0.041 A 
ATOM      2  C   UNL     1      10.983 -53.791 -21.413  1.00  0.00     0.026 A 
ATOM      3  C   UNL     1      10.869 -55.096 -20.927  1.00  0.00     0.007 A 
ATOM      4  C   UNL     1      11.086 -56.181 -21.779  1.00  0.00    -0.033 A 
ATOM      5  C   UNL     1      11.431 -55.951 -23.114  1.00  0.00    -0.022 A 
ATOM      6  C   UNL     1      11.558 -54.637 -23.592  1.00  0.00     0.032 A 
ATOM      7  C   UNL     1      11.712 -57.138 -23.990  1.00  0.00     0.164 C 
ATOM      8  N   UNL     1      10.832 -58.256 -23.682  1.00  0.00    -0.274 N 
ATOM      9  C   UNL     1      10.686 -58.636 -22.348  1.00  0.00     0.234 C 
ATOM     10  O   UNL     1      10.322 -59.759 -21.989  1.00  0.00    -0.274 OA
ATOM     11  C   UNL     1      11.018 -57.598 -21.285  1.00  0.00     0.136 C 
ENDROOT
BRANCH   1  12
ATOM     12  N   UNL     1      11.425 -52.203 -23.151  1.00  0.00    -0.322 N 
ATOM     13  C   UNL     1      11.623 -51.085 -22.367  1.00  0.00     0.259 C 
ATOM     14  O   UNL     1      11.748 -51.096 -21.145  1.00  0.00    -0.269 OA
ATOM     15  H   UNL     1      11.336 -52.026 -24.146  1.00  0.00     0.170 HD
BRANCH  13  16
ATOM     16  C   UNL     1      11.690 -49.757 -23.081  1.00  0.00     0.082 A 
ATOM     17  C   UNL     1      12.649 -49.407 -24.059  1.00  0.00     0.131 A 
ATOM     18  C   UNL     1      12.594 -48.131 -24.643  1.00  0.00     0.047 A 
ATOM     19  C   UNL     1      11.610 -47.211 -24.273  1.00  0.00     0.004 A 
ATOM     20  C   UNL     1      10.706 -48.814 -22.724  1.00  0.00     0.018 A 
ATOM     21  C   UNL     1      10.665 -47.552 -23.314  1.00  0.00     0.001 A 
BRANCH  17  22
ATOM     22  O   UNL     1      13.599 -50.341 -24.393  1.00  0.00    -0.496 OA
ATOM     23  C   UNL     1      13.627 -50.816 -25.735  1.00  0.00     0.278 C 
ENDBRANCH  17  22
ENDBRANCH  13  16
ENDBRANCH   1  12
BRANCH   8  24
ATOM     24  C   UNL     1      10.656 -59.175 -24.721  1.00  0.00     0.264 C 
ATOM     25  O   UNL     1       9.550 -59.597 -25.056  1.00  0.00    -0.268 OA
BRANCH  24  26
ATOM     26  C   UNL     1      11.871 -59.685 -25.407  1.00  0.00     0.082 A 
ATOM     27  C   UNL     1      12.854 -60.329 -24.636  1.00  0.00     0.018 A 
ATOM     28  C   UNL     1      12.023 -59.608 -26.796  1.00  0.00     0.131 A 
ATOM     29  C   UNL     1      13.974 -60.890 -25.252  1.00  0.00     0.001 A 
ATOM     30  C   UNL     1      13.135 -60.194 -27.409  1.00  0.00     0.047 A 
ATOM     31  C   UNL     1      14.112 -60.826 -26.638  1.00  0.00     0.004 A 
BRANCH  28  32
ATOM     32  O   UNL     1      11.112 -59.016 -27.630  1.00  0.00    -0.496 OA
ATOM     33  C   UNL     1      11.747 -58.517 -28.808  1.00  0.00     0.278 C 
ENDBRANCH  28  32
ENDBRANCH  24  26
ENDBRANCH   8  24
TORSDOF 6
ENDMDL
