MODEL 1
REMARK VINA RESULT:   -10.720      0.000      0.000
REMARK INTER + INTRA:         -19.658
REMARK INTER:                 -18.240
REMARK INTRA:                  -1.418
REMARK UNBOUND:                -1.418
REMARK SMILES CC[N@H+](CCCCCCN=C1CC(=O)c2ccccc2C1=O)Cc1ccccc1OC
REMARK SMILES IDX 6 1 7 2 8 3 9 4 10 5 11 6 12 7 13 8 15 9 21 10 16 11 20 12
REMARK SMILES IDX 17 13 19 14 18 15 14 16 22 17 5 18 4 19 3 20 2 22 1 23 23 24
REMARK SMILES IDX 24 25 25 26 29 27 26 28 28 29 27 30 30 31 31 32
REMARK H PARENT 3 21
ROOT
ATOM      1  C   UNL     1      11.000 -58.997 -21.077  1.00  0.00     0.006 C 
ENDROOT
BRANCH   1   2
ATOM      2  C   UNL     1      11.393 -57.564 -21.452  1.00  0.00     0.002 C 
BRANCH   2   3
ATOM      3  C   UNL     1      10.983 -57.174 -22.877  1.00  0.00     0.024 C 
BRANCH   3   4
ATOM      4  C   UNL     1       9.702 -56.334 -22.910  1.00  0.00     0.142 C 
BRANCH   4   5
ATOM      5  N   UNL     1       9.925 -55.190 -23.780  1.00  0.00    -0.285 NA
BRANCH   5   6
ATOM      6  C   UNL     1      10.896 -54.374 -23.542  1.00  0.00     0.090 C 
ATOM      7  C   UNL     1      11.121 -53.579 -22.295  1.00  0.00     0.141 C 
ATOM      8  C   UNL     1      11.631 -52.186 -22.529  1.00  0.00     0.169 C 
ATOM      9  C   UNL     1      12.361 -51.888 -23.784  1.00  0.00     0.029 A 
ATOM     10  C   UNL     1      11.951 -54.200 -24.612  1.00  0.00     0.207 C 
ATOM     11  C   UNL     1      12.913 -50.613 -23.966  1.00  0.00     0.012 A 
ATOM     12  C   UNL     1      12.540 -52.861 -24.768  1.00  0.00     0.035 A 
ATOM     13  C   UNL     1      13.644 -50.322 -25.120  1.00  0.00     0.001 A 
ATOM     14  C   UNL     1      13.282 -52.571 -25.921  1.00  0.00     0.013 A 
ATOM     15  C   UNL     1      13.830 -51.301 -26.094  1.00  0.00     0.001 A 
ATOM     16  O   UNL     1      11.494 -51.312 -21.676  1.00  0.00    -0.294 OA
ATOM     17  O   UNL     1      12.285 -55.145 -25.308  1.00  0.00    -0.287 OA
ENDBRANCH   5   6
ENDBRANCH   4   5
ENDBRANCH   3   4
ENDBRANCH   2   3
ENDBRANCH   1   2
BRANCH   1  18
ATOM     18  C   UNL     1      10.987 -60.008 -22.227  1.00  0.00     0.061 C 
BRANCH  18  19
ATOM     19  C   UNL     1       9.799 -60.964 -22.151  1.00  0.00     0.262 C 
BRANCH  19  20
ATOM     20  N   UNL     1       8.796 -60.730 -23.257  1.00  0.00    -0.331 N 
ATOM     21  H   UNL     1       8.464 -61.673 -23.522  1.00  0.00     0.348 HD
BRANCH  20  22
ATOM     22  C   UNL     1       7.563 -59.936 -22.897  1.00  0.00     0.259 C 
ATOM     23  C   UNL     1       7.394 -58.739 -23.814  1.00  0.00     0.071 C 
ENDBRANCH  20  22
BRANCH  20  24
ATOM     24  C   UNL     1       9.442 -60.247 -24.545  1.00  0.00     0.302 C 
BRANCH  24  25
ATOM     25  C   UNL     1       9.187 -61.143 -25.733  1.00  0.00     0.048 A 
ATOM     26  C   UNL     1       8.409 -62.302 -25.569  1.00  0.00     0.013 A 
ATOM     27  C   UNL     1       9.679 -60.816 -27.012  1.00  0.00     0.127 A 
ATOM     28  C   UNL     1       8.143 -63.132 -26.656  1.00  0.00     0.001 A 
ATOM     29  C   UNL     1       9.411 -61.659 -28.094  1.00  0.00     0.047 A 
ATOM     30  C   UNL     1       8.643 -62.812 -27.915  1.00  0.00     0.004 A 
BRANCH  27  31
ATOM     31  O   UNL     1      10.438 -59.672 -27.081  1.00  0.00    -0.496 OA
ATOM     32  C   UNL     1      11.367 -59.591 -28.164  1.00  0.00     0.278 C 
ENDBRANCH  27  31
ENDBRANCH  24  25
ENDBRANCH  20  24
ENDBRANCH  19  20
ENDBRANCH  18  19
ENDBRANCH   1  18
TORSDOF 12
ENDMDL
MODEL 2
REMARK VINA RESULT:   -10.469      1.660      3.638
REMARK INTER + INTRA:         -19.231
REMARK INTER:                 -17.437
REMARK INTRA:                  -1.795
REMARK UNBOUND:                -1.418
REMARK SMILES CC[N@H+](CCCCCCN=C1CC(=O)c2ccccc2C1=O)Cc1ccccc1OC
REMARK SMILES IDX 6 1 7 2 8 3 9 4 10 5 11 6 12 7 13 8 15 9 21 10 16 11 20 12
REMARK SMILES IDX 17 13 19 14 18 15 14 16 22 17 5 18 4 19 3 20 2 22 1 23 23 24
REMARK SMILES IDX 24 25 25 26 29 27 26 28 28 29 27 30 30 31 31 32
REMARK H PARENT 3 21
ROOT
ATOM      1  C   UNL     1      10.956 -60.736 -22.551  1.00  0.00     0.006 C 
ENDROOT
BRANCH   1   2
ATOM      2  C   UNL     1      10.509 -59.701 -21.513  1.00  0.00     0.002 C 
BRANCH   2   3
ATOM      3  C   UNL     1      11.354 -58.422 -21.526  1.00  0.00     0.024 C 
BRANCH   3   4
ATOM      4  C   UNL     1      10.786 -57.354 -22.467  1.00  0.00     0.142 C 
BRANCH   4   5
ATOM      5  N   UNL     1      11.098 -56.044 -21.917  1.00  0.00    -0.285 NA
BRANCH   5   6
ATOM      6  C   UNL     1      11.071 -55.000 -22.675  1.00  0.00     0.090 C 
ATOM      7  C   UNL     1      11.373 -54.940 -24.139  1.00  0.00     0.141 C 
ATOM      8  C   UNL     1      12.140 -53.722 -24.567  1.00  0.00     0.169 C 
ATOM      9  C   UNL     1      12.063 -52.495 -23.738  1.00  0.00     0.029 A 
ATOM     10  C   UNL     1      10.670 -53.682 -22.050  1.00  0.00     0.207 C 
ATOM     11  C   UNL     1      12.706 -51.332 -24.180  1.00  0.00     0.012 A 
ATOM     12  C   UNL     1      11.334 -52.469 -22.548  1.00  0.00     0.035 A 
ATOM     13  C   UNL     1      12.612 -50.152 -23.439  1.00  0.00     0.001 A 
ATOM     14  C   UNL     1      11.231 -51.281 -21.810  1.00  0.00     0.013 A 
ATOM     15  C   UNL     1      11.872 -50.126 -22.257  1.00  0.00     0.001 A 
ATOM     16  O   UNL     1      12.782 -53.716 -25.614  1.00  0.00    -0.294 OA
ATOM     17  O   UNL     1       9.827 -53.649 -21.167  1.00  0.00    -0.287 OA
ENDBRANCH   5   6
ENDBRANCH   4   5
ENDBRANCH   3   4
ENDBRANCH   2   3
ENDBRANCH   1   2
BRANCH   1  18
ATOM     18  C   UNL     1      12.108 -60.309 -23.466  1.00  0.00     0.061 C 
BRANCH  18  19
ATOM     19  C   UNL     1      11.917 -60.781 -24.905  1.00  0.00     0.262 C 
BRANCH  19  20
ATOM     20  N   UNL     1      11.123 -59.799 -25.735  1.00  0.00    -0.331 N 
ATOM     21  H   UNL     1      10.861 -59.044 -25.080  1.00  0.00     0.348 HD
BRANCH  20  22
ATOM     22  C   UNL     1      11.852 -59.130 -26.876  1.00  0.00     0.259 C 
ATOM     23  C   UNL     1      11.410 -59.692 -28.214  1.00  0.00     0.071 C 
ENDBRANCH  20  22
BRANCH  20  24
ATOM     24  C   UNL     1       9.767 -60.343 -26.153  1.00  0.00     0.302 C 
BRANCH  24  25
ATOM     25  C   UNL     1       8.695 -60.192 -25.101  1.00  0.00     0.048 A 
ATOM     26  C   UNL     1       8.308 -58.906 -24.688  1.00  0.00     0.013 A 
ATOM     27  C   UNL     1       8.044 -61.318 -24.557  1.00  0.00     0.127 A 
ATOM     28  C   UNL     1       7.305 -58.743 -23.735  1.00  0.00     0.001 A 
ATOM     29  C   UNL     1       7.044 -61.143 -23.597  1.00  0.00     0.047 A 
ATOM     30  C   UNL     1       6.676 -59.858 -23.190  1.00  0.00     0.004 A 
BRANCH  27  31
ATOM     31  O   UNL     1       8.490 -62.537 -25.008  1.00  0.00    -0.496 OA
ATOM     32  C   UNL     1       7.570 -63.299 -25.792  1.00  0.00     0.278 C 
ENDBRANCH  27  31
ENDBRANCH  24  25
ENDBRANCH  20  24
ENDBRANCH  19  20
ENDBRANCH  18  19
ENDBRANCH   1  18
TORSDOF 12
ENDMDL
MODEL 3
REMARK VINA RESULT:   -10.436      1.621      2.458
REMARK INTER + INTRA:         -19.175
REMARK INTER:                 -17.330
REMARK INTRA:                  -1.845
REMARK UNBOUND:                -1.418
REMARK SMILES CC[N@H+](CCCCCCN=C1CC(=O)c2ccccc2C1=O)Cc1ccccc1OC
REMARK SMILES IDX 6 1 7 2 8 3 9 4 10 5 11 6 12 7 13 8 15 9 21 10 16 11 20 12
REMARK SMILES IDX 17 13 19 14 18 15 14 16 22 17 5 18 4 19 3 20 2 22 1 23 23 24
REMARK SMILES IDX 24 25 25 26 29 27 26 28 28 29 27 30 30 31 31 32
REMARK H PARENT 3 21
ROOT
ATOM      1  C   UNL     1      11.417 -58.539 -20.945  1.00  0.00     0.006 C 
ENDROOT
BRANCH   1   2
ATOM      2  C   UNL     1      11.340 -57.074 -21.389  1.00  0.00     0.002 C 
BRANCH   2   3
ATOM      3  C   UNL     1      10.884 -56.904 -22.843  1.00  0.00     0.024 C 
BRANCH   3   4
ATOM      4  C   UNL     1       9.703 -55.936 -22.978  1.00  0.00     0.142 C 
BRANCH   4   5
ATOM      5  N   UNL     1      10.060 -54.907 -23.942  1.00  0.00    -0.285 NA
BRANCH   5   6
ATOM      6  C   UNL     1      11.020 -54.083 -23.685  1.00  0.00     0.090 C 
ATOM      7  C   UNL     1      11.210 -53.282 -22.435  1.00  0.00     0.141 C 
ATOM      8  C   UNL     1      11.715 -51.886 -22.663  1.00  0.00     0.169 C 
ATOM      9  C   UNL     1      12.472 -51.587 -23.902  1.00  0.00     0.029 A 
ATOM     10  C   UNL     1      12.098 -53.905 -24.731  1.00  0.00     0.207 C 
ATOM     11  C   UNL     1      13.018 -50.308 -24.076  1.00  0.00     0.012 A 
ATOM     12  C   UNL     1      12.680 -52.562 -24.878  1.00  0.00     0.035 A 
ATOM     13  C   UNL     1      13.773 -50.016 -25.213  1.00  0.00     0.001 A 
ATOM     14  C   UNL     1      13.447 -52.271 -26.014  1.00  0.00     0.013 A 
ATOM     15  C   UNL     1      13.989 -50.997 -26.180  1.00  0.00     0.001 A 
ATOM     16  O   UNL     1      11.552 -51.011 -21.817  1.00  0.00    -0.294 OA
ATOM     17  O   UNL     1      12.455 -54.850 -25.416  1.00  0.00    -0.287 OA
ENDBRANCH   5   6
ENDBRANCH   4   5
ENDBRANCH   3   4
ENDBRANCH   2   3
ENDBRANCH   1   2
BRANCH   1  18
ATOM     18  C   UNL     1      10.468 -59.505 -21.659  1.00  0.00     0.061 C 
BRANCH  18  19
ATOM     19  C   UNL     1      11.211 -60.587 -22.437  1.00  0.00     0.262 C 
BRANCH  19  20
ATOM     20  N   UNL     1      11.191 -60.346 -23.928  1.00  0.00    -0.331 N 
ATOM     21  H   UNL     1      10.451 -59.638 -24.076  1.00  0.00     0.348 HD
BRANCH  20  22
ATOM     22  C   UNL     1      12.447 -59.773 -24.540  1.00  0.00     0.259 C 
ATOM     23  C   UNL     1      12.175 -59.204 -25.920  1.00  0.00     0.071 C 
ENDBRANCH  20  22
BRANCH  20  24
ATOM     24  C   UNL     1      10.654 -61.534 -24.710  1.00  0.00     0.302 C 
BRANCH  24  25
ATOM     25  C   UNL     1       9.325 -62.047 -24.212  1.00  0.00     0.048 A 
ATOM     26  C   UNL     1       9.262 -63.302 -23.582  1.00  0.00     0.013 A 
ATOM     27  C   UNL     1       8.154 -61.273 -24.329  1.00  0.00     0.127 A 
ATOM     28  C   UNL     1       8.050 -63.786 -23.095  1.00  0.00     0.001 A 
ATOM     29  C   UNL     1       6.943 -61.771 -23.842  1.00  0.00     0.047 A 
ATOM     30  C   UNL     1       6.894 -63.023 -23.225  1.00  0.00     0.004 A 
BRANCH  27  31
ATOM     31  O   UNL     1       8.302 -60.064 -24.966  1.00  0.00    -0.496 OA
ATOM     32  C   UNL     1       7.855 -58.910 -24.251  1.00  0.00     0.278 C 
ENDBRANCH  27  31
ENDBRANCH  24  25
ENDBRANCH  20  24
ENDBRANCH  19  20
ENDBRANCH  18  19
ENDBRANCH   1  18
TORSDOF 12
ENDMDL
MODEL 4
REMARK VINA RESULT:   -10.338      1.401      2.223
REMARK INTER + INTRA:         -19.008
REMARK INTER:                 -17.788
REMARK INTRA:                  -1.220
REMARK UNBOUND:                -1.418
REMARK SMILES CC[N@H+](CCCCCCN=C1CC(=O)c2ccccc2C1=O)Cc1ccccc1OC
REMARK SMILES IDX 6 1 7 2 8 3 9 4 10 5 11 6 12 7 13 8 15 9 21 10 16 11 20 12
REMARK SMILES IDX 17 13 19 14 18 15 14 16 22 17 5 18 4 19 3 20 2 22 1 23 23 24
REMARK SMILES IDX 24 25 25 26 29 27 26 28 28 29 27 30 30 31 31 32
REMARK H PARENT 3 21
ROOT
ATOM      1  C   UNL     1      11.114 -58.853 -21.196  1.00  0.00     0.006 C 
ENDROOT
BRANCH   1   2
ATOM      2  C   UNL     1      11.094 -58.061 -22.508  1.00  0.00     0.002 C 
BRANCH   2   3
ATOM      3  C   UNL     1      11.020 -56.544 -22.301  1.00  0.00     0.024 C 
BRANCH   3   4
ATOM      4  C   UNL     1       9.728 -55.939 -22.861  1.00  0.00     0.142 C 
BRANCH   4   5
ATOM      5  N   UNL     1      10.082 -54.955 -23.873  1.00  0.00    -0.285 NA
BRANCH   5   6
ATOM      6  C   UNL     1      11.031 -54.109 -23.650  1.00  0.00     0.090 C 
ATOM      7  C   UNL     1      11.213 -53.258 -22.433  1.00  0.00     0.141 C 
ATOM      8  C   UNL     1      11.700 -51.865 -22.717  1.00  0.00     0.169 C 
ATOM      9  C   UNL     1      12.451 -51.605 -23.968  1.00  0.00     0.029 A 
ATOM     10  C   UNL     1      12.105 -53.959 -24.704  1.00  0.00     0.207 C 
ATOM     11  C   UNL     1      12.980 -50.328 -24.193  1.00  0.00     0.012 A 
ATOM     12  C   UNL     1      12.670 -52.616 -24.905  1.00  0.00     0.035 A 
ATOM     13  C   UNL     1      13.729 -50.071 -25.343  1.00  0.00     0.001 A 
ATOM     14  C   UNL     1      13.431 -52.359 -26.054  1.00  0.00     0.013 A 
ATOM     15  C   UNL     1      13.957 -51.086 -26.270  1.00  0.00     0.001 A 
ATOM     16  O   UNL     1      11.527 -50.959 -21.905  1.00  0.00    -0.294 OA
ATOM     17  O   UNL     1      12.473 -54.925 -25.352  1.00  0.00    -0.287 OA
ENDBRANCH   5   6
ENDBRANCH   4   5
ENDBRANCH   3   4
ENDBRANCH   2   3
ENDBRANCH   1   2
BRANCH   1  18
ATOM     18  C   UNL     1      10.234 -60.106 -21.159  1.00  0.00     0.061 C 
BRANCH  18  19
ATOM     19  C   UNL     1       9.497 -60.342 -22.475  1.00  0.00     0.262 C 
BRANCH  19  20
ATOM     20  N   UNL     1       9.253 -61.808 -22.746  1.00  0.00    -0.331 N 
ATOM     21  H   UNL     1       9.448 -62.283 -21.849  1.00  0.00     0.348 HD
BRANCH  20  22
ATOM     22  C   UNL     1       7.847 -62.201 -23.132  1.00  0.00     0.259 C 
ATOM     23  C   UNL     1       7.669 -63.708 -23.098  1.00  0.00     0.071 C 
ENDBRANCH  20  22
BRANCH  20  24
ATOM     24  C   UNL     1      10.298 -62.419 -23.664  1.00  0.00     0.302 C 
BRANCH  24  25
ATOM     25  C   UNL     1      10.905 -61.442 -24.641  1.00  0.00     0.048 A 
ATOM     26  C   UNL     1      12.157 -60.870 -24.360  1.00  0.00     0.013 A 
ATOM     27  C   UNL     1      10.257 -61.124 -25.852  1.00  0.00     0.127 A 
ATOM     28  C   UNL     1      12.746 -59.983 -25.258  1.00  0.00     0.001 A 
ATOM     29  C   UNL     1      10.854 -60.229 -26.743  1.00  0.00     0.047 A 
ATOM     30  C   UNL     1      12.095 -59.662 -26.445  1.00  0.00     0.004 A 
BRANCH  27  31
ATOM     31  O   UNL     1       9.033 -61.719 -26.044  1.00  0.00    -0.496 OA
ATOM     32  C   UNL     1       8.831 -62.366 -27.303  1.00  0.00     0.278 C 
ENDBRANCH  27  31
ENDBRANCH  24  25
ENDBRANCH  20  24
ENDBRANCH  19  20
ENDBRANCH  18  19
ENDBRANCH   1  18
TORSDOF 12
ENDMDL
MODEL 5
REMARK VINA RESULT:   -10.077      1.411      3.003
REMARK INTER + INTRA:         -18.565
REMARK INTER:                 -17.252
REMARK INTRA:                  -1.313
REMARK UNBOUND:                -1.418
REMARK SMILES CC[N@H+](CCCCCCN=C1CC(=O)c2ccccc2C1=O)Cc1ccccc1OC
REMARK SMILES IDX 6 1 7 2 8 3 9 4 10 5 11 6 12 7 13 8 15 9 21 10 16 11 20 12
REMARK SMILES IDX 17 13 19 14 18 15 14 16 22 17 5 18 4 19 3 20 2 22 1 23 23 24
REMARK SMILES IDX 24 25 25 26 29 27 26 28 28 29 27 30 30 31 31 32
REMARK H PARENT 3 21
ROOT
ATOM      1  C   UNL     1       9.852 -60.195 -21.587  1.00  0.00     0.006 C 
ENDROOT
BRANCH   1   2
ATOM      2  C   UNL     1      11.246 -59.610 -21.842  1.00  0.00     0.002 C 
BRANCH   2   3
ATOM      3  C   UNL     1      11.391 -58.159 -21.371  1.00  0.00     0.024 C 
BRANCH   3   4
ATOM      4  C   UNL     1      11.358 -57.159 -22.532  1.00  0.00     0.142 C 
BRANCH   4   5
ATOM      5  N   UNL     1      11.027 -55.846 -21.999  1.00  0.00    -0.285 NA
BRANCH   5   6
ATOM      6  C   UNL     1      11.056 -54.809 -22.768  1.00  0.00     0.090 C 
ATOM      7  C   UNL     1      11.381 -54.777 -24.227  1.00  0.00     0.141 C 
ATOM      8  C   UNL     1      12.206 -53.596 -24.655  1.00  0.00     0.169 C 
ATOM      9  C   UNL     1      12.170 -52.360 -23.838  1.00  0.00     0.029 A 
ATOM     10  C   UNL     1      10.702 -53.470 -22.160  1.00  0.00     0.207 C 
ATOM     11  C   UNL     1      12.869 -51.229 -24.281  1.00  0.00     0.012 A 
ATOM     12  C   UNL     1      11.426 -52.291 -22.660  1.00  0.00     0.035 A 
ATOM     13  C   UNL     1      12.814 -50.039 -23.553  1.00  0.00     0.001 A 
ATOM     14  C   UNL     1      11.363 -51.093 -21.935  1.00  0.00     0.013 A 
ATOM     15  C   UNL     1      12.059 -49.971 -22.383  1.00  0.00     0.001 A 
ATOM     16  O   UNL     1      12.863 -53.628 -25.692  1.00  0.00    -0.294 OA
ATOM     17  O   UNL     1       9.849 -53.392 -21.291  1.00  0.00    -0.287 OA
ENDBRANCH   5   6
ENDBRANCH   4   5
ENDBRANCH   3   4
ENDBRANCH   2   3
ENDBRANCH   1   2
BRANCH   1  18
ATOM     18  C   UNL     1       8.740 -59.700 -22.517  1.00  0.00     0.061 C 
BRANCH  18  19
ATOM     19  C   UNL     1       7.972 -60.846 -23.170  1.00  0.00     0.262 C 
BRANCH  19  20
ATOM     20  N   UNL     1       8.880 -61.820 -23.883  1.00  0.00    -0.331 N 
ATOM     21  H   UNL     1       9.837 -61.463 -23.721  1.00  0.00     0.348 HD
BRANCH  20  22
ATOM     22  C   UNL     1       8.873 -63.245 -23.382  1.00  0.00     0.259 C 
ATOM     23  C   UNL     1       7.664 -64.002 -23.899  1.00  0.00     0.071 C 
ENDBRANCH  20  22
BRANCH  20  24
ATOM     24  C   UNL     1       8.762 -61.737 -25.396  1.00  0.00     0.302 C 
BRANCH  24  25
ATOM     25  C   UNL     1       9.926 -61.049 -26.065  1.00  0.00     0.048 A 
ATOM     26  C   UNL     1      10.985 -60.562 -25.281  1.00  0.00     0.013 A 
ATOM     27  C   UNL     1       9.992 -60.925 -27.468  1.00  0.00     0.127 A 
ATOM     28  C   UNL     1      12.081 -59.944 -25.879  1.00  0.00     0.001 A 
ATOM     29  C   UNL     1      11.093 -60.298 -28.057  1.00  0.00     0.047 A 
ATOM     30  C   UNL     1      12.134 -59.811 -27.263  1.00  0.00     0.004 A 
BRANCH  27  31
ATOM     31  O   UNL     1       8.911 -61.419 -28.158  1.00  0.00    -0.496 OA
ATOM     32  C   UNL     1       9.074 -62.708 -28.754  1.00  0.00     0.278 C 
ENDBRANCH  27  31
ENDBRANCH  24  25
ENDBRANCH  20  24
ENDBRANCH  19  20
ENDBRANCH  18  19
ENDBRANCH   1  18
TORSDOF 12
ENDMDL
MODEL 6
REMARK VINA RESULT:    -9.734      1.670      2.761
REMARK INTER + INTRA:         -17.981
REMARK INTER:                 -16.929
REMARK INTRA:                  -1.052
REMARK UNBOUND:                -1.418
REMARK SMILES CC[N@H+](CCCCCCN=C1CC(=O)c2ccccc2C1=O)Cc1ccccc1OC
REMARK SMILES IDX 6 1 7 2 8 3 9 4 10 5 11 6 12 7 13 8 15 9 21 10 16 11 20 12
REMARK SMILES IDX 17 13 19 14 18 15 14 16 22 17 5 18 4 19 3 20 2 22 1 23 23 24
REMARK SMILES IDX 24 25 25 26 29 27 26 28 28 29 27 30 30 31 31 32
REMARK H PARENT 3 21
ROOT
ATOM      1  C   UNL     1      10.047 -57.729 -22.995  1.00  0.00     0.006 C 
ENDROOT
BRANCH   1   2
ATOM      2  C   UNL     1       9.876 -56.207 -23.046  1.00  0.00     0.002 C 
BRANCH   2   3
ATOM      3  C   UNL     1      10.744 -55.464 -22.024  1.00  0.00     0.024 C 
BRANCH   3   4
ATOM      4  C   UNL     1      10.192 -54.075 -21.684  1.00  0.00     0.142 C 
BRANCH   4   5
ATOM      5  N   UNL     1      10.341 -53.222 -22.853  1.00  0.00    -0.285 NA
BRANCH   5   6
ATOM      6  C   UNL     1      11.386 -52.475 -22.981  1.00  0.00     0.090 C 
ATOM      7  C   UNL     1      11.835 -51.386 -22.060  1.00  0.00     0.141 C 
ATOM      8  C   UNL     1      12.394 -50.176 -22.753  1.00  0.00     0.169 C 
ATOM      9  C   UNL     1      12.958 -50.324 -24.116  1.00  0.00     0.029 A 
ATOM     10  C   UNL     1      12.289 -52.722 -24.170  1.00  0.00     0.207 C 
ATOM     11  C   UNL     1      13.559 -49.217 -24.729  1.00  0.00     0.012 A 
ATOM     12  C   UNL     1      12.934 -51.551 -24.781  1.00  0.00     0.035 A 
ATOM     13  C   UNL     1      14.136 -49.343 -25.994  1.00  0.00     0.001 A 
ATOM     14  C   UNL     1      13.523 -51.678 -26.047  1.00  0.00     0.013 A 
ATOM     15  C   UNL     1      14.121 -50.573 -26.650  1.00  0.00     0.001 A 
ATOM     16  O   UNL     1      12.435 -49.087 -22.187  1.00  0.00    -0.294 OA
ATOM     17  O   UNL     1      12.461 -53.855 -24.589  1.00  0.00    -0.287 OA
ENDBRANCH   5   6
ENDBRANCH   4   5
ENDBRANCH   3   4
ENDBRANCH   2   3
ENDBRANCH   1   2
BRANCH   1  18
ATOM     18  C   UNL     1      11.210 -58.242 -22.140  1.00  0.00     0.061 C 
BRANCH  18  19
ATOM     19  C   UNL     1      11.789 -59.553 -22.667  1.00  0.00     0.262 C 
BRANCH  19  20
ATOM     20  N   UNL     1      11.449 -59.793 -24.119  1.00  0.00    -0.331 N 
ATOM     21  H   UNL     1      10.438 -59.591 -24.195  1.00  0.00     0.348 HD
BRANCH  20  22
ATOM     22  C   UNL     1      12.133 -58.905 -25.131  1.00  0.00     0.259 C 
ATOM     23  C   UNL     1      12.153 -59.552 -26.504  1.00  0.00     0.071 C 
ENDBRANCH  20  22
BRANCH  20  24
ATOM     24  C   UNL     1      11.510 -61.263 -24.502  1.00  0.00     0.302 C 
BRANCH  24  25
ATOM     25  C   UNL     1      10.267 -62.041 -24.147  1.00  0.00     0.048 A 
ATOM     26  C   UNL     1      10.241 -62.798 -22.963  1.00  0.00     0.013 A 
ATOM     27  C   UNL     1       9.116 -61.989 -24.959  1.00  0.00     0.127 A 
ATOM     28  C   UNL     1       9.096 -63.507 -22.603  1.00  0.00     0.001 A 
ATOM     29  C   UNL     1       7.976 -62.709 -24.592  1.00  0.00     0.047 A 
ATOM     30  C   UNL     1       7.968 -63.464 -23.416  1.00  0.00     0.004 A 
BRANCH  27  31
ATOM     31  O   UNL     1       9.230 -61.235 -26.101  1.00  0.00    -0.496 OA
ATOM     32  C   UNL     1       9.205 -61.949 -27.339  1.00  0.00     0.278 C 
ENDBRANCH  27  31
ENDBRANCH  24  25
ENDBRANCH  20  24
ENDBRANCH  19  20
ENDBRANCH  18  19
ENDBRANCH   1  18
TORSDOF 12
ENDMDL
MODEL 7
REMARK VINA RESULT:    -9.567      1.891      3.292
REMARK INTER + INTRA:         -17.697
REMARK INTER:                 -16.115
REMARK INTRA:                  -1.582
REMARK UNBOUND:                -1.418
REMARK SMILES CC[N@H+](CCCCCCN=C1CC(=O)c2ccccc2C1=O)Cc1ccccc1OC
REMARK SMILES IDX 6 1 7 2 8 3 9 4 10 5 11 6 12 7 13 8 15 9 21 10 16 11 20 12
REMARK SMILES IDX 17 13 19 14 18 15 14 16 22 17 5 18 4 19 3 20 2 22 1 23 23 24
REMARK SMILES IDX 24 25 25 26 29 27 26 28 28 29 27 30 30 31 31 32
REMARK H PARENT 3 21
ROOT
ATOM      1  C   UNL     1      11.741 -58.126 -22.421  1.00  0.00     0.006 C 
ENDROOT
BRANCH   1   2
ATOM      2  C   UNL     1      11.005 -56.971 -21.734  1.00  0.00     0.002 C 
BRANCH   2   3
ATOM      3  C   UNL     1      10.412 -55.956 -22.718  1.00  0.00     0.024 C 
BRANCH   3   4
ATOM      4  C   UNL     1      10.280 -54.556 -22.109  1.00  0.00     0.142 C 
BRANCH   4   5
ATOM      5  N   UNL     1      10.386 -53.577 -23.180  1.00  0.00    -0.285 NA
BRANCH   5   6
ATOM      6  C   UNL     1      11.402 -52.782 -23.233  1.00  0.00     0.090 C 
ATOM      7  C   UNL     1      11.785 -51.740 -22.230  1.00  0.00     0.141 C 
ATOM      8  C   UNL     1      12.308 -50.465 -22.828  1.00  0.00     0.169 C 
ATOM      9  C   UNL     1      12.907 -50.498 -24.184  1.00  0.00     0.029 A 
ATOM     10  C   UNL     1      12.340 -52.912 -24.413  1.00  0.00     0.207 C 
ATOM     11  C   UNL     1      13.475 -49.329 -24.707  1.00  0.00     0.012 A 
ATOM     12  C   UNL     1      12.948 -51.677 -24.930  1.00  0.00     0.035 A 
ATOM     13  C   UNL     1      14.084 -49.346 -25.963  1.00  0.00     0.001 A 
ATOM     14  C   UNL     1      13.570 -51.695 -26.186  1.00  0.00     0.013 A 
ATOM     15  C   UNL     1      14.134 -50.529 -26.700  1.00  0.00     0.001 A 
ATOM     16  O   UNL     1      12.292 -49.416 -22.190  1.00  0.00    -0.294 OA
ATOM     17  O   UNL     1      12.567 -54.006 -24.903  1.00  0.00    -0.287 OA
ENDBRANCH   5   6
ENDBRANCH   4   5
ENDBRANCH   3   4
ENDBRANCH   2   3
ENDBRANCH   1   2
BRANCH   1  18
ATOM     18  C   UNL     1      11.224 -59.531 -22.100  1.00  0.00     0.061 C 
BRANCH  18  19
ATOM     19  C   UNL     1      11.167 -60.429 -23.333  1.00  0.00     0.262 C 
BRANCH  19  20
ATOM     20  N   UNL     1      10.917 -59.651 -24.604  1.00  0.00    -0.331 N 
ATOM     21  H   UNL     1      10.711 -58.687 -24.293  1.00  0.00     0.348 HD
BRANCH  20  22
ATOM     22  C   UNL     1      12.071 -59.543 -25.572  1.00  0.00     0.259 C 
ATOM     23  C   UNL     1      13.147 -60.566 -25.259  1.00  0.00     0.071 C 
ENDBRANCH  20  22
BRANCH  20  24
ATOM     24  C   UNL     1       9.620 -60.046 -25.291  1.00  0.00     0.302 C 
BRANCH  24  25
ATOM     25  C   UNL     1       8.383 -59.774 -24.470  1.00  0.00     0.048 A 
ATOM     26  C   UNL     1       8.038 -58.448 -24.160  1.00  0.00     0.013 A 
ATOM     27  C   UNL     1       7.544 -60.824 -24.044  1.00  0.00     0.127 A 
ATOM     28  C   UNL     1       6.888 -58.171 -23.422  1.00  0.00     0.001 A 
ATOM     29  C   UNL     1       6.397 -60.535 -23.300  1.00  0.00     0.047 A 
ATOM     30  C   UNL     1       6.071 -59.212 -22.992  1.00  0.00     0.004 A 
BRANCH  27  31
ATOM     31  O   UNL     1       7.960 -62.089 -24.381  1.00  0.00    -0.496 OA
ATOM     32  C   UNL     1       7.475 -63.156 -23.563  1.00  0.00     0.278 C 
ENDBRANCH  27  31
ENDBRANCH  24  25
ENDBRANCH  20  24
ENDBRANCH  19  20
ENDBRANCH  18  19
ENDBRANCH   1  18
TORSDOF 12
ENDMDL
MODEL 8
REMARK VINA RESULT:    -9.537      2.019      9.568
REMARK INTER + INTRA:         -17.645
REMARK INTER:                 -16.921
REMARK INTRA:                  -0.725
REMARK UNBOUND:                -1.418
REMARK SMILES CC[N@H+](CCCCCCN=C1CC(=O)c2ccccc2C1=O)Cc1ccccc1OC
REMARK SMILES IDX 6 1 7 2 8 3 9 4 10 5 11 6 12 7 13 8 15 9 21 10 16 11 20 12
REMARK SMILES IDX 17 13 19 14 18 15 14 16 22 17 5 18 4 19 3 20 2 22 1 23 23 24
REMARK SMILES IDX 24 25 25 26 29 27 26 28 28 29 27 30 30 31 31 32
REMARK H PARENT 3 21
ROOT
ATOM      1  C   UNL     1      10.805 -55.559 -21.955  1.00  0.00     0.006 C 
ENDROOT
BRANCH   1   2
ATOM      2  C   UNL     1      11.142 -56.560 -23.066  1.00  0.00     0.002 C 
BRANCH   2   3
ATOM      3  C   UNL     1      10.591 -57.966 -22.804  1.00  0.00     0.024 C 
BRANCH   3   4
ATOM      4  C   UNL     1      11.227 -58.626 -21.576  1.00  0.00     0.142 C 
BRANCH   4   5
ATOM      5  N   UNL     1      10.916 -60.047 -21.604  1.00  0.00    -0.285 NA
BRANCH   5   6
ATOM      6  C   UNL     1      10.996 -60.706 -22.711  1.00  0.00     0.090 C 
ATOM      7  C   UNL     1      12.011 -60.528 -23.795  1.00  0.00     0.141 C 
ATOM      8  C   UNL     1      11.461 -60.647 -25.188  1.00  0.00     0.169 C 
ATOM      9  C   UNL     1      10.217 -61.422 -25.407  1.00  0.00     0.029 A 
ATOM     10  C   UNL     1       9.981 -61.801 -22.957  1.00  0.00     0.207 C 
ATOM     11  C   UNL     1       9.750 -61.608 -26.715  1.00  0.00     0.012 A 
ATOM     12  C   UNL     1       9.525 -62.000 -24.341  1.00  0.00     0.035 A 
ATOM     13  C   UNL     1       8.605 -62.372 -26.950  1.00  0.00     0.001 A 
ATOM     14  C   UNL     1       8.382 -62.775 -24.579  1.00  0.00     0.013 A 
ATOM     15  C   UNL     1       7.924 -62.957 -25.884  1.00  0.00     0.001 A 
ATOM     16  O   UNL     1      12.055 -60.156 -26.144  1.00  0.00    -0.294 OA
ATOM     17  O   UNL     1       9.568 -62.479 -22.030  1.00  0.00    -0.287 OA
ENDBRANCH   5   6
ENDBRANCH   4   5
ENDBRANCH   3   4
ENDBRANCH   2   3
ENDBRANCH   1   2
BRANCH   1  18
ATOM     18  C   UNL     1      10.190 -54.234 -22.415  1.00  0.00     0.061 C 
BRANCH  18  19
ATOM     19  C   UNL     1      10.631 -53.054 -21.552  1.00  0.00     0.262 C 
BRANCH  19  20
ATOM     20  N   UNL     1      10.624 -51.748 -22.311  1.00  0.00    -0.331 N 
ATOM     21  H   UNL     1      10.444 -52.010 -23.295  1.00  0.00     0.348 HD
BRANCH  20  22
ATOM     22  C   UNL     1       9.552 -50.752 -21.939  1.00  0.00     0.259 C 
ATOM     23  C   UNL     1       9.915 -49.355 -22.406  1.00  0.00     0.071 C 
ENDBRANCH  20  22
BRANCH  20  24
ATOM     24  C   UNL     1      12.001 -51.111 -22.400  1.00  0.00     0.302 C 
BRANCH  24  25
ATOM     25  C   UNL     1      12.633 -51.202 -23.768  1.00  0.00     0.048 A 
ATOM     26  C   UNL     1      12.716 -52.449 -24.409  1.00  0.00     0.013 A 
ATOM     27  C   UNL     1      13.102 -50.050 -24.432  1.00  0.00     0.127 A 
ATOM     28  C   UNL     1      13.274 -52.553 -25.682  1.00  0.00     0.001 A 
ATOM     29  C   UNL     1      13.665 -50.167 -25.706  1.00  0.00     0.047 A 
ATOM     30  C   UNL     1      13.749 -51.415 -26.327  1.00  0.00     0.004 A 
BRANCH  27  31
ATOM     31  O   UNL     1      12.992 -48.874 -23.731  1.00  0.00    -0.496 OA
ATOM     32  C   UNL     1      12.645 -47.713 -24.488  1.00  0.00     0.278 C 
ENDBRANCH  27  31
ENDBRANCH  24  25
ENDBRANCH  20  24
ENDBRANCH  19  20
ENDBRANCH  18  19
ENDBRANCH   1  18
TORSDOF 12
ENDMDL
MODEL 9
REMARK VINA RESULT:    -9.487      1.851      2.893
REMARK INTER + INTRA:         -17.561
REMARK INTER:                 -16.374
REMARK INTRA:                  -1.186
REMARK UNBOUND:                -1.418
REMARK SMILES CC[N@H+](CCCCCCN=C1CC(=O)c2ccccc2C1=O)Cc1ccccc1OC
REMARK SMILES IDX 6 1 7 2 8 3 9 4 10 5 11 6 12 7 13 8 15 9 21 10 16 11 20 12
REMARK SMILES IDX 17 13 19 14 18 15 14 16 22 17 5 18 4 19 3 20 2 22 1 23 23 24
REMARK SMILES IDX 24 25 25 26 29 27 26 28 28 29 27 30 30 31 31 32
REMARK H PARENT 3 21
ROOT
ATOM      1  C   UNL     1      11.108 -58.091 -21.353  1.00  0.00     0.006 C 
ENDROOT
BRANCH   1   2
ATOM      2  C   UNL     1      11.278 -56.737 -22.050  1.00  0.00     0.002 C 
BRANCH   2   3
ATOM      3  C   UNL     1      11.133 -55.542 -21.100  1.00  0.00     0.024 C 
BRANCH   3   4
ATOM      4  C   UNL     1      10.081 -54.536 -21.579  1.00  0.00     0.142 C 
BRANCH   4   5
ATOM      5  N   UNL     1      10.558 -53.194 -21.280  1.00  0.00    -0.285 NA
BRANCH   5   6
ATOM      6  C   UNL     1      10.825 -52.373 -22.240  1.00  0.00     0.090 C 
ATOM      7  C   UNL     1      11.713 -52.622 -23.418  1.00  0.00     0.141 C 
ATOM      8  C   UNL     1      12.556 -51.445 -23.820  1.00  0.00     0.169 C 
ATOM      9  C   UNL     1      12.106 -50.080 -23.458  1.00  0.00     0.029 A 
ATOM     10  C   UNL     1      10.164 -51.013 -22.210  1.00  0.00     0.207 C 
ATOM     11  C   UNL     1      12.845 -48.977 -23.906  1.00  0.00     0.012 A 
ATOM     12  C   UNL     1      10.945 -49.873 -22.713  1.00  0.00     0.035 A 
ATOM     13  C   UNL     1      12.417 -47.680 -23.616  1.00  0.00     0.001 A 
ATOM     14  C   UNL     1      10.511 -48.570 -22.431  1.00  0.00     0.013 A 
ATOM     15  C   UNL     1      11.250 -47.477 -22.882  1.00  0.00     0.001 A 
ATOM     16  O   UNL     1      13.578 -51.599 -24.483  1.00  0.00    -0.294 OA
ATOM     17  O   UNL     1       9.028 -50.888 -21.781  1.00  0.00    -0.287 OA
ENDBRANCH   5   6
ENDBRANCH   4   5
ENDBRANCH   3   4
ENDBRANCH   2   3
ENDBRANCH   1   2
BRANCH   1  18
ATOM     18  C   UNL     1      11.228 -59.324 -22.253  1.00  0.00     0.061 C 
BRANCH  18  19
ATOM     19  C   UNL     1       9.871 -59.936 -22.592  1.00  0.00     0.262 C 
BRANCH  19  20
ATOM     20  N   UNL     1       9.952 -60.931 -23.726  1.00  0.00    -0.331 N 
ATOM     21  H   UNL     1      10.503 -60.457 -24.461  1.00  0.00     0.348 HD
BRANCH  20  22
ATOM     22  C   UNL     1      10.667 -62.230 -23.438  1.00  0.00     0.259 C 
ATOM     23  C   UNL     1       9.808 -63.154 -22.595  1.00  0.00     0.071 C 
ENDBRANCH  20  22
BRANCH  20  24
ATOM     24  C   UNL     1       8.616 -61.145 -24.418  1.00  0.00     0.302 C 
BRANCH  24  25
ATOM     25  C   UNL     1       8.731 -61.712 -25.812  1.00  0.00     0.048 A 
ATOM     26  C   UNL     1       8.045 -62.894 -26.136  1.00  0.00     0.013 A 
ATOM     27  C   UNL     1       9.481 -61.053 -26.808  1.00  0.00     0.127 A 
ATOM     28  C   UNL     1       8.118 -63.424 -27.422  1.00  0.00     0.001 A 
ATOM     29  C   UNL     1       9.552 -61.596 -28.093  1.00  0.00     0.047 A 
ATOM     30  C   UNL     1       8.871 -62.777 -28.398  1.00  0.00     0.004 A 
BRANCH  27  31
ATOM     31  O   UNL     1      10.128 -59.910 -26.405  1.00  0.00    -0.496 OA
ATOM     32  C   UNL     1      11.506 -59.799 -26.767  1.00  0.00     0.278 C 
ENDBRANCH  27  31
ENDBRANCH  24  25
ENDBRANCH  20  24
ENDBRANCH  19  20
ENDBRANCH  18  19
ENDBRANCH   1  18
TORSDOF 12
ENDMDL
