MODEL 1
REMARK VINA RESULT:   -11.106      0.000      0.000
REMARK INTER + INTRA:         -18.043
REMARK INTER:                 -17.273
REMARK INTRA:                  -0.770
REMARK UNBOUND:                -0.770
REMARK SMILES COc1cc2c(cc1OC)SC(=C(O)CCc1cc[n+](Cc3coc([N+](=O)[O-])c3)cc1)C2
REMARK SMILES IDX 16 1 15 2 13 3 14 4 12 6 32 7 11 8 5 9 6 10 4 11 7 12 3 13
REMARK SMILES IDX 8 14 2 15 1 16 9 17 10 18 17 19 18 20 31 21 19 22 30 23
REMARK SMILES IDX 20 24 21 25 22 26 23 27 29 28 24 29 25 30 26 31 27 32 28 33
REMARK H PARENT 14 5
ROOT
ATOM      1  C   UNL     1      11.010 -55.966 -21.722  1.00  0.00     0.044 C 
ENDROOT
BRANCH   1   2
ATOM      2  C   UNL     1      10.795 -54.927 -22.830  1.00  0.00     0.080 C 
BRANCH   2   3
ATOM      3  C   UNL     1      10.992 -53.522 -22.309  1.00  0.00     0.103 C 
BRANCH   3   4
ATOM      4  O   UNL     1      10.493 -53.273 -21.038  1.00  0.00    -0.511 OA
ATOM      5  H   UNL     1      10.179 -52.354 -20.977  1.00  0.00     0.293 HD
ENDBRANCH   3   4
BRANCH   3   6
ATOM      6  C   UNL     1      11.591 -52.518 -22.975  1.00  0.00     0.032 C 
ATOM      7  C   UNL     1      12.386 -52.725 -24.252  1.00  0.00     0.083 C 
ATOM      8  S   UNL     1      11.513 -50.833 -22.479  1.00  0.00    -0.090 SA
ATOM      9  C   UNL     1      12.861 -51.373 -24.705  1.00  0.00    -0.025 A 
ATOM     10  C   UNL     1      12.482 -50.317 -23.877  1.00  0.00     0.020 A 
ATOM     11  C   UNL     1      13.622 -51.137 -25.848  1.00  0.00     0.055 A 
ATOM     12  C   UNL     1      12.852 -49.010 -24.166  1.00  0.00     0.066 A 
ATOM     13  C   UNL     1      14.002 -49.826 -26.157  1.00  0.00     0.161 A 
ATOM     14  C   UNL     1      13.617 -48.757 -25.310  1.00  0.00     0.161 A 
BRANCH  13  15
ATOM     15  O   UNL     1      14.748 -49.478 -27.257  1.00  0.00    -0.493 OA
ATOM     16  C   UNL     1      16.161 -49.592 -27.164  1.00  0.00     0.278 C 
ENDBRANCH  13  15
BRANCH  14  17
ATOM     17  O   UNL     1      14.037 -47.507 -25.698  1.00  0.00    -0.493 OA
ATOM     18  C   UNL     1      14.734 -46.716 -24.747  1.00  0.00     0.278 C 
ENDBRANCH  14  17
ENDBRANCH   3   6
ENDBRANCH   2   3
ENDBRANCH   1   2
BRANCH   1  19
ATOM     19  C   UNL     1      11.227 -57.353 -22.282  1.00  0.00    -0.036 A 
ATOM     20  C   UNL     1      11.626 -57.521 -23.609  1.00  0.00     0.074 A 
ATOM     21  C   UNL     1      11.024 -58.488 -21.499  1.00  0.00     0.074 A 
ATOM     22  C   UNL     1      11.820 -58.800 -24.118  1.00  0.00     0.308 A 
ATOM     23  C   UNL     1      11.230 -59.750 -22.049  1.00  0.00     0.308 A 
ATOM     24  N   UNL     1      11.619 -59.889 -23.338  1.00  0.00    -0.201 N 
BRANCH  24  25
ATOM     25  C   UNL     1      11.836 -61.246 -23.897  1.00  0.00     0.397 C 
BRANCH  25  26
ATOM     26  C   UNL     1      10.544 -61.986 -23.967  1.00  0.00     0.063 A 
ATOM     27  C   UNL     1      10.057 -62.893 -23.039  1.00  0.00     0.213 A 
ATOM     28  C   UNL     1       9.554 -61.929 -24.998  1.00  0.00     0.143 A 
ATOM     29  O   UNL     1       8.843 -63.373 -23.417  1.00  0.00    -0.409 OA
ATOM     30  C   UNL     1       8.551 -62.787 -24.606  1.00  0.00     0.433 A 
BRANCH  30  31
ATOM     31  N   UNL     1       7.306 -63.138 -25.215  1.00  0.00     0.102 N 
ATOM     32  O   UNL     1       7.338 -63.791 -26.263  1.00  0.00    -0.256 OA
ATOM     33  O   UNL     1       6.291 -62.755 -24.618  1.00  0.00    -0.256 OA
ENDBRANCH  30  31
ENDBRANCH  25  26
ENDBRANCH  24  25
ENDBRANCH   1  19
TORSDOF 10
ENDMDL
MODEL 2
REMARK VINA RESULT:   -10.739      0.790      2.008
REMARK INTER + INTRA:         -17.473
REMARK INTER:                 -16.703
REMARK INTRA:                  -0.770
REMARK UNBOUND:                -0.770
REMARK SMILES COc1cc2c(cc1OC)SC(=C(O)CCc1cc[n+](Cc3coc([N+](=O)[O-])c3)cc1)C2
REMARK SMILES IDX 16 1 15 2 13 3 14 4 12 6 32 7 11 8 5 9 6 10 4 11 7 12 3 13
REMARK SMILES IDX 8 14 2 15 1 16 9 17 10 18 17 19 18 20 31 21 19 22 30 23
REMARK SMILES IDX 20 24 21 25 22 26 23 27 29 28 24 29 25 30 26 31 27 32 28 33
REMARK H PARENT 14 5
ROOT
ATOM      1  C   UNL     1      11.024 -55.951 -21.765  1.00  0.00     0.044 C 
ENDROOT
BRANCH   1   2
ATOM      2  C   UNL     1      10.728 -54.921 -22.862  1.00  0.00     0.080 C 
BRANCH   2   3
ATOM      3  C   UNL     1      11.025 -53.516 -22.389  1.00  0.00     0.103 C 
BRANCH   3   4
ATOM      4  O   UNL     1      10.614 -53.212 -21.099  1.00  0.00    -0.511 OA
ATOM      5  H   UNL     1      10.780 -53.969 -20.510  1.00  0.00     0.293 HD
ENDBRANCH   3   4
BRANCH   3   6
ATOM      6  C   UNL     1      11.634 -52.560 -23.115  1.00  0.00     0.032 C 
ATOM      7  C   UNL     1      11.664 -51.098 -22.707  1.00  0.00     0.083 C 
ATOM      8  S   UNL     1      12.501 -52.874 -24.612  1.00  0.00    -0.090 SA
ATOM      9  C   UNL     1      12.462 -50.362 -23.747  1.00  0.00    -0.025 A 
ATOM     10  C   UNL     1      12.944 -51.162 -24.782  1.00  0.00     0.020 A 
ATOM     11  C   UNL     1      12.726 -48.995 -23.728  1.00  0.00     0.055 A 
ATOM     12  C   UNL     1      13.696 -50.620 -25.817  1.00  0.00     0.066 A 
ATOM     13  C   UNL     1      13.483 -48.430 -24.762  1.00  0.00     0.161 A 
ATOM     14  C   UNL     1      13.968 -49.248 -25.813  1.00  0.00     0.161 A 
BRANCH  13  15
ATOM     15  O   UNL     1      13.805 -47.097 -24.844  1.00  0.00    -0.493 OA
ATOM     16  C   UNL     1      12.743 -46.166 -24.986  1.00  0.00     0.278 C 
ENDBRANCH  13  15
BRANCH  14  17
ATOM     17  O   UNL     1      14.702 -48.603 -26.780  1.00  0.00    -0.493 OA
ATOM     18  C   UNL     1      15.930 -49.191 -27.183  1.00  0.00     0.278 C 
ENDBRANCH  14  17
ENDBRANCH   3   6
ENDBRANCH   2   3
ENDBRANCH   1   2
BRANCH   1  19
ATOM     19  C   UNL     1      11.244 -57.335 -22.331  1.00  0.00    -0.036 A 
ATOM     20  C   UNL     1      11.070 -58.460 -21.524  1.00  0.00     0.074 A 
ATOM     21  C   UNL     1      11.635 -57.519 -23.656  1.00  0.00     0.074 A 
ATOM     22  C   UNL     1      11.278 -59.729 -22.051  1.00  0.00     0.308 A 
ATOM     23  C   UNL     1      11.831 -58.808 -24.143  1.00  0.00     0.308 A 
ATOM     24  N   UNL     1      11.655 -59.885 -23.342  1.00  0.00    -0.201 N 
BRANCH  24  25
ATOM     25  C   UNL     1      11.868 -61.249 -23.889  1.00  0.00     0.397 C 
BRANCH  25  26
ATOM     26  C   UNL     1      10.570 -61.973 -23.986  1.00  0.00     0.063 A 
ATOM     27  C   UNL     1      10.025 -62.829 -23.042  1.00  0.00     0.213 A 
ATOM     28  C   UNL     1       9.630 -61.952 -25.065  1.00  0.00     0.143 A 
ATOM     29  O   UNL     1       8.823 -63.309 -23.455  1.00  0.00    -0.409 OA
ATOM     30  C   UNL     1       8.596 -62.776 -24.682  1.00  0.00     0.433 A 
BRANCH  30  31
ATOM     31  N   UNL     1       7.376 -63.139 -25.333  1.00  0.00     0.102 N 
ATOM     32  O   UNL     1       6.318 -62.958 -24.722  1.00  0.00    -0.256 OA
ATOM     33  O   UNL     1       7.496 -63.601 -26.475  1.00  0.00    -0.256 OA
ENDBRANCH  30  31
ENDBRANCH  25  26
ENDBRANCH  24  25
ENDBRANCH   1  19
TORSDOF 10
ENDMDL
MODEL 3
REMARK VINA RESULT:   -10.723      1.385      2.364
REMARK INTER + INTRA:         -17.448
REMARK INTER:                 -16.758
REMARK INTRA:                  -0.690
REMARK UNBOUND:                -0.770
REMARK SMILES COc1cc2c(cc1OC)SC(=C(O)CCc1cc[n+](Cc3coc([N+](=O)[O-])c3)cc1)C2
REMARK SMILES IDX 16 1 15 2 13 3 14 4 12 6 32 7 11 8 5 9 6 10 4 11 7 12 3 13
REMARK SMILES IDX 8 14 2 15 1 16 9 17 10 18 17 19 18 20 31 21 19 22 30 23
REMARK SMILES IDX 20 24 21 25 22 26 23 27 29 28 24 29 25 30 26 31 27 32 28 33
REMARK H PARENT 14 5
ROOT
ATOM      1  C   UNL     1      11.070 -56.060 -21.572  1.00  0.00     0.044 C 
ENDROOT
BRANCH   1   2
ATOM      2  C   UNL     1      11.060 -54.936 -22.616  1.00  0.00     0.080 C 
BRANCH   2   3
ATOM      3  C   UNL     1      10.699 -53.609 -21.990  1.00  0.00     0.103 C 
BRANCH   3   4
ATOM      4  O   UNL     1       9.895 -53.672 -20.861  1.00  0.00    -0.511 OA
ATOM      5  H   UNL     1      10.054 -54.504 -20.384  1.00  0.00     0.293 HD
ENDBRANCH   3   4
BRANCH   3   6
ATOM      6  C   UNL     1      11.082 -52.401 -22.444  1.00  0.00     0.032 C 
ATOM      7  C   UNL     1      10.337 -51.118 -22.124  1.00  0.00     0.083 C 
ATOM      8  S   UNL     1      12.507 -52.140 -23.440  1.00  0.00    -0.090 SA
ATOM      9  C   UNL     1      11.089 -49.992 -22.778  1.00  0.00    -0.025 A 
ATOM     10  C   UNL     1      12.222 -50.387 -23.489  1.00  0.00     0.020 A 
ATOM     11  C   UNL     1      10.728 -48.649 -22.713  1.00  0.00     0.055 A 
ATOM     12  C   UNL     1      13.015 -49.457 -24.148  1.00  0.00     0.066 A 
ATOM     13  C   UNL     1      11.516 -47.696 -23.370  1.00  0.00     0.161 A 
ATOM     14  C   UNL     1      12.664 -48.103 -24.094  1.00  0.00     0.161 A 
BRANCH  13  15
ATOM     15  O   UNL     1      11.256 -46.347 -23.371  1.00  0.00    -0.493 OA
ATOM     16  C   UNL     1      11.046 -45.711 -22.119  1.00  0.00     0.278 C 
ENDBRANCH  13  15
BRANCH  14  17
ATOM     17  O   UNL     1      13.374 -47.096 -24.703  1.00  0.00    -0.493 OA
ATOM     18  C   UNL     1      14.137 -47.424 -25.854  1.00  0.00     0.278 C 
ENDBRANCH  14  17
ENDBRANCH   3   6
ENDBRANCH   2   3
ENDBRANCH   1   2
BRANCH   1  19
ATOM     19  C   UNL     1      11.270 -57.418 -22.203  1.00  0.00    -0.036 A 
ATOM     20  C   UNL     1      11.714 -57.522 -23.522  1.00  0.00     0.074 A 
ATOM     21  C   UNL     1      11.005 -58.589 -21.496  1.00  0.00     0.074 A 
ATOM     22  C   UNL     1      11.891 -58.774 -24.097  1.00  0.00     0.308 A 
ATOM     23  C   UNL     1      11.198 -59.823 -22.110  1.00  0.00     0.308 A 
ATOM     24  N   UNL     1      11.631 -59.900 -23.390  1.00  0.00    -0.201 N 
BRANCH  24  25
ATOM     25  C   UNL     1      11.831 -61.229 -24.019  1.00  0.00     0.397 C 
BRANCH  25  26
ATOM     26  C   UNL     1      10.544 -61.978 -24.059  1.00  0.00     0.063 A 
ATOM     27  C   UNL     1      10.088 -62.894 -23.124  1.00  0.00     0.213 A 
ATOM     28  C   UNL     1       9.525 -61.923 -25.063  1.00  0.00     0.143 A 
ATOM     29  O   UNL     1       8.868 -63.381 -23.472  1.00  0.00    -0.409 OA
ATOM     30  C   UNL     1       8.539 -62.790 -24.649  1.00  0.00     0.433 A 
BRANCH  30  31
ATOM     31  N   UNL     1       7.281 -63.147 -25.227  1.00  0.00     0.102 N 
ATOM     32  O   UNL     1       7.290 -63.836 -26.252  1.00  0.00    -0.256 OA
ATOM     33  O   UNL     1       6.281 -62.732 -24.629  1.00  0.00    -0.256 OA
ENDBRANCH  30  31
ENDBRANCH  25  26
ENDBRANCH  24  25
ENDBRANCH   1  19
TORSDOF 10
ENDMDL
MODEL 4
REMARK VINA RESULT:   -10.687      1.342      1.598
REMARK INTER + INTRA:         -17.392
REMARK INTER:                 -16.446
REMARK INTRA:                  -0.946
REMARK UNBOUND:                -0.770
REMARK SMILES COc1cc2c(cc1OC)SC(=C(O)CCc1cc[n+](Cc3coc([N+](=O)[O-])c3)cc1)C2
REMARK SMILES IDX 16 1 15 2 13 3 14 4 12 6 32 7 11 8 5 9 6 10 4 11 7 12 3 13
REMARK SMILES IDX 8 14 2 15 1 16 9 17 10 18 17 19 18 20 31 21 19 22 30 23
REMARK SMILES IDX 20 24 21 25 22 26 23 27 29 28 24 29 25 30 26 31 27 32 28 33
REMARK H PARENT 14 5
ROOT
ATOM      1  C   UNL     1      11.009 -55.661 -21.923  1.00  0.00     0.044 C 
ENDROOT
BRANCH   1   2
ATOM      2  C   UNL     1       9.892 -54.954 -22.702  1.00  0.00     0.080 C 
BRANCH   2   3
ATOM      3  C   UNL     1      10.048 -53.452 -22.643  1.00  0.00     0.103 C 
BRANCH   3   4
ATOM      4  O   UNL     1       8.951 -52.749 -22.166  1.00  0.00    -0.511 OA
ATOM      5  H   UNL     1       8.708 -53.070 -21.281  1.00  0.00     0.293 HD
ENDBRANCH   3   4
BRANCH   3   6
ATOM      6  C   UNL     1      11.142 -52.765 -23.019  1.00  0.00     0.032 C 
ATOM      7  C   UNL     1      12.072 -53.223 -24.128  1.00  0.00     0.083 C 
ATOM      8  S   UNL     1      11.628 -51.234 -22.303  1.00  0.00    -0.090 SA
ATOM      9  C   UNL     1      13.144 -52.179 -24.270  1.00  0.00    -0.025 A 
ATOM     10  C   UNL     1      13.031 -51.107 -23.386  1.00  0.00     0.020 A 
ATOM     11  C   UNL     1      14.189 -52.230 -25.190  1.00  0.00     0.055 A 
ATOM     12  C   UNL     1      13.951 -50.067 -23.398  1.00  0.00     0.066 A 
ATOM     13  C   UNL     1      15.126 -51.190 -25.218  1.00  0.00     0.161 A 
ATOM     14  C   UNL     1      15.007 -50.104 -24.315  1.00  0.00     0.161 A 
BRANCH  13  15
ATOM     15  O   UNL     1      16.192 -51.135 -26.082  1.00  0.00    -0.493 OA
ATOM     16  C   UNL     1      17.339 -51.913 -25.772  1.00  0.00     0.278 C 
ENDBRANCH  13  15
BRANCH  14  17
ATOM     17  O   UNL     1      15.973 -49.132 -24.420  1.00  0.00    -0.493 OA
ATOM     18  C   UNL     1      16.909 -49.008 -23.360  1.00  0.00     0.278 C 
ENDBRANCH  14  17
ENDBRANCH   3   6
ENDBRANCH   2   3
ENDBRANCH   1   2
BRANCH   1  19
ATOM     19  C   UNL     1      11.276 -57.051 -22.451  1.00  0.00    -0.036 A 
ATOM     20  C   UNL     1      11.071 -58.165 -21.634  1.00  0.00     0.074 A 
ATOM     21  C   UNL     1      11.741 -57.254 -23.748  1.00  0.00     0.074 A 
ATOM     22  C   UNL     1      11.323 -59.440 -22.126  1.00  0.00     0.308 A 
ATOM     23  C   UNL     1      11.979 -58.549 -24.200  1.00  0.00     0.308 A 
ATOM     24  N   UNL     1      11.772 -59.614 -23.391  1.00  0.00    -0.201 N 
BRANCH  24  25
ATOM     25  C   UNL     1      12.031 -60.984 -23.901  1.00  0.00     0.397 C 
BRANCH  25  26
ATOM     26  C   UNL     1      10.754 -61.742 -24.011  1.00  0.00     0.063 A 
ATOM     27  C   UNL     1      10.264 -62.677 -23.113  1.00  0.00     0.213 A 
ATOM     28  C   UNL     1       9.782 -61.678 -25.059  1.00  0.00     0.143 A 
ATOM     29  O   UNL     1       9.065 -63.168 -23.524  1.00  0.00    -0.409 OA
ATOM     30  C   UNL     1       8.785 -62.560 -24.705  1.00  0.00     0.433 A 
BRANCH  30  31
ATOM     31  N   UNL     1       7.558 -62.917 -25.345  1.00  0.00     0.102 N 
ATOM     32  O   UNL     1       7.609 -63.317 -26.512  1.00  0.00    -0.256 OA
ATOM     33  O   UNL     1       6.539 -62.798 -24.653  1.00  0.00    -0.256 OA
ENDBRANCH  30  31
ENDBRANCH  25  26
ENDBRANCH  24  25
ENDBRANCH   1  19
TORSDOF 10
ENDMDL
MODEL 5
REMARK VINA RESULT:   -10.497      1.531      2.031
REMARK INTER + INTRA:         -17.096
REMARK INTER:                 -16.372
REMARK INTRA:                  -0.724
REMARK UNBOUND:                -0.770
REMARK SMILES COc1cc2c(cc1OC)SC(=C(O)CCc1cc[n+](Cc3coc([N+](=O)[O-])c3)cc1)C2
REMARK SMILES IDX 16 1 15 2 13 3 14 4 12 6 32 7 11 8 5 9 6 10 4 11 7 12 3 13
REMARK SMILES IDX 8 14 2 15 1 16 9 17 10 18 17 19 18 20 31 21 19 22 30 23
REMARK SMILES IDX 20 24 21 25 22 26 23 27 29 28 24 29 25 30 26 31 27 32 28 33
REMARK H PARENT 14 5
ROOT
ATOM      1  C   UNL     1      11.203 -56.669 -22.307  1.00  0.00     0.044 C 
ENDROOT
BRANCH   1   2
ATOM      2  C   UNL     1      10.243 -55.577 -22.795  1.00  0.00     0.080 C 
BRANCH   2   3
ATOM      3  C   UNL     1      10.590 -54.234 -22.197  1.00  0.00     0.103 C 
BRANCH   3   4
ATOM      4  O   UNL     1      10.183 -54.032 -20.886  1.00  0.00    -0.511 OA
ATOM      5  H   UNL     1      10.193 -54.874 -20.400  1.00  0.00     0.293 HD
ENDBRANCH   3   4
BRANCH   3   6
ATOM      6  C   UNL     1      11.241 -53.241 -22.831  1.00  0.00     0.032 C 
ATOM      7  C   UNL     1      12.065 -53.456 -24.088  1.00  0.00     0.083 C 
ATOM      8  S   UNL     1      11.202 -51.561 -22.313  1.00  0.00    -0.090 SA
ATOM      9  C   UNL     1      12.596 -52.114 -24.507  1.00  0.00    -0.025 A 
ATOM     10  C   UNL     1      12.227 -51.058 -23.674  1.00  0.00     0.020 A 
ATOM     11  C   UNL     1      13.396 -51.887 -25.624  1.00  0.00     0.055 A 
ATOM     12  C   UNL     1      12.646 -49.759 -23.934  1.00  0.00     0.066 A 
ATOM     13  C   UNL     1      13.828 -50.584 -25.903  1.00  0.00     0.161 A 
ATOM     14  C   UNL     1      13.452 -49.515 -25.052  1.00  0.00     0.161 A 
BRANCH  13  15
ATOM     15  O   UNL     1      14.616 -50.245 -26.976  1.00  0.00    -0.493 OA
ATOM     16  C   UNL     1      16.022 -50.205 -26.780  1.00  0.00     0.278 C 
ENDBRANCH  13  15
BRANCH  14  17
ATOM     17  O   UNL     1      13.923 -48.274 -25.409  1.00  0.00    -0.493 OA
ATOM     18  C   UNL     1      13.187 -47.138 -24.983  1.00  0.00     0.278 C 
ENDBRANCH  14  17
ENDBRANCH   3   6
ENDBRANCH   2   3
ENDBRANCH   1   2
BRANCH   1  19
ATOM     19  C   UNL     1      10.622 -58.054 -22.479  1.00  0.00    -0.036 A 
ATOM     20  C   UNL     1      11.380 -59.180 -22.153  1.00  0.00     0.074 A 
ATOM     21  C   UNL     1       9.333 -58.240 -22.975  1.00  0.00     0.074 A 
ATOM     22  C   UNL     1      10.841 -60.449 -22.319  1.00  0.00     0.308 A 
ATOM     23  C   UNL     1       8.832 -59.529 -23.123  1.00  0.00     0.308 A 
ATOM     24  N   UNL     1       9.585 -60.607 -22.799  1.00  0.00    -0.201 N 
BRANCH  24  25
ATOM     25  C   UNL     1       9.023 -61.971 -22.965  1.00  0.00     0.397 C 
BRANCH  25  26
ATOM     26  C   UNL     1       8.717 -62.231 -24.399  1.00  0.00     0.063 A 
ATOM     27  C   UNL     1       7.564 -62.805 -24.910  1.00  0.00     0.213 A 
ATOM     28  C   UNL     1       9.542 -61.960 -25.537  1.00  0.00     0.143 A 
ATOM     29  O   UNL     1       7.617 -62.884 -26.266  1.00  0.00    -0.409 OA
ATOM     30  C   UNL     1       8.821 -62.375 -26.634  1.00  0.00     0.433 A 
BRANCH  30  31
ATOM     31  N   UNL     1       9.116 -62.350 -28.032  1.00  0.00     0.102 N 
ATOM     32  O   UNL     1       9.494 -61.283 -28.525  1.00  0.00    -0.256 OA
ATOM     33  O   UNL     1       8.970 -63.424 -28.629  1.00  0.00    -0.256 OA
ENDBRANCH  30  31
ENDBRANCH  25  26
ENDBRANCH  24  25
ENDBRANCH   1  19
TORSDOF 10
ENDMDL
MODEL 6
REMARK VINA RESULT:    -9.912      4.038     10.389
REMARK INTER + INTRA:         -16.187
REMARK INTER:                 -14.995
REMARK INTRA:                  -1.192
REMARK UNBOUND:                -0.770
REMARK SMILES COc1cc2c(cc1OC)SC(=C(O)CCc1cc[n+](Cc3coc([N+](=O)[O-])c3)cc1)C2
REMARK SMILES IDX 16 1 15 2 13 3 14 4 12 6 32 7 11 8 5 9 6 10 4 11 7 12 3 13
REMARK SMILES IDX 8 14 2 15 1 16 9 17 10 18 17 19 18 20 31 21 19 22 30 23
REMARK SMILES IDX 20 24 21 25 22 26 23 27 29 28 24 29 25 30 26 31 27 32 28 33
REMARK H PARENT 14 5
ROOT
ATOM      1  C   UNL     1      10.336 -56.025 -22.185  1.00  0.00     0.044 C 
ENDROOT
BRANCH   1   2
ATOM      2  C   UNL     1      11.365 -56.996 -21.592  1.00  0.00     0.080 C 
BRANCH   2   3
ATOM      3  C   UNL     1      11.013 -58.431 -21.909  1.00  0.00     0.103 C 
BRANCH   3   4
ATOM      4  O   UNL     1      10.938 -59.290 -20.822  1.00  0.00    -0.511 OA
ATOM      5  H   UNL     1      10.023 -59.599 -20.704  1.00  0.00     0.293 HD
ENDBRANCH   3   4
BRANCH   3   6
ATOM      6  C   UNL     1      10.782 -58.925 -23.140  1.00  0.00     0.032 C 
ATOM      7  C   UNL     1      11.694 -58.664 -24.325  1.00  0.00     0.083 C 
ATOM      8  S   UNL     1       9.417 -59.960 -23.536  1.00  0.00    -0.090 SA
ATOM      9  C   UNL     1      11.121 -59.409 -25.499  1.00  0.00    -0.025 A 
ATOM     10  C   UNL     1       9.948 -60.111 -25.225  1.00  0.00     0.020 A 
ATOM     11  C   UNL     1      11.675 -59.428 -26.777  1.00  0.00     0.055 A 
ATOM     12  C   UNL     1       9.303 -60.844 -26.213  1.00  0.00     0.066 A 
ATOM     13  C   UNL     1      11.039 -60.162 -27.786  1.00  0.00     0.161 A 
ATOM     14  C   UNL     1       9.846 -60.871 -27.503  1.00  0.00     0.161 A 
BRANCH  13  15
ATOM     15  O   UNL     1      11.496 -60.253 -29.079  1.00  0.00    -0.493 OA
ATOM     16  C   UNL     1      12.173 -59.131 -29.624  1.00  0.00     0.278 C 
ENDBRANCH  13  15
BRANCH  14  17
ATOM     17  O   UNL     1       9.298 -61.563 -28.556  1.00  0.00    -0.493 OA
ATOM     18  C   UNL     1       8.959 -62.926 -28.352  1.00  0.00     0.278 C 
ENDBRANCH  14  17
ENDBRANCH   3   6
ENDBRANCH   2   3
ENDBRANCH   1   2
BRANCH   1  19
ATOM     19  C   UNL     1      10.994 -54.840 -22.854  1.00  0.00    -0.036 A 
ATOM     20  C   UNL     1      11.549 -54.972 -24.128  1.00  0.00     0.074 A 
ATOM     21  C   UNL     1      11.073 -53.604 -22.217  1.00  0.00     0.074 A 
ATOM     22  C   UNL     1      12.156 -53.879 -24.735  1.00  0.00     0.308 A 
ATOM     23  C   UNL     1      11.689 -52.535 -22.862  1.00  0.00     0.308 A 
ATOM     24  N   UNL     1      12.219 -52.685 -24.098  1.00  0.00    -0.201 N 
BRANCH  24  25
ATOM     25  C   UNL     1      12.868 -51.527 -24.764  1.00  0.00     0.397 C 
BRANCH  25  26
ATOM     26  C   UNL     1      14.349 -51.678 -24.732  1.00  0.00     0.063 A 
ATOM     27  C   UNL     1      15.204 -51.255 -23.727  1.00  0.00     0.213 A 
ATOM     28  C   UNL     1      15.194 -52.271 -25.723  1.00  0.00     0.143 A 
ATOM     29  O   UNL     1      16.495 -51.562 -24.022  1.00  0.00    -0.409 OA
ATOM     30  C   UNL     1      16.477 -52.172 -25.234  1.00  0.00     0.433 A 
BRANCH  30  31
ATOM     31  N   UNL     1      17.735 -52.595 -25.768  1.00  0.00     0.102 N 
ATOM     32  O   UNL     1      17.724 -53.333 -26.758  1.00  0.00    -0.256 OA
ATOM     33  O   UNL     1      18.736 -52.165 -25.181  1.00  0.00    -0.256 OA
ENDBRANCH  30  31
ENDBRANCH  25  26
ENDBRANCH  24  25
ENDBRANCH   1  19
TORSDOF 10
ENDMDL
MODEL 7
REMARK VINA RESULT:    -9.495      3.850     10.460
REMARK INTER + INTRA:         -15.538
REMARK INTER:                 -14.821
REMARK INTRA:                  -0.716
REMARK UNBOUND:                -0.770
REMARK SMILES COc1cc2c(cc1OC)SC(=C(O)CCc1cc[n+](Cc3coc([N+](=O)[O-])c3)cc1)C2
REMARK SMILES IDX 16 1 15 2 13 3 14 4 12 6 32 7 11 8 5 9 6 10 4 11 7 12 3 13
REMARK SMILES IDX 8 14 2 15 1 16 9 17 10 18 17 19 18 20 31 21 19 22 30 23
REMARK SMILES IDX 20 24 21 25 22 26 23 27 29 28 24 29 25 30 26 31 27 32 28 33
REMARK H PARENT 14 5
ROOT
ATOM      1  C   UNL     1      10.043 -56.406 -22.383  1.00  0.00     0.044 C 
ENDROOT
BRANCH   1   2
ATOM      2  C   UNL     1      11.040 -57.342 -21.689  1.00  0.00     0.080 C 
BRANCH   2   3
ATOM      3  C   UNL     1      10.923 -58.755 -22.213  1.00  0.00     0.103 C 
BRANCH   3   4
ATOM      4  O   UNL     1      10.793 -59.748 -21.253  1.00  0.00    -0.511 OA
ATOM      5  H   UNL     1      11.128 -59.430 -20.397  1.00  0.00     0.293 HD
ENDBRANCH   3   4
BRANCH   3   6
ATOM      6  C   UNL     1      10.946 -59.110 -23.511  1.00  0.00     0.032 C 
ATOM      7  C   UNL     1       9.895 -60.002 -24.148  1.00  0.00     0.083 C 
ATOM      8  S   UNL     1      12.172 -58.570 -24.650  1.00  0.00    -0.090 SA
ATOM      9  C   UNL     1      10.247 -60.135 -25.603  1.00  0.00    -0.025 A 
ATOM     10  C   UNL     1      11.399 -59.449 -25.987  1.00  0.00     0.020 A 
ATOM     11  C   UNL     1       9.519 -60.872 -26.535  1.00  0.00     0.055 A 
ATOM     12  C   UNL     1      11.850 -59.483 -27.300  1.00  0.00     0.066 A 
ATOM     13  C   UNL     1       9.958 -60.916 -27.864  1.00  0.00     0.161 A 
ATOM     14  C   UNL     1      11.131 -60.220 -28.248  1.00  0.00     0.161 A 
BRANCH  13  15
ATOM     15  O   UNL     1       9.319 -61.607 -28.865  1.00  0.00    -0.493 OA
ATOM     16  C   UNL     1       8.859 -62.919 -28.576  1.00  0.00     0.278 C 
ENDBRANCH  13  15
BRANCH  14  17
ATOM     17  O   UNL     1      11.479 -60.322 -29.573  1.00  0.00    -0.493 OA
ATOM     18  C   UNL     1      11.992 -59.164 -30.216  1.00  0.00     0.278 C 
ENDBRANCH  14  17
ENDBRANCH   3   6
ENDBRANCH   2   3
ENDBRANCH   1   2
BRANCH   1  19
ATOM     19  C   UNL     1      10.647 -55.053 -22.679  1.00  0.00    -0.036 A 
ATOM     20  C   UNL     1      10.530 -54.014 -21.754  1.00  0.00     0.074 A 
ATOM     21  C   UNL     1      11.319 -54.808 -23.875  1.00  0.00     0.074 A 
ATOM     22  C   UNL     1      11.085 -52.771 -22.035  1.00  0.00     0.308 A 
ATOM     23  C   UNL     1      11.861 -53.549 -24.115  1.00  0.00     0.308 A 
ATOM     24  N   UNL     1      11.736 -52.556 -23.203  1.00  0.00    -0.201 N 
BRANCH  24  25
ATOM     25  C   UNL     1      12.327 -51.223 -23.484  1.00  0.00     0.397 C 
BRANCH  25  26
ATOM     26  C   UNL     1      13.484 -51.359 -24.412  1.00  0.00     0.063 A 
ATOM     27  C   UNL     1      13.438 -51.387 -25.797  1.00  0.00     0.213 A 
ATOM     28  C   UNL     1      14.867 -51.501 -24.076  1.00  0.00     0.143 A 
ATOM     29  O   UNL     1      14.683 -51.514 -26.325  1.00  0.00    -0.409 OA
ATOM     30  C   UNL     1      15.540 -51.588 -25.275  1.00  0.00     0.433 A 
BRANCH  30  31
ATOM     31  N   UNL     1      16.930 -51.728 -25.579  1.00  0.00     0.102 N 
ATOM     32  O   UNL     1      17.562 -52.617 -25.000  1.00  0.00    -0.256 OA
ATOM     33  O   UNL     1      17.377 -50.935 -26.417  1.00  0.00    -0.256 OA
ENDBRANCH  30  31
ENDBRANCH  25  26
ENDBRANCH  24  25
ENDBRANCH   1  19
TORSDOF 10
ENDMDL
MODEL 8
REMARK VINA RESULT:    -9.420      2.066      2.674
REMARK INTER + INTRA:         -15.422
REMARK INTER:                 -14.684
REMARK INTRA:                  -0.737
REMARK UNBOUND:                -0.770
REMARK SMILES COc1cc2c(cc1OC)SC(=C(O)CCc1cc[n+](Cc3coc([N+](=O)[O-])c3)cc1)C2
REMARK SMILES IDX 16 1 15 2 13 3 14 4 12 6 32 7 11 8 5 9 6 10 4 11 7 12 3 13
REMARK SMILES IDX 8 14 2 15 1 16 9 17 10 18 17 19 18 20 31 21 19 22 30 23
REMARK SMILES IDX 20 24 21 25 22 26 23 27 29 28 24 29 25 30 26 31 27 32 28 33
REMARK H PARENT 14 5
ROOT
ATOM      1  C   UNL     1      11.114 -54.390 -23.338  1.00  0.00     0.044 C 
ENDROOT
BRANCH   1   2
ATOM      2  C   UNL     1      10.853 -53.707 -21.990  1.00  0.00     0.080 C 
BRANCH   2   3
ATOM      3  C   UNL     1      10.155 -52.379 -22.174  1.00  0.00     0.103 C 
BRANCH   3   4
ATOM      4  O   UNL     1       8.768 -52.416 -22.152  1.00  0.00    -0.511 OA
ATOM      5  H   UNL     1       8.454 -52.616 -21.253  1.00  0.00     0.293 HD
ENDBRANCH   3   4
BRANCH   3   6
ATOM      6  C   UNL     1      10.766 -51.195 -22.363  1.00  0.00     0.032 C 
ATOM      7  C   UNL     1      12.257 -51.059 -22.617  1.00  0.00     0.083 C 
ATOM      8  S   UNL     1       9.924 -49.651 -22.371  1.00  0.00    -0.090 SA
ATOM      9  C   UNL     1      12.544 -49.596 -22.811  1.00  0.00    -0.025 A 
ATOM     10  C   UNL     1      11.428 -48.767 -22.704  1.00  0.00     0.020 A 
ATOM     11  C   UNL     1      13.802 -49.059 -23.074  1.00  0.00     0.055 A 
ATOM     12  C   UNL     1      11.540 -47.391 -22.856  1.00  0.00     0.066 A 
ATOM     13  C   UNL     1      13.935 -47.674 -23.232  1.00  0.00     0.161 A 
ATOM     14  C   UNL     1      12.798 -46.836 -23.120  1.00  0.00     0.161 A 
BRANCH  13  15
ATOM     15  O   UNL     1      15.123 -47.038 -23.496  1.00  0.00    -0.493 OA
ATOM     16  C   UNL     1      16.180 -47.190 -22.560  1.00  0.00     0.278 C 
ENDBRANCH  13  15
BRANCH  14  17
ATOM     17  O   UNL     1      13.028 -45.492 -23.292  1.00  0.00    -0.493 OA
ATOM     18  C   UNL     1      12.975 -44.657 -22.145  1.00  0.00     0.278 C 
ENDBRANCH  14  17
ENDBRANCH   3   6
ENDBRANCH   2   3
ENDBRANCH   1   2
BRANCH   1  19
ATOM     19  C   UNL     1      11.285 -55.884 -23.193  1.00  0.00    -0.036 A 
ATOM     20  C   UNL     1      10.954 -56.516 -21.992  1.00  0.00     0.074 A 
ATOM     21  C   UNL     1      11.783 -56.660 -24.237  1.00  0.00     0.074 A 
ATOM     22  C   UNL     1      11.117 -57.890 -21.864  1.00  0.00     0.308 A 
ATOM     23  C   UNL     1      11.929 -58.033 -24.067  1.00  0.00     0.308 A 
ATOM     24  N   UNL     1      11.600 -58.624 -22.894  1.00  0.00    -0.201 N 
BRANCH  24  25
ATOM     25  C   UNL     1      11.763 -60.092 -22.741  1.00  0.00     0.397 C 
BRANCH  25  26
ATOM     26  C   UNL     1      10.481 -60.786 -23.045  1.00  0.00     0.063 A 
ATOM     27  C   UNL     1      10.296 -62.149 -23.217  1.00  0.00     0.213 A 
ATOM     28  C   UNL     1       9.189 -60.202 -23.236  1.00  0.00     0.143 A 
ATOM     29  O   UNL     1       8.993 -62.437 -23.476  1.00  0.00    -0.409 OA
ATOM     30  C   UNL     1       8.334 -61.250 -23.490  1.00  0.00     0.433 A 
BRANCH  30  31
ATOM     31  N   UNL     1       6.928 -61.292 -23.747  1.00  0.00     0.102 N 
ATOM     32  O   UNL     1       6.248 -60.320 -23.402  1.00  0.00    -0.256 OA
ATOM     33  O   UNL     1       6.516 -62.315 -24.309  1.00  0.00    -0.256 OA
ENDBRANCH  30  31
ENDBRANCH  25  26
ENDBRANCH  24  25
ENDBRANCH   1  19
TORSDOF 10
ENDMDL
MODEL 9
REMARK VINA RESULT:    -9.244      2.421      3.402
REMARK INTER + INTRA:         -15.148
REMARK INTER:                 -14.642
REMARK INTRA:                  -0.506
REMARK UNBOUND:                -0.770
REMARK SMILES COc1cc2c(cc1OC)SC(=C(O)CCc1cc[n+](Cc3coc([N+](=O)[O-])c3)cc1)C2
REMARK SMILES IDX 16 1 15 2 13 3 14 4 12 6 32 7 11 8 5 9 6 10 4 11 7 12 3 13
REMARK SMILES IDX 8 14 2 15 1 16 9 17 10 18 17 19 18 20 31 21 19 22 30 23
REMARK SMILES IDX 20 24 21 25 22 26 23 27 29 28 24 29 25 30 26 31 27 32 28 33
REMARK H PARENT 14 5
ROOT
ATOM      1  C   UNL     1      10.331 -52.129 -22.007  1.00  0.00     0.044 C 
ENDROOT
BRANCH   1   2
ATOM      2  C   UNL     1      11.618 -51.309 -21.848  1.00  0.00     0.080 C 
BRANCH   2   3
ATOM      3  C   UNL     1      11.508 -49.973 -22.547  1.00  0.00     0.103 C 
BRANCH   3   4
ATOM      4  O   UNL     1      10.511 -49.127 -22.081  1.00  0.00    -0.511 OA
ATOM      5  H   UNL     1       9.814 -49.644 -21.643  1.00  0.00     0.293 HD
ENDBRANCH   3   4
BRANCH   3   6
ATOM      6  C   UNL     1      12.280 -49.561 -23.569  1.00  0.00     0.032 C 
ATOM      7  C   UNL     1      12.905 -50.510 -24.575  1.00  0.00     0.083 C 
ATOM      8  S   UNL     1      12.645 -47.872 -23.897  1.00  0.00    -0.090 SA
ATOM      9  C   UNL     1      13.655 -49.671 -25.572  1.00  0.00    -0.025 A 
ATOM     10  C   UNL     1      13.603 -48.299 -25.331  1.00  0.00     0.020 A 
ATOM     11  C   UNL     1      14.364 -50.172 -26.662  1.00  0.00     0.055 A 
ATOM     12  C   UNL     1      14.252 -47.399 -26.167  1.00  0.00     0.066 A 
ATOM     13  C   UNL     1      15.024 -49.280 -27.516  1.00  0.00     0.161 A 
ATOM     14  C   UNL     1      14.970 -47.886 -27.265  1.00  0.00     0.161 A 
BRANCH  13  15
ATOM     15  O   UNL     1      15.748 -49.661 -28.619  1.00  0.00    -0.493 OA
ATOM     16  C   UNL     1      17.149 -49.428 -28.606  1.00  0.00     0.278 C 
ENDBRANCH  13  15
BRANCH  14  17
ATOM     17  O   UNL     1      15.647 -47.092 -28.159  1.00  0.00    -0.493 OA
ATOM     18  C   UNL     1      15.908 -45.747 -27.787  1.00  0.00     0.278 C 
ENDBRANCH  14  17
ENDBRANCH   3   6
ENDBRANCH   2   3
ENDBRANCH   1   2
BRANCH   1  19
ATOM     19  C   UNL     1      10.619 -53.591 -22.258  1.00  0.00    -0.036 A 
ATOM     20  C   UNL     1      10.819 -54.054 -23.560  1.00  0.00     0.074 A 
ATOM     21  C   UNL     1      10.678 -54.506 -21.210  1.00  0.00     0.074 A 
ATOM     22  C   UNL     1      11.078 -55.401 -23.784  1.00  0.00     0.308 A 
ATOM     23  C   UNL     1      10.942 -55.846 -21.479  1.00  0.00     0.308 A 
ATOM     24  N   UNL     1      11.134 -56.272 -22.749  1.00  0.00    -0.201 N 
BRANCH  24  25
ATOM     25  C   UNL     1      11.418 -57.706 -23.007  1.00  0.00     0.397 C 
BRANCH  25  26
ATOM     26  C   UNL     1      10.163 -58.503 -22.915  1.00  0.00     0.063 A 
ATOM     27  C   UNL     1       9.967 -59.661 -22.178  1.00  0.00     0.213 A 
ATOM     28  C   UNL     1       8.915 -58.256 -23.570  1.00  0.00     0.143 A 
ATOM     29  O   UNL     1       8.696 -60.120 -22.319  1.00  0.00    -0.409 OA
ATOM     30  C   UNL     1       8.070 -59.265 -23.167  1.00  0.00     0.433 A 
BRANCH  30  31
ATOM     31  N   UNL     1       6.701 -59.542 -23.476  1.00  0.00     0.102 N 
ATOM     32  O   UNL     1       5.882 -58.626 -23.347  1.00  0.00    -0.256 OA
ATOM     33  O   UNL     1       6.462 -60.694 -23.860  1.00  0.00    -0.256 OA
ENDBRANCH  30  31
ENDBRANCH  25  26
ENDBRANCH  24  25
ENDBRANCH   1  19
TORSDOF 10
ENDMDL
