MODEL 1
REMARK VINA RESULT:   -10.532      0.000      0.000
REMARK INTER + INTRA:         -16.079
REMARK INTER:                 -15.458
REMARK INTRA:                  -0.621
REMARK UNBOUND:                -0.621
REMARK SMILES COc1cc2c(cc1OC)S[C@@H](C(=O)CCc1cc[n+](Cc3ccsc3)cc1)C2
REMARK SMILES IDX 15 1 13 2 14 3 12 4 3 5 4 6 8 7 5 8 7 9 6 10 29 11 11 12
REMARK SMILES IDX 2 13 1 14 9 15 10 16 16 17 17 18 18 19 28 20 19 21 27 22
REMARK SMILES IDX 20 23 21 24 22 25 23 26 26 27 24 28 25 29
REMARK H PARENT
ROOT
ATOM      1  C   UNL     1      10.349 -54.975 -22.810  1.00  0.00     0.081 C 
ENDROOT
BRANCH   1   2
ATOM      2  C   UNL     1      10.432 -53.506 -22.422  1.00  0.00     0.146 C 
ATOM      3  O   UNL     1       9.504 -52.986 -21.793  1.00  0.00    -0.298 OA
BRANCH   2   4
ATOM      4  C   UNL     1      11.692 -52.744 -22.798  1.00  0.00     0.123 C 
ATOM      5  C   UNL     1      14.090 -50.286 -26.196  1.00  0.00     0.161 A 
ATOM      6  C   UNL     1      13.577 -51.544 -25.845  1.00  0.00     0.055 A 
ATOM      7  C   UNL     1      13.792 -49.170 -25.382  1.00  0.00     0.161 A 
ATOM      8  C   UNL     1      12.777 -51.673 -24.711  1.00  0.00    -0.029 A 
ATOM      9  C   UNL     1      12.958 -49.307 -24.265  1.00  0.00     0.065 A 
ATOM     10  C   UNL     1      12.467 -50.557 -23.938  1.00  0.00     0.015 A 
ATOM     11  C   UNL     1      12.108 -52.943 -24.265  1.00  0.00     0.059 C 
ATOM     12  S   UNL     1      11.417 -50.952 -22.575  1.00  0.00    -0.114 SA
BRANCH   5  13
ATOM     13  O   UNL     1      14.843 -50.061 -27.317  1.00  0.00    -0.493 OA
ATOM     14  C   UNL     1      16.220 -49.746 -27.151  1.00  0.00     0.278 C 
ENDBRANCH   5  13
BRANCH   7  15
ATOM     15  O   UNL     1      14.199 -47.877 -25.602  1.00  0.00    -0.493 OA
ATOM     16  C   UNL     1      13.355 -46.864 -25.061  1.00  0.00     0.278 C 
ENDBRANCH   7  15
ENDBRANCH   2   4
ENDBRANCH   1   2
BRANCH   1  17
ATOM     17  C   UNL     1      11.031 -55.906 -21.805  1.00  0.00     0.044 C 
BRANCH  17  18
ATOM     18  C   UNL     1      11.317 -57.286 -22.351  1.00  0.00    -0.036 A 
ATOM     19  C   UNL     1      11.770 -57.461 -23.658  1.00  0.00     0.074 A 
ATOM     20  C   UNL     1      11.071 -58.420 -21.577  1.00  0.00     0.074 A 
ATOM     21  C   UNL     1      11.933 -58.745 -24.165  1.00  0.00     0.308 A 
ATOM     22  C   UNL     1      11.247 -59.684 -22.124  1.00  0.00     0.308 A 
ATOM     23  N   UNL     1      11.666 -59.830 -23.401  1.00  0.00    -0.201 N 
BRANCH  23  24
ATOM     24  C   UNL     1      11.816 -61.187 -23.980  1.00  0.00     0.394 C 
BRANCH  24  25
ATOM     25  C   UNL     1      10.507 -61.911 -23.942  1.00  0.00     0.027 A 
ATOM     26  C   UNL     1      10.161 -62.920 -22.980  1.00  0.00     0.022 A 
ATOM     27  C   UNL     1       9.465 -61.714 -24.834  1.00  0.00     0.075 A 
ATOM     28  C   UNL     1       8.891 -63.421 -23.167  1.00  0.00     0.065 A 
ATOM     29  S   UNL     1       8.105 -62.695 -24.496  1.00  0.00    -0.152 S 
ENDBRANCH  24  25
ENDBRANCH  23  24
ENDBRANCH  17  18
ENDBRANCH   1  17
TORSDOF 8
ENDMDL
MODEL 2
REMARK VINA RESULT:   -10.413      0.962      1.503
REMARK INTER + INTRA:         -15.904
REMARK INTER:                 -15.197
REMARK INTRA:                  -0.707
REMARK UNBOUND:                -0.621
REMARK SMILES COc1cc2c(cc1OC)S[C@@H](C(=O)CCc1cc[n+](Cc3ccsc3)cc1)C2
REMARK SMILES IDX 15 1 13 2 14 3 12 4 3 5 4 6 8 7 5 8 7 9 6 10 29 11 11 12
REMARK SMILES IDX 2 13 1 14 9 15 10 16 16 17 17 18 18 19 28 20 19 21 27 22
REMARK SMILES IDX 20 23 21 24 22 25 23 26 26 27 24 28 25 29
REMARK H PARENT
ROOT
ATOM      1  C   UNL     1      10.795 -55.164 -22.843  1.00  0.00     0.081 C 
ENDROOT
BRANCH   1   2
ATOM      2  C   UNL     1      10.491 -53.791 -22.260  1.00  0.00     0.146 C 
ATOM      3  O   UNL     1       9.433 -53.607 -21.649  1.00  0.00    -0.298 OA
BRANCH   2   4
ATOM      4  C   UNL     1      11.542 -52.705 -22.424  1.00  0.00     0.123 C 
ATOM      5  C   UNL     1      13.481 -49.331 -25.285  1.00  0.00     0.161 A 
ATOM      6  C   UNL     1      13.280 -50.710 -25.120  1.00  0.00     0.055 A 
ATOM      7  C   UNL     1      12.850 -48.432 -24.396  1.00  0.00     0.161 A 
ATOM      8  C   UNL     1      12.457 -51.170 -24.094  1.00  0.00    -0.029 A 
ATOM      9  C   UNL     1      11.998 -48.906 -23.390  1.00  0.00     0.065 A 
ATOM     10  C   UNL     1      11.817 -50.270 -23.246  1.00  0.00     0.015 A 
ATOM     11  C   UNL     1      12.102 -52.611 -23.852  1.00  0.00     0.059 C 
ATOM     12  S   UNL     1      10.805 -51.077 -22.046  1.00  0.00    -0.114 SA
BRANCH   5  13
ATOM     13  O   UNL     1      14.233 -48.790 -26.294  1.00  0.00    -0.493 OA
ATOM     14  C   UNL     1      14.807 -49.671 -27.252  1.00  0.00     0.278 C 
ENDBRANCH   5  13
BRANCH   7  15
ATOM     15  O   UNL     1      12.931 -47.061 -24.439  1.00  0.00    -0.493 OA
ATOM     16  C   UNL     1      11.686 -46.369 -24.403  1.00  0.00     0.278 C 
ENDBRANCH   7  15
ENDBRANCH   2   4
ENDBRANCH   1   2
BRANCH   1  17
ATOM     17  C   UNL     1      11.170 -56.203 -21.784  1.00  0.00     0.044 C 
BRANCH  17  18
ATOM     18  C   UNL     1      11.161 -57.625 -22.297  1.00  0.00    -0.036 A 
ATOM     19  C   UNL     1      10.946 -58.697 -21.433  1.00  0.00     0.074 A 
ATOM     20  C   UNL     1      11.433 -57.896 -23.638  1.00  0.00     0.074 A 
ATOM     21  C   UNL     1      11.038 -59.999 -21.914  1.00  0.00     0.308 A 
ATOM     22  C   UNL     1      11.516 -59.212 -24.075  1.00  0.00     0.308 A 
ATOM     23  N   UNL     1      11.325 -60.237 -23.214  1.00  0.00    -0.201 N 
BRANCH  23  24
ATOM     24  C   UNL     1      11.450 -61.635 -23.691  1.00  0.00     0.394 C 
BRANCH  24  25
ATOM     25  C   UNL     1      10.103 -62.286 -23.739  1.00  0.00     0.027 A 
ATOM     26  C   UNL     1       9.133 -62.075 -24.779  1.00  0.00     0.022 A 
ATOM     27  C   UNL     1       9.609 -63.162 -22.787  1.00  0.00     0.075 A 
ATOM     28  C   UNL     1       7.978 -62.800 -24.585  1.00  0.00     0.065 A 
ATOM     29  S   UNL     1       8.039 -63.732 -23.157  1.00  0.00    -0.152 S 
ENDBRANCH  24  25
ENDBRANCH  23  24
ENDBRANCH  17  18
ENDBRANCH   1  17
TORSDOF 8
ENDMDL
MODEL 3
REMARK VINA RESULT:   -10.181      1.543      2.773
REMARK INTER + INTRA:         -15.564
REMARK INTER:                 -14.924
REMARK INTRA:                  -0.640
REMARK UNBOUND:                -0.621
REMARK SMILES COc1cc2c(cc1OC)S[C@@H](C(=O)CCc1cc[n+](Cc3ccsc3)cc1)C2
REMARK SMILES IDX 15 1 13 2 14 3 12 4 3 5 4 6 8 7 5 8 7 9 6 10 29 11 11 12
REMARK SMILES IDX 2 13 1 14 9 15 10 16 16 17 17 18 18 19 28 20 19 21 27 22
REMARK SMILES IDX 20 23 21 24 22 25 23 26 26 27 24 28 25 29
REMARK H PARENT
ROOT
ATOM      1  C   UNL     1      10.416 -55.242 -22.355  1.00  0.00     0.081 C 
ENDROOT
BRANCH   1   2
ATOM      2  C   UNL     1      10.442 -53.851 -21.738  1.00  0.00     0.146 C 
ATOM      3  O   UNL     1      10.481 -53.728 -20.509  1.00  0.00    -0.298 OA
BRANCH   2   4
ATOM      4  C   UNL     1      10.460 -52.658 -22.681  1.00  0.00     0.123 C 
ATOM      5  C   UNL     1      11.514 -47.985 -23.296  1.00  0.00     0.161 A 
ATOM      6  C   UNL     1      10.686 -48.888 -22.612  1.00  0.00     0.055 A 
ATOM      7  C   UNL     1      12.573 -48.485 -24.087  1.00  0.00     0.161 A 
ATOM      8  C   UNL     1      10.924 -50.257 -22.713  1.00  0.00    -0.029 A 
ATOM      9  C   UNL     1      12.823 -49.862 -24.152  1.00  0.00     0.065 A 
ATOM     10  C   UNL     1      11.992 -50.732 -23.471  1.00  0.00     0.015 A 
ATOM     11  C   UNL     1      10.161 -51.324 -21.979  1.00  0.00     0.059 C 
ATOM     12  S   UNL     1      12.118 -52.492 -23.428  1.00  0.00    -0.114 SA
BRANCH   5  13
ATOM     13  O   UNL     1      11.381 -46.624 -23.214  1.00  0.00    -0.493 OA
ATOM     14  C   UNL     1      10.397 -46.095 -22.335  1.00  0.00     0.278 C 
ENDBRANCH   5  13
BRANCH   7  15
ATOM     15  O   UNL     1      13.479 -47.733 -24.795  1.00  0.00    -0.493 OA
ATOM     16  C   UNL     1      14.556 -48.458 -25.383  1.00  0.00     0.278 C 
ENDBRANCH   7  15
ENDBRANCH   2   4
ENDBRANCH   1   2
BRANCH   1  17
ATOM     17  C   UNL     1      11.238 -56.267 -21.572  1.00  0.00     0.044 C 
BRANCH  17  18
ATOM     18  C   UNL     1      11.213 -57.654 -22.173  1.00  0.00    -0.036 A 
ATOM     19  C   UNL     1      10.923 -58.770 -21.391  1.00  0.00     0.074 A 
ATOM     20  C   UNL     1      11.545 -57.851 -23.514  1.00  0.00     0.074 A 
ATOM     21  C   UNL     1      11.001 -60.042 -21.948  1.00  0.00     0.308 A 
ATOM     22  C   UNL     1      11.612 -59.139 -24.028  1.00  0.00     0.308 A 
ATOM     23  N   UNL     1      11.347 -60.209 -23.245  1.00  0.00    -0.201 N 
BRANCH  23  24
ATOM     24  C   UNL     1      11.455 -61.578 -23.803  1.00  0.00     0.394 C 
BRANCH  24  25
ATOM     25  C   UNL     1      10.109 -62.232 -23.828  1.00  0.00     0.027 A 
ATOM     26  C   UNL     1       9.653 -63.196 -22.865  1.00  0.00     0.022 A 
ATOM     27  C   UNL     1       9.134 -62.004 -24.786  1.00  0.00     0.075 A 
ATOM     28  C   UNL     1       8.371 -63.635 -23.117  1.00  0.00     0.065 A 
ATOM     29  S   UNL     1       7.706 -62.904 -24.509  1.00  0.00    -0.152 S 
ENDBRANCH  24  25
ENDBRANCH  23  24
ENDBRANCH  17  18
ENDBRANCH   1  17
TORSDOF 8
ENDMDL
MODEL 4
REMARK VINA RESULT:   -10.126      4.173      9.689
REMARK INTER + INTRA:         -15.482
REMARK INTER:                 -14.966
REMARK INTRA:                  -0.516
REMARK UNBOUND:                -0.621
REMARK SMILES COc1cc2c(cc1OC)S[C@@H](C(=O)CCc1cc[n+](Cc3ccsc3)cc1)C2
REMARK SMILES IDX 15 1 13 2 14 3 12 4 3 5 4 6 8 7 5 8 7 9 6 10 29 11 11 12
REMARK SMILES IDX 2 13 1 14 9 15 10 16 16 17 17 18 18 19 28 20 19 21 27 22
REMARK SMILES IDX 20 23 21 24 22 25 23 26 26 27 24 28 25 29
REMARK H PARENT
ROOT
ATOM      1  C   UNL     1      11.361 -57.910 -21.760  1.00  0.00     0.081 C 
ENDROOT
BRANCH   1   2
ATOM      2  C   UNL     1      11.001 -59.386 -21.839  1.00  0.00     0.146 C 
ATOM      3  O   UNL     1      10.449 -59.933 -20.878  1.00  0.00    -0.298 OA
BRANCH   2   4
ATOM      4  C   UNL     1      11.308 -60.122 -23.134  1.00  0.00     0.123 C 
ATOM      5  C   UNL     1       9.946 -61.113 -27.661  1.00  0.00     0.161 A 
ATOM      6  C   UNL     1       9.612 -61.273 -26.307  1.00  0.00     0.055 A 
ATOM      7  C   UNL     1      11.033 -60.279 -28.008  1.00  0.00     0.161 A 
ATOM      8  C   UNL     1      10.346 -60.603 -25.330  1.00  0.00    -0.029 A 
ATOM      9  C   UNL     1      11.741 -59.584 -27.018  1.00  0.00     0.065 A 
ATOM     10  C   UNL     1      11.394 -59.759 -25.691  1.00  0.00     0.015 A 
ATOM     11  C   UNL     1      10.050 -60.630 -23.857  1.00  0.00     0.059 C 
ATOM     12  S   UNL     1      12.156 -58.995 -24.294  1.00  0.00    -0.114 SA
BRANCH   5  13
ATOM     13  O   UNL     1       9.251 -61.696 -28.687  1.00  0.00    -0.493 OA
ATOM     14  C   UNL     1       8.448 -62.832 -28.395  1.00  0.00     0.278 C 
ENDBRANCH   5  13
BRANCH   7  15
ATOM     15  O   UNL     1      11.468 -60.005 -29.281  1.00  0.00    -0.493 OA
ATOM     16  C   UNL     1      12.078 -58.731 -29.464  1.00  0.00     0.278 C 
ENDBRANCH   7  15
ENDBRANCH   2   4
ENDBRANCH   1   2
BRANCH   1  17
ATOM     17  C   UNL     1      10.302 -56.995 -22.380  1.00  0.00     0.044 C 
BRANCH  17  18
ATOM     18  C   UNL     1      10.763 -55.567 -22.562  1.00  0.00    -0.036 A 
ATOM     19  C   UNL     1      10.618 -54.631 -21.539  1.00  0.00     0.074 A 
ATOM     20  C   UNL     1      11.284 -55.141 -23.783  1.00  0.00     0.074 A 
ATOM     21  C   UNL     1      10.963 -53.303 -21.766  1.00  0.00     0.308 A 
ATOM     22  C   UNL     1      11.615 -53.804 -23.966  1.00  0.00     0.308 A 
ATOM     23  N   UNL     1      11.446 -52.909 -22.967  1.00  0.00    -0.201 N 
BRANCH  23  24
ATOM     24  C   UNL     1      11.773 -51.481 -23.191  1.00  0.00     0.394 C 
BRANCH  24  25
ATOM     25  C   UNL     1      13.088 -51.357 -23.896  1.00  0.00     0.027 A 
ATOM     26  C   UNL     1      13.241 -51.227 -25.318  1.00  0.00     0.022 A 
ATOM     27  C   UNL     1      14.325 -51.366 -23.274  1.00  0.00     0.075 A 
ATOM     28  C   UNL     1      14.559 -51.124 -25.705  1.00  0.00     0.065 A 
ATOM     29  S   UNL     1      15.624 -51.190 -24.373  1.00  0.00    -0.152 S 
ENDBRANCH  24  25
ENDBRANCH  23  24
ENDBRANCH  17  18
ENDBRANCH   1  17
TORSDOF 8
ENDMDL
MODEL 5
REMARK VINA RESULT:    -9.424      1.288      2.051
REMARK INTER + INTRA:         -14.452
REMARK INTER:                 -14.203
REMARK INTRA:                  -0.249
REMARK UNBOUND:                -0.621
REMARK SMILES COc1cc2c(cc1OC)S[C@@H](C(=O)CCc1cc[n+](Cc3ccsc3)cc1)C2
REMARK SMILES IDX 15 1 13 2 14 3 12 4 3 5 4 6 8 7 5 8 7 9 6 10 29 11 11 12
REMARK SMILES IDX 2 13 1 14 9 15 10 16 16 17 17 18 18 19 28 20 19 21 27 22
REMARK SMILES IDX 20 23 21 24 22 25 23 26 26 27 24 28 25 29
REMARK H PARENT
ROOT
ATOM      1  C   UNL     1      11.065 -55.232 -22.413  1.00  0.00     0.081 C 
ENDROOT
BRANCH   1   2
ATOM      2  C   UNL     1      10.754 -53.783 -22.066  1.00  0.00     0.146 C 
ATOM      3  O   UNL     1      10.255 -53.511 -20.969  1.00  0.00    -0.298 OA
BRANCH   2   4
ATOM      4  C   UNL     1      11.115 -52.717 -23.088  1.00  0.00     0.123 C 
ATOM      5  C   UNL     1      14.428 -49.590 -24.694  1.00  0.00     0.161 A 
ATOM      6  C   UNL     1      13.579 -49.903 -23.621  1.00  0.00     0.055 A 
ATOM      7  C   UNL     1      14.544 -50.501 -25.769  1.00  0.00     0.161 A 
ATOM      8  C   UNL     1      12.875 -51.106 -23.625  1.00  0.00    -0.029 A 
ATOM      9  C   UNL     1      13.858 -51.722 -25.744  1.00  0.00     0.065 A 
ATOM     10  C   UNL     1      13.026 -52.007 -24.677  1.00  0.00     0.015 A 
ATOM     11  C   UNL     1      11.993 -51.594 -22.510  1.00  0.00     0.059 C 
ATOM     12  S   UNL     1      12.066 -53.471 -24.452  1.00  0.00    -0.114 SA
BRANCH   5  13
ATOM     13  O   UNL     1      15.191 -48.454 -24.750  1.00  0.00    -0.493 OA
ATOM     14  C   UNL     1      14.527 -47.198 -24.785  1.00  0.00     0.278 C 
ENDBRANCH   5  13
BRANCH   7  15
ATOM     15  O   UNL     1      15.344 -50.349 -26.875  1.00  0.00    -0.493 OA
ATOM     16  C   UNL     1      14.847 -49.469 -27.879  1.00  0.00     0.278 C 
ENDBRANCH   7  15
ENDBRANCH   2   4
ENDBRANCH   1   2
BRANCH   1  17
ATOM     17  C   UNL     1       9.816 -56.065 -22.711  1.00  0.00     0.044 C 
BRANCH  17  18
ATOM     18  C   UNL     1      10.100 -57.536 -22.908  1.00  0.00    -0.036 A 
ATOM     19  C   UNL     1      11.383 -58.051 -22.723  1.00  0.00     0.074 A 
ATOM     20  C   UNL     1       9.095 -58.400 -23.343  1.00  0.00     0.074 A 
ATOM     21  C   UNL     1      11.636 -59.389 -23.004  1.00  0.00     0.308 A 
ATOM     22  C   UNL     1       9.392 -59.729 -23.612  1.00  0.00     0.308 A 
ATOM     23  N   UNL     1      10.648 -60.202 -23.447  1.00  0.00    -0.201 N 
BRANCH  23  24
ATOM     24  C   UNL     1      10.955 -61.616 -23.770  1.00  0.00     0.394 C 
BRANCH  24  25
ATOM     25  C   UNL     1       9.690 -62.412 -23.851  1.00  0.00     0.027 A 
ATOM     26  C   UNL     1       9.177 -63.235 -22.790  1.00  0.00     0.022 A 
ATOM     27  C   UNL     1       8.858 -62.470 -24.957  1.00  0.00     0.075 A 
ATOM     28  C   UNL     1       7.992 -63.854 -23.123  1.00  0.00     0.065 A 
ATOM     29  S   UNL     1       7.487 -63.463 -24.706  1.00  0.00    -0.152 S 
ENDBRANCH  24  25
ENDBRANCH  23  24
ENDBRANCH  17  18
ENDBRANCH   1  17
TORSDOF 8
ENDMDL
MODEL 6
REMARK VINA RESULT:    -9.279      4.066     10.503
REMARK INTER + INTRA:         -14.239
REMARK INTER:                 -13.416
REMARK INTRA:                  -0.823
REMARK UNBOUND:                -0.621
REMARK SMILES COc1cc2c(cc1OC)S[C@@H](C(=O)CCc1cc[n+](Cc3ccsc3)cc1)C2
REMARK SMILES IDX 15 1 13 2 14 3 12 4 3 5 4 6 8 7 5 8 7 9 6 10 29 11 11 12
REMARK SMILES IDX 2 13 1 14 9 15 10 16 16 17 17 18 18 19 28 20 19 21 27 22
REMARK SMILES IDX 20 23 21 24 22 25 23 26 26 27 24 28 25 29
REMARK H PARENT
ROOT
ATOM      1  C   UNL     1      11.114 -56.326 -21.996  1.00  0.00     0.081 C 
ENDROOT
BRANCH   1   2
ATOM      2  C   UNL     1      11.022 -57.835 -22.175  1.00  0.00     0.146 C 
ATOM      3  O   UNL     1      11.622 -58.581 -21.394  1.00  0.00    -0.298 OA
BRANCH   2   4
ATOM      4  C   UNL     1      10.148 -58.362 -23.302  1.00  0.00     0.123 C 
ATOM      5  C   UNL     1       9.353 -61.875 -26.520  1.00  0.00     0.161 A 
ATOM      6  C   UNL     1      10.235 -60.852 -26.142  1.00  0.00     0.055 A 
ATOM      7  C   UNL     1       8.264 -62.192 -25.677  1.00  0.00     0.161 A 
ATOM      8  C   UNL     1      10.033 -60.173 -24.942  1.00  0.00    -0.029 A 
ATOM      9  C   UNL     1       8.092 -61.525 -24.457  1.00  0.00     0.065 A 
ATOM     10  C   UNL     1       8.973 -60.519 -24.107  1.00  0.00     0.015 A 
ATOM     11  C   UNL     1      10.940 -59.110 -24.386  1.00  0.00     0.059 C 
ATOM     12  S   UNL     1       8.933 -59.550 -22.632  1.00  0.00    -0.114 SA
BRANCH   5  13
ATOM     13  O   UNL     1       9.504 -62.624 -27.657  1.00  0.00    -0.493 OA
ATOM     14  C   UNL     1       9.001 -62.100 -28.879  1.00  0.00     0.278 C 
ENDBRANCH   5  13
BRANCH   7  15
ATOM     15  O   UNL     1       7.330 -63.175 -25.896  1.00  0.00    -0.493 OA
ATOM     16  C   UNL     1       6.976 -63.954 -24.756  1.00  0.00     0.278 C 
ENDBRANCH   7  15
ENDBRANCH   2   4
ENDBRANCH   1   2
BRANCH   1  17
ATOM     17  C   UNL     1      10.368 -55.541 -23.077  1.00  0.00     0.044 C 
BRANCH  17  18
ATOM     18  C   UNL     1      11.172 -54.407 -23.669  1.00  0.00    -0.036 A 
ATOM     19  C   UNL     1      11.915 -54.587 -24.835  1.00  0.00     0.074 A 
ATOM     20  C   UNL     1      11.239 -53.173 -23.024  1.00  0.00     0.074 A 
ATOM     21  C   UNL     1      12.721 -53.556 -25.305  1.00  0.00     0.308 A 
ATOM     22  C   UNL     1      12.058 -52.170 -23.528  1.00  0.00     0.308 A 
ATOM     23  N   UNL     1      12.786 -52.375 -24.649  1.00  0.00    -0.201 N 
BRANCH  23  24
ATOM     24  C   UNL     1      13.680 -51.305 -25.154  1.00  0.00     0.394 C 
BRANCH  24  25
ATOM     25  C   UNL     1      15.030 -51.419 -24.518  1.00  0.00     0.027 A 
ATOM     26  C   UNL     1      16.200 -51.933 -25.177  1.00  0.00     0.022 A 
ATOM     27  C   UNL     1      15.327 -51.059 -23.214  1.00  0.00     0.075 A 
ATOM     28  C   UNL     1      17.315 -51.923 -24.367  1.00  0.00     0.065 A 
ATOM     29  S   UNL     1      16.972 -51.305 -22.813  1.00  0.00    -0.152 S 
ENDBRANCH  24  25
ENDBRANCH  23  24
ENDBRANCH  17  18
ENDBRANCH   1  17
TORSDOF 8
ENDMDL
MODEL 7
REMARK VINA RESULT:    -9.175      4.055     10.723
REMARK INTER + INTRA:         -14.086
REMARK INTER:                 -14.399
REMARK INTRA:                   0.313
REMARK UNBOUND:                -0.621
REMARK SMILES COc1cc2c(cc1OC)S[C@@H](C(=O)CCc1cc[n+](Cc3ccsc3)cc1)C2
REMARK SMILES IDX 15 1 13 2 14 3 12 4 3 5 4 6 8 7 5 8 7 9 6 10 29 11 11 12
REMARK SMILES IDX 2 13 1 14 9 15 10 16 16 17 17 18 18 19 28 20 19 21 27 22
REMARK SMILES IDX 20 23 21 24 22 25 23 26 26 27 24 28 25 29
REMARK H PARENT
ROOT
ATOM      1  C   UNL     1      11.510 -57.379 -22.328  1.00  0.00     0.081 C 
ENDROOT
BRANCH   1   2
ATOM      2  C   UNL     1      11.261 -58.601 -21.455  1.00  0.00     0.146 C 
ATOM      3  O   UNL     1      11.319 -58.495 -20.225  1.00  0.00    -0.298 OA
BRANCH   2   4
ATOM      4  C   UNL     1      10.907 -59.906 -22.148  1.00  0.00     0.123 C 
ATOM      5  C   UNL     1       7.717 -62.339 -24.839  1.00  0.00     0.161 A 
ATOM      6  C   UNL     1       7.929 -61.727 -23.594  1.00  0.00     0.055 A 
ATOM      7  C   UNL     1       8.693 -62.195 -25.852  1.00  0.00     0.161 A 
ATOM      8  C   UNL     1       9.087 -60.982 -23.378  1.00  0.00    -0.029 A 
ATOM      9  C   UNL     1       9.836 -61.415 -25.633  1.00  0.00     0.065 A 
ATOM     10  C   UNL     1      10.023 -60.824 -24.397  1.00  0.00     0.015 A 
ATOM     11  C   UNL     1       9.402 -60.220 -22.121  1.00  0.00     0.059 C 
ATOM     12  S   UNL     1      11.388 -59.818 -23.908  1.00  0.00    -0.114 SA
BRANCH   5  13
ATOM     13  O   UNL     1       6.588 -63.047 -25.153  1.00  0.00    -0.493 OA
ATOM     14  C   UNL     1       6.675 -64.466 -25.199  1.00  0.00     0.278 C 
ENDBRANCH   5  13
BRANCH   7  15
ATOM     15  O   UNL     1       8.622 -62.712 -27.123  1.00  0.00    -0.493 OA
ATOM     16  C   UNL     1       9.111 -61.867 -28.160  1.00  0.00     0.278 C 
ENDBRANCH   7  15
ENDBRANCH   2   4
ENDBRANCH   1   2
BRANCH   1  17
ATOM     17  C   UNL     1      10.282 -56.479 -22.475  1.00  0.00     0.044 C 
BRANCH  17  18
ATOM     18  C   UNL     1      10.613 -55.006 -22.552  1.00  0.00    -0.036 A 
ATOM     19  C   UNL     1      11.231 -54.468 -23.680  1.00  0.00     0.074 A 
ATOM     20  C   UNL     1      10.364 -54.166 -21.467  1.00  0.00     0.074 A 
ATOM     21  C   UNL     1      11.611 -53.131 -23.686  1.00  0.00     0.308 A 
ATOM     22  C   UNL     1      10.761 -52.836 -21.516  1.00  0.00     0.308 A 
ATOM     23  N   UNL     1      11.379 -52.341 -22.612  1.00  0.00    -0.201 N 
BRANCH  23  24
ATOM     24  C   UNL     1      11.825 -50.927 -22.634  1.00  0.00     0.394 C 
BRANCH  24  25
ATOM     25  C   UNL     1      12.946 -50.756 -23.611  1.00  0.00     0.027 A 
ATOM     26  C   UNL     1      14.197 -50.115 -23.312  1.00  0.00     0.022 A 
ATOM     27  C   UNL     1      12.921 -51.179 -24.930  1.00  0.00     0.075 A 
ATOM     28  C   UNL     1      15.057 -50.097 -24.388  1.00  0.00     0.065 A 
ATOM     29  S   UNL     1      14.375 -50.839 -25.765  1.00  0.00    -0.152 S 
ENDBRANCH  24  25
ENDBRANCH  23  24
ENDBRANCH  17  18
ENDBRANCH   1  17
TORSDOF 8
ENDMDL
MODEL 8
REMARK VINA RESULT:    -8.998      3.879     11.001
REMARK INTER + INTRA:         -13.827
REMARK INTER:                 -13.025
REMARK INTRA:                  -0.802
REMARK UNBOUND:                -0.621
REMARK SMILES COc1cc2c(cc1OC)S[C@@H](C(=O)CCc1cc[n+](Cc3ccsc3)cc1)C2
REMARK SMILES IDX 15 1 13 2 14 3 12 4 3 5 4 6 8 7 5 8 7 9 6 10 29 11 11 12
REMARK SMILES IDX 2 13 1 14 9 15 10 16 16 17 17 18 18 19 28 20 19 21 27 22
REMARK SMILES IDX 20 23 21 24 22 25 23 26 26 27 24 28 25 29
REMARK H PARENT
ROOT
ATOM      1  C   UNL     1      11.380 -55.606 -23.605  1.00  0.00     0.081 C 
ENDROOT
BRANCH   1   2
ATOM      2  C   UNL     1      11.291 -56.554 -22.418  1.00  0.00     0.146 C 
ATOM      3  O   UNL     1      11.377 -56.107 -21.270  1.00  0.00    -0.298 OA
BRANCH   2   4
ATOM      4  C   UNL     1      11.055 -58.028 -22.707  1.00  0.00     0.123 C 
ATOM      5  C   UNL     1       8.257 -61.358 -24.808  1.00  0.00     0.161 A 
ATOM      6  C   UNL     1       8.312 -60.386 -23.797  1.00  0.00     0.055 A 
ATOM      7  C   UNL     1       9.333 -61.467 -25.718  1.00  0.00     0.161 A 
ATOM      8  C   UNL     1       9.416 -59.539 -23.712  1.00  0.00    -0.029 A 
ATOM      9  C   UNL     1      10.420 -60.587 -25.643  1.00  0.00     0.065 A 
ATOM     10  C   UNL     1      10.453 -59.638 -24.637  1.00  0.00     0.015 A 
ATOM     11  C   UNL     1       9.567 -58.413 -22.727  1.00  0.00     0.059 C 
ATOM     12  S   UNL     1      11.724 -58.447 -24.354  1.00  0.00    -0.114 SA
BRANCH   5  13
ATOM     13  O   UNL     1       7.192 -62.199 -24.993  1.00  0.00    -0.493 OA
ATOM     14  C   UNL     1       7.262 -63.506 -24.438  1.00  0.00     0.278 C 
ENDBRANCH   5  13
BRANCH   7  15
ATOM     15  O   UNL     1       9.418 -62.348 -26.768  1.00  0.00    -0.493 OA
ATOM     16  C   UNL     1       9.516 -61.758 -28.061  1.00  0.00     0.278 C 
ENDBRANCH   7  15
ENDBRANCH   2   4
ENDBRANCH   1   2
BRANCH   1  17
ATOM     17  C   UNL     1      10.475 -54.380 -23.469  1.00  0.00     0.044 C 
BRANCH  17  18
ATOM     18  C   UNL     1      11.219 -53.108 -23.132  1.00  0.00    -0.036 A 
ATOM     19  C   UNL     1      10.904 -52.374 -21.989  1.00  0.00     0.074 A 
ATOM     20  C   UNL     1      12.195 -52.608 -23.994  1.00  0.00     0.074 A 
ATOM     21  C   UNL     1      11.539 -51.160 -21.753  1.00  0.00     0.308 A 
ATOM     22  C   UNL     1      12.803 -51.390 -23.719  1.00  0.00     0.308 A 
ATOM     23  N   UNL     1      12.466 -50.685 -22.616  1.00  0.00    -0.201 N 
BRANCH  23  24
ATOM     24  C   UNL     1      13.102 -49.371 -22.356  1.00  0.00     0.394 C 
BRANCH  24  25
ATOM     25  C   UNL     1      12.273 -48.272 -22.946  1.00  0.00     0.027 A 
ATOM     26  C   UNL     1      12.206 -47.966 -24.349  1.00  0.00     0.022 A 
ATOM     27  C   UNL     1      11.475 -47.403 -22.221  1.00  0.00     0.075 A 
ATOM     28  C   UNL     1      11.363 -46.911 -24.623  1.00  0.00     0.065 A 
ATOM     29  S   UNL     1      10.651 -46.275 -23.209  1.00  0.00    -0.152 S 
ENDBRANCH  24  25
ENDBRANCH  23  24
ENDBRANCH  17  18
ENDBRANCH   1  17
TORSDOF 8
ENDMDL
MODEL 9
REMARK VINA RESULT:    -8.654      3.900     11.443
REMARK INTER + INTRA:         -13.321
REMARK INTER:                 -13.341
REMARK INTRA:                   0.020
REMARK UNBOUND:                -0.621
REMARK SMILES COc1cc2c(cc1OC)S[C@@H](C(=O)CCc1cc[n+](Cc3ccsc3)cc1)C2
REMARK SMILES IDX 15 1 13 2 14 3 12 4 3 5 4 6 8 7 5 8 7 9 6 10 29 11 11 12
REMARK SMILES IDX 2 13 1 14 9 15 10 16 16 17 17 18 18 19 28 20 19 21 27 22
REMARK SMILES IDX 20 23 21 24 22 25 23 26 26 27 24 28 25 29
REMARK H PARENT
ROOT
ATOM      1  C   UNL     1      10.876 -54.307 -22.966  1.00  0.00     0.081 C 
ENDROOT
BRANCH   1   2
ATOM      2  C   UNL     1      11.002 -55.651 -22.264  1.00  0.00     0.146 C 
ATOM      3  O   UNL     1      11.182 -55.688 -21.042  1.00  0.00    -0.298 OA
BRANCH   2   4
ATOM      4  C   UNL     1      10.859 -56.907 -23.109  1.00  0.00     0.123 C 
ATOM      5  C   UNL     1       9.985 -61.657 -23.205  1.00  0.00     0.161 A 
ATOM      6  C   UNL     1      10.882 -60.670 -22.768  1.00  0.00     0.055 A 
ATOM      7  C   UNL     1       8.756 -61.263 -23.782  1.00  0.00     0.161 A 
ATOM      8  C   UNL     1      10.545 -59.323 -22.899  1.00  0.00    -0.029 A 
ATOM      9  C   UNL     1       8.415 -59.908 -23.875  1.00  0.00     0.065 A 
ATOM     10  C   UNL     1       9.316 -58.954 -23.439  1.00  0.00     0.015 A 
ATOM     11  C   UNL     1      11.379 -58.173 -22.408  1.00  0.00     0.059 C 
ATOM     12  S   UNL     1       9.095 -57.203 -23.476  1.00  0.00    -0.114 SA
BRANCH   5  13
ATOM     13  O   UNL     1      10.214 -63.000 -23.073  1.00  0.00    -0.493 OA
ATOM     14  C   UNL     1       9.326 -63.757 -22.261  1.00  0.00     0.278 C 
ENDBRANCH   5  13
BRANCH   7  15
ATOM     15  O   UNL     1       7.770 -62.105 -24.236  1.00  0.00    -0.493 OA
ATOM     16  C   UNL     1       7.961 -62.628 -25.547  1.00  0.00     0.278 C 
ENDBRANCH   7  15
ENDBRANCH   2   4
ENDBRANCH   1   2
BRANCH   1  17
ATOM     17  C   UNL     1      10.896 -53.117 -22.005  1.00  0.00     0.044 C 
BRANCH  17  18
ATOM     18  C   UNL     1      11.489 -51.862 -22.603  1.00  0.00    -0.036 A 
ATOM     19  C   UNL     1      11.136 -50.601 -22.122  1.00  0.00     0.074 A 
ATOM     20  C   UNL     1      12.355 -51.937 -23.694  1.00  0.00     0.074 A 
ATOM     21  C   UNL     1      11.623 -49.462 -22.752  1.00  0.00     0.308 A 
ATOM     22  C   UNL     1      12.817 -50.772 -24.293  1.00  0.00     0.308 A 
ATOM     23  N   UNL     1      12.444 -49.561 -23.823  1.00  0.00    -0.201 N 
BRANCH  23  24
ATOM     24  C   UNL     1      12.920 -48.328 -24.496  1.00  0.00     0.394 C 
BRANCH  24  25
ATOM     25  C   UNL     1      12.273 -47.125 -23.884  1.00  0.00     0.027 A 
ATOM     26  C   UNL     1      10.990 -46.606 -24.269  1.00  0.00     0.022 A 
ATOM     27  C   UNL     1      12.829 -46.349 -22.881  1.00  0.00     0.075 A 
ATOM     28  C   UNL     1      10.626 -45.493 -23.542  1.00  0.00     0.065 A 
ATOM     29  S   UNL     1      11.817 -45.056 -22.400  1.00  0.00    -0.152 S 
ENDBRANCH  24  25
ENDBRANCH  23  24
ENDBRANCH  17  18
ENDBRANCH   1  17
TORSDOF 8
ENDMDL
