MODEL 1
REMARK VINA RESULT:   -12.824      0.000      0.000
REMARK INTER + INTRA:         -16.390
REMARK INTER:                 -16.573
REMARK INTRA:                   0.183
REMARK UNBOUND:                 0.183
REMARK SMILES COc1ccccc1C(=O)Nc1ccc2c(c1)CN(C(=O)c1cccc(Cl)c1)C(=O)C2
REMARK SMILES IDX 12 1 13 2 14 3 15 4 16 5 17 6 18 7 19 8 29 9 30 10 31 11
REMARK SMILES IDX 11 12 9 13 10 14 8 16 3 17 4 18 5 19 7 20 6 21 2 22 1 23
REMARK SMILES IDX 20 24 21 25 22 26 23 27 28 28 24 29 26 30 25 31 27 32
REMARK H PARENT 11 15
ROOT
ATOM      1  C   UNL     1      11.021 -57.772 -22.429  1.00  0.00     0.041 A 
ATOM      2  C   UNL     1      11.168 -58.321 -21.154  1.00  0.00     0.026 A 
ATOM      3  C   UNL     1      10.800 -59.647 -20.903  1.00  0.00     0.007 A 
ATOM      4  C   UNL     1      10.265 -60.436 -21.922  1.00  0.00    -0.033 A 
ATOM      5  C   UNL     1      10.113 -59.898 -23.201  1.00  0.00    -0.022 A 
ATOM      6  C   UNL     1      10.496 -58.572 -23.452  1.00  0.00     0.032 A 
ATOM      7  C   UNL     1       9.587 -60.792 -24.286  1.00  0.00     0.164 C 
ATOM      8  N   UNL     1       8.559 -61.693 -23.789  1.00  0.00    -0.274 N 
ATOM      9  C   UNL     1       8.838 -62.429 -22.636  1.00  0.00     0.234 C 
ATOM     10  O   UNL     1       8.275 -63.488 -22.349  1.00  0.00    -0.274 OA
ATOM     11  C   UNL     1       9.900 -61.877 -21.694  1.00  0.00     0.136 C 
ENDROOT
BRANCH   1  12
ATOM     12  N   UNL     1      11.371 -56.450 -22.766  1.00  0.00    -0.322 N 
ATOM     13  C   UNL     1      10.623 -55.300 -22.616  1.00  0.00     0.259 C 
ATOM     14  O   UNL     1       9.493 -55.251 -22.140  1.00  0.00    -0.269 OA
ATOM     15  H   UNL     1      12.289 -56.321 -23.179  1.00  0.00     0.170 HD
BRANCH  13  16
ATOM     16  C   UNL     1      11.264 -54.012 -23.075  1.00  0.00     0.082 A 
ATOM     17  C   UNL     1      11.972 -53.840 -24.286  1.00  0.00     0.131 A 
ATOM     18  C   UNL     1      12.520 -52.582 -24.585  1.00  0.00     0.047 A 
ATOM     19  C   UNL     1      12.372 -51.505 -23.708  1.00  0.00     0.004 A 
ATOM     20  C   UNL     1      11.127 -52.911 -22.204  1.00  0.00     0.018 A 
ATOM     21  C   UNL     1      11.676 -51.669 -22.518  1.00  0.00     0.001 A 
BRANCH  17  22
ATOM     22  O   UNL     1      12.093 -54.926 -25.119  1.00  0.00    -0.496 OA
ATOM     23  C   UNL     1      13.126 -54.903 -26.101  1.00  0.00     0.278 C 
ENDBRANCH  17  22
ENDBRANCH  13  16
ENDBRANCH   1  12
BRANCH   8  24
ATOM     24  C   UNL     1       7.692 -62.189 -24.764  1.00  0.00     0.260 C 
ATOM     25  O   UNL     1       6.534 -62.528 -24.516  1.00  0.00    -0.269 OA
BRANCH  24  26
ATOM     26  C   UNL     1       8.190 -62.338 -26.159  1.00  0.00     0.041 A 
ATOM     27  C   UNL     1       7.718 -63.410 -26.931  1.00  0.00     0.014 A 
ATOM     28  C   UNL     1       9.161 -61.477 -26.680  1.00  0.00     0.034 A 
ATOM     29  C   UNL     1       8.189 -63.598 -28.230  1.00  0.00     0.002 A 
ATOM     30  C   UNL     1       9.625 -61.674 -27.979  1.00  0.00     0.041 A 
ATOM     31  C   UNL     1       9.143 -62.726 -28.757  1.00  0.00     0.020 A 
ATOM     32  Cl  UNL     1      10.815 -60.612 -28.628  1.00  0.00    -0.084 Cl
ENDBRANCH  24  26
ENDBRANCH   8  24
TORSDOF 5
ENDMDL
MODEL 2
REMARK VINA RESULT:   -12.549      3.831      9.849
REMARK INTER + INTRA:         -16.035
REMARK INTER:                 -15.021
REMARK INTRA:                  -1.014
REMARK UNBOUND:                 0.183
REMARK SMILES COc1ccccc1C(=O)Nc1ccc2c(c1)CN(C(=O)c1cccc(Cl)c1)C(=O)C2
REMARK SMILES IDX 12 1 13 2 14 3 15 4 16 5 17 6 18 7 19 8 29 9 30 10 31 11
REMARK SMILES IDX 11 12 9 13 10 14 8 16 3 17 4 18 5 19 7 20 6 21 2 22 1 23
REMARK SMILES IDX 20 24 21 25 22 26 23 27 28 28 24 29 26 30 25 31 27 32
REMARK H PARENT 11 15
ROOT
ATOM      1  C   UNL     1      10.812 -55.835 -22.640  1.00  0.00     0.041 A 
ATOM      2  C   UNL     1      10.257 -55.163 -21.550  1.00  0.00     0.026 A 
ATOM      3  C   UNL     1      10.332 -53.769 -21.459  1.00  0.00     0.007 A 
ATOM      4  C   UNL     1      10.977 -53.032 -22.453  1.00  0.00    -0.033 A 
ATOM      5  C   UNL     1      11.535 -53.693 -23.549  1.00  0.00    -0.022 A 
ATOM      6  C   UNL     1      11.446 -55.089 -23.642  1.00  0.00     0.032 A 
ATOM      7  C   UNL     1      12.171 -52.863 -24.625  1.00  0.00     0.164 C 
ATOM      8  N   UNL     1      12.880 -51.719 -24.075  1.00  0.00    -0.274 N 
ATOM      9  C   UNL     1      12.202 -50.907 -23.164  1.00  0.00     0.234 C 
ATOM     10  O   UNL     1      12.495 -49.729 -22.948  1.00  0.00    -0.274 OA
ATOM     11  C   UNL     1      11.036 -51.530 -22.405  1.00  0.00     0.136 C 
ENDROOT
BRANCH   1  12
ATOM     12  N   UNL     1      10.775 -57.233 -22.810  1.00  0.00    -0.322 N 
ATOM     13  C   UNL     1      11.115 -58.216 -21.903  1.00  0.00     0.259 C 
ATOM     14  O   UNL     1      11.514 -58.014 -20.760  1.00  0.00    -0.269 OA
ATOM     15  H   UNL     1      10.464 -57.567 -23.716  1.00  0.00     0.170 HD
BRANCH  13  16
ATOM     16  C   UNL     1      10.977 -59.645 -22.371  1.00  0.00     0.082 A 
ATOM     17  C   UNL     1      11.647 -60.208 -23.481  1.00  0.00     0.131 A 
ATOM     18  C   UNL     1      11.420 -61.556 -23.804  1.00  0.00     0.047 A 
ATOM     19  C   UNL     1      10.550 -62.342 -23.046  1.00  0.00     0.004 A 
ATOM     20  C   UNL     1      10.103 -60.458 -21.619  1.00  0.00     0.018 A 
ATOM     21  C   UNL     1       9.891 -61.794 -21.954  1.00  0.00     0.001 A 
BRANCH  17  22
ATOM     22  O   UNL     1      12.494 -59.398 -24.198  1.00  0.00    -0.496 OA
ATOM     23  C   UNL     1      12.257 -59.258 -25.597  1.00  0.00     0.278 C 
ENDBRANCH  17  22
ENDBRANCH  13  16
ENDBRANCH   1  12
BRANCH   8  24
ATOM     24  C   UNL     1      13.877 -51.193 -24.899  1.00  0.00     0.260 C 
ATOM     25  O   UNL     1      13.628 -50.585 -25.941  1.00  0.00    -0.269 OA
BRANCH  24  26
ATOM     26  C   UNL     1      15.302 -51.391 -24.519  1.00  0.00     0.041 A 
ATOM     27  C   UNL     1      15.677 -51.188 -23.183  1.00  0.00     0.014 A 
ATOM     28  C   UNL     1      16.273 -51.705 -25.476  1.00  0.00     0.034 A 
ATOM     29  C   UNL     1      17.010 -51.332 -22.799  1.00  0.00     0.002 A 
ATOM     30  C   UNL     1      17.602 -51.847 -25.082  1.00  0.00     0.041 A 
ATOM     31  C   UNL     1      17.975 -51.666 -23.751  1.00  0.00     0.020 A 
ATOM     32  Cl  UNL     1      18.800 -52.240 -26.255  1.00  0.00    -0.084 Cl
ENDBRANCH  24  26
ENDBRANCH   8  24
TORSDOF 5
ENDMDL
MODEL 3
REMARK VINA RESULT:   -11.921      3.976     10.304
REMARK INTER + INTRA:         -15.223
REMARK INTER:                 -14.254
REMARK INTRA:                  -0.969
REMARK UNBOUND:                 0.183
REMARK SMILES COc1ccccc1C(=O)Nc1ccc2c(c1)CN(C(=O)c1cccc(Cl)c1)C(=O)C2
REMARK SMILES IDX 12 1 13 2 14 3 15 4 16 5 17 6 18 7 19 8 29 9 30 10 31 11
REMARK SMILES IDX 11 12 9 13 10 14 8 16 3 17 4 18 5 19 7 20 6 21 2 22 1 23
REMARK SMILES IDX 20 24 21 25 22 26 23 27 28 28 24 29 26 30 25 31 27 32
REMARK H PARENT 11 15
ROOT
ATOM      1  C   UNL     1      10.393 -55.331 -22.924  1.00  0.00     0.041 A 
ATOM      2  C   UNL     1       9.531 -54.688 -22.034  1.00  0.00     0.026 A 
ATOM      3  C   UNL     1       9.636 -53.312 -21.808  1.00  0.00     0.007 A 
ATOM      4  C   UNL     1      10.618 -52.564 -22.461  1.00  0.00    -0.033 A 
ATOM      5  C   UNL     1      11.485 -53.196 -23.354  1.00  0.00    -0.022 A 
ATOM      6  C   UNL     1      11.367 -54.573 -23.586  1.00  0.00     0.032 A 
ATOM      7  C   UNL     1      12.491 -52.351 -24.079  1.00  0.00     0.164 C 
ATOM      8  N   UNL     1      13.022 -51.297 -23.228  1.00  0.00    -0.274 N 
ATOM      9  C   UNL     1      12.113 -50.495 -22.537  1.00  0.00     0.234 C 
ATOM     10  O   UNL     1      12.370 -49.357 -22.138  1.00  0.00    -0.274 OA
ATOM     11  C   UNL     1      10.729 -51.076 -22.272  1.00  0.00     0.136 C 
ENDROOT
BRANCH   1  12
ATOM     12  N   UNL     1      10.350 -56.710 -23.211  1.00  0.00    -0.322 N 
ATOM     13  C   UNL     1      10.831 -57.759 -22.454  1.00  0.00     0.259 C 
ATOM     14  O   UNL     1      11.390 -57.645 -21.366  1.00  0.00    -0.269 OA
ATOM     15  H   UNL     1       9.914 -56.972 -24.089  1.00  0.00     0.170 HD
BRANCH  13  16
ATOM     16  C   UNL     1      10.644 -59.145 -23.022  1.00  0.00     0.082 A 
ATOM     17  C   UNL     1       9.399 -59.783 -23.222  1.00  0.00     0.131 A 
ATOM     18  C   UNL     1       9.374 -61.081 -23.759  1.00  0.00     0.047 A 
ATOM     19  C   UNL     1      10.556 -61.741 -24.100  1.00  0.00     0.004 A 
ATOM     20  C   UNL     1      11.825 -59.831 -23.374  1.00  0.00     0.018 A 
ATOM     21  C   UNL     1      11.782 -61.118 -23.908  1.00  0.00     0.001 A 
BRANCH  17  22
ATOM     22  O   UNL     1       8.262 -59.096 -22.872  1.00  0.00    -0.496 OA
ATOM     23  C   UNL     1       7.376 -58.697 -23.916  1.00  0.00     0.278 C 
ENDBRANCH  17  22
ENDBRANCH  13  16
ENDBRANCH   1  12
BRANCH   8  24
ATOM     24  C   UNL     1      14.265 -50.796 -23.620  1.00  0.00     0.260 C 
ATOM     25  O   UNL     1      15.294 -50.981 -22.968  1.00  0.00    -0.269 OA
BRANCH  24  26
ATOM     26  C   UNL     1      14.353 -49.986 -24.866  1.00  0.00     0.041 A 
ATOM     27  C   UNL     1      14.576 -50.645 -26.083  1.00  0.00     0.014 A 
ATOM     28  C   UNL     1      14.285 -48.589 -24.831  1.00  0.00     0.034 A 
ATOM     29  C   UNL     1      14.697 -49.914 -27.265  1.00  0.00     0.002 A 
ATOM     30  C   UNL     1      14.407 -47.868 -26.017  1.00  0.00     0.041 A 
ATOM     31  C   UNL     1      14.609 -48.521 -27.232  1.00  0.00     0.020 A 
ATOM     32  Cl  UNL     1      14.318 -46.148 -25.980  1.00  0.00    -0.084 Cl
ENDBRANCH  24  26
ENDBRANCH   8  24
TORSDOF 5
ENDMDL
MODEL 4
REMARK VINA RESULT:   -11.545      4.499     11.327
REMARK INTER + INTRA:         -14.737
REMARK INTER:                 -14.653
REMARK INTRA:                  -0.084
REMARK UNBOUND:                 0.183
REMARK SMILES COc1ccccc1C(=O)Nc1ccc2c(c1)CN(C(=O)c1cccc(Cl)c1)C(=O)C2
REMARK SMILES IDX 12 1 13 2 14 3 15 4 16 5 17 6 18 7 19 8 29 9 30 10 31 11
REMARK SMILES IDX 11 12 9 13 10 14 8 16 3 17 4 18 5 19 7 20 6 21 2 22 1 23
REMARK SMILES IDX 20 24 21 25 22 26 23 27 28 28 24 29 26 30 25 31 27 32
REMARK H PARENT 11 15
ROOT
ATOM      1  C   UNL     1      11.885 -54.702 -24.204  1.00  0.00     0.041 A 
ATOM      2  C   UNL     1      12.538 -54.490 -25.419  1.00  0.00     0.026 A 
ATOM      3  C   UNL     1      13.022 -53.223 -25.757  1.00  0.00     0.007 A 
ATOM      4  C   UNL     1      12.846 -52.145 -24.888  1.00  0.00    -0.033 A 
ATOM      5  C   UNL     1      12.195 -52.344 -23.669  1.00  0.00    -0.022 A 
ATOM      6  C   UNL     1      11.723 -53.620 -23.329  1.00  0.00     0.032 A 
ATOM      7  C   UNL     1      12.073 -51.176 -22.734  1.00  0.00     0.164 C 
ATOM      8  N   UNL     1      11.829 -49.935 -23.453  1.00  0.00    -0.274 N 
ATOM      9  C   UNL     1      12.671 -49.624 -24.523  1.00  0.00     0.234 C 
ATOM     10  O   UNL     1      12.855 -48.477 -24.936  1.00  0.00    -0.274 OA
ATOM     11  C   UNL     1      13.393 -50.781 -25.203  1.00  0.00     0.136 C 
ENDROOT
BRANCH   1  12
ATOM     12  N   UNL     1      11.373 -55.945 -23.786  1.00  0.00    -0.322 N 
ATOM     13  C   UNL     1      11.028 -56.345 -22.511  1.00  0.00     0.259 C 
ATOM     14  O   UNL     1      11.113 -55.647 -21.505  1.00  0.00    -0.269 OA
ATOM     15  H   UNL     1      11.244 -56.644 -24.510  1.00  0.00     0.170 HD
BRANCH  13  16
ATOM     16  C   UNL     1      10.503 -57.753 -22.362  1.00  0.00     0.082 A 
ATOM     17  C   UNL     1       9.349 -58.264 -22.997  1.00  0.00     0.131 A 
ATOM     18  C   UNL     1       8.975 -59.598 -22.766  1.00  0.00     0.047 A 
ATOM     19  C   UNL     1       9.727 -60.421 -21.924  1.00  0.00     0.004 A 
ATOM     20  C   UNL     1      11.247 -58.603 -21.517  1.00  0.00     0.018 A 
ATOM     21  C   UNL     1      10.863 -59.924 -21.300  1.00  0.00     0.001 A 
BRANCH  17  22
ATOM     22  O   UNL     1       8.639 -57.419 -23.816  1.00  0.00    -0.496 OA
ATOM     23  C   UNL     1       7.323 -57.811 -24.199  1.00  0.00     0.278 C 
ENDBRANCH  17  22
ENDBRANCH  13  16
ENDBRANCH   1  12
BRANCH   8  24
ATOM     24  C   UNL     1      11.228 -48.927 -22.697  1.00  0.00     0.260 C 
ATOM     25  O   UNL     1      10.015 -48.883 -22.489  1.00  0.00    -0.269 OA
BRANCH  24  26
ATOM     26  C   UNL     1      12.083 -47.844 -22.136  1.00  0.00     0.041 A 
ATOM     27  C   UNL     1      11.661 -46.515 -22.274  1.00  0.00     0.014 A 
ATOM     28  C   UNL     1      13.317 -48.128 -21.542  1.00  0.00     0.034 A 
ATOM     29  C   UNL     1      12.454 -45.474 -21.789  1.00  0.00     0.002 A 
ATOM     30  C   UNL     1      14.102 -47.082 -21.060  1.00  0.00     0.041 A 
ATOM     31  C   UNL     1      13.676 -45.758 -21.178  1.00  0.00     0.020 A 
ATOM     32  Cl  UNL     1      15.619 -47.425 -20.323  1.00  0.00    -0.084 Cl
ENDBRANCH  24  26
ENDBRANCH   8  24
TORSDOF 5
ENDMDL
MODEL 5
REMARK VINA RESULT:   -11.517      3.904      9.974
REMARK INTER + INTRA:         -14.701
REMARK INTER:                 -14.021
REMARK INTRA:                  -0.680
REMARK UNBOUND:                 0.183
REMARK SMILES COc1ccccc1C(=O)Nc1ccc2c(c1)CN(C(=O)c1cccc(Cl)c1)C(=O)C2
REMARK SMILES IDX 12 1 13 2 14 3 15 4 16 5 17 6 18 7 19 8 29 9 30 10 31 11
REMARK SMILES IDX 11 12 9 13 10 14 8 16 3 17 4 18 5 19 7 20 6 21 2 22 1 23
REMARK SMILES IDX 20 24 21 25 22 26 23 27 28 28 24 29 26 30 25 31 27 32
REMARK H PARENT 11 15
ROOT
ATOM      1  C   UNL     1      10.848 -55.576 -22.673  1.00  0.00     0.041 A 
ATOM      2  C   UNL     1      10.594 -54.790 -21.548  1.00  0.00     0.026 A 
ATOM      3  C   UNL     1      10.876 -53.420 -21.557  1.00  0.00     0.007 A 
ATOM      4  C   UNL     1      11.431 -52.822 -22.690  1.00  0.00    -0.033 A 
ATOM      5  C   UNL     1      11.689 -53.597 -23.822  1.00  0.00    -0.022 A 
ATOM      6  C   UNL     1      11.393 -54.967 -23.812  1.00  0.00     0.032 A 
ATOM      7  C   UNL     1      12.233 -52.910 -25.040  1.00  0.00     0.164 C 
ATOM      8  N   UNL     1      13.180 -51.863 -24.689  1.00  0.00    -0.274 N 
ATOM      9  C   UNL     1      12.793 -50.927 -23.728  1.00  0.00     0.234 C 
ATOM     10  O   UNL     1      13.280 -49.799 -23.638  1.00  0.00    -0.274 OA
ATOM     11  C   UNL     1      11.705 -51.344 -22.746  1.00  0.00     0.136 C 
ENDROOT
BRANCH   1  12
ATOM     12  N   UNL     1      10.589 -56.958 -22.748  1.00  0.00    -0.322 N 
ATOM     13  C   UNL     1      11.203 -57.903 -23.544  1.00  0.00     0.259 C 
ATOM     14  O   UNL     1      12.110 -57.675 -24.339  1.00  0.00    -0.269 OA
ATOM     15  H   UNL     1       9.853 -57.310 -22.144  1.00  0.00     0.170 HD
BRANCH  13  16
ATOM     16  C   UNL     1      10.708 -59.324 -23.411  1.00  0.00     0.082 A 
ATOM     17  C   UNL     1       9.376 -59.700 -23.126  1.00  0.00     0.131 A 
ATOM     18  C   UNL     1       9.057 -61.064 -23.027  1.00  0.00     0.047 A 
ATOM     19  C   UNL     1      10.032 -62.047 -23.211  1.00  0.00     0.004 A 
ATOM     20  C   UNL     1      11.676 -60.333 -23.593  1.00  0.00     0.018 A 
ATOM     21  C   UNL     1      11.342 -61.682 -23.494  1.00  0.00     0.001 A 
BRANCH  17  22
ATOM     22  O   UNL     1       8.450 -58.700 -22.953  1.00  0.00    -0.496 OA
ATOM     23  C   UNL     1       7.373 -58.620 -23.883  1.00  0.00     0.278 C 
ENDBRANCH  17  22
ENDBRANCH  13  16
ENDBRANCH   1  12
BRANCH   8  24
ATOM     24  C   UNL     1      14.078 -51.520 -25.702  1.00  0.00     0.260 C 
ATOM     25  O   UNL     1      13.714 -51.164 -26.823  1.00  0.00    -0.269 OA
BRANCH  24  26
ATOM     26  C   UNL     1      15.539 -51.608 -25.427  1.00  0.00     0.041 A 
ATOM     27  C   UNL     1      16.122 -52.875 -25.287  1.00  0.00     0.014 A 
ATOM     28  C   UNL     1      16.313 -50.458 -25.239  1.00  0.00     0.034 A 
ATOM     29  C   UNL     1      17.481 -52.993 -24.995  1.00  0.00     0.002 A 
ATOM     30  C   UNL     1      17.670 -50.586 -24.949  1.00  0.00     0.041 A 
ATOM     31  C   UNL     1      18.258 -51.846 -24.829  1.00  0.00     0.020 A 
ATOM     32  Cl  UNL     1      18.630 -49.175 -24.724  1.00  0.00    -0.084 Cl
ENDBRANCH  24  26
ENDBRANCH   8  24
TORSDOF 5
ENDMDL
MODEL 6
REMARK VINA RESULT:   -11.512      4.671     11.343
REMARK INTER + INTRA:         -14.694
REMARK INTER:                 -14.657
REMARK INTRA:                  -0.037
REMARK UNBOUND:                 0.183
REMARK SMILES COc1ccccc1C(=O)Nc1ccc2c(c1)CN(C(=O)c1cccc(Cl)c1)C(=O)C2
REMARK SMILES IDX 12 1 13 2 14 3 15 4 16 5 17 6 18 7 19 8 29 9 30 10 31 11
REMARK SMILES IDX 11 12 9 13 10 14 8 16 3 17 4 18 5 19 7 20 6 21 2 22 1 23
REMARK SMILES IDX 20 24 21 25 22 26 23 27 28 28 24 29 26 30 25 31 27 32
REMARK H PARENT 11 15
ROOT
ATOM      1  C   UNL     1      11.804 -54.824 -24.179  1.00  0.00     0.041 A 
ATOM      2  C   UNL     1      12.486 -54.622 -25.379  1.00  0.00     0.026 A 
ATOM      3  C   UNL     1      12.988 -53.359 -25.711  1.00  0.00     0.007 A 
ATOM      4  C   UNL     1      12.798 -52.277 -24.849  1.00  0.00    -0.033 A 
ATOM      5  C   UNL     1      12.118 -52.467 -23.645  1.00  0.00    -0.022 A 
ATOM      6  C   UNL     1      11.628 -53.737 -23.312  1.00  0.00     0.032 A 
ATOM      7  C   UNL     1      11.982 -51.294 -22.719  1.00  0.00     0.164 C 
ATOM      8  N   UNL     1      11.764 -50.054 -23.448  1.00  0.00    -0.274 N 
ATOM      9  C   UNL     1      12.633 -49.753 -24.498  1.00  0.00     0.234 C 
ATOM     10  O   UNL     1      12.835 -48.609 -24.911  1.00  0.00    -0.274 OA
ATOM     11  C   UNL     1      13.363 -50.918 -25.157  1.00  0.00     0.136 C 
ENDROOT
BRANCH   1  12
ATOM     12  N   UNL     1      11.273 -56.062 -23.768  1.00  0.00    -0.322 N 
ATOM     13  C   UNL     1      11.021 -56.503 -22.485  1.00  0.00     0.259 C 
ATOM     14  O   UNL     1      11.225 -55.855 -21.463  1.00  0.00    -0.269 OA
ATOM     15  H   UNL     1      11.050 -56.721 -24.507  1.00  0.00     0.170 HD
BRANCH  13  16
ATOM     16  C   UNL     1      10.447 -57.894 -22.349  1.00  0.00     0.082 A 
ATOM     17  C   UNL     1       9.286 -58.364 -23.004  1.00  0.00     0.131 A 
ATOM     18  C   UNL     1       8.864 -59.685 -22.781  1.00  0.00     0.047 A 
ATOM     19  C   UNL     1       9.574 -60.534 -21.930  1.00  0.00     0.004 A 
ATOM     20  C   UNL     1      11.148 -58.769 -21.493  1.00  0.00     0.018 A 
ATOM     21  C   UNL     1      10.716 -60.077 -21.286  1.00  0.00     0.001 A 
BRANCH  17  22
ATOM     22  O   UNL     1       8.619 -57.494 -23.832  1.00  0.00    -0.496 OA
ATOM     23  C   UNL     1       7.282 -57.821 -24.205  1.00  0.00     0.278 C 
ENDBRANCH  17  22
ENDBRANCH  13  16
ENDBRANCH   1  12
BRANCH   8  24
ATOM     24  C   UNL     1      11.153 -49.038 -22.710  1.00  0.00     0.260 C 
ATOM     25  O   UNL     1       9.950 -49.039 -22.444  1.00  0.00    -0.269 OA
BRANCH  24  26
ATOM     26  C   UNL     1      11.981 -47.893 -22.241  1.00  0.00     0.041 A 
ATOM     27  C   UNL     1      13.169 -48.162 -21.548  1.00  0.00     0.014 A 
ATOM     28  C   UNL     1      11.560 -46.571 -22.420  1.00  0.00     0.034 A 
ATOM     29  C   UNL     1      13.952 -47.113 -21.066  1.00  0.00     0.002 A 
ATOM     30  C   UNL     1      12.349 -45.530 -21.934  1.00  0.00     0.041 A 
ATOM     31  C   UNL     1      13.543 -45.793 -21.262  1.00  0.00     0.020 A 
ATOM     32  Cl  UNL     1      11.839 -43.901 -22.157  1.00  0.00    -0.084 Cl
ENDBRANCH  24  26
ENDBRANCH   8  24
TORSDOF 5
ENDMDL
MODEL 7
REMARK VINA RESULT:   -11.505      2.505      3.789
REMARK INTER + INTRA:         -14.686
REMARK INTER:                 -13.643
REMARK INTRA:                  -1.043
REMARK UNBOUND:                 0.183
REMARK SMILES COc1ccccc1C(=O)Nc1ccc2c(c1)CN(C(=O)c1cccc(Cl)c1)C(=O)C2
REMARK SMILES IDX 12 1 13 2 14 3 15 4 16 5 17 6 18 7 19 8 29 9 30 10 31 11
REMARK SMILES IDX 11 12 9 13 10 14 8 16 3 17 4 18 5 19 7 20 6 21 2 22 1 23
REMARK SMILES IDX 20 24 21 25 22 26 23 27 28 28 24 29 26 30 25 31 27 32
REMARK H PARENT 11 15
ROOT
ATOM      1  C   UNL     1      11.313 -54.347 -23.850  1.00  0.00     0.041 A 
ATOM      2  C   UNL     1      10.146 -54.287 -23.087  1.00  0.00     0.026 A 
ATOM      3  C   UNL     1       9.596 -55.448 -22.534  1.00  0.00     0.007 A 
ATOM      4  C   UNL     1      10.201 -56.687 -22.750  1.00  0.00    -0.033 A 
ATOM      5  C   UNL     1      11.370 -56.760 -23.510  1.00  0.00    -0.022 A 
ATOM      6  C   UNL     1      11.924 -55.592 -24.053  1.00  0.00     0.032 A 
ATOM      7  C   UNL     1      12.023 -58.101 -23.675  1.00  0.00     0.164 C 
ATOM      8  N   UNL     1      11.041 -59.165 -23.814  1.00  0.00    -0.274 N 
ATOM      9  C   UNL     1      10.013 -59.231 -22.872  1.00  0.00     0.234 C 
ATOM     10  O   UNL     1       9.388 -60.262 -22.614  1.00  0.00    -0.274 OA
ATOM     11  C   UNL     1       9.659 -57.946 -22.132  1.00  0.00     0.136 C 
ENDROOT
BRANCH   1  12
ATOM     12  N   UNL     1      11.934 -53.227 -24.438  1.00  0.00    -0.322 N 
ATOM     13  C   UNL     1      12.420 -52.094 -23.818  1.00  0.00     0.259 C 
ATOM     14  O   UNL     1      12.388 -51.882 -22.610  1.00  0.00    -0.269 OA
ATOM     15  H   UNL     1      12.035 -53.249 -25.447  1.00  0.00     0.170 HD
BRANCH  13  16
ATOM     16  C   UNL     1      13.037 -51.046 -24.714  1.00  0.00     0.082 A 
ATOM     17  C   UNL     1      13.826 -51.312 -25.855  1.00  0.00     0.131 A 
ATOM     18  C   UNL     1      14.340 -50.235 -26.597  1.00  0.00     0.047 A 
ATOM     19  C   UNL     1      14.079 -48.915 -26.224  1.00  0.00     0.004 A 
ATOM     20  C   UNL     1      12.786 -49.705 -24.357  1.00  0.00     0.018 A 
ATOM     21  C   UNL     1      13.303 -48.649 -25.105  1.00  0.00     0.001 A 
BRANCH  17  22
ATOM     22  O   UNL     1      14.058 -52.626 -26.185  1.00  0.00    -0.496 OA
ATOM     23  C   UNL     1      15.203 -53.262 -25.624  1.00  0.00     0.278 C 
ENDBRANCH  17  22
ENDBRANCH  13  16
ENDBRANCH   1  12
BRANCH   8  24
ATOM     24  C   UNL     1      11.510 -60.319 -24.444  1.00  0.00     0.260 C 
ATOM     25  O   UNL     1      12.418 -61.009 -23.980  1.00  0.00    -0.269 OA
BRANCH  24  26
ATOM     26  C   UNL     1      10.907 -60.724 -25.743  1.00  0.00     0.041 A 
ATOM     27  C   UNL     1      11.373 -60.119 -26.919  1.00  0.00     0.014 A 
ATOM     28  C   UNL     1       9.846 -61.635 -25.800  1.00  0.00     0.034 A 
ATOM     29  C   UNL     1      10.806 -60.451 -28.150  1.00  0.00     0.002 A 
ATOM     30  C   UNL     1       9.287 -61.959 -27.034  1.00  0.00     0.041 A 
ATOM     31  C   UNL     1       9.763 -61.375 -28.208  1.00  0.00     0.020 A 
ATOM     32  Cl  UNL     1       7.986 -63.085 -27.110  1.00  0.00    -0.084 Cl
ENDBRANCH  24  26
ENDBRANCH   8  24
TORSDOF 5
ENDMDL
MODEL 8
REMARK VINA RESULT:   -11.244      3.701      6.818
REMARK INTER + INTRA:         -14.348
REMARK INTER:                 -14.099
REMARK INTRA:                  -0.249
REMARK UNBOUND:                 0.183
REMARK SMILES COc1ccccc1C(=O)Nc1ccc2c(c1)CN(C(=O)c1cccc(Cl)c1)C(=O)C2
REMARK SMILES IDX 12 1 13 2 14 3 15 4 16 5 17 6 18 7 19 8 29 9 30 10 31 11
REMARK SMILES IDX 11 12 9 13 10 14 8 16 3 17 4 18 5 19 7 20 6 21 2 22 1 23
REMARK SMILES IDX 20 24 21 25 22 26 23 27 28 28 24 29 26 30 25 31 27 32
REMARK H PARENT 11 15
ROOT
ATOM      1  C   UNL     1      12.513 -51.315 -24.181  1.00  0.00     0.041 A 
ATOM      2  C   UNL     1      13.292 -51.698 -25.274  1.00  0.00     0.026 A 
ATOM      3  C   UNL     1      13.281 -53.021 -25.729  1.00  0.00     0.007 A 
ATOM      4  C   UNL     1      12.500 -53.981 -25.084  1.00  0.00    -0.033 A 
ATOM      5  C   UNL     1      11.716 -53.610 -23.990  1.00  0.00    -0.022 A 
ATOM      6  C   UNL     1      11.720 -52.280 -23.547  1.00  0.00     0.032 A 
ATOM      7  C   UNL     1      10.847 -54.657 -23.357  1.00  0.00     0.164 C 
ATOM      8  N   UNL     1      11.501 -55.955 -23.329  1.00  0.00    -0.274 N 
ATOM      9  C   UNL     1      12.058 -56.432 -24.517  1.00  0.00     0.234 C 
ATOM     10  O   UNL     1      12.257 -57.626 -24.748  1.00  0.00    -0.274 OA
ATOM     11  C   UNL     1      12.434 -55.401 -25.575  1.00  0.00     0.136 C 
ENDROOT
BRANCH   1  12
ATOM     12  N   UNL     1      12.462 -50.006 -23.665  1.00  0.00    -0.322 N 
ATOM     13  C   UNL     1      11.512 -49.448 -22.834  1.00  0.00     0.259 C 
ATOM     14  O   UNL     1      10.526 -50.034 -22.396  1.00  0.00    -0.269 OA
ATOM     15  H   UNL     1      13.217 -49.386 -23.940  1.00  0.00     0.170 HD
BRANCH  13  16
ATOM     16  C   UNL     1      11.719 -48.004 -22.442  1.00  0.00     0.082 A 
ATOM     17  C   UNL     1      12.930 -47.456 -21.961  1.00  0.00     0.131 A 
ATOM     18  C   UNL     1      12.979 -46.092 -21.631  1.00  0.00     0.047 A 
ATOM     19  C   UNL     1      11.856 -45.275 -21.775  1.00  0.00     0.004 A 
ATOM     20  C   UNL     1      10.597 -47.161 -22.580  1.00  0.00     0.018 A 
ATOM     21  C   UNL     1      10.665 -45.809 -22.249  1.00  0.00     0.001 A 
BRANCH  17  22
ATOM     22  O   UNL     1      14.010 -48.296 -21.835  1.00  0.00    -0.496 OA
ATOM     23  C   UNL     1      15.212 -47.945 -22.517  1.00  0.00     0.278 C 
ENDBRANCH  17  22
ENDBRANCH  13  16
ENDBRANCH   1  12
BRANCH   8  24
ATOM     24  C   UNL     1      11.015 -56.837 -22.362  1.00  0.00     0.260 C 
ATOM     25  O   UNL     1      11.454 -56.873 -21.212  1.00  0.00    -0.269 OA
BRANCH  24  26
ATOM     26  C   UNL     1       9.937 -57.792 -22.738  1.00  0.00     0.041 A 
ATOM     27  C   UNL     1       8.747 -57.284 -23.277  1.00  0.00     0.014 A 
ATOM     28  C   UNL     1      10.065 -59.165 -22.498  1.00  0.00     0.034 A 
ATOM     29  C   UNL     1       7.703 -58.148 -23.609  1.00  0.00     0.002 A 
ATOM     30  C   UNL     1       9.017 -60.019 -22.833  1.00  0.00     0.041 A 
ATOM     31  C   UNL     1       7.839 -59.520 -23.389  1.00  0.00     0.020 A 
ATOM     32  Cl  UNL     1       9.171 -61.710 -22.546  1.00  0.00    -0.084 Cl
ENDBRANCH  24  26
ENDBRANCH   8  24
TORSDOF 5
ENDMDL
MODEL 9
REMARK VINA RESULT:   -10.795      2.234      3.091
REMARK INTER + INTRA:         -13.767
REMARK INTER:                 -14.951
REMARK INTRA:                   1.184
REMARK UNBOUND:                 0.183
REMARK SMILES COc1ccccc1C(=O)Nc1ccc2c(c1)CN(C(=O)c1cccc(Cl)c1)C(=O)C2
REMARK SMILES IDX 12 1 13 2 14 3 15 4 16 5 17 6 18 7 19 8 29 9 30 10 31 11
REMARK SMILES IDX 11 12 9 13 10 14 8 16 3 17 4 18 5 19 7 20 6 21 2 22 1 23
REMARK SMILES IDX 20 24 21 25 22 26 23 27 28 28 24 29 26 30 25 31 27 32
REMARK H PARENT 11 15
ROOT
ATOM      1  C   UNL     1      11.339 -55.512 -22.531  1.00  0.00     0.041 A 
ATOM      2  C   UNL     1      11.260 -56.185 -21.311  1.00  0.00     0.026 A 
ATOM      3  C   UNL     1      11.360 -57.579 -21.258  1.00  0.00     0.007 A 
ATOM      4  C   UNL     1      11.525 -58.319 -22.430  1.00  0.00    -0.033 A 
ATOM      5  C   UNL     1      11.607 -57.657 -23.657  1.00  0.00    -0.022 A 
ATOM      6  C   UNL     1      11.519 -56.259 -23.703  1.00  0.00     0.032 A 
ATOM      7  C   UNL     1      11.841 -58.481 -24.890  1.00  0.00     0.164 C 
ATOM      8  N   UNL     1      11.128 -59.747 -24.834  1.00  0.00    -0.274 N 
ATOM      9  C   UNL     1      11.274 -60.528 -23.686  1.00  0.00     0.234 C 
ATOM     10  O   UNL     1      11.093 -61.748 -23.662  1.00  0.00    -0.274 OA
ATOM     11  C   UNL     1      11.680 -59.815 -22.402  1.00  0.00     0.136 C 
ENDROOT
BRANCH   1  12
ATOM     12  N   UNL     1      11.253 -54.113 -22.671  1.00  0.00    -0.322 N 
ATOM     13  C   UNL     1      10.757 -53.191 -21.772  1.00  0.00     0.259 C 
ATOM     14  O   UNL     1      10.299 -53.460 -20.665  1.00  0.00    -0.269 OA
ATOM     15  H   UNL     1      11.595 -53.728 -23.545  1.00  0.00     0.170 HD
BRANCH  13  16
ATOM     16  C   UNL     1      10.790 -51.743 -22.200  1.00  0.00     0.082 A 
ATOM     17  C   UNL     1      11.838 -51.132 -22.926  1.00  0.00     0.131 A 
ATOM     18  C   UNL     1      11.738 -49.771 -23.255  1.00  0.00     0.047 A 
ATOM     19  C   UNL     1      10.621 -49.020 -22.881  1.00  0.00     0.004 A 
ATOM     20  C   UNL     1       9.673 -50.966 -21.833  1.00  0.00     0.018 A 
ATOM     21  C   UNL     1       9.589 -49.616 -22.170  1.00  0.00     0.001 A 
BRANCH  17  22
ATOM     22  O   UNL     1      12.918 -51.909 -23.273  1.00  0.00    -0.496 OA
ATOM     23  C   UNL     1      14.215 -51.324 -23.189  1.00  0.00     0.278 C 
ENDBRANCH  17  22
ENDBRANCH  13  16
ENDBRANCH   1  12
BRANCH   8  24
ATOM     24  C   UNL     1      10.882 -60.337 -26.075  1.00  0.00     0.260 C 
ATOM     25  O   UNL     1      11.542 -60.074 -27.081  1.00  0.00    -0.269 OA
BRANCH  24  26
ATOM     26  C   UNL     1       9.761 -61.309 -26.198  1.00  0.00     0.041 A 
ATOM     27  C   UNL     1       8.944 -61.539 -25.082  1.00  0.00     0.014 A 
ATOM     28  C   UNL     1       9.556 -62.038 -27.375  1.00  0.00     0.034 A 
ATOM     29  C   UNL     1       7.906 -62.469 -25.153  1.00  0.00     0.002 A 
ATOM     30  C   UNL     1       8.517 -62.964 -27.435  1.00  0.00     0.041 A 
ATOM     31  C   UNL     1       7.689 -63.181 -26.333  1.00  0.00     0.020 A 
ATOM     32  Cl  UNL     1       8.257 -63.859 -28.883  1.00  0.00    -0.084 Cl
ENDBRANCH  24  26
ENDBRANCH   8  24
TORSDOF 5
ENDMDL
