MODEL 1
REMARK VINA RESULT:   -12.982      0.000      0.000
REMARK INTER + INTRA:         -19.358
REMARK INTER:                 -18.673
REMARK INTRA:                  -0.684
REMARK UNBOUND:                -0.684
REMARK SMILES Cc1cc(=O)[nH]c2c1C(=O)C(=NCCCCNc1c3c(nc4cc(Cl)ccc14)CCCC3)C=C2O
REMARK SMILES IDX 14 1 13 2 12 3 11 4 34 5 33 6 7 7 6 8 8 9 9 10 4 11 2 12
REMARK SMILES IDX 3 13 10 15 5 16 1 17 35 18 15 20 16 21 17 22 18 24 19 25
REMARK SMILES IDX 28 26 20 27 32 28 27 29 22 30 21 31 29 32 31 33 26 34 23 35
REMARK SMILES IDX 30 36 24 37 25 38
REMARK H PARENT 6 14 35 19 17 23
ROOT
ATOM      1  C   UNL     1      11.044 -57.739 -21.623  1.00  0.00     0.025 C 
ENDROOT
BRANCH   1   2
ATOM      2  C   UNL     1      10.250 -57.077 -22.747  1.00  0.00     0.143 C 
BRANCH   2   3
ATOM      3  N   UNL     1      11.096 -56.146 -23.485  1.00  0.00    -0.281 NA
BRANCH   3   4
ATOM      4  C   UNL     1      10.856 -54.884 -23.491  1.00  0.00     0.109 C 
ATOM      5  C   UNL     1       9.990 -52.832 -22.558  1.00  0.00     0.142 C 
ATOM      6  C   UNL     1       9.819 -54.144 -22.735  1.00  0.00     0.080 C 
ATOM      7  C   UNL     1      11.174 -52.122 -23.005  1.00  0.00     0.095 A 
ATOM      8  N   UNL     1      11.419 -50.881 -22.458  1.00  0.00    -0.319 N 
ATOM      9  C   UNL     1      12.030 -52.634 -23.912  1.00  0.00     0.055 A 
ATOM     10  C   UNL     1      11.723 -54.009 -24.407  1.00  0.00     0.213 C 
ATOM     11  C   UNL     1      12.493 -50.094 -22.783  1.00  0.00     0.248 A 
ATOM     12  C   UNL     1      13.184 -51.851 -24.357  1.00  0.00    -0.032 A 
ATOM     13  C   UNL     1      13.402 -50.635 -23.821  1.00  0.00     0.075 A 
ATOM     14  H   UNL     1      10.857 -50.536 -21.690  1.00  0.00     0.170 HD
ATOM     15  O   UNL     1      12.094 -54.436 -25.491  1.00  0.00    -0.287 OA
ATOM     16  O   UNL     1      12.697 -49.009 -22.255  1.00  0.00    -0.270 OA
ATOM     17  C   UNL     1      14.121 -52.411 -25.388  1.00  0.00     0.045 C 
BRANCH   5  18
ATOM     18  O   UNL     1       9.010 -52.090 -21.932  1.00  0.00    -0.506 OA
ATOM     19  H   UNL     1       8.216 -52.649 -21.848  1.00  0.00     0.293 HD
ENDBRANCH   5  18
ENDBRANCH   3   4
ENDBRANCH   2   3
ENDBRANCH   1   2
BRANCH   1  20
ATOM     20  C   UNL     1      11.404 -59.210 -21.872  1.00  0.00     0.023 C 
BRANCH  20  21
ATOM     21  C   UNL     1      12.171 -59.470 -23.171  1.00  0.00     0.113 C 
BRANCH  21  22
ATOM     22  N   UNL     1      12.146 -60.911 -23.481  1.00  0.00    -0.384 N 
ATOM     23  H   UNL     1      11.977 -61.442 -22.630  1.00  0.00     0.160 HD
BRANCH  22  24
ATOM     24  C   UNL     1      11.139 -61.217 -24.442  1.00  0.00     0.049 A 
ATOM     25  C   UNL     1       9.938 -61.839 -24.070  1.00  0.00    -0.003 A 
ATOM     26  C   UNL     1      11.310 -60.798 -25.790  1.00  0.00     0.024 A 
ATOM     27  C   UNL     1       8.959 -62.005 -25.053  1.00  0.00     0.046 A 
ATOM     28  C   UNL     1       9.585 -62.287 -22.675  1.00  0.00     0.039 C 
ATOM     29  C   UNL     1      12.491 -60.185 -26.264  1.00  0.00     0.014 A 
ATOM     30  C   UNL     1      10.251 -61.024 -26.696  1.00  0.00     0.074 A 
ATOM     31  N   UNL     1       9.100 -61.609 -26.337  1.00  0.00    -0.252 NA
ATOM     32  C   UNL     1       7.641 -62.622 -24.659  1.00  0.00     0.056 C 
ATOM     33  C   UNL     1       8.896 -63.656 -22.675  1.00  0.00     0.005 C 
ATOM     34  C   UNL     1      12.616 -59.790 -27.595  1.00  0.00     0.021 A 
ATOM     35  C   UNL     1      10.392 -60.624 -28.016  1.00  0.00     0.049 A 
ATOM     36  C   UNL     1       7.865 -63.858 -23.793  1.00  0.00     0.007 C 
ATOM     37  C   UNL     1      11.559 -60.012 -28.465  1.00  0.00     0.043 A 
ATOM     38  Cl  UNL     1      11.696 -59.532 -30.113  1.00  0.00    -0.084 Cl
ENDBRANCH  22  24
ENDBRANCH  21  22
ENDBRANCH  20  21
ENDBRANCH   1  20
TORSDOF 8
ENDMDL
MODEL 2
REMARK VINA RESULT:   -12.611      1.791      3.670
REMARK INTER + INTRA:         -18.824
REMARK INTER:                 -17.599
REMARK INTRA:                  -1.225
REMARK UNBOUND:                -0.684
REMARK SMILES Cc1cc(=O)[nH]c2c1C(=O)C(=NCCCCNc1c3c(nc4cc(Cl)ccc14)CCCC3)C=C2O
REMARK SMILES IDX 14 1 13 2 12 3 11 4 34 5 33 6 7 7 6 8 8 9 9 10 4 11 2 12
REMARK SMILES IDX 3 13 10 15 5 16 1 17 35 18 15 20 16 21 17 22 18 24 19 25
REMARK SMILES IDX 28 26 20 27 32 28 27 29 22 30 21 31 29 32 31 33 26 34 23 35
REMARK SMILES IDX 30 36 24 37 25 38
REMARK H PARENT 6 14 35 19 17 23
ROOT
ATOM      1  C   UNL     1      10.888 -58.698 -22.146  1.00  0.00     0.025 C 
ENDROOT
BRANCH   1   2
ATOM      2  C   UNL     1      11.006 -57.210 -21.819  1.00  0.00     0.143 C 
BRANCH   2   3
ATOM      3  N   UNL     1      11.378 -56.457 -23.011  1.00  0.00    -0.281 NA
BRANCH   3   4
ATOM      4  C   UNL     1      11.004 -55.240 -23.178  1.00  0.00     0.109 C 
ATOM      5  C   UNL     1       9.948 -53.179 -22.497  1.00  0.00     0.142 C 
ATOM      6  C   UNL     1       9.915 -54.513 -22.486  1.00  0.00     0.080 C 
ATOM      7  C   UNL     1      11.035 -52.419 -23.087  1.00  0.00     0.095 A 
ATOM      8  N   UNL     1      11.160 -51.095 -22.724  1.00  0.00    -0.319 N 
ATOM      9  C   UNL     1      11.915 -52.962 -23.951  1.00  0.00     0.055 A 
ATOM     10  C   UNL     1      11.745 -54.417 -24.241  1.00  0.00     0.213 C 
ATOM     11  C   UNL     1      12.133 -50.255 -23.199  1.00  0.00     0.248 A 
ATOM     12  C   UNL     1      12.965 -52.134 -24.547  1.00  0.00    -0.032 A 
ATOM     13  C   UNL     1      13.065 -50.839 -24.191  1.00  0.00     0.075 A 
ATOM     14  H   UNL     1      10.586 -50.706 -21.986  1.00  0.00     0.170 HD
ATOM     15  O   UNL     1      12.129 -54.950 -25.272  1.00  0.00    -0.287 OA
ATOM     16  O   UNL     1      12.234 -49.092 -22.831  1.00  0.00    -0.270 OA
ATOM     17  C   UNL     1      13.928 -52.733 -25.532  1.00  0.00     0.045 C 
BRANCH   5  18
ATOM     18  O   UNL     1       8.911 -52.461 -21.936  1.00  0.00    -0.506 OA
ATOM     19  H   UNL     1       9.266 -51.967 -21.173  1.00  0.00     0.293 HD
ENDBRANCH   5  18
ENDBRANCH   3   4
ENDBRANCH   2   3
ENDBRANCH   1   2
BRANCH   1  20
ATOM     20  C   UNL     1      12.183 -59.348 -22.651  1.00  0.00     0.023 C 
BRANCH  20  21
ATOM     21  C   UNL     1      12.134 -59.830 -24.103  1.00  0.00     0.113 C 
BRANCH  21  22
ATOM     22  N   UNL     1      11.095 -59.086 -24.838  1.00  0.00    -0.384 N 
ATOM     23  H   UNL     1      11.443 -58.160 -25.079  1.00  0.00     0.160 HD
BRANCH  22  24
ATOM     24  C   UNL     1      10.705 -59.772 -26.024  1.00  0.00     0.049 A 
ATOM     25  C   UNL     1      11.316 -59.505 -27.259  1.00  0.00    -0.003 A 
ATOM     26  C   UNL     1       9.747 -60.819 -25.941  1.00  0.00     0.024 A 
ATOM     27  C   UNL     1      10.953 -60.298 -28.350  1.00  0.00     0.046 A 
ATOM     28  C   UNL     1      12.387 -58.471 -27.494  1.00  0.00     0.039 C 
ATOM     29  C   UNL     1       9.062 -61.147 -24.749  1.00  0.00     0.014 A 
ATOM     30  C   UNL     1       9.457 -61.550 -27.114  1.00  0.00     0.074 A 
ATOM     31  N   UNL     1      10.048 -61.300 -28.290  1.00  0.00    -0.252 NA
ATOM     32  C   UNL     1      11.638 -60.062 -29.672  1.00  0.00     0.056 C 
ATOM     33  C   UNL     1      12.158 -57.705 -28.802  1.00  0.00     0.005 C 
ATOM     34  C   UNL     1       8.129 -62.181 -24.714  1.00  0.00     0.021 A 
ATOM     35  C   UNL     1       8.526 -62.576 -27.060  1.00  0.00     0.049 A 
ATOM     36  C   UNL     1      11.700 -58.569 -29.983  1.00  0.00     0.007 C 
ATOM     37  C   UNL     1       7.868 -62.894 -25.875  1.00  0.00     0.043 A 
ATOM     38  Cl  UNL     1       6.717 -64.174 -25.850  1.00  0.00    -0.084 Cl
ENDBRANCH  22  24
ENDBRANCH  21  22
ENDBRANCH  20  21
ENDBRANCH   1  20
TORSDOF 8
ENDMDL
MODEL 3
REMARK VINA RESULT:   -12.050      1.259      2.159
REMARK INTER + INTRA:         -18.017
REMARK INTER:                 -17.215
REMARK INTRA:                  -0.802
REMARK UNBOUND:                -0.684
REMARK SMILES Cc1cc(=O)[nH]c2c1C(=O)C(=NCCCCNc1c3c(nc4cc(Cl)ccc14)CCCC3)C=C2O
REMARK SMILES IDX 14 1 13 2 12 3 11 4 34 5 33 6 7 7 6 8 8 9 9 10 4 11 2 12
REMARK SMILES IDX 3 13 10 15 5 16 1 17 35 18 15 20 16 21 17 22 18 24 19 25
REMARK SMILES IDX 28 26 20 27 32 28 27 29 22 30 21 31 29 32 31 33 26 34 23 35
REMARK SMILES IDX 30 36 24 37 25 38
REMARK H PARENT 6 14 35 19 17 23
ROOT
ATOM      1  C   UNL     1      11.032 -57.193 -21.930  1.00  0.00     0.025 C 
ENDROOT
BRANCH   1   2
ATOM      2  C   UNL     1      10.049 -57.014 -23.086  1.00  0.00     0.143 C 
BRANCH   2   3
ATOM      3  N   UNL     1       9.935 -55.604 -23.439  1.00  0.00    -0.281 NA
BRANCH   3   4
ATOM      4  C   UNL     1      10.972 -54.893 -23.703  1.00  0.00     0.109 C 
ATOM      5  C   UNL     1      12.717 -54.046 -25.140  1.00  0.00     0.142 C 
ATOM      6  C   UNL     1      11.969 -55.091 -24.780  1.00  0.00     0.080 C 
ATOM      7  C   UNL     1      12.544 -52.719 -24.578  1.00  0.00     0.095 A 
ATOM      8  N   UNL     1      13.092 -51.658 -25.266  1.00  0.00    -0.319 N 
ATOM      9  C   UNL     1      11.867 -52.496 -23.434  1.00  0.00     0.055 A 
ATOM     10  C   UNL     1      11.252 -53.694 -22.787  1.00  0.00     0.213 C 
ATOM     11  C   UNL     1      13.012 -50.352 -24.858  1.00  0.00     0.248 A 
ATOM     12  C   UNL     1      11.763 -51.140 -22.893  1.00  0.00    -0.032 A 
ATOM     13  C   UNL     1      12.316 -50.116 -23.572  1.00  0.00     0.075 A 
ATOM     14  H   UNL     1      13.496 -51.792 -26.185  1.00  0.00     0.170 HD
ATOM     15  O   UNL     1      11.006 -53.765 -21.592  1.00  0.00    -0.287 OA
ATOM     16  O   UNL     1      13.484 -49.430 -25.510  1.00  0.00    -0.270 OA
ATOM     17  C   UNL     1      11.033 -50.898 -21.604  1.00  0.00     0.045 C 
BRANCH   5  18
ATOM     18  O   UNL     1      13.714 -54.206 -26.081  1.00  0.00    -0.506 OA
ATOM     19  H   UNL     1      13.290 -54.321 -26.951  1.00  0.00     0.293 HD
ENDBRANCH   5  18
ENDBRANCH   3   4
ENDBRANCH   2   3
ENDBRANCH   1   2
BRANCH   1  20
ATOM     20  C   UNL     1      11.638 -58.598 -21.816  1.00  0.00     0.023 C 
BRANCH  20  21
ATOM     21  C   UNL     1      10.702 -59.736 -22.231  1.00  0.00     0.113 C 
BRANCH  21  22
ATOM     22  N   UNL     1      11.434 -60.696 -23.076  1.00  0.00    -0.384 N 
ATOM     23  H   UNL     1      11.717 -61.498 -22.518  1.00  0.00     0.160 HD
BRANCH  22  24
ATOM     24  C   UNL     1      10.635 -61.137 -24.172  1.00  0.00     0.049 A 
ATOM     25  C   UNL     1       9.475 -61.900 -23.971  1.00  0.00    -0.003 A 
ATOM     26  C   UNL     1      10.963 -60.715 -25.488  1.00  0.00     0.024 A 
ATOM     27  C   UNL     1       8.690 -62.197 -25.088  1.00  0.00     0.046 A 
ATOM     28  C   UNL     1       8.964 -62.372 -22.634  1.00  0.00     0.039 C 
ATOM     29  C   UNL     1      12.121 -59.964 -25.793  1.00  0.00     0.014 A 
ATOM     30  C   UNL     1      10.095 -61.081 -26.540  1.00  0.00     0.074 A 
ATOM     31  N   UNL     1       8.982 -61.801 -26.345  1.00  0.00    -0.252 NA
ATOM     32  C   UNL     1       7.411 -62.969 -24.884  1.00  0.00     0.056 C 
ATOM     33  C   UNL     1       8.455 -63.817 -22.699  1.00  0.00     0.005 C 
ATOM     34  C   UNL     1      12.404 -59.572 -27.100  1.00  0.00     0.021 A 
ATOM     35  C   UNL     1      10.392 -60.682 -27.834  1.00  0.00     0.049 A 
ATOM     36  C   UNL     1       7.645 -64.158 -23.956  1.00  0.00     0.007 C 
ATOM     37  C   UNL     1      11.533 -59.933 -28.116  1.00  0.00     0.043 A 
ATOM     38  Cl  UNL     1      11.867 -59.459 -29.736  1.00  0.00    -0.084 Cl
ENDBRANCH  22  24
ENDBRANCH  21  22
ENDBRANCH  20  21
ENDBRANCH   1  20
TORSDOF 8
ENDMDL
MODEL 4
REMARK VINA RESULT:   -11.297      4.304     10.948
REMARK INTER + INTRA:         -16.934
REMARK INTER:                 -16.382
REMARK INTRA:                  -0.553
REMARK UNBOUND:                -0.684
REMARK SMILES Cc1cc(=O)[nH]c2c1C(=O)C(=NCCCCNc1c3c(nc4cc(Cl)ccc14)CCCC3)C=C2O
REMARK SMILES IDX 14 1 13 2 12 3 11 4 34 5 33 6 7 7 6 8 8 9 9 10 4 11 2 12
REMARK SMILES IDX 3 13 10 15 5 16 1 17 35 18 15 20 16 21 17 22 18 24 19 25
REMARK SMILES IDX 28 26 20 27 32 28 27 29 22 30 21 31 29 32 31 33 26 34 23 35
REMARK SMILES IDX 30 36 24 37 25 38
REMARK H PARENT 6 14 35 19 17 23
ROOT
ATOM      1  C   UNL     1      10.703 -54.713 -23.123  1.00  0.00     0.025 C 
ENDROOT
BRANCH   1   2
ATOM      2  C   UNL     1      10.238 -56.004 -22.452  1.00  0.00     0.143 C 
BRANCH   2   3
ATOM      3  N   UNL     1       9.940 -57.018 -23.456  1.00  0.00    -0.281 NA
BRANCH   3   4
ATOM      4  C   UNL     1       9.096 -57.960 -23.227  1.00  0.00     0.109 C 
ATOM      5  C   UNL     1       6.921 -59.002 -23.339  1.00  0.00     0.142 C 
ATOM      6  C   UNL     1       7.618 -57.874 -23.183  1.00  0.00     0.080 C 
ATOM      7  C   UNL     1       7.542 -60.282 -23.623  1.00  0.00     0.095 A 
ATOM      8  N   UNL     1       6.740 -61.283 -24.127  1.00  0.00    -0.319 N 
ATOM      9  C   UNL     1       8.855 -60.513 -23.425  1.00  0.00     0.055 A 
ATOM     10  C   UNL     1       9.662 -59.355 -22.936  1.00  0.00     0.213 C 
ATOM     11  C   UNL     1       7.184 -62.541 -24.440  1.00  0.00     0.248 A 
ATOM     12  C   UNL     1       9.416 -61.839 -23.689  1.00  0.00    -0.032 A 
ATOM     13  C   UNL     1       8.615 -62.810 -24.169  1.00  0.00     0.075 A 
ATOM     14  H   UNL     1       5.783 -61.091 -24.396  1.00  0.00     0.170 HD
ATOM     15  O   UNL     1      10.703 -59.475 -22.305  1.00  0.00    -0.287 OA
ATOM     16  O   UNL     1       6.450 -63.398 -24.915  1.00  0.00    -0.270 OA
ATOM     17  C   UNL     1      10.874 -62.102 -23.441  1.00  0.00     0.045 C 
BRANCH   5  18
ATOM     18  O   UNL     1       5.546 -58.982 -23.223  1.00  0.00    -0.506 OA
ATOM     19  H   UNL     1       5.169 -58.911 -24.119  1.00  0.00     0.293 HD
ENDBRANCH   5  18
ENDBRANCH   3   4
ENDBRANCH   2   3
ENDBRANCH   1   2
BRANCH   1  20
ATOM     20  C   UNL     1      10.586 -53.458 -22.248  1.00  0.00     0.023 C 
BRANCH  20  21
ATOM     21  C   UNL     1      10.757 -52.135 -22.999  1.00  0.00     0.113 C 
BRANCH  21  22
ATOM     22  N   UNL     1      11.917 -51.405 -22.460  1.00  0.00    -0.384 N 
ATOM     23  H   UNL     1      12.653 -52.063 -22.213  1.00  0.00     0.160 HD
BRANCH  22  24
ATOM     24  C   UNL     1      12.420 -50.460 -23.402  1.00  0.00     0.049 A 
ATOM     25  C   UNL     1      13.328 -50.839 -24.403  1.00  0.00    -0.003 A 
ATOM     26  C   UNL     1      11.921 -49.130 -23.391  1.00  0.00     0.024 A 
ATOM     27  C   UNL     1      13.686 -49.879 -25.353  1.00  0.00     0.046 A 
ATOM     28  C   UNL     1      13.900 -52.221 -24.582  1.00  0.00     0.039 C 
ATOM     29  C   UNL     1      11.023 -48.650 -22.411  1.00  0.00     0.014 A 
ATOM     30  C   UNL     1      12.360 -48.246 -24.401  1.00  0.00     0.074 A 
ATOM     31  N   UNL     1      13.219 -48.612 -25.362  1.00  0.00    -0.252 NA
ATOM     32  C   UNL     1      14.617 -50.282 -26.468  1.00  0.00     0.056 C 
ATOM     33  C   UNL     1      15.394 -52.177 -24.923  1.00  0.00     0.005 C 
ATOM     34  C   UNL     1      10.559 -47.336 -22.438  1.00  0.00     0.021 A 
ATOM     35  C   UNL     1      11.888 -46.942 -24.413  1.00  0.00     0.049 A 
ATOM     36  C   UNL     1      15.795 -51.082 -25.920  1.00  0.00     0.007 C 
ATOM     37  C   UNL     1      10.995 -46.488 -23.445  1.00  0.00     0.043 A 
ATOM     38  Cl  UNL     1      10.433 -44.862 -23.494  1.00  0.00    -0.084 Cl
ENDBRANCH  22  24
ENDBRANCH  21  22
ENDBRANCH  20  21
ENDBRANCH   1  20
TORSDOF 8
ENDMDL
MODEL 5
REMARK VINA RESULT:   -11.283      4.052     10.867
REMARK INTER + INTRA:         -16.914
REMARK INTER:                 -16.274
REMARK INTRA:                  -0.640
REMARK UNBOUND:                -0.684
REMARK SMILES Cc1cc(=O)[nH]c2c1C(=O)C(=NCCCCNc1c3c(nc4cc(Cl)ccc14)CCCC3)C=C2O
REMARK SMILES IDX 14 1 13 2 12 3 11 4 34 5 33 6 7 7 6 8 8 9 9 10 4 11 2 12
REMARK SMILES IDX 3 13 10 15 5 16 1 17 35 18 15 20 16 21 17 22 18 24 19 25
REMARK SMILES IDX 28 26 20 27 32 28 27 29 22 30 21 31 29 32 31 33 26 34 23 35
REMARK SMILES IDX 30 36 24 37 25 38
REMARK H PARENT 6 14 35 19 17 23
ROOT
ATOM      1  C   UNL     1      10.974 -53.135 -22.632  1.00  0.00     0.025 C 
ENDROOT
BRANCH   1   2
ATOM      2  C   UNL     1      10.115 -54.383 -22.836  1.00  0.00     0.143 C 
BRANCH   2   3
ATOM      3  N   UNL     1      10.806 -55.338 -23.694  1.00  0.00    -0.281 NA
BRANCH   3   4
ATOM      4  C   UNL     1      11.216 -56.469 -23.243  1.00  0.00     0.109 C 
ATOM      5  C   UNL     1      11.268 -58.283 -21.651  1.00  0.00     0.142 C 
ATOM      6  C   UNL     1      11.181 -56.966 -21.848  1.00  0.00     0.080 C 
ATOM      7  C   UNL     1      11.318 -59.244 -22.737  1.00  0.00     0.095 A 
ATOM      8  N   UNL     1      11.033 -60.559 -22.442  1.00  0.00    -0.319 N 
ATOM      9  C   UNL     1      11.617 -58.893 -24.005  1.00  0.00     0.055 A 
ATOM     10  C   UNL     1      11.851 -57.438 -24.249  1.00  0.00     0.213 C 
ATOM     11  C   UNL     1      11.042 -61.575 -23.361  1.00  0.00     0.248 A 
ATOM     12  C   UNL     1      11.695 -59.914 -25.051  1.00  0.00    -0.032 A 
ATOM     13  C   UNL     1      11.426 -61.197 -24.741  1.00  0.00     0.075 A 
ATOM     14  H   UNL     1      10.688 -60.819 -21.525  1.00  0.00     0.170 HD
ATOM     15  O   UNL     1      12.533 -57.008 -25.168  1.00  0.00    -0.287 OA
ATOM     16  O   UNL     1      10.754 -62.728 -23.070  1.00  0.00    -0.270 OA
ATOM     17  C   UNL     1      12.056 -59.525 -26.456  1.00  0.00     0.045 C 
BRANCH   5  18
ATOM     18  O   UNL     1      11.321 -58.784 -20.366  1.00  0.00    -0.506 OA
ATOM     19  H   UNL     1      10.789 -59.601 -20.339  1.00  0.00     0.293 HD
ENDBRANCH   5  18
ENDBRANCH   3   4
ENDBRANCH   2   3
ENDBRANCH   1   2
BRANCH   1  20
ATOM     20  C   UNL     1      10.428 -52.145 -21.595  1.00  0.00     0.023 C 
BRANCH  20  21
ATOM     21  C   UNL     1      10.390 -50.687 -22.060  1.00  0.00     0.113 C 
BRANCH  21  22
ATOM     22  N   UNL     1      11.688 -50.045 -21.786  1.00  0.00    -0.384 N 
ATOM     23  H   UNL     1      12.373 -50.752 -21.527  1.00  0.00     0.160 HD
BRANCH  22  24
ATOM     24  C   UNL     1      12.158 -49.319 -22.918  1.00  0.00     0.049 A 
ATOM     25  C   UNL     1      12.962 -49.926 -23.895  1.00  0.00    -0.003 A 
ATOM     26  C   UNL     1      11.726 -47.979 -23.117  1.00  0.00     0.024 A 
ATOM     27  C   UNL     1      13.288 -49.177 -25.028  1.00  0.00     0.046 A 
ATOM     28  C   UNL     1      13.450 -51.351 -23.857  1.00  0.00     0.039 C 
ATOM     29  C   UNL     1      10.935 -47.276 -22.181  1.00  0.00     0.014 A 
ATOM     30  C   UNL     1      12.124 -47.320 -24.301  1.00  0.00     0.074 A 
ATOM     31  N   UNL     1      12.883 -47.905 -25.237  1.00  0.00    -0.252 NA
ATOM     32  C   UNL     1      14.105 -49.831 -26.113  1.00  0.00     0.056 C 
ATOM     33  C   UNL     1      14.912 -51.462 -24.305  1.00  0.00     0.005 C 
ATOM     34  C   UNL     1      10.534 -45.962 -22.416  1.00  0.00     0.021 A 
ATOM     35  C   UNL     1      11.716 -46.013 -24.519  1.00  0.00     0.049 A 
ATOM     36  C   UNL     1      15.283 -50.591 -25.512  1.00  0.00     0.007 C 
ATOM     37  C   UNL     1      10.927 -45.338 -23.590  1.00  0.00     0.043 A 
ATOM     38  Cl  UNL     1      10.443 -43.715 -23.897  1.00  0.00    -0.084 Cl
ENDBRANCH  22  24
ENDBRANCH  21  22
ENDBRANCH  20  21
ENDBRANCH   1  20
TORSDOF 8
ENDMDL
MODEL 6
REMARK VINA RESULT:   -11.136      4.071     10.130
REMARK INTER + INTRA:         -16.703
REMARK INTER:                 -16.035
REMARK INTRA:                  -0.668
REMARK UNBOUND:                -0.684
REMARK SMILES Cc1cc(=O)[nH]c2c1C(=O)C(=NCCCCNc1c3c(nc4cc(Cl)ccc14)CCCC3)C=C2O
REMARK SMILES IDX 14 1 13 2 12 3 11 4 34 5 33 6 7 7 6 8 8 9 9 10 4 11 2 12
REMARK SMILES IDX 3 13 10 15 5 16 1 17 35 18 15 20 16 21 17 22 18 24 19 25
REMARK SMILES IDX 28 26 20 27 32 28 27 29 22 30 21 31 29 32 31 33 26 34 23 35
REMARK SMILES IDX 30 36 24 37 25 38
REMARK H PARENT 6 14 35 19 17 23
ROOT
ATOM      1  C   UNL     1      11.049 -54.999 -23.241  1.00  0.00     0.025 C 
ENDROOT
BRANCH   1   2
ATOM      2  C   UNL     1      10.990 -56.321 -22.478  1.00  0.00     0.143 C 
BRANCH   2   3
ATOM      3  N   UNL     1      10.659 -57.415 -23.383  1.00  0.00    -0.281 NA
BRANCH   3   4
ATOM      4  C   UNL     1       9.656 -58.187 -23.162  1.00  0.00     0.109 C 
ATOM      5  C   UNL     1       7.343 -58.851 -23.348  1.00  0.00     0.142 C 
ATOM      6  C   UNL     1       8.214 -57.851 -23.202  1.00  0.00     0.080 C 
ATOM      7  C   UNL     1       7.748 -60.231 -23.544  1.00  0.00     0.095 A 
ATOM      8  N   UNL     1       6.811 -61.107 -24.048  1.00  0.00    -0.319 N 
ATOM      9  C   UNL     1       8.992 -60.670 -23.264  1.00  0.00     0.055 A 
ATOM     10  C   UNL     1       9.961 -59.642 -22.782  1.00  0.00     0.213 C 
ATOM     11  C   UNL     1       7.047 -62.436 -24.284  1.00  0.00     0.248 A 
ATOM     12  C   UNL     1       9.329 -62.084 -23.441  1.00  0.00    -0.032 A 
ATOM     13  C   UNL     1       8.397 -62.928 -23.924  1.00  0.00     0.075 A 
ATOM     14  H   UNL     1       5.914 -60.770 -24.378  1.00  0.00     0.170 HD
ATOM     15  O   UNL     1      10.935 -59.904 -22.090  1.00  0.00    -0.287 OA
ATOM     16  O   UNL     1       6.201 -63.179 -24.762  1.00  0.00    -0.270 OA
ATOM     17  C   UNL     1      10.706 -62.576 -23.103  1.00  0.00     0.045 C 
BRANCH   5  18
ATOM     18  O   UNL     1       5.987 -58.594 -23.309  1.00  0.00    -0.506 OA
ATOM     19  H   UNL     1       5.686 -58.711 -22.389  1.00  0.00     0.293 HD
ENDBRANCH   5  18
ENDBRANCH   3   4
ENDBRANCH   2   3
ENDBRANCH   1   2
BRANCH   1  20
ATOM     20  C   UNL     1      11.789 -55.067 -24.584  1.00  0.00     0.023 C 
BRANCH  20  21
ATOM     21  C   UNL     1      12.184 -53.707 -25.167  1.00  0.00     0.113 C 
BRANCH  21  22
ATOM     22  N   UNL     1      13.055 -52.995 -24.215  1.00  0.00    -0.384 N 
ATOM     23  H   UNL     1      14.028 -53.107 -24.491  1.00  0.00     0.160 HD
BRANCH  22  24
ATOM     24  C   UNL     1      12.734 -51.607 -24.156  1.00  0.00     0.049 A 
ATOM     25  C   UNL     1      11.840 -51.104 -23.199  1.00  0.00    -0.003 A 
ATOM     26  C   UNL     1      13.405 -50.698 -25.018  1.00  0.00     0.024 A 
ATOM     27  C   UNL     1      11.664 -49.719 -23.137  1.00  0.00     0.046 A 
ATOM     28  C   UNL     1      11.099 -51.931 -22.180  1.00  0.00     0.039 C 
ATOM     29  C   UNL     1      14.305 -51.110 -26.026  1.00  0.00     0.014 A 
ATOM     30  C   UNL     1      13.142 -49.319 -24.864  1.00  0.00     0.074 A 
ATOM     31  N   UNL     1      12.295 -48.839 -23.943  1.00  0.00    -0.252 NA
ATOM     32  C   UNL     1      10.749 -49.157 -22.079  1.00  0.00     0.056 C 
ATOM     33  C   UNL     1       9.644 -51.472 -22.025  1.00  0.00     0.005 C 
ATOM     34  C   UNL     1      14.940 -50.184 -26.850  1.00  0.00     0.021 A 
ATOM     35  C   UNL     1      13.784 -48.411 -25.693  1.00  0.00     0.049 A 
ATOM     36  C   UNL     1       9.447 -49.951 -22.019  1.00  0.00     0.007 C 
ATOM     37  C   UNL     1      14.676 -48.833 -26.675  1.00  0.00     0.043 A 
ATOM     38  Cl  UNL     1      15.451 -47.675 -27.685  1.00  0.00    -0.084 Cl
ENDBRANCH  22  24
ENDBRANCH  21  22
ENDBRANCH  20  21
ENDBRANCH   1  20
TORSDOF 8
ENDMDL
MODEL 7
REMARK VINA RESULT:   -11.119      3.952     10.489
REMARK INTER + INTRA:         -16.679
REMARK INTER:                 -16.289
REMARK INTRA:                  -0.390
REMARK UNBOUND:                -0.684
REMARK SMILES Cc1cc(=O)[nH]c2c1C(=O)C(=NCCCCNc1c3c(nc4cc(Cl)ccc14)CCCC3)C=C2O
REMARK SMILES IDX 14 1 13 2 12 3 11 4 34 5 33 6 7 7 6 8 8 9 9 10 4 11 2 12
REMARK SMILES IDX 3 13 10 15 5 16 1 17 35 18 15 20 16 21 17 22 18 24 19 25
REMARK SMILES IDX 28 26 20 27 32 28 27 29 22 30 21 31 29 32 31 33 26 34 23 35
REMARK SMILES IDX 30 36 24 37 25 38
REMARK H PARENT 6 14 35 19 17 23
ROOT
ATOM      1  C   UNL     1      10.392 -55.101 -22.258  1.00  0.00     0.025 C 
ENDROOT
BRANCH   1   2
ATOM      2  C   UNL     1      11.035 -56.486 -22.297  1.00  0.00     0.143 C 
BRANCH   2   3
ATOM      3  N   UNL     1      10.460 -57.281 -23.376  1.00  0.00    -0.281 NA
BRANCH   3   4
ATOM      4  C   UNL     1       9.494 -58.101 -23.162  1.00  0.00     0.109 C 
ATOM      5  C   UNL     1       7.214 -58.871 -23.361  1.00  0.00     0.142 C 
ATOM      6  C   UNL     1       8.038 -57.832 -23.206  1.00  0.00     0.080 C 
ATOM      7  C   UNL     1       7.684 -60.229 -23.562  1.00  0.00     0.095 A 
ATOM      8  N   UNL     1       6.791 -61.145 -24.075  1.00  0.00    -0.319 N 
ATOM      9  C   UNL     1       8.946 -60.611 -23.280  1.00  0.00     0.055 A 
ATOM     10  C   UNL     1       9.865 -59.542 -22.789  1.00  0.00     0.213 C 
ATOM     11  C   UNL     1       7.090 -62.461 -24.316  1.00  0.00     0.248 A 
ATOM     12  C   UNL     1       9.350 -62.007 -23.463  1.00  0.00    -0.032 A 
ATOM     13  C   UNL     1       8.460 -62.891 -23.954  1.00  0.00     0.075 A 
ATOM     14  H   UNL     1       5.881 -60.849 -24.406  1.00  0.00     0.170 HD
ATOM     15  O   UNL     1      10.848 -59.762 -22.095  1.00  0.00    -0.287 OA
ATOM     16  O   UNL     1       6.281 -63.240 -24.802  1.00  0.00    -0.270 OA
ATOM     17  C   UNL     1      10.747 -62.436 -23.122  1.00  0.00     0.045 C 
BRANCH   5  18
ATOM     18  O   UNL     1       5.849 -58.677 -23.325  1.00  0.00    -0.506 OA
ATOM     19  H   UNL     1       5.623 -58.284 -22.462  1.00  0.00     0.293 HD
ENDBRANCH   5  18
ENDBRANCH   3   4
ENDBRANCH   2   3
ENDBRANCH   1   2
BRANCH   1  20
ATOM     20  C   UNL     1      10.792 -54.176 -23.415  1.00  0.00     0.023 C 
BRANCH  20  21
ATOM     21  C   UNL     1      11.738 -53.037 -23.027  1.00  0.00     0.113 C 
BRANCH  21  22
ATOM     22  N   UNL     1      12.130 -52.285 -24.233  1.00  0.00    -0.384 N 
ATOM     23  H   UNL     1      11.305 -51.872 -24.663  1.00  0.00     0.160 HD
BRANCH  22  24
ATOM     24  C   UNL     1      13.068 -51.258 -23.922  1.00  0.00     0.049 A 
ATOM     25  C   UNL     1      12.685 -50.104 -23.222  1.00  0.00    -0.003 A 
ATOM     26  C   UNL     1      14.440 -51.448 -24.240  1.00  0.00     0.024 A 
ATOM     27  C   UNL     1      13.686 -49.199 -22.861  1.00  0.00     0.046 A 
ATOM     28  C   UNL     1      11.284 -49.789 -22.764  1.00  0.00     0.039 C 
ATOM     29  C   UNL     1      14.919 -52.565 -24.961  1.00  0.00     0.014 A 
ATOM     30  C   UNL     1      15.362 -50.460 -23.827  1.00  0.00     0.074 A 
ATOM     31  N   UNL     1      14.995 -49.364 -23.150  1.00  0.00    -0.252 NA
ATOM     32  C   UNL     1      13.301 -47.980 -22.062  1.00  0.00     0.056 C 
ATOM     33  C   UNL     1      10.932 -48.313 -22.989  1.00  0.00     0.005 C 
ATOM     34  C   UNL     1      16.274 -52.710 -25.251  1.00  0.00     0.021 A 
ATOM     35  C   UNL     1      16.706 -50.622 -24.124  1.00  0.00     0.049 A 
ATOM     36  C   UNL     1      12.055 -47.325 -22.650  1.00  0.00     0.007 C 
ATOM     37  C   UNL     1      17.163 -51.734 -24.827  1.00  0.00     0.043 A 
ATOM     38  Cl  UNL     1      18.840 -51.896 -25.178  1.00  0.00    -0.084 Cl
ENDBRANCH  22  24
ENDBRANCH  21  22
ENDBRANCH  20  21
ENDBRANCH   1  20
TORSDOF 8
ENDMDL
MODEL 8
REMARK VINA RESULT:   -10.886      4.217     10.994
REMARK INTER + INTRA:         -16.344
REMARK INTER:                 -15.607
REMARK INTRA:                  -0.736
REMARK UNBOUND:                -0.684
REMARK SMILES Cc1cc(=O)[nH]c2c1C(=O)C(=NCCCCNc1c3c(nc4cc(Cl)ccc14)CCCC3)C=C2O
REMARK SMILES IDX 14 1 13 2 12 3 11 4 34 5 33 6 7 7 6 8 8 9 9 10 4 11 2 12
REMARK SMILES IDX 3 13 10 15 5 16 1 17 35 18 15 20 16 21 17 22 18 24 19 25
REMARK SMILES IDX 28 26 20 27 32 28 27 29 22 30 21 31 29 32 31 33 26 34 23 35
REMARK SMILES IDX 30 36 24 37 25 38
REMARK H PARENT 6 14 35 19 17 23
ROOT
ATOM      1  C   UNL     1      10.987 -53.828 -22.313  1.00  0.00     0.025 C 
ENDROOT
BRANCH   1   2
ATOM      2  C   UNL     1      11.001 -55.254 -21.765  1.00  0.00     0.143 C 
BRANCH   2   3
ATOM      3  N   UNL     1       9.998 -56.067 -22.442  1.00  0.00    -0.281 NA
BRANCH   3   4
ATOM      4  C   UNL     1      10.284 -57.225 -22.919  1.00  0.00     0.109 C 
ATOM      5  C   UNL     1      11.694 -59.162 -23.221  1.00  0.00     0.142 C 
ATOM      6  C   UNL     1      11.622 -57.834 -23.104  1.00  0.00     0.080 C 
ATOM      7  C   UNL     1      10.538 -60.030 -23.099  1.00  0.00     0.095 A 
ATOM      8  N   UNL     1      10.765 -61.369 -22.864  1.00  0.00    -0.319 N 
ATOM      9  C   UNL     1       9.272 -59.574 -23.194  1.00  0.00     0.055 A 
ATOM     10  C   UNL     1       9.115 -58.101 -23.386  1.00  0.00     0.213 C 
ATOM     11  C   UNL     1       9.775 -62.307 -22.729  1.00  0.00     0.248 A 
ATOM     12  C   UNL     1       8.146 -60.506 -23.107  1.00  0.00    -0.032 A 
ATOM     13  C   UNL     1       8.388 -61.813 -22.890  1.00  0.00     0.075 A 
ATOM     14  H   UNL     1      11.700 -61.706 -22.669  1.00  0.00     0.170 HD
ATOM     15  O   UNL     1       8.138 -57.589 -23.915  1.00  0.00    -0.287 OA
ATOM     16  O   UNL     1      10.013 -63.483 -22.490  1.00  0.00    -0.270 OA
ATOM     17  C   UNL     1       6.739 -59.999 -23.241  1.00  0.00     0.045 C 
BRANCH   5  18
ATOM     18  O   UNL     1      12.909 -59.764 -23.476  1.00  0.00    -0.506 OA
ATOM     19  H   UNL     1      13.463 -59.674 -22.679  1.00  0.00     0.293 HD
ENDBRANCH   5  18
ENDBRANCH   3   4
ENDBRANCH   2   3
ENDBRANCH   1   2
BRANCH   1  20
ATOM     20  C   UNL     1      10.943 -52.730 -21.241  1.00  0.00     0.023 C 
BRANCH  20  21
ATOM     21  C   UNL     1      11.611 -51.414 -21.646  1.00  0.00     0.113 C 
BRANCH  21  22
ATOM     22  N   UNL     1      10.949 -50.869 -22.844  1.00  0.00    -0.384 N 
ATOM     23  H   UNL     1      10.095 -50.385 -22.575  1.00  0.00     0.160 HD
BRANCH  22  24
ATOM     24  C   UNL     1      11.803 -49.970 -23.547  1.00  0.00     0.049 A 
ATOM     25  C   UNL     1      12.756 -50.435 -24.467  1.00  0.00    -0.003 A 
ATOM     26  C   UNL     1      11.624 -48.569 -23.390  1.00  0.00     0.024 A 
ATOM     27  C   UNL     1      13.477 -49.485 -25.194  1.00  0.00     0.046 A 
ATOM     28  C   UNL     1      13.022 -51.883 -24.787  1.00  0.00     0.039 C 
ATOM     29  C   UNL     1      10.707 -48.006 -22.474  1.00  0.00     0.014 A 
ATOM     30  C   UNL     1      12.415 -47.704 -24.177  1.00  0.00     0.074 A 
ATOM     31  N   UNL     1      13.317 -48.150 -25.062  1.00  0.00    -0.252 NA
ATOM     32  C   UNL     1      14.465 -49.966 -26.225  1.00  0.00     0.056 C 
ATOM     33  C   UNL     1      14.522 -52.170 -24.915  1.00  0.00     0.005 C 
ATOM     34  C   UNL     1      10.564 -46.625 -22.351  1.00  0.00     0.021 A 
ATOM     35  C   UNL     1      12.259 -46.333 -24.042  1.00  0.00     0.049 A 
ATOM     36  C   UNL     1      15.322 -51.095 -25.661  1.00  0.00     0.007 C 
ATOM     37  C   UNL     1      11.343 -45.794 -23.142  1.00  0.00     0.043 A 
ATOM     38  Cl  UNL     1      11.181 -44.087 -23.003  1.00  0.00    -0.084 Cl
ENDBRANCH  22  24
ENDBRANCH  21  22
ENDBRANCH  20  21
ENDBRANCH   1  20
TORSDOF 8
ENDMDL
MODEL 9
REMARK VINA RESULT:   -10.678      3.702      9.851
REMARK INTER + INTRA:         -16.044
REMARK INTER:                 -15.475
REMARK INTRA:                  -0.569
REMARK UNBOUND:                -0.684
REMARK SMILES Cc1cc(=O)[nH]c2c1C(=O)C(=NCCCCNc1c3c(nc4cc(Cl)ccc14)CCCC3)C=C2O
REMARK SMILES IDX 14 1 13 2 12 3 11 4 34 5 33 6 7 7 6 8 8 9 9 10 4 11 2 12
REMARK SMILES IDX 3 13 10 15 5 16 1 17 35 18 15 20 16 21 17 22 18 24 19 25
REMARK SMILES IDX 28 26 20 27 32 28 27 29 22 30 21 31 29 32 31 33 26 34 23 35
REMARK SMILES IDX 30 36 24 37 25 38
REMARK H PARENT 6 14 35 19 17 23
ROOT
ATOM      1  C   UNL     1      10.782 -57.576 -22.127  1.00  0.00     0.025 C 
ENDROOT
BRANCH   1   2
ATOM      2  C   UNL     1      11.772 -58.517 -22.811  1.00  0.00     0.143 C 
BRANCH   2   3
ATOM      3  N   UNL     1      11.174 -59.100 -24.006  1.00  0.00    -0.281 NA
BRANCH   3   4
ATOM      4  C   UNL     1      10.770 -60.319 -24.025  1.00  0.00     0.109 C 
ATOM      5  C   UNL     1       9.678 -62.261 -23.095  1.00  0.00     0.142 C 
ATOM      6  C   UNL     1      10.456 -61.199 -22.876  1.00  0.00     0.080 C 
ATOM      7  C   UNL     1       9.070 -62.544 -24.382  1.00  0.00     0.095 A 
ATOM      8  N   UNL     1       8.011 -63.425 -24.409  1.00  0.00    -0.319 N 
ATOM      9  C   UNL     1       9.494 -61.972 -25.528  1.00  0.00     0.055 A 
ATOM     10  C   UNL     1      10.604 -60.982 -25.399  1.00  0.00     0.213 C 
ATOM     11  C   UNL     1       7.341 -63.790 -25.548  1.00  0.00     0.248 A 
ATOM     12  C   UNL     1       8.870 -62.331 -26.803  1.00  0.00    -0.032 A 
ATOM     13  C   UNL     1       7.844 -63.204 -26.811  1.00  0.00     0.075 A 
ATOM     14  H   UNL     1       7.603 -63.768 -23.548  1.00  0.00     0.170 HD
ATOM     15  O   UNL     1      11.381 -60.716 -26.306  1.00  0.00    -0.287 OA
ATOM     16  O   UNL     1       6.384 -64.553 -25.531  1.00  0.00    -0.270 OA
ATOM     17  C   UNL     1       9.362 -61.715 -28.080  1.00  0.00     0.045 C 
BRANCH   5  18
ATOM     18  O   UNL     1       9.427 -63.152 -22.072  1.00  0.00    -0.506 OA
ATOM     19  H   UNL     1      10.074 -63.878 -22.139  1.00  0.00     0.293 HD
ENDBRANCH   5  18
ENDBRANCH   3   4
ENDBRANCH   2   3
ENDBRANCH   1   2
BRANCH   1  20
ATOM     20  C   UNL     1      10.546 -56.249 -22.861  1.00  0.00     0.023 C 
BRANCH  20  21
ATOM     21  C   UNL     1      11.743 -55.742 -23.667  1.00  0.00     0.113 C 
BRANCH  21  22
ATOM     22  N   UNL     1      11.325 -54.615 -24.521  1.00  0.00    -0.384 N 
ATOM     23  H   UNL     1      10.310 -54.547 -24.525  1.00  0.00     0.160 HD
BRANCH  22  24
ATOM     24  C   UNL     1      11.884 -53.385 -24.068  1.00  0.00     0.049 A 
ATOM     25  C   UNL     1      11.232 -52.595 -23.109  1.00  0.00    -0.003 A 
ATOM     26  C   UNL     1      13.173 -52.995 -24.522  1.00  0.00     0.024 A 
ATOM     27  C   UNL     1      11.899 -51.460 -22.638  1.00  0.00     0.046 A 
ATOM     28  C   UNL     1       9.894 -52.905 -22.489  1.00  0.00     0.039 C 
ATOM     29  C   UNL     1      13.897 -53.712 -25.501  1.00  0.00     0.014 A 
ATOM     30  C   UNL     1      13.744 -51.824 -23.977  1.00  0.00     0.074 A 
ATOM     31  N   UNL     1      13.125 -51.076 -23.054  1.00  0.00    -0.252 NA
ATOM     32  C   UNL     1      11.238 -50.630 -21.568  1.00  0.00     0.056 C 
ATOM     33  C   UNL     1       9.022 -51.650 -22.364  1.00  0.00     0.005 C 
ATOM     34  C   UNL     1      15.158 -53.293 -25.918  1.00  0.00     0.021 A 
ATOM     35  C   UNL     1      15.001 -51.422 -24.403  1.00  0.00     0.049 A 
ATOM     36  C   UNL     1       9.769 -50.391 -21.906  1.00  0.00     0.007 C 
ATOM     37  C   UNL     1      15.706 -52.147 -25.361  1.00  0.00     0.043 A 
ATOM     38  Cl  UNL     1      17.263 -51.613 -25.865  1.00  0.00    -0.084 Cl
ENDBRANCH  22  24
ENDBRANCH  21  22
ENDBRANCH  20  21
ENDBRANCH   1  20
TORSDOF 8
ENDMDL
