MODEL 1
REMARK VINA RESULT:    -9.907      0.000      0.000
REMARK INTER + INTRA:         -16.430
REMARK INTER:                 -15.119
REMARK INTRA:                  -1.311
REMARK UNBOUND:                -1.311
REMARK SMILES COc1cccc(OC)c1[C@@H](C)NS(=O)(=O)NC(=O)OCc1ccccc1
REMARK SMILES IDX 13 1 11 3 12 4 10 5 3 6 4 7 5 8 7 9 6 10 2 11 1 12 8 13 9 14
REMARK SMILES IDX 14 15 15 16 16 17 17 18 18 19 19 21 20 22 21 23 22 24 23 25
REMARK SMILES IDX 27 26 24 27 26 28 25 29
REMARK H PARENT 13 2 17 20
ROOT
ATOM      1  N   UNL     1       9.687 -59.367 -24.809  1.00  0.00    -0.190 NA
ATOM      2  H   UNL     1       9.485 -59.066 -25.766  1.00  0.00     0.143 HD
ENDROOT
BRANCH   1   3
ATOM      3  C   UNL     1       9.832 -60.840 -24.757  1.00  0.00     0.106 C 
ATOM      4  C   UNL     1      11.320 -61.150 -24.570  1.00  0.00     0.031 C 
BRANCH   3   5
ATOM      5  C   UNL     1       9.297 -61.577 -25.982  1.00  0.00     0.054 A 
ATOM      6  C   UNL     1       8.484 -62.722 -25.799  1.00  0.00     0.127 A 
ATOM      7  C   UNL     1       7.995 -63.418 -26.908  1.00  0.00     0.047 A 
ATOM      8  C   UNL     1       8.305 -62.994 -28.198  1.00  0.00     0.008 A 
ATOM      9  C   UNL     1       9.616 -61.166 -27.300  1.00  0.00     0.127 A 
ATOM     10  C   UNL     1       9.112 -61.877 -28.394  1.00  0.00     0.047 A 
BRANCH   6  11
ATOM     11  O   UNL     1       8.248 -63.097 -24.499  1.00  0.00    -0.496 OA
ATOM     12  C   UNL     1       6.935 -62.904 -23.990  1.00  0.00     0.278 C 
ENDBRANCH   6  11
BRANCH   9  13
ATOM     13  O   UNL     1      10.433 -60.068 -27.416  1.00  0.00    -0.496 OA
ATOM     14  C   UNL     1      11.407 -60.075 -28.454  1.00  0.00     0.278 C 
ENDBRANCH   9  13
ENDBRANCH   3   5
ENDBRANCH   1   3
BRANCH   1  15
ATOM     15  S   UNL     1       8.630 -58.642 -23.756  1.00  0.00     0.304 S 
ATOM     16  O   UNL     1       8.426 -59.507 -22.619  1.00  0.00    -0.189 OA
ATOM     17  O   UNL     1       7.508 -58.156 -24.519  1.00  0.00    -0.189 OA
BRANCH  15  18
ATOM     18  N   UNL     1       9.498 -57.364 -23.209  1.00  0.00    -0.205 N 
ATOM     19  C   UNL     1      10.798 -57.445 -22.738  1.00  0.00     0.422 C 
ATOM     20  H   UNL     1       9.238 -56.488 -23.644  1.00  0.00     0.188 HD
ATOM     21  O   UNL     1      11.356 -58.473 -22.395  1.00  0.00    -0.223 OA
BRANCH  19  22
ATOM     22  O   UNL     1      11.355 -56.208 -22.695  1.00  0.00    -0.444 OA
BRANCH  22  23
ATOM     23  C   UNL     1      10.514 -55.136 -23.135  1.00  0.00     0.270 C 
BRANCH  23  24
ATOM     24  C   UNL     1      11.373 -54.017 -23.661  1.00  0.00    -0.011 A 
ATOM     25  C   UNL     1      12.106 -54.184 -24.845  1.00  0.00     0.007 A 
ATOM     26  C   UNL     1      11.418 -52.781 -23.003  1.00  0.00     0.007 A 
ATOM     27  C   UNL     1      12.883 -53.140 -25.349  1.00  0.00     0.000 A 
ATOM     28  C   UNL     1      12.197 -51.738 -23.508  1.00  0.00     0.000 A 
ATOM     29  C   UNL     1      12.930 -51.918 -24.679  1.00  0.00     0.000 A 
ENDBRANCH  23  24
ENDBRANCH  22  23
ENDBRANCH  19  22
ENDBRANCH  15  18
ENDBRANCH   1  15
TORSDOF 9
ENDMDL
MODEL 2
REMARK VINA RESULT:    -9.846      0.168      2.629
REMARK INTER + INTRA:         -16.337
REMARK INTER:                 -15.227
REMARK INTRA:                  -1.110
REMARK UNBOUND:                -1.311
REMARK SMILES COc1cccc(OC)c1[C@@H](C)NS(=O)(=O)NC(=O)OCc1ccccc1
REMARK SMILES IDX 13 1 11 3 12 4 10 5 3 6 4 7 5 8 7 9 6 10 2 11 1 12 8 13 9 14
REMARK SMILES IDX 14 15 15 16 16 17 17 18 18 19 19 21 20 22 21 23 22 24 23 25
REMARK SMILES IDX 27 26 24 27 26 28 25 29
REMARK H PARENT 13 2 17 20
ROOT
ATOM      1  N   UNL     1       9.536 -59.309 -24.925  1.00  0.00    -0.190 NA
ATOM      2  H   UNL     1       9.173 -59.071 -25.852  1.00  0.00     0.143 HD
ENDROOT
BRANCH   1   3
ATOM      3  C   UNL     1       9.836 -60.758 -24.849  1.00  0.00     0.106 C 
ATOM      4  C   UNL     1      11.359 -60.911 -24.801  1.00  0.00     0.031 C 
BRANCH   3   5
ATOM      5  C   UNL     1       9.266 -61.587 -25.997  1.00  0.00     0.054 A 
ATOM      6  C   UNL     1       9.556 -61.211 -27.331  1.00  0.00     0.127 A 
ATOM      7  C   UNL     1       9.034 -61.950 -28.396  1.00  0.00     0.047 A 
ATOM      8  C   UNL     1       8.225 -63.058 -28.155  1.00  0.00     0.008 A 
ATOM      9  C   UNL     1       8.430 -62.708 -25.766  1.00  0.00     0.127 A 
ATOM     10  C   UNL     1       7.922 -63.434 -26.848  1.00  0.00     0.047 A 
BRANCH   6  11
ATOM     11  O   UNL     1      10.333 -60.090 -27.490  1.00  0.00    -0.496 OA
ATOM     12  C   UNL     1      11.378 -60.149 -28.453  1.00  0.00     0.278 C 
ENDBRANCH   6  11
BRANCH   9  13
ATOM     13  O   UNL     1       8.159 -63.007 -24.453  1.00  0.00    -0.496 OA
ATOM     14  C   UNL     1       6.907 -62.586 -23.924  1.00  0.00     0.278 C 
ENDBRANCH   9  13
ENDBRANCH   3   5
ENDBRANCH   1   3
BRANCH   1  15
ATOM     15  S   UNL     1       8.569 -58.643 -23.753  1.00  0.00     0.304 S 
ATOM     16  O   UNL     1       8.469 -59.560 -22.644  1.00  0.00    -0.189 OA
ATOM     17  O   UNL     1       7.382 -58.136 -24.395  1.00  0.00    -0.189 OA
BRANCH  15  18
ATOM     18  N   UNL     1       9.471 -57.382 -23.226  1.00  0.00    -0.205 N 
ATOM     19  C   UNL     1      10.760 -57.494 -22.733  1.00  0.00     0.422 C 
ATOM     20  H   UNL     1       9.247 -56.508 -23.686  1.00  0.00     0.188 HD
ATOM     21  O   UNL     1      11.279 -58.531 -22.356  1.00  0.00    -0.223 OA
BRANCH  19  22
ATOM     22  O   UNL     1      11.359 -56.275 -22.713  1.00  0.00    -0.444 OA
BRANCH  22  23
ATOM     23  C   UNL     1      10.523 -55.171 -23.078  1.00  0.00     0.270 C 
BRANCH  23  24
ATOM     24  C   UNL     1      11.367 -54.107 -23.727  1.00  0.00    -0.011 A 
ATOM     25  C   UNL     1      11.494 -52.843 -23.133  1.00  0.00     0.007 A 
ATOM     26  C   UNL     1      12.074 -54.376 -24.907  1.00  0.00     0.007 A 
ATOM     27  C   UNL     1      12.297 -51.863 -23.719  1.00  0.00     0.000 A 
ATOM     28  C   UNL     1      12.875 -53.394 -25.493  1.00  0.00     0.000 A 
ATOM     29  C   UNL     1      12.984 -52.138 -24.899  1.00  0.00     0.000 A 
ENDBRANCH  23  24
ENDBRANCH  22  23
ENDBRANCH  19  22
ENDBRANCH  15  18
ENDBRANCH   1  15
TORSDOF 9
ENDMDL
MODEL 3
REMARK VINA RESULT:    -9.298      1.428      3.260
REMARK INTER + INTRA:         -15.500
REMARK INTER:                 -14.419
REMARK INTRA:                  -1.081
REMARK UNBOUND:                -1.311
REMARK SMILES COc1cccc(OC)c1[C@@H](C)NS(=O)(=O)NC(=O)OCc1ccccc1
REMARK SMILES IDX 13 1 11 3 12 4 10 5 3 6 4 7 5 8 7 9 6 10 2 11 1 12 8 13 9 14
REMARK SMILES IDX 14 15 15 16 16 17 17 18 18 19 19 21 20 22 21 23 22 24 23 25
REMARK SMILES IDX 27 26 24 27 26 28 25 29
REMARK H PARENT 13 2 17 20
ROOT
ATOM      1  N   UNL     1      10.565 -60.127 -24.105  1.00  0.00    -0.190 NA
ATOM      2  H   UNL     1      10.638 -61.139 -23.965  1.00  0.00     0.143 HD
ENDROOT
BRANCH   1   3
ATOM      3  C   UNL     1       9.551 -59.827 -25.141  1.00  0.00     0.106 C 
ATOM      4  C   UNL     1       8.339 -59.212 -24.434  1.00  0.00     0.031 C 
BRANCH   3   5
ATOM      5  C   UNL     1       9.112 -61.030 -25.972  1.00  0.00     0.054 A 
ATOM      6  C   UNL     1       9.462 -61.087 -27.343  1.00  0.00     0.127 A 
ATOM      7  C   UNL     1       9.059 -62.174 -28.124  1.00  0.00     0.047 A 
ATOM      8  C   UNL     1       8.311 -63.206 -27.562  1.00  0.00     0.008 A 
ATOM      9  C   UNL     1       8.338 -62.080 -25.417  1.00  0.00     0.127 A 
ATOM     10  C   UNL     1       7.949 -63.159 -26.218  1.00  0.00     0.047 A 
BRANCH   6  11
ATOM     11  O   UNL     1      10.172 -60.019 -27.832  1.00  0.00    -0.496 OA
ATOM     12  C   UNL     1      11.245 -60.299 -28.723  1.00  0.00     0.278 C 
ENDBRANCH   6  11
BRANCH   9  13
ATOM     13  O   UNL     1       8.003 -61.956 -24.090  1.00  0.00    -0.496 OA
ATOM     14  C   UNL     1       7.359 -63.060 -23.465  1.00  0.00     0.278 C 
ENDBRANCH   9  13
ENDBRANCH   3   5
ENDBRANCH   1   3
BRANCH   1  15
ATOM     15  S   UNL     1      12.080 -59.472 -24.272  1.00  0.00     0.304 S 
ATOM     16  O   UNL     1      12.462 -59.511 -25.663  1.00  0.00    -0.189 OA
ATOM     17  O   UNL     1      12.928 -60.053 -23.262  1.00  0.00    -0.189 OA
BRANCH  15  18
ATOM     18  N   UNL     1      11.824 -57.895 -23.911  1.00  0.00    -0.205 N 
ATOM     19  C   UNL     1      11.245 -57.445 -22.736  1.00  0.00     0.422 C 
ATOM     20  H   UNL     1      12.495 -57.271 -24.341  1.00  0.00     0.188 HD
ATOM     21  O   UNL     1      10.598 -58.134 -21.965  1.00  0.00    -0.223 OA
BRANCH  19  22
ATOM     22  O   UNL     1      11.487 -56.119 -22.575  1.00  0.00    -0.444 OA
BRANCH  22  23
ATOM     23  C   UNL     1      10.624 -55.241 -23.306  1.00  0.00     0.270 C 
BRANCH  23  24
ATOM     24  C   UNL     1      11.427 -54.079 -23.827  1.00  0.00    -0.011 A 
ATOM     25  C   UNL     1      11.469 -52.872 -23.116  1.00  0.00     0.007 A 
ATOM     26  C   UNL     1      12.180 -54.201 -25.002  1.00  0.00     0.007 A 
ATOM     27  C   UNL     1      12.234 -51.801 -23.582  1.00  0.00     0.000 A 
ATOM     28  C   UNL     1      12.944 -53.129 -25.469  1.00  0.00     0.000 A 
ATOM     29  C   UNL     1      12.969 -51.930 -24.760  1.00  0.00     0.000 A 
ENDBRANCH  23  24
ENDBRANCH  22  23
ENDBRANCH  19  22
ENDBRANCH  15  18
ENDBRANCH   1  15
TORSDOF 9
ENDMDL
MODEL 4
REMARK VINA RESULT:    -9.043      1.602      2.258
REMARK INTER + INTRA:         -15.112
REMARK INTER:                 -14.721
REMARK INTRA:                  -0.391
REMARK UNBOUND:                -1.311
REMARK SMILES COc1cccc(OC)c1[C@@H](C)NS(=O)(=O)NC(=O)OCc1ccccc1
REMARK SMILES IDX 13 1 11 3 12 4 10 5 3 6 4 7 5 8 7 9 6 10 2 11 1 12 8 13 9 14
REMARK SMILES IDX 14 15 15 16 16 17 17 18 18 19 19 21 20 22 21 23 22 24 23 25
REMARK SMILES IDX 27 26 24 27 26 28 25 29
REMARK H PARENT 13 2 17 20
ROOT
ATOM      1  N   UNL     1       9.250 -59.905 -22.890  1.00  0.00    -0.190 NA
ATOM      2  H   UNL     1       9.089 -60.912 -22.796  1.00  0.00     0.143 HD
ENDROOT
BRANCH   1   3
ATOM      3  C   UNL     1       8.967 -59.469 -24.277  1.00  0.00     0.106 C 
ATOM      4  C   UNL     1       7.655 -58.680 -24.253  1.00  0.00     0.031 C 
BRANCH   3   5
ATOM      5  C   UNL     1       8.874 -60.603 -25.295  1.00  0.00     0.054 A 
ATOM      6  C   UNL     1       8.117 -61.756 -24.977  1.00  0.00     0.127 A 
ATOM      7  C   UNL     1       8.029 -62.810 -25.892  1.00  0.00     0.047 A 
ATOM      8  C   UNL     1       8.687 -62.735 -27.117  1.00  0.00     0.008 A 
ATOM      9  C   UNL     1       9.550 -60.547 -26.539  1.00  0.00     0.127 A 
ATOM     10  C   UNL     1       9.445 -61.612 -27.439  1.00  0.00     0.047 A 
BRANCH   6  11
ATOM     11  O   UNL     1       7.524 -61.770 -23.739  1.00  0.00    -0.496 OA
ATOM     12  C   UNL     1       7.309 -63.037 -23.131  1.00  0.00     0.278 C 
ENDBRANCH   6  11
BRANCH   9  13
ATOM     13  O   UNL     1      10.294 -59.417 -26.780  1.00  0.00    -0.496 OA
ATOM     14  C   UNL     1      11.457 -59.551 -27.589  1.00  0.00     0.278 C 
ENDBRANCH   9  13
ENDBRANCH   3   5
ENDBRANCH   1   3
BRANCH   1  15
ATOM     15  S   UNL     1      10.714 -59.505 -22.221  1.00  0.00     0.304 S 
ATOM     16  O   UNL     1      11.771 -60.075 -23.020  1.00  0.00    -0.189 OA
ATOM     17  O   UNL     1      10.641 -59.769 -20.805  1.00  0.00    -0.189 OA
BRANCH  15  18
ATOM     18  N   UNL     1      10.780 -57.886 -22.459  1.00  0.00    -0.205 N 
ATOM     19  C   UNL     1      11.408 -57.278 -23.533  1.00  0.00     0.422 C 
ATOM     20  H   UNL     1       9.987 -57.391 -22.071  1.00  0.00     0.188 HD
ATOM     21  O   UNL     1      12.223 -57.815 -24.265  1.00  0.00    -0.223 OA
BRANCH  19  22
ATOM     22  O   UNL     1      10.999 -55.988 -23.643  1.00  0.00    -0.444 OA
BRANCH  22  23
ATOM     23  C   UNL     1      10.705 -55.327 -22.408  1.00  0.00     0.270 C 
BRANCH  23  24
ATOM     24  C   UNL     1      11.093 -53.876 -22.520  1.00  0.00    -0.011 A 
ATOM     25  C   UNL     1      10.786 -52.979 -21.488  1.00  0.00     0.007 A 
ATOM     26  C   UNL     1      11.806 -53.411 -23.634  1.00  0.00     0.007 A 
ATOM     27  C   UNL     1      11.167 -51.639 -21.577  1.00  0.00     0.000 A 
ATOM     28  C   UNL     1      12.186 -52.070 -23.722  1.00  0.00     0.000 A 
ATOM     29  C   UNL     1      11.864 -51.186 -22.695  1.00  0.00     0.000 A 
ENDBRANCH  23  24
ENDBRANCH  22  23
ENDBRANCH  19  22
ENDBRANCH  15  18
ENDBRANCH   1  15
TORSDOF 9
ENDMDL
MODEL 5
REMARK VINA RESULT:    -8.871      3.520      9.313
REMARK INTER + INTRA:         -14.849
REMARK INTER:                 -14.542
REMARK INTRA:                  -0.307
REMARK UNBOUND:                -1.311
REMARK SMILES COc1cccc(OC)c1[C@@H](C)NS(=O)(=O)NC(=O)OCc1ccccc1
REMARK SMILES IDX 13 1 11 3 12 4 10 5 3 6 4 7 5 8 7 9 6 10 2 11 1 12 8 13 9 14
REMARK SMILES IDX 14 15 15 16 16 17 17 18 18 19 19 21 20 22 21 23 22 24 23 25
REMARK SMILES IDX 27 26 24 27 26 28 25 29
REMARK H PARENT 13 2 17 20
ROOT
ATOM      1  N   UNL     1      11.282 -53.493 -22.618  1.00  0.00    -0.190 NA
ATOM      2  H   UNL     1      12.119 -54.036 -22.849  1.00  0.00     0.143 HD
ENDROOT
BRANCH   1   3
ATOM      3  C   UNL     1      11.619 -52.056 -22.505  1.00  0.00     0.106 C 
ATOM      4  C   UNL     1      10.303 -51.282 -22.387  1.00  0.00     0.031 C 
BRANCH   3   5
ATOM      5  C   UNL     1      12.446 -51.502 -23.662  1.00  0.00     0.054 A 
ATOM      6  C   UNL     1      12.908 -50.165 -23.603  1.00  0.00     0.127 A 
ATOM      7  C   UNL     1      13.656 -49.635 -24.658  1.00  0.00     0.047 A 
ATOM      8  C   UNL     1      13.949 -50.414 -25.774  1.00  0.00     0.008 A 
ATOM      9  C   UNL     1      12.739 -52.279 -24.810  1.00  0.00     0.127 A 
ATOM     10  C   UNL     1      13.492 -51.728 -25.853  1.00  0.00     0.047 A 
BRANCH   6  11
ATOM     11  O   UNL     1      12.553 -49.450 -22.486  1.00  0.00    -0.496 OA
ATOM     12  C   UNL     1      12.773 -48.045 -22.511  1.00  0.00     0.278 C 
ENDBRANCH   6  11
BRANCH   9  13
ATOM     13  O   UNL     1      12.238 -53.558 -24.826  1.00  0.00    -0.496 OA
ATOM     14  C   UNL     1      12.743 -54.453 -25.811  1.00  0.00     0.278 C 
ENDBRANCH   9  13
ENDBRANCH   3   5
ENDBRANCH   1   3
BRANCH   1  15
ATOM     15  S   UNL     1      10.474 -54.214 -21.361  1.00  0.00     0.304 S 
ATOM     16  O   UNL     1       9.058 -54.198 -21.637  1.00  0.00    -0.189 OA
ATOM     17  O   UNL     1      10.987 -53.665 -20.131  1.00  0.00    -0.189 OA
BRANCH  15  18
ATOM     18  N   UNL     1      10.947 -55.777 -21.486  1.00  0.00    -0.205 N 
ATOM     19  C   UNL     1      10.968 -56.496 -22.670  1.00  0.00     0.422 C 
ATOM     20  H   UNL     1      11.636 -56.044 -20.794  1.00  0.00     0.188 HD
ATOM     21  O   UNL     1      10.380 -56.181 -23.692  1.00  0.00    -0.223 OA
BRANCH  19  22
ATOM     22  O   UNL     1      11.723 -57.614 -22.523  1.00  0.00    -0.444 OA
BRANCH  22  23
ATOM     23  C   UNL     1      11.328 -58.490 -21.462  1.00  0.00     0.270 C 
BRANCH  23  24
ATOM     24  C   UNL     1      10.998 -59.843 -22.035  1.00  0.00    -0.011 A 
ATOM     25  C   UNL     1       9.997 -60.634 -21.452  1.00  0.00     0.007 A 
ATOM     26  C   UNL     1      11.651 -60.312 -23.182  1.00  0.00     0.007 A 
ATOM     27  C   UNL     1       9.671 -61.877 -21.997  1.00  0.00     0.000 A 
ATOM     28  C   UNL     1      11.325 -61.556 -23.725  1.00  0.00     0.000 A 
ATOM     29  C   UNL     1      10.337 -62.338 -23.131  1.00  0.00     0.000 A 
ENDBRANCH  23  24
ENDBRANCH  22  23
ENDBRANCH  19  22
ENDBRANCH  15  18
ENDBRANCH   1  15
TORSDOF 9
ENDMDL
MODEL 6
REMARK VINA RESULT:    -8.818      3.527      9.190
REMARK INTER + INTRA:         -14.767
REMARK INTER:                 -14.877
REMARK INTRA:                   0.110
REMARK UNBOUND:                -1.311
REMARK SMILES COc1cccc(OC)c1[C@@H](C)NS(=O)(=O)NC(=O)OCc1ccccc1
REMARK SMILES IDX 13 1 11 3 12 4 10 5 3 6 4 7 5 8 7 9 6 10 2 11 1 12 8 13 9 14
REMARK SMILES IDX 14 15 15 16 16 17 17 18 18 19 19 21 20 22 21 23 22 24 23 25
REMARK SMILES IDX 27 26 24 27 26 28 25 29
REMARK H PARENT 13 2 17 20
ROOT
ATOM      1  N   UNL     1      11.191 -53.364 -22.789  1.00  0.00    -0.190 NA
ATOM      2  H   UNL     1      11.926 -53.981 -23.147  1.00  0.00     0.143 HD
ENDROOT
BRANCH   1   3
ATOM      3  C   UNL     1      11.701 -51.979 -22.666  1.00  0.00     0.106 C 
ATOM      4  C   UNL     1      10.500 -51.069 -22.390  1.00  0.00     0.031 C 
BRANCH   3   5
ATOM      5  C   UNL     1      12.470 -51.471 -23.882  1.00  0.00     0.054 A 
ATOM      6  C   UNL     1      12.802 -52.378 -24.917  1.00  0.00     0.127 A 
ATOM      7  C   UNL     1      13.516 -51.935 -26.034  1.00  0.00     0.047 A 
ATOM      8  C   UNL     1      13.909 -50.603 -26.136  1.00  0.00     0.008 A 
ATOM      9  C   UNL     1      12.888 -50.122 -23.992  1.00  0.00     0.127 A 
ATOM     10  C   UNL     1      13.600 -49.701 -25.120  1.00  0.00     0.047 A 
BRANCH   6  11
ATOM     11  O   UNL     1      12.409 -53.681 -24.732  1.00  0.00    -0.496 OA
ATOM     12  C   UNL     1      12.604 -54.584 -25.813  1.00  0.00     0.278 C 
ENDBRANCH   6  11
BRANCH   9  13
ATOM     13  O   UNL     1      12.564 -49.295 -22.943  1.00  0.00    -0.496 OA
ATOM     14  C   UNL     1      13.604 -48.503 -22.381  1.00  0.00     0.278 C 
ENDBRANCH   9  13
ENDBRANCH   3   5
ENDBRANCH   1   3
BRANCH   1  15
ATOM     15  S   UNL     1      10.467 -54.058 -21.468  1.00  0.00     0.304 S 
ATOM     16  O   UNL     1       9.041 -54.108 -21.680  1.00  0.00    -0.189 OA
ATOM     17  O   UNL     1      11.012 -53.436 -20.287  1.00  0.00    -0.189 OA
BRANCH  15  18
ATOM     18  N   UNL     1      10.997 -55.606 -21.548  1.00  0.00    -0.205 N 
ATOM     19  C   UNL     1      10.843 -56.430 -22.651  1.00  0.00     0.422 C 
ATOM     20  H   UNL     1      11.813 -55.781 -20.975  1.00  0.00     0.188 HD
ATOM     21  O   UNL     1      10.064 -56.234 -23.569  1.00  0.00    -0.223 OA
BRANCH  19  22
ATOM     22  O   UNL     1      11.673 -57.499 -22.553  1.00  0.00    -0.444 OA
BRANCH  22  23
ATOM     23  C   UNL     1      11.389 -58.405 -21.482  1.00  0.00     0.270 C 
BRANCH  23  24
ATOM     24  C   UNL     1      11.037 -59.753 -22.055  1.00  0.00    -0.011 A 
ATOM     25  C   UNL     1      10.014 -60.521 -21.481  1.00  0.00     0.007 A 
ATOM     26  C   UNL     1      11.692 -60.238 -23.194  1.00  0.00     0.007 A 
ATOM     27  C   UNL     1       9.668 -61.759 -22.025  1.00  0.00     0.000 A 
ATOM     28  C   UNL     1      11.345 -61.476 -23.737  1.00  0.00     0.000 A 
ATOM     29  C   UNL     1      10.335 -62.237 -23.151  1.00  0.00     0.000 A 
ENDBRANCH  23  24
ENDBRANCH  22  23
ENDBRANCH  19  22
ENDBRANCH  15  18
ENDBRANCH   1  15
TORSDOF 9
ENDMDL
MODEL 7
REMARK VINA RESULT:    -8.747      2.196      8.587
REMARK INTER + INTRA:         -14.659
REMARK INTER:                 -14.807
REMARK INTRA:                   0.147
REMARK UNBOUND:                -1.311
REMARK SMILES COc1cccc(OC)c1[C@@H](C)NS(=O)(=O)NC(=O)OCc1ccccc1
REMARK SMILES IDX 13 1 11 3 12 4 10 5 3 6 4 7 5 8 7 9 6 10 2 11 1 12 8 13 9 14
REMARK SMILES IDX 14 15 15 16 16 17 17 18 18 19 19 21 20 22 21 23 22 24 23 25
REMARK SMILES IDX 27 26 24 27 26 28 25 29
REMARK H PARENT 13 2 17 20
ROOT
ATOM      1  N   UNL     1      10.361 -55.093 -23.694  1.00  0.00    -0.190 NA
ATOM      2  H   UNL     1      10.821 -55.229 -24.599  1.00  0.00     0.143 HD
ENDROOT
BRANCH   1   3
ATOM      3  C   UNL     1      10.854 -53.853 -23.052  1.00  0.00     0.106 C 
ATOM      4  C   UNL     1       9.634 -52.989 -22.721  1.00  0.00     0.031 C 
BRANCH   3   5
ATOM      5  C   UNL     1      11.846 -53.051 -23.891  1.00  0.00     0.054 A 
ATOM      6  C   UNL     1      12.143 -51.717 -23.521  1.00  0.00     0.127 A 
ATOM      7  C   UNL     1      13.039 -50.962 -24.284  1.00  0.00     0.047 A 
ATOM      8  C   UNL     1      13.643 -51.513 -25.411  1.00  0.00     0.008 A 
ATOM      9  C   UNL     1      12.457 -53.594 -25.048  1.00  0.00     0.127 A 
ATOM     10  C   UNL     1      13.353 -52.821 -25.793  1.00  0.00     0.047 A 
BRANCH   6  11
ATOM     11  O   UNL     1      11.485 -51.233 -22.418  1.00  0.00    -0.496 OA
ATOM     12  C   UNL     1      11.393 -49.820 -22.278  1.00  0.00     0.278 C 
ENDBRANCH   6  11
BRANCH   9  13
ATOM     13  O   UNL     1      12.108 -54.883 -25.375  1.00  0.00    -0.496 OA
ATOM     14  C   UNL     1      12.865 -55.536 -26.388  1.00  0.00     0.278 C 
ENDBRANCH   9  13
ENDBRANCH   3   5
ENDBRANCH   1   3
BRANCH   1  15
ATOM     15  S   UNL     1      10.406 -56.503 -22.822  1.00  0.00     0.304 S 
ATOM     16  O   UNL     1       9.077 -57.060 -22.755  1.00  0.00    -0.189 OA
ATOM     17  O   UNL     1      11.159 -56.256 -21.618  1.00  0.00    -0.189 OA
BRANCH  15  18
ATOM     18  N   UNL     1      11.270 -57.495 -23.798  1.00  0.00    -0.205 N 
ATOM     19  C   UNL     1      11.803 -58.711 -23.404  1.00  0.00     0.422 C 
ATOM     20  H   UNL     1      11.013 -57.419 -24.775  1.00  0.00     0.188 HD
ATOM     21  O   UNL     1      11.958 -59.066 -22.247  1.00  0.00    -0.223 OA
BRANCH  19  22
ATOM     22  O   UNL     1      12.146 -59.445 -24.493  1.00  0.00    -0.444 OA
BRANCH  22  23
ATOM     23  C   UNL     1      12.375 -60.837 -24.253  1.00  0.00     0.270 C 
BRANCH  23  24
ATOM     24  C   UNL     1      11.054 -61.560 -24.237  1.00  0.00    -0.011 A 
ATOM     25  C   UNL     1      10.189 -61.478 -25.338  1.00  0.00     0.007 A 
ATOM     26  C   UNL     1      10.690 -62.360 -23.146  1.00  0.00     0.007 A 
ATOM     27  C   UNL     1       8.976 -62.168 -25.337  1.00  0.00     0.000 A 
ATOM     28  C   UNL     1       9.475 -63.049 -23.146  1.00  0.00     0.000 A 
ATOM     29  C   UNL     1       8.619 -62.950 -24.241  1.00  0.00     0.000 A 
ENDBRANCH  23  24
ENDBRANCH  22  23
ENDBRANCH  19  22
ENDBRANCH  15  18
ENDBRANCH   1  15
TORSDOF 9
ENDMDL
MODEL 8
REMARK VINA RESULT:    -8.733      2.209      8.675
REMARK INTER + INTRA:         -14.638
REMARK INTER:                 -14.828
REMARK INTRA:                   0.190
REMARK UNBOUND:                -1.311
REMARK SMILES COc1cccc(OC)c1[C@@H](C)NS(=O)(=O)NC(=O)OCc1ccccc1
REMARK SMILES IDX 13 1 11 3 12 4 10 5 3 6 4 7 5 8 7 9 6 10 2 11 1 12 8 13 9 14
REMARK SMILES IDX 14 15 15 16 16 17 17 18 18 19 19 21 20 22 21 23 22 24 23 25
REMARK SMILES IDX 27 26 24 27 26 28 25 29
REMARK H PARENT 13 2 17 20
ROOT
ATOM      1  N   UNL     1      10.471 -55.057 -23.695  1.00  0.00    -0.190 NA
ATOM      2  H   UNL     1      10.975 -55.197 -24.575  1.00  0.00     0.143 HD
ENDROOT
BRANCH   1   3
ATOM      3  C   UNL     1      10.926 -53.812 -23.036  1.00  0.00     0.106 C 
ATOM      4  C   UNL     1       9.680 -52.990 -22.692  1.00  0.00     0.031 C 
BRANCH   3   5
ATOM      5  C   UNL     1      11.892 -52.968 -23.866  1.00  0.00     0.054 A 
ATOM      6  C   UNL     1      12.465 -53.524 -25.035  1.00  0.00     0.127 A 
ATOM      7  C   UNL     1      13.361 -52.772 -25.801  1.00  0.00     0.047 A 
ATOM      8  C   UNL     1      13.697 -51.476 -25.420  1.00  0.00     0.008 A 
ATOM      9  C   UNL     1      12.254 -51.653 -23.482  1.00  0.00     0.127 A 
ATOM     10  C   UNL     1      13.150 -50.920 -24.266  1.00  0.00     0.047 A 
BRANCH   6  11
ATOM     11  O   UNL     1      12.110 -54.817 -25.328  1.00  0.00    -0.496 OA
ATOM     12  C   UNL     1      12.882 -55.502 -26.307  1.00  0.00     0.278 C 
ENDBRANCH   6  11
BRANCH   9  13
ATOM     13  O   UNL     1      11.690 -51.178 -22.322  1.00  0.00    -0.496 OA
ATOM     14  C   UNL     1      11.171 -49.853 -22.335  1.00  0.00     0.278 C 
ENDBRANCH   9  13
ENDBRANCH   3   5
ENDBRANCH   1   3
BRANCH   1  15
ATOM     15  S   UNL     1      10.479 -56.463 -22.813  1.00  0.00     0.304 S 
ATOM     16  O   UNL     1       9.137 -56.987 -22.745  1.00  0.00    -0.189 OA
ATOM     17  O   UNL     1      11.235 -56.225 -21.609  1.00  0.00    -0.189 OA
BRANCH  15  18
ATOM     18  N   UNL     1      11.321 -57.482 -23.780  1.00  0.00    -0.205 N 
ATOM     19  C   UNL     1      11.771 -58.734 -23.394  1.00  0.00     0.422 C 
ATOM     20  H   UNL     1      11.104 -57.372 -24.763  1.00  0.00     0.188 HD
ATOM     21  O   UNL     1      11.865 -59.120 -22.242  1.00  0.00    -0.223 OA
BRANCH  19  22
ATOM     22  O   UNL     1      12.111 -59.463 -24.487  1.00  0.00    -0.444 OA
BRANCH  22  23
ATOM     23  C   UNL     1      12.367 -60.851 -24.248  1.00  0.00     0.270 C 
BRANCH  23  24
ATOM     24  C   UNL     1      11.062 -61.602 -24.255  1.00  0.00    -0.011 A 
ATOM     25  C   UNL     1      10.692 -62.390 -23.155  1.00  0.00     0.007 A 
ATOM     26  C   UNL     1      10.178 -61.489 -25.336  1.00  0.00     0.007 A 
ATOM     27  C   UNL     1       9.471 -63.066 -23.147  1.00  0.00     0.000 A 
ATOM     28  C   UNL     1       8.957 -62.167 -25.327  1.00  0.00     0.000 A 
ATOM     29  C   UNL     1       8.606 -62.956 -24.234  1.00  0.00     0.000 A 
ENDBRANCH  23  24
ENDBRANCH  22  23
ENDBRANCH  19  22
ENDBRANCH  15  18
ENDBRANCH   1  15
TORSDOF 9
ENDMDL
MODEL 9
REMARK VINA RESULT:    -8.427      1.776      2.560
REMARK INTER + INTRA:         -14.171
REMARK INTER:                 -13.262
REMARK INTRA:                  -0.909
REMARK UNBOUND:                -1.311
REMARK SMILES COc1cccc(OC)c1[C@@H](C)NS(=O)(=O)NC(=O)OCc1ccccc1
REMARK SMILES IDX 13 1 11 3 12 4 10 5 3 6 4 7 5 8 7 9 6 10 2 11 1 12 8 13 9 14
REMARK SMILES IDX 14 15 15 16 16 17 17 18 18 19 19 21 20 22 21 23 22 24 23 25
REMARK SMILES IDX 27 26 24 27 26 28 25 29
REMARK H PARENT 13 2 17 20
ROOT
ATOM      1  N   UNL     1      10.954 -58.198 -24.173  1.00  0.00    -0.190 NA
ATOM      2  H   UNL     1      10.455 -58.032 -25.051  1.00  0.00     0.143 HD
ENDROOT
BRANCH   1   3
ATOM      3  C   UNL     1      10.819 -59.616 -23.767  1.00  0.00     0.106 C 
ATOM      4  C   UNL     1      12.224 -60.146 -23.469  1.00  0.00     0.031 C 
BRANCH   3   5
ATOM      5  C   UNL     1      10.133 -60.511 -24.797  1.00  0.00     0.054 A 
ATOM      6  C   UNL     1       9.233 -61.510 -24.353  1.00  0.00     0.127 A 
ATOM      7  C   UNL     1       8.605 -62.347 -25.279  1.00  0.00     0.047 A 
ATOM      8  C   UNL     1       8.861 -62.209 -26.641  1.00  0.00     0.008 A 
ATOM      9  C   UNL     1      10.395 -60.390 -26.184  1.00  0.00     0.127 A 
ATOM     10  C   UNL     1       9.752 -61.238 -27.092  1.00  0.00     0.047 A 
BRANCH   6  11
ATOM     11  O   UNL     1       9.057 -61.607 -22.995  1.00  0.00    -0.496 OA
ATOM     12  C   UNL     1       9.614 -62.741 -22.342  1.00  0.00     0.278 C 
ENDBRANCH   6  11
BRANCH   9  13
ATOM     13  O   UNL     1      11.300 -59.424 -26.553  1.00  0.00    -0.496 OA
ATOM     14  C   UNL     1      11.487 -59.191 -27.944  1.00  0.00     0.278 C 
ENDBRANCH   9  13
ENDBRANCH   3   5
ENDBRANCH   1   3
BRANCH   1  15
ATOM     15  S   UNL     1      10.560 -57.022 -23.071  1.00  0.00     0.304 S 
ATOM     16  O   UNL     1      11.368 -57.192 -21.888  1.00  0.00    -0.189 OA
ATOM     17  O   UNL     1       9.122 -56.970 -22.975  1.00  0.00    -0.189 OA
BRANCH  15  18
ATOM     18  N   UNL     1      11.096 -55.658 -23.801  1.00  0.00    -0.205 N 
ATOM     19  C   UNL     1      11.907 -55.640 -24.924  1.00  0.00     0.422 C 
ATOM     20  H   UNL     1      10.466 -54.873 -23.697  1.00  0.00     0.188 HD
ATOM     21  O   UNL     1      12.557 -56.586 -25.336  1.00  0.00    -0.223 OA
BRANCH  19  22
ATOM     22  O   UNL     1      11.890 -54.406 -25.490  1.00  0.00    -0.444 OA
BRANCH  22  23
ATOM     23  C   UNL     1      13.131 -53.693 -25.455  1.00  0.00     0.270 C 
BRANCH  23  24
ATOM     24  C   UNL     1      12.904 -52.335 -24.846  1.00  0.00    -0.011 A 
ATOM     25  C   UNL     1      12.229 -52.212 -23.623  1.00  0.00     0.007 A 
ATOM     26  C   UNL     1      13.402 -51.181 -25.466  1.00  0.00     0.007 A 
ATOM     27  C   UNL     1      12.040 -50.956 -23.043  1.00  0.00     0.000 A 
ATOM     28  C   UNL     1      13.210 -49.926 -24.885  1.00  0.00     0.000 A 
ATOM     29  C   UNL     1      12.528 -49.815 -23.675  1.00  0.00     0.000 A 
ENDBRANCH  23  24
ENDBRANCH  22  23
ENDBRANCH  19  22
ENDBRANCH  15  18
ENDBRANCH   1  15
TORSDOF 9
ENDMDL
