MODEL 1
REMARK VINA RESULT:   -12.544      0.000      0.000
REMARK INTER + INTRA:         -18.263
REMARK INTER:                 -17.677
REMARK INTRA:                  -0.586
REMARK UNBOUND:                -0.586
REMARK SMILES O=C1CCc2cc(C(O)=CC[C@H]3CC[N@H+](Cc4cccc(O)c4)CC3)cc3ccn1c23
REMARK SMILES IDX 12 1 13 2 14 3 15 4 24 5 25 6 11 8 10 9 8 10 9 11 7 13 6 14
REMARK SMILES IDX 26 15 5 16 27 17 31 18 4 19 28 20 30 21 3 22 29 23 2 24 1 25
REMARK SMILES IDX 16 26 17 27 18 28 23 29 19 30 21 31 20 32 22 33
REMARK H PARENT 15 7 9 12 22 34
ROOT
ATOM      1  C   UNL     1      10.583 -57.535 -22.244  1.00  0.00     0.004 C 
ATOM      2  C   UNL     1      11.404 -58.776 -21.871  1.00  0.00     0.065 C 
ATOM      3  C   UNL     1      11.703 -59.694 -23.052  1.00  0.00     0.262 C 
ATOM      4  N   UNL     1      10.565 -59.716 -24.044  1.00  0.00    -0.331 N 
ATOM      5  C   UNL     1       9.236 -59.393 -23.418  1.00  0.00     0.262 C 
ATOM      6  C   UNL     1       9.257 -57.951 -22.915  1.00  0.00     0.065 C 
ATOM      7  H   UNL     1      10.745 -58.972 -24.730  1.00  0.00     0.348 HD
ENDROOT
BRANCH   1   8
ATOM      8  C   UNL     1      11.415 -56.565 -23.112  1.00  0.00     0.035 C 
BRANCH   8   9
ATOM      9  C   UNL     1      10.729 -55.247 -23.330  1.00  0.00     0.020 C 
BRANCH   9  10
ATOM     10  C   UNL     1      10.994 -54.135 -22.627  1.00  0.00     0.118 C 
BRANCH  10  11
ATOM     11  O   UNL     1      10.736 -54.058 -21.278  1.00  0.00    -0.508 OA
ATOM     12  H   UNL     1      11.343 -54.671 -20.822  1.00  0.00     0.293 HD
ENDBRANCH  10  11
BRANCH  10  13
ATOM     13  C   UNL     1      11.589 -52.944 -23.248  1.00  0.00     0.017 A 
ATOM     14  C   UNL     1      11.450 -51.684 -22.641  1.00  0.00     0.017 A 
ATOM     15  C   UNL     1      12.328 -53.090 -24.442  1.00  0.00     0.022 A 
ATOM     16  C   UNL     1      12.017 -50.545 -23.218  1.00  0.00    -0.022 A 
ATOM     17  C   UNL     1      12.920 -51.954 -25.024  1.00  0.00     0.001 A 
ATOM     18  C   UNL     1      12.726 -50.736 -24.401  1.00  0.00     0.059 A 
ATOM     19  C   UNL     1      12.024 -49.172 -22.623  1.00  0.00     0.047 C 
ATOM     20  C   UNL     1      13.744 -51.697 -26.153  1.00  0.00     0.029 A 
ATOM     21  N   UNL     1      13.362 -49.749 -25.121  1.00  0.00    -0.287 N 
ATOM     22  C   UNL     1      12.227 -48.099 -23.709  1.00  0.00     0.106 C 
ATOM     23  C   UNL     1      14.024 -50.344 -26.173  1.00  0.00     0.095 A 
ATOM     24  C   UNL     1      13.286 -48.397 -24.767  1.00  0.00     0.231 C 
ATOM     25  O   UNL     1      13.946 -47.567 -25.374  1.00  0.00    -0.274 OA
ENDBRANCH  10  13
ENDBRANCH   9  10
ENDBRANCH   8   9
ENDBRANCH   1   8
BRANCH   4  26
ATOM     26  C   UNL     1      10.556 -60.999 -24.850  1.00  0.00     0.299 C 
BRANCH  26  27
ATOM     27  C   UNL     1       9.630 -62.041 -24.286  1.00  0.00     0.010 A 
ATOM     28  C   UNL     1       9.982 -62.782 -23.148  1.00  0.00     0.010 A 
ATOM     29  C   UNL     1       8.384 -62.277 -24.887  1.00  0.00     0.055 A 
ATOM     30  C   UNL     1       9.103 -63.731 -22.620  1.00  0.00     0.004 A 
ATOM     31  C   UNL     1       7.516 -63.220 -24.348  1.00  0.00     0.116 A 
ATOM     32  C   UNL     1       7.862 -63.950 -23.220  1.00  0.00     0.046 A 
BRANCH  31  33
ATOM     33  O   UNL     1       6.319 -63.393 -24.974  1.00  0.00    -0.508 OA
ATOM     34  H   UNL     1       6.293 -64.278 -25.377  1.00  0.00     0.293 HD
ENDBRANCH  31  33
ENDBRANCH  26  27
ENDBRANCH   4  26
TORSDOF 8
ENDMDL
MODEL 2
REMARK VINA RESULT:   -12.466      0.358      1.797
REMARK INTER + INTRA:         -18.153
REMARK INTER:                 -17.586
REMARK INTRA:                  -0.567
REMARK UNBOUND:                -0.586
REMARK SMILES O=C1CCc2cc(C(O)=CC[C@H]3CC[N@H+](Cc4cccc(O)c4)CC3)cc3ccn1c23
REMARK SMILES IDX 12 1 13 2 14 3 15 4 24 5 25 6 11 8 10 9 8 10 9 11 7 13 6 14
REMARK SMILES IDX 26 15 5 16 27 17 31 18 4 19 28 20 30 21 3 22 29 23 2 24 1 25
REMARK SMILES IDX 16 26 17 27 18 28 23 29 19 30 21 31 20 32 22 33
REMARK H PARENT 15 7 9 12 22 34
ROOT
ATOM      1  C   UNL     1      10.473 -57.416 -22.318  1.00  0.00     0.004 C 
ATOM      2  C   UNL     1      11.234 -58.655 -21.826  1.00  0.00     0.065 C 
ATOM      3  C   UNL     1      11.621 -59.622 -22.939  1.00  0.00     0.262 C 
ATOM      4  N   UNL     1      10.577 -59.665 -24.029  1.00  0.00    -0.331 N 
ATOM      5  C   UNL     1       9.203 -59.298 -23.539  1.00  0.00     0.262 C 
ATOM      6  C   UNL     1       9.207 -57.837 -23.091  1.00  0.00     0.065 C 
ATOM      7  H   UNL     1      10.832 -58.952 -24.724  1.00  0.00     0.348 HD
ENDROOT
BRANCH   1   8
ATOM      8  C   UNL     1      11.399 -56.494 -23.142  1.00  0.00     0.035 C 
BRANCH   8   9
ATOM      9  C   UNL     1      10.788 -55.148 -23.410  1.00  0.00     0.020 C 
BRANCH   9  10
ATOM     10  C   UNL     1      10.991 -54.064 -22.647  1.00  0.00     0.118 C 
BRANCH  10  11
ATOM     11  O   UNL     1      10.677 -54.058 -21.307  1.00  0.00    -0.508 OA
ATOM     12  H   UNL     1      11.052 -54.865 -20.908  1.00  0.00     0.293 HD
ENDBRANCH  10  11
BRANCH  10  13
ATOM     13  C   UNL     1      11.573 -52.828 -23.187  1.00  0.00     0.017 A 
ATOM     14  C   UNL     1      12.340 -52.861 -24.364  1.00  0.00     0.017 A 
ATOM     15  C   UNL     1      11.321 -51.606 -22.526  1.00  0.00     0.022 A 
ATOM     16  C   UNL     1      12.893 -51.691 -24.891  1.00  0.00    -0.022 A 
ATOM     17  C   UNL     1      11.856 -50.418 -23.056  1.00  0.00     0.001 A 
ATOM     18  C   UNL     1      12.629 -50.513 -24.198  1.00  0.00     0.059 A 
ATOM     19  C   UNL     1      13.642 -51.580 -26.182  1.00  0.00     0.047 C 
ATOM     20  C   UNL     1      11.801 -49.036 -22.727  1.00  0.00     0.029 A 
ATOM     21  N   UNL     1      13.074 -49.259 -24.553  1.00  0.00    -0.287 N 
ATOM     22  C   UNL     1      14.545 -50.333 -26.193  1.00  0.00     0.106 C 
ATOM     23  C   UNL     1      12.530 -48.345 -23.677  1.00  0.00     0.095 A 
ATOM     24  C   UNL     1      13.935 -49.049 -25.638  1.00  0.00     0.231 C 
ATOM     25  O   UNL     1      14.224 -47.912 -25.977  1.00  0.00    -0.274 OA
ENDBRANCH  10  13
ENDBRANCH   9  10
ENDBRANCH   8   9
ENDBRANCH   1   8
BRANCH   4  26
ATOM     26  C   UNL     1      10.617 -60.978 -24.784  1.00  0.00     0.299 C 
BRANCH  26  27
ATOM     27  C   UNL     1       9.679 -62.009 -24.220  1.00  0.00     0.010 A 
ATOM     28  C   UNL     1      10.011 -62.735 -23.066  1.00  0.00     0.010 A 
ATOM     29  C   UNL     1       8.441 -62.249 -24.837  1.00  0.00     0.055 A 
ATOM     30  C   UNL     1       9.120 -63.673 -22.539  1.00  0.00     0.004 A 
ATOM     31  C   UNL     1       7.562 -63.183 -24.298  1.00  0.00     0.116 A 
ATOM     32  C   UNL     1       7.888 -63.897 -23.154  1.00  0.00     0.046 A 
BRANCH  31  33
ATOM     33  O   UNL     1       6.374 -63.361 -24.940  1.00  0.00    -0.508 OA
ATOM     34  H   UNL     1       6.257 -64.306 -25.140  1.00  0.00     0.293 HD
ENDBRANCH  31  33
ENDBRANCH  26  27
ENDBRANCH   4  26
TORSDOF 8
ENDMDL
MODEL 3
REMARK VINA RESULT:   -11.809      1.778      2.637
REMARK INTER + INTRA:         -17.227
REMARK INTER:                 -17.429
REMARK INTRA:                   0.202
REMARK UNBOUND:                -0.586
REMARK SMILES O=C1CCc2cc(C(O)=CC[C@H]3CC[N@H+](Cc4cccc(O)c4)CC3)cc3ccn1c23
REMARK SMILES IDX 12 1 13 2 14 3 15 4 24 5 25 6 11 8 10 9 8 10 9 11 7 13 6 14
REMARK SMILES IDX 26 15 5 16 27 17 31 18 4 19 28 20 30 21 3 22 29 23 2 24 1 25
REMARK SMILES IDX 16 26 17 27 18 28 23 29 19 30 21 31 20 32 22 33
REMARK H PARENT 15 7 9 12 22 34
ROOT
ATOM      1  C   UNL     1      11.878 -59.502 -22.598  1.00  0.00     0.004 C 
ATOM      2  C   UNL     1      12.250 -60.703 -23.477  1.00  0.00     0.065 C 
ATOM      3  C   UNL     1      11.116 -61.183 -24.377  1.00  0.00     0.262 C 
ATOM      4  N   UNL     1       9.770 -61.024 -23.710  1.00  0.00    -0.331 N 
ATOM      5  C   UNL     1       9.854 -61.050 -22.209  1.00  0.00     0.262 C 
ATOM      6  C   UNL     1      10.646 -59.833 -21.732  1.00  0.00     0.065 C 
ATOM      7  H   UNL     1       9.414 -60.093 -23.960  1.00  0.00     0.348 HD
ENDROOT
BRANCH   1   8
ATOM      8  C   UNL     1      11.683 -58.232 -23.456  1.00  0.00     0.035 C 
BRANCH   8   9
ATOM      9  C   UNL     1      11.227 -57.050 -22.649  1.00  0.00     0.020 C 
BRANCH   9  10
ATOM     10  C   UNL     1      10.494 -56.040 -23.141  1.00  0.00     0.118 C 
BRANCH  10  11
ATOM     11  O   UNL     1       9.157 -56.194 -23.428  1.00  0.00    -0.508 OA
ATOM     12  H   UNL     1       9.050 -56.124 -24.396  1.00  0.00     0.293 HD
ENDBRANCH  10  11
BRANCH  10  13
ATOM     13  C   UNL     1      11.066 -54.708 -23.385  1.00  0.00     0.017 A 
ATOM     14  C   UNL     1      10.881 -53.675 -22.451  1.00  0.00     0.017 A 
ATOM     15  C   UNL     1      11.831 -54.496 -24.553  1.00  0.00     0.022 A 
ATOM     16  C   UNL     1      11.425 -52.407 -22.669  1.00  0.00    -0.022 A 
ATOM     17  C   UNL     1      12.401 -53.229 -24.775  1.00  0.00     0.001 A 
ATOM     18  C   UNL     1      12.161 -52.240 -23.839  1.00  0.00     0.059 A 
ATOM     19  C   UNL     1      11.382 -51.258 -21.711  1.00  0.00     0.047 C 
ATOM     20  C   UNL     1      13.238 -52.645 -25.764  1.00  0.00     0.029 A 
ATOM     21  N   UNL     1      12.782 -51.077 -24.236  1.00  0.00    -0.287 N 
ATOM     22  C   UNL     1      11.575 -49.918 -22.445  1.00  0.00     0.106 C 
ATOM     23  C   UNL     1      13.480 -51.335 -25.395  1.00  0.00     0.095 A 
ATOM     24  C   UNL     1      12.661 -49.882 -23.516  1.00  0.00     0.231 C 
ATOM     25  O   UNL     1      13.309 -48.900 -23.849  1.00  0.00    -0.274 OA
ENDBRANCH  10  13
ENDBRANCH   9  10
ENDBRANCH   8   9
ENDBRANCH   1   8
BRANCH   4  26
ATOM     26  C   UNL     1       8.755 -61.997 -24.274  1.00  0.00     0.299 C 
BRANCH  26  27
ATOM     27  C   UNL     1       8.788 -62.078 -25.775  1.00  0.00     0.010 A 
ATOM     28  C   UNL     1       9.598 -61.213 -26.527  1.00  0.00     0.010 A 
ATOM     29  C   UNL     1       8.015 -63.036 -26.448  1.00  0.00     0.055 A 
ATOM     30  C   UNL     1       9.638 -61.314 -27.920  1.00  0.00     0.004 A 
ATOM     31  C   UNL     1       8.068 -63.128 -27.834  1.00  0.00     0.116 A 
ATOM     32  C   UNL     1       8.873 -62.277 -28.579  1.00  0.00     0.046 A 
BRANCH  31  33
ATOM     33  O   UNL     1       7.300 -64.086 -28.424  1.00  0.00    -0.508 OA
ATOM     34  H   UNL     1       7.649 -64.964 -28.190  1.00  0.00     0.293 HD
ENDBRANCH  31  33
ENDBRANCH  26  27
ENDBRANCH   4  26
TORSDOF 8
ENDMDL
MODEL 4
REMARK VINA RESULT:   -11.563      1.914      3.222
REMARK INTER + INTRA:         -16.881
REMARK INTER:                 -17.211
REMARK INTRA:                   0.331
REMARK UNBOUND:                -0.586
REMARK SMILES O=C1CCc2cc(C(O)=CC[C@H]3CC[N@H+](Cc4cccc(O)c4)CC3)cc3ccn1c23
REMARK SMILES IDX 12 1 13 2 14 3 15 4 24 5 25 6 11 8 10 9 8 10 9 11 7 13 6 14
REMARK SMILES IDX 26 15 5 16 27 17 31 18 4 19 28 20 30 21 3 22 29 23 2 24 1 25
REMARK SMILES IDX 16 26 17 27 18 28 23 29 19 30 21 31 20 32 22 33
REMARK H PARENT 15 7 9 12 22 34
ROOT
ATOM      1  C   UNL     1      12.016 -59.367 -22.597  1.00  0.00     0.004 C 
ATOM      2  C   UNL     1      12.371 -60.559 -23.495  1.00  0.00     0.065 C 
ATOM      3  C   UNL     1      11.195 -61.089 -24.309  1.00  0.00     0.262 C 
ATOM      4  N   UNL     1       9.895 -60.977 -23.549  1.00  0.00    -0.331 N 
ATOM      5  C   UNL     1      10.086 -60.988 -22.057  1.00  0.00     0.262 C 
ATOM      6  C   UNL     1      10.862 -59.739 -21.643  1.00  0.00     0.065 C 
ATOM      7  H   UNL     1       9.486 -60.062 -23.777  1.00  0.00     0.348 HD
ENDROOT
BRANCH   1   8
ATOM      8  C   UNL     1      11.711 -58.112 -23.445  1.00  0.00     0.035 C 
BRANCH   8   9
ATOM      9  C   UNL     1      11.181 -56.971 -22.623  1.00  0.00     0.020 C 
BRANCH   9  10
ATOM     10  C   UNL     1      10.472 -55.949 -23.124  1.00  0.00     0.118 C 
BRANCH  10  11
ATOM     11  O   UNL     1       9.148 -56.091 -23.470  1.00  0.00    -0.508 OA
ATOM     12  H   UNL     1       8.928 -57.041 -23.425  1.00  0.00     0.293 HD
ENDBRANCH  10  11
BRANCH  10  13
ATOM     13  C   UNL     1      11.058 -54.615 -23.318  1.00  0.00     0.017 A 
ATOM     14  C   UNL     1      11.863 -54.351 -24.440  1.00  0.00     0.017 A 
ATOM     15  C   UNL     1      10.772 -53.598 -22.381  1.00  0.00     0.022 A 
ATOM     16  C   UNL     1      12.420 -53.085 -24.638  1.00  0.00    -0.022 A 
ATOM     17  C   UNL     1      11.311 -52.315 -22.580  1.00  0.00     0.001 A 
ATOM     18  C   UNL     1      12.121 -52.118 -23.682  1.00  0.00     0.059 A 
ATOM     19  C   UNL     1      13.209 -52.653 -25.834  1.00  0.00     0.047 C 
ATOM     20  C   UNL     1      11.230 -51.059 -21.918  1.00  0.00     0.029 A 
ATOM     21  N   UNL     1      12.563 -50.814 -23.697  1.00  0.00    -0.287 N 
ATOM     22  C   UNL     1      14.098 -51.440 -25.502  1.00  0.00     0.106 C 
ATOM     23  C   UNL     1      11.982 -50.151 -22.639  1.00  0.00     0.095 A 
ATOM     24  C   UNL     1      13.456 -50.338 -24.665  1.00  0.00     0.231 C 
ATOM     25  O   UNL     1      13.744 -49.151 -24.699  1.00  0.00    -0.274 OA
ENDBRANCH  10  13
ENDBRANCH   9  10
ENDBRANCH   8   9
ENDBRANCH   1   8
BRANCH   4  26
ATOM     26  C   UNL     1       8.880 -61.992 -24.034  1.00  0.00     0.299 C 
BRANCH  26  27
ATOM     27  C   UNL     1       8.865 -62.139 -25.530  1.00  0.00     0.010 A 
ATOM     28  C   UNL     1       8.053 -63.099 -26.154  1.00  0.00     0.010 A 
ATOM     29  C   UNL     1       9.658 -61.302 -26.330  1.00  0.00     0.055 A 
ATOM     30  C   UNL     1       8.031 -63.210 -27.547  1.00  0.00     0.004 A 
ATOM     31  C   UNL     1       9.623 -61.420 -27.715  1.00  0.00     0.116 A 
ATOM     32  C   UNL     1       8.816 -62.366 -28.333  1.00  0.00     0.046 A 
BRANCH  31  33
ATOM     33  O   UNL     1      10.409 -60.571 -28.432  1.00  0.00    -0.508 OA
ATOM     34  H   UNL     1      11.093 -60.198 -27.850  1.00  0.00     0.293 HD
ENDBRANCH  31  33
ENDBRANCH  26  27
ENDBRANCH   4  26
TORSDOF 8
ENDMDL
MODEL 5
REMARK VINA RESULT:   -11.394      2.426      3.999
REMARK INTER + INTRA:         -16.643
REMARK INTER:                 -15.380
REMARK INTRA:                  -1.263
REMARK UNBOUND:                -0.586
REMARK SMILES O=C1CCc2cc(C(O)=CC[C@H]3CC[N@H+](Cc4cccc(O)c4)CC3)cc3ccn1c23
REMARK SMILES IDX 12 1 13 2 14 3 15 4 24 5 25 6 11 8 10 9 8 10 9 11 7 13 6 14
REMARK SMILES IDX 26 15 5 16 27 17 31 18 4 19 28 20 30 21 3 22 29 23 2 24 1 25
REMARK SMILES IDX 16 26 17 27 18 28 23 29 19 30 21 31 20 32 22 33
REMARK H PARENT 15 7 9 12 22 34
ROOT
ATOM      1  C   UNL     1       9.934 -60.320 -21.685  1.00  0.00     0.004 C 
ATOM      2  C   UNL     1       9.822 -61.824 -21.408  1.00  0.00     0.065 C 
ATOM      3  C   UNL     1       9.545 -62.661 -22.653  1.00  0.00     0.262 C 
ATOM      4  N   UNL     1       8.662 -61.927 -23.633  1.00  0.00    -0.331 N 
ATOM      5  C   UNL     1       7.779 -60.904 -22.974  1.00  0.00     0.262 C 
ATOM      6  C   UNL     1       8.652 -59.804 -22.372  1.00  0.00     0.065 C 
ATOM      7  H   UNL     1       9.279 -61.405 -24.268  1.00  0.00     0.348 HD
ENDROOT
BRANCH   1   8
ATOM      8  C   UNL     1      11.213 -60.002 -22.491  1.00  0.00     0.035 C 
BRANCH   8   9
ATOM      9  C   UNL     1      10.945 -59.142 -23.693  1.00  0.00     0.020 C 
BRANCH   9  10
ATOM     10  C   UNL     1      11.843 -58.307 -24.236  1.00  0.00     0.118 C 
BRANCH  10  11
ATOM     11  O   UNL     1      12.873 -58.770 -25.022  1.00  0.00    -0.508 OA
ATOM     12  H   UNL     1      13.712 -58.532 -24.585  1.00  0.00     0.293 HD
ENDBRANCH  10  11
BRANCH  10  13
ATOM     13  C   UNL     1      11.772 -56.852 -24.041  1.00  0.00     0.017 A 
ATOM     14  C   UNL     1      11.101 -56.317 -22.928  1.00  0.00     0.017 A 
ATOM     15  C   UNL     1      12.418 -56.005 -24.969  1.00  0.00     0.022 A 
ATOM     16  C   UNL     1      11.033 -54.937 -22.729  1.00  0.00    -0.022 A 
ATOM     17  C   UNL     1      12.373 -54.613 -24.769  1.00  0.00     0.001 A 
ATOM     18  C   UNL     1      11.673 -54.140 -23.675  1.00  0.00     0.059 A 
ATOM     19  C   UNL     1      10.436 -54.251 -21.540  1.00  0.00     0.047 C 
ATOM     20  C   UNL     1      12.909 -53.470 -25.422  1.00  0.00     0.029 A 
ATOM     21  N   UNL     1      11.729 -52.765 -23.658  1.00  0.00    -0.287 N 
ATOM     22  C   UNL     1      10.046 -52.799 -21.876  1.00  0.00     0.106 C 
ATOM     23  C   UNL     1      12.524 -52.353 -24.705  1.00  0.00     0.095 A 
ATOM     24  C   UNL     1      11.053 -52.000 -22.699  1.00  0.00     0.231 C 
ATOM     25  O   UNL     1      11.210 -50.789 -22.661  1.00  0.00    -0.274 OA
ENDBRANCH  10  13
ENDBRANCH   9  10
ENDBRANCH   8   9
ENDBRANCH   1   8
BRANCH   4  26
ATOM     26  C   UNL     1       7.906 -62.890 -24.526  1.00  0.00     0.299 C 
BRANCH  26  27
ATOM     27  C   UNL     1       8.249 -62.735 -25.982  1.00  0.00     0.010 A 
ATOM     28  C   UNL     1       9.195 -61.788 -26.405  1.00  0.00     0.010 A 
ATOM     29  C   UNL     1       7.635 -63.552 -26.943  1.00  0.00     0.055 A 
ATOM     30  C   UNL     1       9.522 -61.670 -27.758  1.00  0.00     0.004 A 
ATOM     31  C   UNL     1       7.973 -63.427 -28.286  1.00  0.00     0.116 A 
ATOM     32  C   UNL     1       8.912 -62.494 -28.704  1.00  0.00     0.046 A 
BRANCH  31  33
ATOM     33  O   UNL     1       7.347 -64.257 -29.165  1.00  0.00    -0.508 OA
ATOM     34  H   UNL     1       7.496 -63.935 -30.071  1.00  0.00     0.293 HD
ENDBRANCH  31  33
ENDBRANCH  26  27
ENDBRANCH   4  26
TORSDOF 8
ENDMDL
MODEL 6
REMARK VINA RESULT:   -11.276      3.161      4.448
REMARK INTER + INTRA:         -16.476
REMARK INTER:                 -15.672
REMARK INTRA:                  -0.804
REMARK UNBOUND:                -0.586
REMARK SMILES O=C1CCc2cc(C(O)=CC[C@H]3CC[N@H+](Cc4cccc(O)c4)CC3)cc3ccn1c23
REMARK SMILES IDX 12 1 13 2 14 3 15 4 24 5 25 6 11 8 10 9 8 10 9 11 7 13 6 14
REMARK SMILES IDX 26 15 5 16 27 17 31 18 4 19 28 20 30 21 3 22 29 23 2 24 1 25
REMARK SMILES IDX 16 26 17 27 18 28 23 29 19 30 21 31 20 32 22 33
REMARK H PARENT 15 7 9 12 22 34
ROOT
ATOM      1  C   UNL     1      11.801 -59.847 -22.970  1.00  0.00     0.004 C 
ATOM      2  C   UNL     1      12.858 -60.528 -23.848  1.00  0.00     0.065 C 
ATOM      3  C   UNL     1      12.623 -60.352 -25.345  1.00  0.00     0.262 C 
ATOM      4  N   UNL     1      11.151 -60.332 -25.679  1.00  0.00    -0.331 N 
ATOM      5  C   UNL     1      10.312 -61.077 -24.678  1.00  0.00     0.262 C 
ATOM      6  C   UNL     1      10.392 -60.364 -23.329  1.00  0.00     0.065 C 
ATOM      7  H   UNL     1      10.842 -59.352 -25.637  1.00  0.00     0.348 HD
ENDROOT
BRANCH   1   8
ATOM      8  C   UNL     1      11.916 -58.309 -23.063  1.00  0.00     0.035 C 
BRANCH   8   9
ATOM      9  C   UNL     1      10.746 -57.600 -22.443  1.00  0.00     0.020 C 
BRANCH   9  10
ATOM     10  C   UNL     1      10.087 -56.586 -23.022  1.00  0.00     0.118 C 
BRANCH  10  11
ATOM     11  O   UNL     1       8.789 -56.726 -23.458  1.00  0.00    -0.508 OA
ATOM     12  H   UNL     1       8.817 -57.006 -24.392  1.00  0.00     0.293 HD
ENDBRANCH  10  11
BRANCH  10  13
ATOM     13  C   UNL     1      10.701 -55.264 -23.210  1.00  0.00     0.017 A 
ATOM     14  C   UNL     1      10.529 -54.258 -22.243  1.00  0.00     0.017 A 
ATOM     15  C   UNL     1      11.491 -55.033 -24.357  1.00  0.00     0.022 A 
ATOM     16  C   UNL     1      11.113 -53.000 -22.408  1.00  0.00    -0.022 A 
ATOM     17  C   UNL     1      12.100 -53.776 -24.526  1.00  0.00     0.001 A 
ATOM     18  C   UNL     1      11.873 -52.814 -23.560  1.00  0.00     0.059 A 
ATOM     19  C   UNL     1      11.086 -51.884 -21.411  1.00  0.00     0.047 C 
ATOM     20  C   UNL     1      12.970 -53.183 -25.481  1.00  0.00     0.029 A 
ATOM     21  N   UNL     1      12.533 -51.656 -23.905  1.00  0.00    -0.287 N 
ATOM     22  C   UNL     1      11.329 -50.526 -22.094  1.00  0.00     0.106 C 
ATOM     23  C   UNL     1      13.243 -51.894 -25.062  1.00  0.00     0.095 A 
ATOM     24  C   UNL     1      12.434 -50.483 -23.146  1.00  0.00     0.231 C 
ATOM     25  O   UNL     1      13.115 -49.510 -23.433  1.00  0.00    -0.274 OA
ENDBRANCH  10  13
ENDBRANCH   9  10
ENDBRANCH   8   9
ENDBRANCH   1   8
BRANCH   4  26
ATOM     26  C   UNL     1      10.902 -60.759 -27.111  1.00  0.00     0.299 C 
BRANCH  26  27
ATOM     27  C   UNL     1      11.365 -59.743 -28.118  1.00  0.00     0.010 A 
ATOM     28  C   UNL     1      11.742 -58.451 -27.719  1.00  0.00     0.010 A 
ATOM     29  C   UNL     1      11.442 -60.080 -29.478  1.00  0.00     0.055 A 
ATOM     30  C   UNL     1      12.193 -57.523 -28.661  1.00  0.00     0.004 A 
ATOM     31  C   UNL     1      11.897 -59.148 -30.404  1.00  0.00     0.116 A 
ATOM     32  C   UNL     1      12.275 -57.872 -30.010  1.00  0.00     0.046 A 
BRANCH  31  33
ATOM     33  O   UNL     1      11.957 -59.542 -31.706  1.00  0.00    -0.508 OA
ATOM     34  H   UNL     1      11.732 -58.789 -32.279  1.00  0.00     0.293 HD
ENDBRANCH  31  33
ENDBRANCH  26  27
ENDBRANCH   4  26
TORSDOF 8
ENDMDL
MODEL 7
REMARK VINA RESULT:   -11.107      1.978     11.365
REMARK INTER + INTRA:         -16.238
REMARK INTER:                 -15.617
REMARK INTRA:                  -0.621
REMARK UNBOUND:                -0.586
REMARK SMILES O=C1CCc2cc(C(O)=CC[C@H]3CC[N@H+](Cc4cccc(O)c4)CC3)cc3ccn1c23
REMARK SMILES IDX 12 1 13 2 14 3 15 4 24 5 25 6 11 8 10 9 8 10 9 11 7 13 6 14
REMARK SMILES IDX 26 15 5 16 27 17 31 18 4 19 28 20 30 21 3 22 29 23 2 24 1 25
REMARK SMILES IDX 16 26 17 27 18 28 23 29 19 30 21 31 20 32 22 33
REMARK H PARENT 15 7 9 12 22 34
ROOT
ATOM      1  C   UNL     1      13.064 -52.189 -23.847  1.00  0.00     0.004 C 
ATOM      2  C   UNL     1      13.987 -51.219 -23.098  1.00  0.00     0.065 C 
ATOM      3  C   UNL     1      13.574 -49.756 -23.222  1.00  0.00     0.262 C 
ATOM      4  N   UNL     1      12.975 -49.458 -24.576  1.00  0.00    -0.331 N 
ATOM      5  C   UNL     1      13.463 -50.391 -25.650  1.00  0.00     0.262 C 
ATOM      6  C   UNL     1      12.981 -51.807 -25.339  1.00  0.00     0.065 C 
ATOM      7  H   UNL     1      11.962 -49.614 -24.502  1.00  0.00     0.348 HD
ENDROOT
BRANCH   1   8
ATOM      8  C   UNL     1      11.677 -52.261 -23.170  1.00  0.00     0.035 C 
BRANCH   8   9
ATOM      9  C   UNL     1      11.013 -53.597 -23.346  1.00  0.00     0.020 C 
BRANCH   9  10
ATOM     10  C   UNL     1      10.588 -54.366 -22.333  1.00  0.00     0.118 C 
BRANCH  10  11
ATOM     11  O   UNL     1      10.373 -53.847 -21.077  1.00  0.00    -0.508 OA
ATOM     12  H   UNL     1      10.709 -54.491 -20.426  1.00  0.00     0.293 HD
ENDBRANCH  10  11
BRANCH  10  13
ATOM     13  C   UNL     1      10.309 -55.799 -22.505  1.00  0.00     0.017 A 
ATOM     14  C   UNL     1       9.092 -56.222 -23.064  1.00  0.00     0.017 A 
ATOM     15  C   UNL     1      11.296 -56.737 -22.131  1.00  0.00     0.022 A 
ATOM     16  C   UNL     1       8.819 -57.581 -23.238  1.00  0.00    -0.022 A 
ATOM     17  C   UNL     1      11.041 -58.108 -22.319  1.00  0.00     0.001 A 
ATOM     18  C   UNL     1       9.815 -58.470 -22.844  1.00  0.00     0.059 A 
ATOM     19  C   UNL     1       7.609 -58.153 -23.908  1.00  0.00     0.047 C 
ATOM     20  C   UNL     1      11.761 -59.317 -22.120  1.00  0.00     0.029 A 
ATOM     21  N   UNL     1       9.747 -59.842 -22.938  1.00  0.00    -0.287 N 
ATOM     22  C   UNL     1       7.364 -59.606 -23.462  1.00  0.00     0.106 C 
ATOM     23  C   UNL     1      10.957 -60.362 -22.534  1.00  0.00     0.095 A 
ATOM     24  C   UNL     1       8.594 -60.506 -23.376  1.00  0.00     0.231 C 
ATOM     25  O   UNL     1       8.610 -61.717 -23.538  1.00  0.00    -0.274 OA
ENDBRANCH  10  13
ENDBRANCH   9  10
ENDBRANCH   8   9
ENDBRANCH   1   8
BRANCH   4  26
ATOM     26  C   UNL     1      13.121 -47.994 -24.937  1.00  0.00     0.299 C 
BRANCH  26  27
ATOM     27  C   UNL     1      12.740 -47.070 -23.813  1.00  0.00     0.010 A 
ATOM     28  C   UNL     1      13.674 -46.181 -23.260  1.00  0.00     0.010 A 
ATOM     29  C   UNL     1      11.430 -47.075 -23.309  1.00  0.00     0.055 A 
ATOM     30  C   UNL     1      13.301 -45.312 -22.231  1.00  0.00     0.004 A 
ATOM     31  C   UNL     1      11.072 -46.201 -22.289  1.00  0.00     0.116 A 
ATOM     32  C   UNL     1      11.994 -45.318 -21.745  1.00  0.00     0.046 A 
BRANCH  31  33
ATOM     33  O   UNL     1       9.783 -46.250 -21.852  1.00  0.00    -0.508 OA
ATOM     34  H   UNL     1       9.270 -46.840 -22.432  1.00  0.00     0.293 HD
ENDBRANCH  31  33
ENDBRANCH  26  27
ENDBRANCH   4  26
TORSDOF 8
ENDMDL
MODEL 8
REMARK VINA RESULT:   -11.049      2.023     11.492
REMARK INTER + INTRA:         -16.157
REMARK INTER:                 -15.740
REMARK INTRA:                  -0.417
REMARK UNBOUND:                -0.586
REMARK SMILES O=C1CCc2cc(C(O)=CC[C@H]3CC[N@H+](Cc4cccc(O)c4)CC3)cc3ccn1c23
REMARK SMILES IDX 12 1 13 2 14 3 15 4 24 5 25 6 11 8 10 9 8 10 9 11 7 13 6 14
REMARK SMILES IDX 26 15 5 16 27 17 31 18 4 19 28 20 30 21 3 22 29 23 2 24 1 25
REMARK SMILES IDX 16 26 17 27 18 28 23 29 19 30 21 31 20 32 22 33
REMARK H PARENT 15 7 9 12 22 34
ROOT
ATOM      1  C   UNL     1      10.474 -53.126 -22.807  1.00  0.00     0.004 C 
ATOM      2  C   UNL     1      11.547 -52.669 -23.804  1.00  0.00     0.065 C 
ATOM      3  C   UNL     1      12.589 -51.732 -23.201  1.00  0.00     0.262 C 
ATOM      4  N   UNL     1      11.984 -50.826 -22.154  1.00  0.00    -0.331 N 
ATOM      5  C   UNL     1      10.515 -50.586 -22.365  1.00  0.00     0.262 C 
ATOM      6  C   UNL     1       9.763 -51.904 -22.188  1.00  0.00     0.065 C 
ATOM      7  H   UNL     1      12.068 -51.307 -21.250  1.00  0.00     0.348 HD
ENDROOT
BRANCH   1   8
ATOM      8  C   UNL     1      11.077 -54.071 -21.744  1.00  0.00     0.035 C 
BRANCH   8   9
ATOM      9  C   UNL     1      10.544 -55.472 -21.843  1.00  0.00     0.020 C 
BRANCH   9  10
ATOM     10  C   UNL     1      10.815 -56.310 -22.855  1.00  0.00     0.118 C 
BRANCH  10  11
ATOM     11  O   UNL     1      11.766 -56.011 -23.803  1.00  0.00    -0.508 OA
ATOM     12  H   UNL     1      12.628 -55.943 -23.350  1.00  0.00     0.293 HD
ENDBRANCH  10  11
BRANCH  10  13
ATOM     13  C   UNL     1      10.127 -57.600 -23.004  1.00  0.00     0.017 A 
ATOM     14  C   UNL     1      10.861 -58.799 -23.000  1.00  0.00     0.017 A 
ATOM     15  C   UNL     1       8.719 -57.617 -23.115  1.00  0.00     0.022 A 
ATOM     16  C   UNL     1      10.218 -60.031 -23.134  1.00  0.00    -0.022 A 
ATOM     17  C   UNL     1       8.058 -58.853 -23.231  1.00  0.00     0.001 A 
ATOM     18  C   UNL     1       8.831 -59.998 -23.253  1.00  0.00     0.059 A 
ATOM     19  C   UNL     1      10.871 -61.375 -23.048  1.00  0.00     0.047 C 
ATOM     20  C   UNL     1       6.706 -59.283 -23.319  1.00  0.00     0.029 A 
ATOM     21  N   UNL     1       8.012 -61.098 -23.388  1.00  0.00    -0.287 N 
ATOM     22  C   UNL     1      10.024 -62.449 -23.754  1.00  0.00     0.106 C 
ATOM     23  C   UNL     1       6.705 -60.664 -23.385  1.00  0.00     0.095 A 
ATOM     24  C   UNL     1       8.519 -62.398 -23.506  1.00  0.00     0.231 C 
ATOM     25  O   UNL     1       7.756 -63.352 -23.523  1.00  0.00    -0.274 OA
ENDBRANCH  10  13
ENDBRANCH   9  10
ENDBRANCH   8   9
ENDBRANCH   1   8
BRANCH   4  26
ATOM     26  C   UNL     1      12.786 -49.550 -21.995  1.00  0.00     0.299 C 
BRANCH  26  27
ATOM     27  C   UNL     1      12.150 -48.367 -22.671  1.00  0.00     0.010 A 
ATOM     28  C   UNL     1      12.397 -48.088 -24.024  1.00  0.00     0.010 A 
ATOM     29  C   UNL     1      11.280 -47.530 -21.956  1.00  0.00     0.055 A 
ATOM     30  C   UNL     1      11.781 -46.999 -24.646  1.00  0.00     0.004 A 
ATOM     31  C   UNL     1      10.670 -46.453 -22.589  1.00  0.00     0.116 A 
ATOM     32  C   UNL     1      10.910 -46.179 -23.928  1.00  0.00     0.046 A 
BRANCH  31  33
ATOM     33  O   UNL     1       9.829 -45.686 -21.840  1.00  0.00    -0.508 OA
ATOM     34  H   UNL     1       8.911 -45.863 -22.108  1.00  0.00     0.293 HD
ENDBRANCH  31  33
ENDBRANCH  26  27
ENDBRANCH   4  26
TORSDOF 8
ENDMDL
MODEL 9
REMARK VINA RESULT:   -10.687      2.112      3.795
REMARK INTER + INTRA:         -15.647
REMARK INTER:                 -14.919
REMARK INTRA:                  -0.728
REMARK UNBOUND:                -0.586
REMARK SMILES O=C1CCc2cc(C(O)=CC[C@H]3CC[N@H+](Cc4cccc(O)c4)CC3)cc3ccn1c23
REMARK SMILES IDX 12 1 13 2 14 3 15 4 24 5 25 6 11 8 10 9 8 10 9 11 7 13 6 14
REMARK SMILES IDX 26 15 5 16 27 17 31 18 4 19 28 20 30 21 3 22 29 23 2 24 1 25
REMARK SMILES IDX 16 26 17 27 18 28 23 29 19 30 21 31 20 32 22 33
REMARK H PARENT 15 7 9 12 22 34
ROOT
ATOM      1  C   UNL     1      10.540 -53.812 -23.225  1.00  0.00     0.004 C 
ATOM      2  C   UNL     1       9.536 -54.961 -23.378  1.00  0.00     0.065 C 
ATOM      3  C   UNL     1      10.135 -56.341 -23.127  1.00  0.00     0.262 C 
ATOM      4  N   UNL     1      11.569 -56.419 -23.595  1.00  0.00    -0.331 N 
ATOM      5  C   UNL     1      11.878 -55.447 -24.701  1.00  0.00     0.262 C 
ATOM      6  C   UNL     1      11.745 -54.023 -24.165  1.00  0.00     0.065 C 
ATOM      7  H   UNL     1      12.164 -56.148 -22.803  1.00  0.00     0.348 HD
ENDROOT
BRANCH   1   8
ATOM      8  C   UNL     1      10.957 -53.639 -21.747  1.00  0.00     0.035 C 
BRANCH   8   9
ATOM      9  C   UNL     1      10.939 -52.205 -21.302  1.00  0.00     0.020 C 
BRANCH   9  10
ATOM     10  C   UNL     1      10.279 -51.227 -21.939  1.00  0.00     0.118 C 
BRANCH  10  11
ATOM     11  O   UNL     1       8.905 -51.147 -21.909  1.00  0.00    -0.508 OA
ATOM     12  H   UNL     1       8.651 -50.255 -22.210  1.00  0.00     0.293 HD
ENDBRANCH  10  11
BRANCH  10  13
ATOM     13  C   UNL     1      10.978 -50.175 -22.691  1.00  0.00     0.017 A 
ATOM     14  C   UNL     1      12.119 -50.486 -23.451  1.00  0.00     0.017 A 
ATOM     15  C   UNL     1      10.466 -48.859 -22.665  1.00  0.00     0.022 A 
ATOM     16  C   UNL     1      12.788 -49.496 -24.174  1.00  0.00    -0.022 A 
ATOM     17  C   UNL     1      11.119 -47.857 -23.405  1.00  0.00     0.001 A 
ATOM     18  C   UNL     1      12.255 -48.212 -24.109  1.00  0.00     0.059 A 
ATOM     19  C   UNL     1      13.948 -49.716 -25.093  1.00  0.00     0.047 C 
ATOM     20  C   UNL     1      10.905 -46.476 -23.664  1.00  0.00     0.029 A 
ATOM     21  N   UNL     1      12.758 -47.102 -24.751  1.00  0.00    -0.287 N 
ATOM     22  C   UNL     1      14.755 -48.418 -25.287  1.00  0.00     0.106 C 
ATOM     23  C   UNL     1      11.906 -46.045 -24.515  1.00  0.00     0.095 A 
ATOM     24  C   UNL     1      13.945 -47.141 -25.492  1.00  0.00     0.231 C 
ATOM     25  O   UNL     1      14.302 -46.159 -26.127  1.00  0.00    -0.274 OA
ENDBRANCH  10  13
ENDBRANCH   9  10
ENDBRANCH   8   9
ENDBRANCH   1   8
BRANCH   4  26
ATOM     26  C   UNL     1      11.970 -57.845 -23.917  1.00  0.00     0.299 C 
BRANCH  26  27
ATOM     27  C   UNL     1      11.279 -58.859 -23.048  1.00  0.00     0.010 A 
ATOM     28  C   UNL     1      11.291 -58.741 -21.649  1.00  0.00     0.010 A 
ATOM     29  C   UNL     1      10.596 -59.938 -23.629  1.00  0.00     0.055 A 
ATOM     30  C   UNL     1      10.625 -59.678 -20.855  1.00  0.00     0.004 A 
ATOM     31  C   UNL     1       9.934 -60.861 -22.826  1.00  0.00     0.116 A 
ATOM     32  C   UNL     1       9.941 -60.741 -21.443  1.00  0.00     0.046 A 
BRANCH  31  33
ATOM     33  O   UNL     1       9.282 -61.878 -23.454  1.00  0.00    -0.508 OA
ATOM     34  H   UNL     1       9.211 -62.635 -22.848  1.00  0.00     0.293 HD
ENDBRANCH  31  33
ENDBRANCH  26  27
ENDBRANCH   4  26
TORSDOF 8
ENDMDL
