MODEL 1
REMARK VINA RESULT:   -12.224      0.000      0.000
REMARK INTER + INTRA:         -16.754
REMARK INTER:                 -16.154
REMARK INTRA:                  -0.600
REMARK UNBOUND:                -0.600
REMARK SMILES O=C1C(NCCN=c2c3c([nH]c4cc(Cl)ccc24)CCCC3)=CC(=O)c2c(O)cccc21
REMARK SMILES IDX 5 1 6 2 7 3 8 4 11 5 10 6 12 7 9 8 19 9 13 10 18 11 22 12
REMARK SMILES IDX 20 13 14 14 17 15 21 16 16 17 15 19 4 20 3 22 23 23 2 24
REMARK SMILES IDX 24 25 32 26 26 27 31 28 27 29 30 30 29 31 1 32 25 33 28 34
REMARK H PARENT 11 18 4 21 28 35
ROOT
ATOM      1  C   UNL     1      11.743 -58.543 -22.905  1.00  0.00     0.136 C 
ENDROOT
BRANCH   1   2
ATOM      2  C   UNL     1      10.942 -59.857 -22.795  1.00  0.00     0.164 C 
BRANCH   2   3
ATOM      3  N   UNL     1      11.295 -60.717 -23.916  1.00  0.00    -0.282 NA
BRANCH   3   4
ATOM      4  C   UNL     1      10.514 -61.031 -24.887  1.00  0.00     0.072 A 
ATOM      5  N   UNL     1       9.411 -62.037 -27.296  1.00  0.00    -0.358 N 
ATOM      6  C   UNL     1       8.840 -62.382 -26.088  1.00  0.00     0.021 A 
ATOM      7  C   UNL     1      10.312 -60.968 -27.384  1.00  0.00     0.049 A 
ATOM      8  C   UNL     1       9.289 -61.929 -24.895  1.00  0.00    -0.003 A 
ATOM      9  C   UNL     1       7.630 -63.292 -26.195  1.00  0.00     0.054 C 
ATOM     10  C   UNL     1      10.713 -60.475 -28.632  1.00  0.00     0.047 A 
ATOM     11  C   UNL     1      10.879 -60.434 -26.220  1.00  0.00     0.024 A 
ATOM     12  C   UNL     1       8.560 -62.219 -23.610  1.00  0.00     0.039 C 
ATOM     13  C   UNL     1       7.139 -63.851 -24.863  1.00  0.00     0.007 C 
ATOM     14  C   UNL     1      11.639 -59.434 -28.709  1.00  0.00     0.043 A 
ATOM     15  C   UNL     1      11.813 -59.391 -26.306  1.00  0.00     0.014 A 
ATOM     16  C   UNL     1       7.144 -62.763 -23.803  1.00  0.00     0.005 C 
ATOM     17  C   UNL     1      12.188 -58.886 -27.552  1.00  0.00     0.021 A 
ATOM     18  H   UNL     1       8.880 -62.258 -28.132  1.00  0.00     0.166 HD
ATOM     19  Cl  UNL     1      12.110 -58.826 -30.248  1.00  0.00    -0.084 Cl
ENDBRANCH   3   4
ENDBRANCH   2   3
ENDBRANCH   1   2
BRANCH   1  20
ATOM     20  N   UNL     1      10.856 -57.470 -23.357  1.00  0.00    -0.380 N 
ATOM     21  H   UNL     1       9.881 -57.768 -23.276  1.00  0.00     0.160 HD
BRANCH  20  22
ATOM     22  C   UNL     1      11.049 -56.109 -23.141  1.00  0.00     0.087 C 
ATOM     23  C   UNL     1      10.600 -55.511 -22.031  1.00  0.00     0.082 C 
ATOM     24  C   UNL     1      11.767 -55.261 -24.162  1.00  0.00     0.209 C 
ATOM     25  C   UNL     1      10.756 -54.078 -21.724  1.00  0.00     0.192 C 
ATOM     26  C   UNL     1      11.895 -53.808 -23.910  1.00  0.00     0.039 A 
ATOM     27  C   UNL     1      11.409 -53.223 -22.739  1.00  0.00     0.075 A 
ATOM     28  C   UNL     1      12.525 -53.019 -24.887  1.00  0.00     0.013 A 
ATOM     29  C   UNL     1      11.564 -51.836 -22.563  1.00  0.00     0.127 A 
ATOM     30  C   UNL     1      12.672 -51.647 -24.700  1.00  0.00     0.005 A 
ATOM     31  C   UNL     1      12.190 -51.054 -23.537  1.00  0.00     0.047 A 
ATOM     32  O   UNL     1      12.251 -55.730 -25.189  1.00  0.00    -0.287 OA
ATOM     33  O   UNL     1      10.340 -53.671 -20.647  1.00  0.00    -0.289 OA
BRANCH  29  34
ATOM     34  O   UNL     1      11.101 -51.217 -21.437  1.00  0.00    -0.507 OA
ATOM     35  H   UNL     1      10.145 -51.351 -21.341  1.00  0.00     0.293 HD
ENDBRANCH  29  34
ENDBRANCH  20  22
ENDBRANCH   1  20
TORSDOF 6
ENDMDL
MODEL 2
REMARK VINA RESULT:   -12.185      2.112      3.842
REMARK INTER + INTRA:         -16.702
REMARK INTER:                 -16.144
REMARK INTRA:                  -0.558
REMARK UNBOUND:                -0.600
REMARK SMILES O=C1C(NCCN=c2c3c([nH]c4cc(Cl)ccc24)CCCC3)=CC(=O)c2c(O)cccc21
REMARK SMILES IDX 5 1 6 2 7 3 8 4 11 5 10 6 12 7 9 8 19 9 13 10 18 11 22 12
REMARK SMILES IDX 20 13 14 14 17 15 21 16 16 17 15 19 4 20 3 22 23 23 2 24
REMARK SMILES IDX 24 25 32 26 26 27 31 28 27 29 30 30 29 31 1 32 25 33 28 34
REMARK H PARENT 11 18 4 21 28 35
ROOT
ATOM      1  C   UNL     1      11.056 -57.713 -22.978  1.00  0.00     0.136 C 
ENDROOT
BRANCH   1   2
ATOM      2  C   UNL     1      12.087 -58.225 -24.005  1.00  0.00     0.164 C 
BRANCH   2   3
ATOM      3  N   UNL     1      12.032 -59.680 -24.041  1.00  0.00    -0.282 NA
BRANCH   3   4
ATOM      4  C   UNL     1      11.419 -60.379 -24.927  1.00  0.00     0.072 A 
ATOM      5  N   UNL     1       9.465 -61.621 -26.562  1.00  0.00    -0.358 N 
ATOM      6  C   UNL     1      10.472 -60.879 -27.146  1.00  0.00     0.021 A 
ATOM      7  C   UNL     1       9.561 -62.035 -25.228  1.00  0.00     0.049 A 
ATOM      8  C   UNL     1      11.455 -60.272 -26.441  1.00  0.00    -0.003 A 
ATOM      9  C   UNL     1      10.418 -60.817 -28.662  1.00  0.00     0.054 C 
ATOM     10  C   UNL     1       8.660 -62.970 -24.705  1.00  0.00     0.047 A 
ATOM     11  C   UNL     1      10.515 -61.453 -24.382  1.00  0.00     0.024 A 
ATOM     12  C   UNL     1      12.610 -59.584 -27.120  1.00  0.00     0.039 C 
ATOM     13  C   UNL     1      11.389 -59.822 -29.290  1.00  0.00     0.007 C 
ATOM     14  C   UNL     1       8.742 -63.348 -23.364  1.00  0.00     0.043 A 
ATOM     15  C   UNL     1      10.587 -61.834 -23.034  1.00  0.00     0.014 A 
ATOM     16  C   UNL     1      12.744 -59.908 -28.609  1.00  0.00     0.005 C 
ATOM     17  C   UNL     1       9.703 -62.788 -22.527  1.00  0.00     0.021 A 
ATOM     18  H   UNL     1       8.906 -62.199 -27.181  1.00  0.00     0.166 HD
ATOM     19  Cl  UNL     1       7.640 -64.512 -22.740  1.00  0.00    -0.084 Cl
ENDBRANCH   3   4
ENDBRANCH   2   3
ENDBRANCH   1   2
BRANCH   1  20
ATOM     20  N   UNL     1      10.415 -56.504 -23.496  1.00  0.00    -0.380 N 
ATOM     21  H   UNL     1       9.399 -56.613 -23.477  1.00  0.00     0.160 HD
BRANCH  20  22
ATOM     22  C   UNL     1      10.847 -55.198 -23.279  1.00  0.00     0.087 C 
ATOM     23  C   UNL     1      10.528 -54.539 -22.159  1.00  0.00     0.082 C 
ATOM     24  C   UNL     1      11.682 -54.481 -24.310  1.00  0.00     0.209 C 
ATOM     25  C   UNL     1      10.937 -53.157 -21.849  1.00  0.00     0.192 C 
ATOM     26  C   UNL     1      12.065 -53.074 -24.056  1.00  0.00     0.039 A 
ATOM     27  C   UNL     1      11.710 -52.421 -22.874  1.00  0.00     0.075 A 
ATOM     28  C   UNL     1      12.805 -52.400 -25.042  1.00  0.00     0.013 A 
ATOM     29  C   UNL     1      12.107 -51.084 -22.696  1.00  0.00     0.127 A 
ATOM     30  C   UNL     1      13.192 -51.076 -24.853  1.00  0.00     0.005 A 
ATOM     31  C   UNL     1      12.842 -50.415 -23.679  1.00  0.00     0.047 A 
ATOM     32  O   UNL     1      12.059 -55.020 -25.347  1.00  0.00    -0.287 OA
ATOM     33  O   UNL     1      10.617 -52.690 -20.763  1.00  0.00    -0.289 OA
BRANCH  29  34
ATOM     34  O   UNL     1      11.779 -50.401 -21.559  1.00  0.00    -0.507 OA
ATOM     35  H   UNL     1      11.853 -49.444 -21.700  1.00  0.00     0.293 HD
ENDBRANCH  29  34
ENDBRANCH  20  22
ENDBRANCH   1  20
TORSDOF 6
ENDMDL
MODEL 3
REMARK VINA RESULT:   -11.690      4.129      9.462
REMARK INTER + INTRA:         -16.048
REMARK INTER:                 -16.035
REMARK INTRA:                  -0.013
REMARK UNBOUND:                -0.600
REMARK SMILES O=C1C(NCCN=c2c3c([nH]c4cc(Cl)ccc24)CCCC3)=CC(=O)c2c(O)cccc21
REMARK SMILES IDX 5 1 6 2 7 3 8 4 11 5 10 6 12 7 9 8 19 9 13 10 18 11 22 12
REMARK SMILES IDX 20 13 14 14 17 15 21 16 16 17 15 19 4 20 3 22 23 23 2 24
REMARK SMILES IDX 24 25 32 26 26 27 31 28 27 29 30 30 29 31 1 32 25 33 28 34
REMARK H PARENT 11 18 4 21 28 35
ROOT
ATOM      1  C   UNL     1       9.925 -55.979 -22.528  1.00  0.00     0.136 C 
ENDROOT
BRANCH   1   2
ATOM      2  C   UNL     1       9.484 -54.507 -22.385  1.00  0.00     0.164 C 
BRANCH   2   3
ATOM      3  N   UNL     1      10.662 -53.685 -22.143  1.00  0.00    -0.282 NA
BRANCH   3   4
ATOM      4  C   UNL     1      11.261 -52.966 -23.023  1.00  0.00     0.072 A 
ATOM      5  N   UNL     1      12.934 -51.114 -24.366  1.00  0.00    -0.358 N 
ATOM      6  C   UNL     1      12.954 -52.444 -24.735  1.00  0.00     0.021 A 
ATOM      7  C   UNL     1      11.897 -50.606 -23.574  1.00  0.00     0.049 A 
ATOM      8  C   UNL     1      12.173 -53.388 -24.162  1.00  0.00    -0.003 A 
ATOM      9  C   UNL     1      13.904 -52.773 -25.872  1.00  0.00     0.054 C 
ATOM     10  C   UNL     1      11.752 -49.225 -23.390  1.00  0.00     0.047 A 
ATOM     11  C   UNL     1      11.041 -51.482 -22.895  1.00  0.00     0.024 A 
ATOM     12  C   UNL     1      12.125 -54.801 -24.680  1.00  0.00     0.039 C 
ATOM     13  C   UNL     1      14.092 -54.265 -26.128  1.00  0.00     0.007 C 
ATOM     14  C   UNL     1      10.738 -48.731 -22.569  1.00  0.00     0.043 A 
ATOM     15  C   UNL     1      10.027 -50.977 -22.067  1.00  0.00     0.014 A 
ATOM     16  C   UNL     1      12.755 -54.982 -26.062  1.00  0.00     0.005 C 
ATOM     17  C   UNL     1       9.871 -49.599 -21.910  1.00  0.00     0.021 A 
ATOM     18  H   UNL     1      13.397 -50.460 -24.989  1.00  0.00     0.166 HD
ATOM     19  Cl  UNL     1      10.560 -47.031 -22.366  1.00  0.00    -0.084 Cl
ENDBRANCH   3   4
ENDBRANCH   2   3
ENDBRANCH   1   2
BRANCH   1  20
ATOM     20  N   UNL     1       9.051 -56.656 -23.485  1.00  0.00    -0.380 N 
ATOM     21  H   UNL     1       9.185 -56.262 -24.419  1.00  0.00     0.160 HD
BRANCH  20  22
ATOM     22  C   UNL     1       8.740 -58.013 -23.485  1.00  0.00     0.087 C 
ATOM     23  C   UNL     1       7.479 -58.437 -23.624  1.00  0.00     0.082 C 
ATOM     24  C   UNL     1       9.823 -59.051 -23.319  1.00  0.00     0.209 C 
ATOM     25  C   UNL     1       7.060 -59.850 -23.631  1.00  0.00     0.192 C 
ATOM     26  C   UNL     1       9.432 -60.478 -23.268  1.00  0.00     0.039 A 
ATOM     27  C   UNL     1       8.102 -60.879 -23.415  1.00  0.00     0.075 A 
ATOM     28  C   UNL     1      10.441 -61.435 -23.068  1.00  0.00     0.013 A 
ATOM     29  C   UNL     1       7.800 -62.251 -23.357  1.00  0.00     0.127 A 
ATOM     30  C   UNL     1      10.128 -62.791 -23.013  1.00  0.00     0.005 A 
ATOM     31  C   UNL     1       8.806 -63.200 -23.156  1.00  0.00     0.047 A 
ATOM     32  O   UNL     1      11.012 -58.759 -23.229  1.00  0.00    -0.287 OA
ATOM     33  O   UNL     1       5.876 -60.100 -23.816  1.00  0.00    -0.289 OA
BRANCH  29  34
ATOM     34  O   UNL     1       6.513 -62.691 -23.489  1.00  0.00    -0.507 OA
ATOM     35  H   UNL     1       6.485 -63.660 -23.528  1.00  0.00     0.293 HD
ENDBRANCH  29  34
ENDBRANCH  20  22
ENDBRANCH   1  20
TORSDOF 6
ENDMDL
MODEL 4
REMARK VINA RESULT:   -11.400      3.403      8.902
REMARK INTER + INTRA:         -15.665
REMARK INTER:                 -15.066
REMARK INTRA:                  -0.599
REMARK UNBOUND:                -0.600
REMARK SMILES O=C1C(NCCN=c2c3c([nH]c4cc(Cl)ccc24)CCCC3)=CC(=O)c2c(O)cccc21
REMARK SMILES IDX 5 1 6 2 7 3 8 4 11 5 10 6 12 7 9 8 19 9 13 10 18 11 22 12
REMARK SMILES IDX 20 13 14 14 17 15 21 16 16 17 15 19 4 20 3 22 23 23 2 24
REMARK SMILES IDX 24 25 32 26 26 27 31 28 27 29 30 30 29 31 1 32 25 33 28 34
REMARK H PARENT 11 18 4 21 28 35
ROOT
ATOM      1  C   UNL     1      12.475 -56.810 -26.655  1.00  0.00     0.136 C 
ENDROOT
BRANCH   1   2
ATOM      2  C   UNL     1      13.190 -55.511 -26.229  1.00  0.00     0.164 C 
BRANCH   2   3
ATOM      3  N   UNL     1      12.187 -54.488 -25.963  1.00  0.00    -0.282 NA
BRANCH   3   4
ATOM      4  C   UNL     1      12.136 -53.751 -24.912  1.00  0.00     0.072 A 
ATOM      5  N   UNL     1      11.620 -51.688 -23.039  1.00  0.00    -0.358 N 
ATOM      6  C   UNL     1      11.279 -52.990 -22.732  1.00  0.00     0.021 A 
ATOM      7  C   UNL     1      12.488 -51.406 -24.101  1.00  0.00     0.049 A 
ATOM      8  C   UNL     1      11.510 -54.036 -23.558  1.00  0.00    -0.003 A 
ATOM      9  C   UNL     1      10.646 -53.174 -21.364  1.00  0.00     0.054 C 
ATOM     10  C   UNL     1      13.012 -50.119 -24.271  1.00  0.00     0.047 A 
ATOM     11  C   UNL     1      12.777 -52.396 -25.049  1.00  0.00     0.024 A 
ATOM     12  C   UNL     1      11.246 -55.456 -23.135  1.00  0.00     0.039 C 
ATOM     13  C   UNL     1      10.068 -54.565 -21.116  1.00  0.00     0.007 C 
ATOM     14  C   UNL     1      13.847 -49.840 -25.353  1.00  0.00     0.043 A 
ATOM     15  C   UNL     1      13.614 -52.106 -26.138  1.00  0.00     0.014 A 
ATOM     16  C   UNL     1      11.021 -55.629 -21.631  1.00  0.00     0.005 C 
ATOM     17  C   UNL     1      14.154 -50.828 -26.285  1.00  0.00     0.021 A 
ATOM     18  H   UNL     1      11.596 -51.018 -22.277  1.00  0.00     0.166 HD
ATOM     19  Cl  UNL     1      14.498 -48.258 -25.540  1.00  0.00    -0.084 Cl
ENDBRANCH   3   4
ENDBRANCH   2   3
ENDBRANCH   1   2
BRANCH   1  20
ATOM     20  N   UNL     1      12.532 -57.777 -25.558  1.00  0.00    -0.380 N 
ATOM     21  H   UNL     1      12.709 -57.292 -24.675  1.00  0.00     0.160 HD
BRANCH  20  22
ATOM     22  C   UNL     1      11.733 -58.909 -25.429  1.00  0.00     0.087 C 
ATOM     23  C   UNL     1      10.954 -59.327 -26.434  1.00  0.00     0.082 C 
ATOM     24  C   UNL     1      11.715 -59.697 -24.143  1.00  0.00     0.209 C 
ATOM     25  C   UNL     1      10.075 -60.510 -26.383  1.00  0.00     0.192 C 
ATOM     26  C   UNL     1      10.803 -60.859 -24.038  1.00  0.00     0.039 A 
ATOM     27  C   UNL     1      10.004 -61.262 -25.111  1.00  0.00     0.075 A 
ATOM     28  C   UNL     1      10.760 -61.560 -22.821  1.00  0.00     0.013 A 
ATOM     29  C   UNL     1       9.162 -62.375 -24.944  1.00  0.00     0.127 A 
ATOM     30  C   UNL     1       9.921 -62.661 -22.669  1.00  0.00     0.005 A 
ATOM     31  C   UNL     1       9.120 -63.069 -23.732  1.00  0.00     0.047 A 
ATOM     32  O   UNL     1      12.427 -59.414 -23.183  1.00  0.00    -0.287 OA
ATOM     33  O   UNL     1       9.452 -60.809 -27.394  1.00  0.00    -0.289 OA
BRANCH  29  34
ATOM     34  O   UNL     1       8.357 -62.803 -25.962  1.00  0.00    -0.507 OA
ATOM     35  H   UNL     1       8.011 -63.690 -25.775  1.00  0.00     0.293 HD
ENDBRANCH  29  34
ENDBRANCH  20  22
ENDBRANCH   1  20
TORSDOF 6
ENDMDL
MODEL 5
REMARK VINA RESULT:   -11.303      1.059      2.061
REMARK INTER + INTRA:         -15.537
REMARK INTER:                 -15.031
REMARK INTRA:                  -0.505
REMARK UNBOUND:                -0.600
REMARK SMILES O=C1C(NCCN=c2c3c([nH]c4cc(Cl)ccc24)CCCC3)=CC(=O)c2c(O)cccc21
REMARK SMILES IDX 5 1 6 2 7 3 8 4 11 5 10 6 12 7 9 8 19 9 13 10 18 11 22 12
REMARK SMILES IDX 20 13 14 14 17 15 21 16 16 17 15 19 4 20 3 22 23 23 2 24
REMARK SMILES IDX 24 25 32 26 26 27 31 28 27 29 30 30 29 31 1 32 25 33 28 34
REMARK H PARENT 11 18 4 21 28 35
ROOT
ATOM      1  C   UNL     1      10.209 -57.887 -23.295  1.00  0.00     0.136 C 
ENDROOT
BRANCH   1   2
ATOM      2  C   UNL     1      10.749 -59.172 -22.634  1.00  0.00     0.164 C 
BRANCH   2   3
ATOM      3  N   UNL     1      11.201 -60.083 -23.677  1.00  0.00    -0.282 NA
BRANCH   3   4
ATOM      4  C   UNL     1      10.468 -60.555 -24.621  1.00  0.00     0.072 A 
ATOM      5  N   UNL     1       9.493 -61.912 -26.910  1.00  0.00    -0.358 N 
ATOM      6  C   UNL     1       8.896 -62.126 -25.684  1.00  0.00     0.021 A 
ATOM      7  C   UNL     1      10.348 -60.821 -27.110  1.00  0.00     0.049 A 
ATOM      8  C   UNL     1       9.285 -61.503 -24.547  1.00  0.00    -0.003 A 
ATOM      9  C   UNL     1       7.732 -63.099 -25.706  1.00  0.00     0.054 C 
ATOM     10  C   UNL     1      10.770 -60.474 -28.399  1.00  0.00     0.047 A 
ATOM     11  C   UNL     1      10.852 -60.117 -26.010  1.00  0.00     0.024 A 
ATOM     12  C   UNL     1       8.526 -61.661 -23.256  1.00  0.00     0.039 C 
ATOM     13  C   UNL     1       7.220 -63.505 -24.327  1.00  0.00     0.007 C 
ATOM     14  C   UNL     1      11.652 -59.409 -28.584  1.00  0.00     0.043 A 
ATOM     15  C   UNL     1      11.742 -59.050 -26.203  1.00  0.00     0.014 A 
ATOM     16  C   UNL     1       7.141 -62.292 -23.417  1.00  0.00     0.005 C 
ATOM     17  C   UNL     1      12.137 -58.691 -27.493  1.00  0.00     0.021 A 
ATOM     18  H   UNL     1       9.001 -62.263 -27.725  1.00  0.00     0.166 HD
ATOM     19  Cl  UNL     1      12.148 -58.981 -30.175  1.00  0.00    -0.084 Cl
ENDBRANCH   3   4
ENDBRANCH   2   3
ENDBRANCH   1   2
BRANCH   1  20
ATOM     20  N   UNL     1      10.540 -56.734 -22.457  1.00  0.00    -0.380 N 
ATOM     21  H   UNL     1      10.998 -57.049 -21.598  1.00  0.00     0.160 HD
BRANCH  20  22
ATOM     22  C   UNL     1      10.984 -55.497 -22.913  1.00  0.00     0.087 C 
ATOM     23  C   UNL     1      11.593 -55.371 -24.098  1.00  0.00     0.082 C 
ATOM     24  C   UNL     1      10.800 -54.255 -22.075  1.00  0.00     0.209 C 
ATOM     25  C   UNL     1      12.098 -54.104 -24.656  1.00  0.00     0.192 C 
ATOM     26  C   UNL     1      11.343 -52.975 -22.581  1.00  0.00     0.039 A 
ATOM     27  C   UNL     1      11.974 -52.887 -23.824  1.00  0.00     0.075 A 
ATOM     28  C   UNL     1      11.206 -51.832 -21.775  1.00  0.00     0.013 A 
ATOM     29  C   UNL     1      12.467 -51.638 -24.244  1.00  0.00     0.127 A 
ATOM     30  C   UNL     1      11.698 -50.602 -22.203  1.00  0.00     0.005 A 
ATOM     31  C   UNL     1      12.330 -50.504 -23.439  1.00  0.00     0.047 A 
ATOM     32  O   UNL     1      10.215 -54.266 -20.996  1.00  0.00    -0.287 OA
ATOM     33  O   UNL     1      12.592 -54.123 -25.776  1.00  0.00    -0.289 OA
BRANCH  29  34
ATOM     34  O   UNL     1      13.097 -51.503 -25.449  1.00  0.00    -0.507 OA
ATOM     35  H   UNL     1      12.725 -52.117 -26.101  1.00  0.00     0.293 HD
ENDBRANCH  29  34
ENDBRANCH  20  22
ENDBRANCH   1  20
TORSDOF 6
ENDMDL
MODEL 6
REMARK VINA RESULT:   -11.211      2.103      4.254
REMARK INTER + INTRA:         -15.415
REMARK INTER:                 -14.783
REMARK INTRA:                  -0.632
REMARK UNBOUND:                -0.600
REMARK SMILES O=C1C(NCCN=c2c3c([nH]c4cc(Cl)ccc24)CCCC3)=CC(=O)c2c(O)cccc21
REMARK SMILES IDX 5 1 6 2 7 3 8 4 11 5 10 6 12 7 9 8 19 9 13 10 18 11 22 12
REMARK SMILES IDX 20 13 14 14 17 15 21 16 16 17 15 19 4 20 3 22 23 23 2 24
REMARK SMILES IDX 24 25 32 26 26 27 31 28 27 29 30 30 29 31 1 32 25 33 28 34
REMARK H PARENT 11 18 4 21 28 35
ROOT
ATOM      1  C   UNL     1      10.489 -57.911 -22.888  1.00  0.00     0.136 C 
ENDROOT
BRANCH   1   2
ATOM      2  C   UNL     1       9.411 -58.963 -23.222  1.00  0.00     0.164 C 
BRANCH   2   3
ATOM      3  N   UNL     1      10.068 -60.191 -23.647  1.00  0.00    -0.282 NA
BRANCH   3   4
ATOM      4  C   UNL     1      10.015 -60.693 -24.828  1.00  0.00     0.072 A 
ATOM      5  N   UNL     1       9.198 -61.550 -27.403  1.00  0.00    -0.358 N 
ATOM      6  C   UNL     1      10.303 -60.734 -27.275  1.00  0.00     0.021 A 
ATOM      7  C   UNL     1       8.664 -62.215 -26.291  1.00  0.00     0.049 A 
ATOM      8  C   UNL     1      10.773 -60.298 -26.083  1.00  0.00    -0.003 A 
ATOM      9  C   UNL     1      10.987 -60.382 -28.583  1.00  0.00     0.054 C 
ATOM     10  C   UNL     1       7.695 -63.211 -26.454  1.00  0.00     0.047 A 
ATOM     11  C   UNL     1       9.042 -61.829 -24.999  1.00  0.00     0.024 A 
ATOM     12  C   UNL     1      12.057 -59.520 -25.973  1.00  0.00     0.039 C 
ATOM     13  C   UNL     1      12.064 -59.308 -28.465  1.00  0.00     0.007 C 
ATOM     14  C   UNL     1       7.143 -63.841 -25.337  1.00  0.00     0.043 A 
ATOM     15  C   UNL     1       8.479 -62.464 -23.881  1.00  0.00     0.014 A 
ATOM     16  C   UNL     1      12.921 -59.555 -27.236  1.00  0.00     0.005 C 
ATOM     17  C   UNL     1       7.534 -63.476 -24.052  1.00  0.00     0.021 A 
ATOM     18  H   UNL     1       9.053 -61.985 -28.308  1.00  0.00     0.166 HD
ATOM     19  Cl  UNL     1       5.966 -65.078 -25.553  1.00  0.00    -0.084 Cl
ENDBRANCH   3   4
ENDBRANCH   2   3
ENDBRANCH   1   2
BRANCH   1  20
ATOM     20  N   UNL     1       9.879 -56.582 -22.862  1.00  0.00    -0.380 N 
ATOM     21  H   UNL     1       9.237 -56.509 -22.068  1.00  0.00     0.160 HD
BRANCH  20  22
ATOM     22  C   UNL     1      10.517 -55.387 -23.182  1.00  0.00     0.087 C 
ATOM     23  C   UNL     1      11.345 -55.301 -24.230  1.00  0.00     0.082 C 
ATOM     24  C   UNL     1      10.299 -54.149 -22.348  1.00  0.00     0.209 C 
ATOM     25  C   UNL     1      12.063 -54.081 -24.639  1.00  0.00     0.192 C 
ATOM     26  C   UNL     1      11.046 -52.920 -22.698  1.00  0.00     0.039 A 
ATOM     27  C   UNL     1      11.903 -52.873 -23.799  1.00  0.00     0.075 A 
ATOM     28  C   UNL     1      10.872 -51.785 -21.888  1.00  0.00     0.013 A 
ATOM     29  C   UNL     1      12.583 -51.673 -24.075  1.00  0.00     0.127 A 
ATOM     30  C   UNL     1      11.550 -50.603 -22.173  1.00  0.00     0.005 A 
ATOM     31  C   UNL     1      12.408 -50.546 -23.268  1.00  0.00     0.047 A 
ATOM     32  O   UNL     1       9.525 -54.121 -21.394  1.00  0.00    -0.287 OA
ATOM     33  O   UNL     1      12.753 -54.129 -25.649  1.00  0.00    -0.289 OA
BRANCH  29  34
ATOM     34  O   UNL     1      13.436 -51.580 -25.138  1.00  0.00    -0.507 OA
ATOM     35  H   UNL     1      14.148 -52.234 -25.065  1.00  0.00     0.293 HD
ENDBRANCH  29  34
ENDBRANCH  20  22
ENDBRANCH   1  20
TORSDOF 6
ENDMDL
MODEL 7
REMARK VINA RESULT:   -10.327      7.020      9.934
REMARK INTER + INTRA:         -14.248
REMARK INTER:                 -11.491
REMARK INTRA:                  -2.756
REMARK UNBOUND:                -0.600
REMARK SMILES O=C1C(NCCN=c2c3c([nH]c4cc(Cl)ccc24)CCCC3)=CC(=O)c2c(O)cccc21
REMARK SMILES IDX 5 1 6 2 7 3 8 4 11 5 10 6 12 7 9 8 19 9 13 10 18 11 22 12
REMARK SMILES IDX 20 13 14 14 17 15 21 16 16 17 15 19 4 20 3 22 23 23 2 24
REMARK SMILES IDX 24 25 32 26 26 27 31 28 27 29 30 30 29 31 1 32 25 33 28 34
REMARK H PARENT 11 18 4 21 28 35
ROOT
ATOM      1  C   UNL     1      14.859 -47.895 -21.837  1.00  0.00     0.136 C 
ENDROOT
BRANCH   1   2
ATOM      2  C   UNL     1      13.455 -48.462 -21.538  1.00  0.00     0.164 C 
BRANCH   2   3
ATOM      3  N   UNL     1      12.713 -48.563 -22.787  1.00  0.00    -0.282 NA
BRANCH   3   4
ATOM      4  C   UNL     1      12.650 -49.608 -23.532  1.00  0.00     0.072 A 
ATOM      5  N   UNL     1      13.251 -51.897 -25.091  1.00  0.00    -0.358 N 
ATOM      6  C   UNL     1      12.366 -52.003 -24.037  1.00  0.00     0.021 A 
ATOM      7  C   UNL     1      13.612 -50.644 -25.601  1.00  0.00     0.049 A 
ATOM      8  C   UNL     1      12.008 -50.957 -23.257  1.00  0.00    -0.003 A 
ATOM      9  C   UNL     1      11.786 -53.390 -23.831  1.00  0.00     0.054 C 
ATOM     10  C   UNL     1      14.323 -50.542 -26.803  1.00  0.00     0.047 A 
ATOM     11  C   UNL     1      13.332 -49.484 -24.868  1.00  0.00     0.024 A 
ATOM     12  C   UNL     1      10.940 -51.081 -22.203  1.00  0.00     0.039 C 
ATOM     13  C   UNL     1      10.989 -53.558 -22.541  1.00  0.00     0.007 C 
ATOM     14  C   UNL     1      14.710 -49.290 -27.283  1.00  0.00     0.043 A 
ATOM     15  C   UNL     1      13.729 -48.229 -25.356  1.00  0.00     0.014 A 
ATOM     16  C   UNL     1      10.096 -52.352 -22.315  1.00  0.00     0.005 C 
ATOM     17  C   UNL     1      14.413 -48.133 -26.569  1.00  0.00     0.021 A 
ATOM     18  H   UNL     1      13.292 -52.682 -25.733  1.00  0.00     0.166 HD
ATOM     19  Cl  UNL     1      15.567 -49.178 -28.771  1.00  0.00    -0.084 Cl
ENDBRANCH   3   4
ENDBRANCH   2   3
ENDBRANCH   1   2
BRANCH   1  20
ATOM     20  N   UNL     1      15.833 -48.986 -21.830  1.00  0.00    -0.380 N 
ATOM     21  H   UNL     1      15.626 -49.633 -21.065  1.00  0.00     0.160 HD
BRANCH  20  22
ATOM     22  C   UNL     1      16.379 -49.599 -22.954  1.00  0.00     0.087 C 
ATOM     23  C   UNL     1      16.341 -50.928 -23.108  1.00  0.00     0.082 C 
ATOM     24  C   UNL     1      17.039 -48.778 -24.034  1.00  0.00     0.209 C 
ATOM     25  C   UNL     1      16.895 -51.658 -24.262  1.00  0.00     0.192 C 
ATOM     26  C   UNL     1      17.654 -49.484 -25.181  1.00  0.00     0.039 A 
ATOM     27  C   UNL     1      17.595 -50.874 -25.303  1.00  0.00     0.075 A 
ATOM     28  C   UNL     1      18.306 -48.715 -26.160  1.00  0.00     0.013 A 
ATOM     29  C   UNL     1      18.200 -51.480 -26.419  1.00  0.00     0.127 A 
ATOM     30  C   UNL     1      18.901 -49.328 -27.260  1.00  0.00     0.005 A 
ATOM     31  C   UNL     1      18.849 -50.712 -27.390  1.00  0.00     0.047 A 
ATOM     32  O   UNL     1      17.083 -47.552 -24.000  1.00  0.00    -0.287 OA
ATOM     33  O   UNL     1      16.749 -52.873 -24.300  1.00  0.00    -0.289 OA
BRANCH  29  34
ATOM     34  O   UNL     1      18.173 -52.836 -26.579  1.00  0.00    -0.507 OA
ATOM     35  H   UNL     1      17.503 -53.091 -27.232  1.00  0.00     0.293 HD
ENDBRANCH  29  34
ENDBRANCH  20  22
ENDBRANCH   1  20
TORSDOF 6
ENDMDL
MODEL 8
REMARK VINA RESULT:   -10.194      5.499      9.565
REMARK INTER + INTRA:         -14.071
REMARK INTER:                 -13.394
REMARK INTRA:                  -0.676
REMARK UNBOUND:                -0.600
REMARK SMILES O=C1C(NCCN=c2c3c([nH]c4cc(Cl)ccc24)CCCC3)=CC(=O)c2c(O)cccc21
REMARK SMILES IDX 5 1 6 2 7 3 8 4 11 5 10 6 12 7 9 8 19 9 13 10 18 11 22 12
REMARK SMILES IDX 20 13 14 14 17 15 21 16 16 17 15 19 4 20 3 22 23 23 2 24
REMARK SMILES IDX 24 25 32 26 26 27 31 28 27 29 30 30 29 31 1 32 25 33 28 34
REMARK H PARENT 11 18 4 21 28 35
ROOT
ATOM      1  C   UNL     1       9.885 -49.727 -22.748  1.00  0.00     0.136 C 
ENDROOT
BRANCH   1   2
ATOM      2  C   UNL     1       9.933 -50.857 -21.698  1.00  0.00     0.164 C 
BRANCH   2   3
ATOM      3  N   UNL     1      11.264 -51.449 -21.705  1.00  0.00    -0.282 NA
BRANCH   3   4
ATOM      4  C   UNL     1      11.780 -52.107 -22.680  1.00  0.00     0.072 A 
ATOM      5  N   UNL     1      12.204 -53.663 -25.011  1.00  0.00    -0.358 N 
ATOM      6  C   UNL     1      12.792 -52.419 -24.905  1.00  0.00     0.021 A 
ATOM      7  C   UNL     1      11.671 -54.302 -23.884  1.00  0.00     0.049 A 
ATOM      8  C   UNL     1      12.659 -51.622 -23.820  1.00  0.00    -0.003 A 
ATOM      9  C   UNL     1      13.640 -52.014 -26.097  1.00  0.00     0.054 C 
ATOM     10  C   UNL     1      11.284 -55.646 -23.944  1.00  0.00     0.047 A 
ATOM     11  C   UNL     1      11.448 -53.575 -22.708  1.00  0.00     0.024 A 
ATOM     12  C   UNL     1      13.422 -50.330 -23.684  1.00  0.00     0.039 C 
ATOM     13  C   UNL     1      14.102 -50.560 -26.080  1.00  0.00     0.007 C 
ATOM     14  C   UNL     1      10.720 -56.263 -22.826  1.00  0.00     0.043 A 
ATOM     15  C   UNL     1      10.876 -54.201 -21.590  1.00  0.00     0.014 A 
ATOM     16  C   UNL     1      14.567 -50.172 -24.687  1.00  0.00     0.005 C 
ATOM     17  C   UNL     1      10.518 -55.549 -21.648  1.00  0.00     0.021 A 
ATOM     18  H   UNL     1      12.530 -54.260 -25.763  1.00  0.00     0.166 HD
ATOM     19  Cl  UNL     1      10.266 -57.921 -22.908  1.00  0.00    -0.084 Cl
ENDBRANCH   3   4
ENDBRANCH   2   3
ENDBRANCH   1   2
BRANCH   1  20
ATOM     20  N   UNL     1      10.414 -48.496 -22.161  1.00  0.00    -0.380 N 
ATOM     21  H   UNL     1      10.937 -48.714 -21.310  1.00  0.00     0.160 HD
BRANCH  20  22
ATOM     22  C   UNL     1      10.915 -47.407 -22.868  1.00  0.00     0.087 C 
ATOM     23  C   UNL     1      11.859 -47.561 -23.804  1.00  0.00     0.082 C 
ATOM     24  C   UNL     1      10.411 -46.012 -22.592  1.00  0.00     0.209 C 
ATOM     25  C   UNL     1      12.447 -46.466 -24.596  1.00  0.00     0.192 C 
ATOM     26  C   UNL     1      11.018 -44.883 -23.331  1.00  0.00     0.039 A 
ATOM     27  C   UNL     1      12.004 -45.086 -24.299  1.00  0.00     0.075 A 
ATOM     28  C   UNL     1      10.575 -43.582 -23.035  1.00  0.00     0.013 A 
ATOM     29  C   UNL     1      12.538 -43.968 -24.964  1.00  0.00     0.127 A 
ATOM     30  C   UNL     1      11.112 -42.484 -23.701  1.00  0.00     0.005 A 
ATOM     31  C   UNL     1      12.096 -42.676 -24.667  1.00  0.00     0.047 A 
ATOM     32  O   UNL     1       9.517 -45.779 -21.783  1.00  0.00    -0.287 OA
ATOM     33  O   UNL     1      13.270 -46.754 -25.456  1.00  0.00    -0.289 OA
BRANCH  29  34
ATOM     34  O   UNL     1      13.508 -44.116 -25.914  1.00  0.00    -0.507 OA
ATOM     35  H   UNL     1      13.197 -43.795 -26.775  1.00  0.00     0.293 HD
ENDBRANCH  29  34
ENDBRANCH  20  22
ENDBRANCH   1  20
TORSDOF 6
ENDMDL
MODEL 9
REMARK VINA RESULT:   -10.192      5.755     10.096
REMARK INTER + INTRA:         -14.068
REMARK INTER:                 -13.565
REMARK INTRA:                  -0.503
REMARK UNBOUND:                -0.600
REMARK SMILES O=C1C(NCCN=c2c3c([nH]c4cc(Cl)ccc24)CCCC3)=CC(=O)c2c(O)cccc21
REMARK SMILES IDX 5 1 6 2 7 3 8 4 11 5 10 6 12 7 9 8 19 9 13 10 18 11 22 12
REMARK SMILES IDX 20 13 14 14 17 15 21 16 16 17 15 19 4 20 3 22 23 23 2 24
REMARK SMILES IDX 24 25 32 26 26 27 31 28 27 29 30 30 29 31 1 32 25 33 28 34
REMARK H PARENT 11 18 4 21 28 35
ROOT
ATOM      1  C   UNL     1      10.459 -48.733 -22.851  1.00  0.00     0.136 C 
ENDROOT
BRANCH   1   2
ATOM      2  C   UNL     1      10.064 -50.024 -22.104  1.00  0.00     0.164 C 
BRANCH   2   3
ATOM      3  N   UNL     1      11.254 -50.841 -21.915  1.00  0.00    -0.282 NA
BRANCH   3   4
ATOM      4  C   UNL     1      11.805 -51.572 -22.816  1.00  0.00     0.072 A 
ATOM      5  N   UNL     1      12.311 -53.300 -25.005  1.00  0.00    -0.358 N 
ATOM      6  C   UNL     1      12.903 -52.054 -24.968  1.00  0.00     0.021 A 
ATOM      7  C   UNL     1      11.729 -53.851 -23.857  1.00  0.00     0.049 A 
ATOM      8  C   UNL     1      12.732 -51.177 -23.952  1.00  0.00    -0.003 A 
ATOM      9  C   UNL     1      13.801 -51.742 -26.152  1.00  0.00     0.054 C 
ATOM     10  C   UNL     1      11.335 -55.194 -23.832  1.00  0.00     0.047 A 
ATOM     11  C   UNL     1      11.464 -53.037 -22.748  1.00  0.00     0.024 A 
ATOM     12  C   UNL     1      13.498 -49.883 -23.882  1.00  0.00     0.039 C 
ATOM     13  C   UNL     1      14.273 -50.293 -26.224  1.00  0.00     0.007 C 
ATOM     14  C   UNL     1      10.722 -55.724 -22.696  1.00  0.00     0.043 A 
ATOM     15  C   UNL     1      10.843 -53.576 -21.611  1.00  0.00     0.014 A 
ATOM     16  C   UNL     1      14.683 -49.804 -24.846  1.00  0.00     0.005 C 
ATOM     17  C   UNL     1      10.478 -54.923 -21.583  1.00  0.00     0.021 A 
ATOM     18  H   UNL     1      12.663 -53.952 -25.698  1.00  0.00     0.166 HD
ATOM     19  Cl  UNL     1      10.259 -57.381 -22.672  1.00  0.00    -0.084 Cl
ENDBRANCH   3   4
ENDBRANCH   2   3
ENDBRANCH   1   2
BRANCH   1  20
ATOM     20  N   UNL     1      10.251 -47.581 -21.973  1.00  0.00    -0.380 N 
ATOM     21  H   UNL     1      10.087 -47.899 -21.015  1.00  0.00     0.160 HD
BRANCH  20  22
ATOM     22  C   UNL     1      10.918 -46.362 -22.057  1.00  0.00     0.087 C 
ATOM     23  C   UNL     1      10.319 -45.276 -22.560  1.00  0.00     0.082 C 
ATOM     24  C   UNL     1      12.346 -46.232 -21.590  1.00  0.00     0.209 C 
ATOM     25  C   UNL     1      10.949 -43.950 -22.690  1.00  0.00     0.192 C 
ATOM     26  C   UNL     1      13.027 -44.928 -21.755  1.00  0.00     0.039 A 
ATOM     27  C   UNL     1      12.367 -43.819 -22.287  1.00  0.00     0.075 A 
ATOM     28  C   UNL     1      14.372 -44.828 -21.359  1.00  0.00     0.013 A 
ATOM     29  C   UNL     1      13.074 -42.610 -22.416  1.00  0.00     0.127 A 
ATOM     30  C   UNL     1      15.060 -43.625 -21.492  1.00  0.00     0.005 A 
ATOM     31  C   UNL     1      14.411 -42.514 -22.022  1.00  0.00     0.047 A 
ATOM     32  O   UNL     1      12.962 -47.161 -21.076  1.00  0.00    -0.287 OA
ATOM     33  O   UNL     1      10.270 -43.028 -23.123  1.00  0.00    -0.289 OA
BRANCH  29  34
ATOM     34  O   UNL     1      12.472 -41.499 -22.937  1.00  0.00    -0.507 OA
ATOM     35  H   UNL     1      12.572 -41.475 -23.901  1.00  0.00     0.293 HD
ENDBRANCH  29  34
ENDBRANCH  20  22
ENDBRANCH   1  20
TORSDOF 6
ENDMDL
