MODEL 1
REMARK VINA RESULT:    -9.616      0.000      0.000
REMARK INTER + INTRA:         -14.663
REMARK INTER:                 -13.270
REMARK INTRA:                  -1.392
REMARK UNBOUND:                -1.392
REMARK SMILES COc1ccc([C@@H]2CC(c3cc(F)ccc3F)=NN2c2ccc(S(N)(=O)=O)cc2)c(OC)c1
REMARK SMILES IDX 20 1 21 2 22 3 23 4 28 5 29 6 19 7 7 8 8 9 9 10 18 11 6 12
REMARK SMILES IDX 3 13 4 14 33 15 5 16 30 17 2 18 1 19 31 20 32 21 10 22 11 23
REMARK SMILES IDX 16 24 12 25 15 26 14 27 17 28 13 29 24 30 26 31 27 32 25 33
REMARK H PARENT 25 34 25 35
ROOT
ATOM      1  C   UNL     1      12.125 -52.226 -23.788  1.00  0.00     0.060 A 
ATOM      2  C   UNL     1      11.429 -52.583 -22.614  1.00  0.00     0.029 A 
ATOM      3  C   UNL     1      11.015 -53.894 -22.361  1.00  0.00     0.024 A 
ATOM      4  C   UNL     1      11.305 -54.889 -23.290  1.00  0.00     0.082 A 
ATOM      5  C   UNL     1      11.974 -54.575 -24.472  1.00  0.00     0.024 A 
ATOM      6  C   UNL     1      12.377 -53.255 -24.709  1.00  0.00     0.029 A 
ENDROOT
BRANCH   1   7
ATOM      7  N   UNL     1      12.528 -50.911 -23.997  1.00  0.00    -0.257 N 
ATOM      8  C   UNL     1      13.367 -50.407 -25.089  1.00  0.00     0.148 C 
ATOM      9  C   UNL     1      13.128 -48.897 -25.038  1.00  0.00     0.091 C 
ATOM     10  C   UNL     1      12.395 -48.781 -23.727  1.00  0.00     0.074 C 
ATOM     11  N   UNL     1      12.031 -49.911 -23.206  1.00  0.00    -0.176 NA
BRANCH   8  12
ATOM     12  C   UNL     1      14.836 -50.790 -24.954  1.00  0.00     0.019 A 
ATOM     13  C   UNL     1      17.543 -51.551 -24.578  1.00  0.00     0.122 A 
ATOM     14  C   UNL     1      16.642 -51.621 -23.521  1.00  0.00     0.047 A 
ATOM     15  C   UNL     1      17.094 -51.109 -25.822  1.00  0.00     0.093 A 
ATOM     16  C   UNL     1      15.304 -51.253 -23.710  1.00  0.00     0.013 A 
ATOM     17  C   UNL     1      15.762 -50.720 -26.006  1.00  0.00     0.127 A 
BRANCH  13  18
ATOM     18  O   UNL     1      18.868 -51.889 -24.533  1.00  0.00    -0.497 OA
ATOM     19  C   UNL     1      19.573 -51.899 -25.767  1.00  0.00     0.278 C 
ENDBRANCH  13  18
BRANCH  17  20
ATOM     20  O   UNL     1      15.353 -50.358 -27.262  1.00  0.00    -0.496 OA
ATOM     21  C   UNL     1      16.091 -49.224 -27.729  1.00  0.00     0.278 C 
ENDBRANCH  17  20
ENDBRANCH   8  12
BRANCH  10  22
ATOM     22  C   UNL     1      12.099 -47.465 -23.121  1.00  0.00     0.037 A 
ATOM     23  C   UNL     1      11.163 -46.606 -23.709  1.00  0.00     0.052 A 
ATOM     24  C   UNL     1      12.753 -47.058 -21.952  1.00  0.00     0.132 A 
ATOM     25  C   UNL     1      10.898 -45.372 -23.121  1.00  0.00     0.124 A 
ATOM     26  C   UNL     1      12.480 -45.817 -21.371  1.00  0.00     0.043 A 
ATOM     27  C   UNL     1      11.545 -44.968 -21.959  1.00  0.00     0.042 A 
ATOM     28  F   UNL     1      13.677 -47.826 -21.358  1.00  0.00    -0.206 F 
ATOM     29  F   UNL     1       9.998 -44.558 -23.688  1.00  0.00    -0.207 F 
ENDBRANCH  10  22
ENDBRANCH   1   7
BRANCH   4  30
ATOM     30  S   UNL     1      10.802 -56.559 -22.985  1.00  0.00     0.238 S 
ATOM     31  O   UNL     1      11.296 -56.963 -21.689  1.00  0.00    -0.207 OA
ATOM     32  O   UNL     1       9.418 -56.701 -23.367  1.00  0.00    -0.207 OA
BRANCH  30  33
ATOM     33  N   UNL     1      11.737 -57.397 -24.109  1.00  0.00    -0.225 NA
ATOM     34  H   UNL     1      12.088 -56.801 -24.857  1.00  0.00     0.137 HD
ATOM     35  H   UNL     1      12.496 -57.869 -23.615  1.00  0.00     0.137 HD
ENDBRANCH  30  33
ENDBRANCH   4  30
TORSDOF 7
ENDMDL
MODEL 2
REMARK VINA RESULT:    -9.498      7.380     11.312
REMARK INTER + INTRA:         -14.499
REMARK INTER:                 -13.401
REMARK INTRA:                  -1.098
REMARK UNBOUND:                -1.392
REMARK SMILES COc1ccc([C@@H]2CC(c3cc(F)ccc3F)=NN2c2ccc(S(N)(=O)=O)cc2)c(OC)c1
REMARK SMILES IDX 20 1 21 2 22 3 23 4 28 5 29 6 19 7 7 8 8 9 9 10 18 11 6 12
REMARK SMILES IDX 3 13 4 14 33 15 5 16 30 17 2 18 1 19 31 20 32 21 10 22 11 23
REMARK SMILES IDX 16 24 12 25 15 26 14 27 17 28 13 29 24 30 26 31 27 32 25 33
REMARK H PARENT 25 34 25 35
ROOT
ATOM      1  C   UNL     1      10.386 -57.877 -23.276  1.00  0.00     0.060 A 
ATOM      2  C   UNL     1       9.322 -57.011 -23.604  1.00  0.00     0.029 A 
ATOM      3  C   UNL     1       9.257 -55.697 -23.130  1.00  0.00     0.024 A 
ATOM      4  C   UNL     1      10.277 -55.217 -22.314  1.00  0.00     0.082 A 
ATOM      5  C   UNL     1      11.336 -56.047 -21.951  1.00  0.00     0.024 A 
ATOM      6  C   UNL     1      11.382 -57.361 -22.432  1.00  0.00     0.029 A 
ENDROOT
BRANCH   1   7
ATOM      7  N   UNL     1      10.418 -59.175 -23.777  1.00  0.00    -0.257 N 
ATOM      8  C   UNL     1      11.533 -59.825 -24.474  1.00  0.00     0.148 C 
ATOM      9  C   UNL     1      11.161 -61.308 -24.409  1.00  0.00     0.091 C 
ATOM     10  C   UNL     1       9.739 -61.211 -23.919  1.00  0.00     0.074 C 
ATOM     11  N   UNL     1       9.378 -60.028 -23.528  1.00  0.00    -0.176 NA
BRANCH   8  12
ATOM     12  C   UNL     1      11.742 -59.317 -25.894  1.00  0.00     0.019 A 
ATOM     13  C   UNL     1      12.069 -58.482 -28.587  1.00  0.00     0.122 A 
ATOM     14  C   UNL     1      11.560 -59.746 -28.301  1.00  0.00     0.047 A 
ATOM     15  C   UNL     1      12.407 -57.635 -27.533  1.00  0.00     0.093 A 
ATOM     16  C   UNL     1      11.393 -60.153 -26.972  1.00  0.00     0.013 A 
ATOM     17  C   UNL     1      12.260 -58.050 -26.204  1.00  0.00     0.127 A 
BRANCH  13  18
ATOM     18  O   UNL     1      12.271 -57.958 -29.833  1.00  0.00    -0.497 OA
ATOM     19  C   UNL     1      12.034 -58.817 -30.941  1.00  0.00     0.278 C 
ENDBRANCH  13  18
BRANCH  17  20
ATOM     20  O   UNL     1      12.542 -57.157 -25.204  1.00  0.00    -0.496 OA
ATOM     21  C   UNL     1      12.634 -55.827 -25.722  1.00  0.00     0.278 C 
ENDBRANCH  17  20
ENDBRANCH   8  12
BRANCH  10  22
ATOM     22  C   UNL     1       8.857 -62.397 -23.870  1.00  0.00     0.037 A 
ATOM     23  C   UNL     1       8.052 -62.729 -24.965  1.00  0.00     0.052 A 
ATOM     24  C   UNL     1       8.814 -63.203 -22.726  1.00  0.00     0.132 A 
ATOM     25  C   UNL     1       7.230 -63.852 -24.899  1.00  0.00     0.124 A 
ATOM     26  C   UNL     1       7.986 -64.326 -22.671  1.00  0.00     0.043 A 
ATOM     27  C   UNL     1       7.189 -64.654 -23.765  1.00  0.00     0.042 A 
ATOM     28  F   UNL     1       9.544 -62.921 -21.638  1.00  0.00    -0.206 F 
ATOM     29  F   UNL     1       6.464 -64.165 -25.953  1.00  0.00    -0.207 F 
ENDBRANCH  10  22
ENDBRANCH   1   7
BRANCH   4  30
ATOM     30  S   UNL     1      10.221 -53.553 -21.713  1.00  0.00     0.238 S 
ATOM     31  O   UNL     1       8.987 -52.942 -22.149  1.00  0.00    -0.207 OA
ATOM     32  O   UNL     1      10.645 -53.547 -20.333  1.00  0.00    -0.207 OA
BRANCH  30  33
ATOM     33  N   UNL     1      11.436 -52.829 -22.629  1.00  0.00    -0.225 NA
ATOM     34  H   UNL     1      11.182 -52.719 -23.609  1.00  0.00     0.137 HD
ATOM     35  H   UNL     1      11.680 -51.935 -22.199  1.00  0.00     0.137 HD
ENDBRANCH  30  33
ENDBRANCH   4  30
TORSDOF 7
ENDMDL
MODEL 3
REMARK VINA RESULT:    -9.162      4.520      7.512
REMARK INTER + INTRA:         -14.036
REMARK INTER:                 -12.409
REMARK INTRA:                  -1.627
REMARK UNBOUND:                -1.392
REMARK SMILES COc1ccc([C@@H]2CC(c3cc(F)ccc3F)=NN2c2ccc(S(N)(=O)=O)cc2)c(OC)c1
REMARK SMILES IDX 20 1 21 2 22 3 23 4 28 5 29 6 19 7 7 8 8 9 9 10 18 11 6 12
REMARK SMILES IDX 3 13 4 14 33 15 5 16 30 17 2 18 1 19 31 20 32 21 10 22 11 23
REMARK SMILES IDX 16 24 12 25 15 26 14 27 17 28 13 29 24 30 26 31 27 32 25 33
REMARK H PARENT 25 34 25 35
ROOT
ATOM      1  C   UNL     1      12.634 -47.636 -23.688  1.00  0.00     0.060 A 
ATOM      2  C   UNL     1      13.559 -46.645 -23.299  1.00  0.00     0.029 A 
ATOM      3  C   UNL     1      13.234 -45.285 -23.285  1.00  0.00     0.024 A 
ATOM      4  C   UNL     1      11.953 -44.889 -23.659  1.00  0.00     0.082 A 
ATOM      5  C   UNL     1      11.016 -45.835 -24.068  1.00  0.00     0.024 A 
ATOM      6  C   UNL     1      11.361 -47.192 -24.078  1.00  0.00     0.029 A 
ENDROOT
BRANCH   1   7
ATOM      7  N   UNL     1      12.995 -48.981 -23.677  1.00  0.00    -0.257 N 
ATOM      8  C   UNL     1      14.352 -49.531 -23.746  1.00  0.00     0.148 C 
ATOM      9  C   UNL     1      14.160 -50.978 -23.285  1.00  0.00     0.091 C 
ATOM     10  C   UNL     1      12.657 -51.071 -23.300  1.00  0.00     0.074 C 
ATOM     11  N   UNL     1      12.043 -49.940 -23.465  1.00  0.00    -0.176 NA
BRANCH   8  12
ATOM     12  C   UNL     1      14.986 -49.416 -25.126  1.00  0.00     0.019 A 
ATOM     13  C   UNL     1      16.044 -49.224 -27.752  1.00  0.00     0.122 A 
ATOM     14  C   UNL     1      14.723 -49.615 -27.555  1.00  0.00     0.047 A 
ATOM     15  C   UNL     1      16.833 -48.922 -26.643  1.00  0.00     0.093 A 
ATOM     16  C   UNL     1      14.200 -49.702 -26.259  1.00  0.00     0.013 A 
ATOM     17  C   UNL     1      16.317 -49.031 -25.346  1.00  0.00     0.127 A 
BRANCH  13  18
ATOM     18  O   UNL     1      16.673 -49.088 -28.959  1.00  0.00    -0.497 OA
ATOM     19  C   UNL     1      15.925 -48.498 -30.014  1.00  0.00     0.278 C 
ENDBRANCH  13  18
BRANCH  17  20
ATOM     20  O   UNL     1      17.111 -48.659 -24.293  1.00  0.00    -0.496 OA
ATOM     21  C   UNL     1      18.081 -49.670 -24.006  1.00  0.00     0.278 C 
ENDBRANCH  17  20
ENDBRANCH   8  12
BRANCH  10  22
ATOM     22  C   UNL     1      11.962 -52.362 -23.106  1.00  0.00     0.037 A 
ATOM     23  C   UNL     1      11.327 -52.652 -21.893  1.00  0.00     0.052 A 
ATOM     24  C   UNL     1      11.930 -53.313 -24.133  1.00  0.00     0.132 A 
ATOM     25  C   UNL     1      10.676 -53.872 -21.732  1.00  0.00     0.124 A 
ATOM     26  C   UNL     1      11.275 -54.534 -23.960  1.00  0.00     0.043 A 
ATOM     27  C   UNL     1      10.642 -54.816 -22.752  1.00  0.00     0.042 A 
ATOM     28  F   UNL     1      12.541 -53.102 -25.307  1.00  0.00    -0.206 F 
ATOM     29  F   UNL     1      10.068 -54.140 -20.568  1.00  0.00    -0.207 F 
ENDBRANCH  10  22
ENDBRANCH   1   7
BRANCH   4  30
ATOM     30  S   UNL     1      11.515 -43.174 -23.638  1.00  0.00     0.238 S 
ATOM     31  O   UNL     1      10.938 -42.858 -22.352  1.00  0.00    -0.207 OA
ATOM     32  O   UNL     1      12.600 -42.414 -24.210  1.00  0.00    -0.207 OA
BRANCH  30  33
ATOM     33  N   UNL     1      10.233 -43.146 -24.731  1.00  0.00    -0.225 NA
ATOM     34  H   UNL     1      10.193 -42.285 -25.274  1.00  0.00     0.137 HD
ATOM     35  H   UNL     1      10.300 -43.969 -25.333  1.00  0.00     0.137 HD
ENDBRANCH  30  33
ENDBRANCH   4  30
TORSDOF 7
ENDMDL
MODEL 4
REMARK VINA RESULT:    -9.127      1.744      2.413
REMARK INTER + INTRA:         -13.988
REMARK INTER:                 -12.847
REMARK INTRA:                  -1.141
REMARK UNBOUND:                -1.392
REMARK SMILES COc1ccc([C@@H]2CC(c3cc(F)ccc3F)=NN2c2ccc(S(N)(=O)=O)cc2)c(OC)c1
REMARK SMILES IDX 20 1 21 2 22 3 23 4 28 5 29 6 19 7 7 8 8 9 9 10 18 11 6 12
REMARK SMILES IDX 3 13 4 14 33 15 5 16 30 17 2 18 1 19 31 20 32 21 10 22 11 23
REMARK SMILES IDX 16 24 12 25 15 26 14 27 17 28 13 29 24 30 26 31 27 32 25 33
REMARK H PARENT 25 34 25 35
ROOT
ATOM      1  C   UNL     1      12.262 -51.649 -23.642  1.00  0.00     0.060 A 
ATOM      2  C   UNL     1      12.500 -52.658 -24.598  1.00  0.00     0.029 A 
ATOM      3  C   UNL     1      12.061 -53.974 -24.420  1.00  0.00     0.024 A 
ATOM      4  C   UNL     1      11.356 -54.305 -23.266  1.00  0.00     0.082 A 
ATOM      5  C   UNL     1      11.117 -53.341 -22.288  1.00  0.00     0.024 A 
ATOM      6  C   UNL     1      11.568 -52.030 -22.483  1.00  0.00     0.029 A 
ENDROOT
BRANCH   1   7
ATOM      7  N   UNL     1      12.708 -50.349 -23.863  1.00  0.00    -0.257 N 
ATOM      8  C   UNL     1      13.960 -49.943 -24.508  1.00  0.00     0.148 C 
ATOM      9  C   UNL     1      13.716 -48.468 -24.835  1.00  0.00     0.091 C 
ATOM     10  C   UNL     1      12.450 -48.223 -24.056  1.00  0.00     0.074 C 
ATOM     11  N   UNL     1      11.890 -49.290 -23.578  1.00  0.00    -0.176 NA
BRANCH   8  12
ATOM     12  C   UNL     1      15.194 -50.174 -23.644  1.00  0.00     0.019 A 
ATOM     13  C   UNL     1      17.456 -50.492 -21.961  1.00  0.00     0.122 A 
ATOM     14  C   UNL     1      16.652 -49.362 -21.849  1.00  0.00     0.047 A 
ATOM     15  C   UNL     1      17.128 -51.464 -22.905  1.00  0.00     0.093 A 
ATOM     16  C   UNL     1      15.531 -49.210 -22.675  1.00  0.00     0.013 A 
ATOM     17  C   UNL     1      16.021 -51.302 -23.746  1.00  0.00     0.127 A 
BRANCH  13  18
ATOM     18  O   UNL     1      18.566 -50.770 -21.213  1.00  0.00    -0.497 OA
ATOM     19  C   UNL     1      18.543 -50.366 -19.850  1.00  0.00     0.278 C 
ENDBRANCH  13  18
BRANCH  17  20
ATOM     20  O   UNL     1      15.702 -52.316 -24.611  1.00  0.00    -0.496 OA
ATOM     21  C   UNL     1      16.866 -52.783 -25.298  1.00  0.00     0.278 C 
ENDBRANCH  17  20
ENDBRANCH   8  12
BRANCH  10  22
ATOM     22  C   UNL     1      11.896 -46.862 -23.894  1.00  0.00     0.037 A 
ATOM     23  C   UNL     1      12.410 -45.791 -24.634  1.00  0.00     0.052 A 
ATOM     24  C   UNL     1      10.848 -46.624 -22.995  1.00  0.00     0.132 A 
ATOM     25  C   UNL     1      11.872 -44.518 -24.467  1.00  0.00     0.124 A 
ATOM     26  C   UNL     1      10.316 -45.343 -22.836  1.00  0.00     0.043 A 
ATOM     27  C   UNL     1      10.830 -44.282 -23.577  1.00  0.00     0.042 A 
ATOM     28  F   UNL     1      10.331 -47.605 -22.241  1.00  0.00    -0.206 F 
ATOM     29  F   UNL     1      12.369 -43.499 -25.182  1.00  0.00    -0.207 F 
ENDBRANCH  10  22
ENDBRANCH   1   7
BRANCH   4  30
ATOM     30  S   UNL     1      10.779 -55.960 -23.025  1.00  0.00     0.238 S 
ATOM     31  O   UNL     1      11.207 -56.416 -21.722  1.00  0.00    -0.207 OA
ATOM     32  O   UNL     1       9.407 -56.039 -23.463  1.00  0.00    -0.207 OA
BRANCH  30  33
ATOM     33  N   UNL     1      11.724 -56.806 -24.135  1.00  0.00    -0.225 NA
ATOM     34  H   UNL     1      11.416 -56.678 -25.097  1.00  0.00     0.137 HD
ATOM     35  H   UNL     1      12.700 -56.529 -24.011  1.00  0.00     0.137 HD
ENDBRANCH  30  33
ENDBRANCH   4  30
TORSDOF 7
ENDMDL
MODEL 5
REMARK VINA RESULT:    -9.047      3.197      6.147
REMARK INTER + INTRA:         -13.877
REMARK INTER:                 -12.543
REMARK INTRA:                  -1.334
REMARK UNBOUND:                -1.392
REMARK SMILES COc1ccc([C@@H]2CC(c3cc(F)ccc3F)=NN2c2ccc(S(N)(=O)=O)cc2)c(OC)c1
REMARK SMILES IDX 20 1 21 2 22 3 23 4 28 5 29 6 19 7 7 8 8 9 9 10 18 11 6 12
REMARK SMILES IDX 3 13 4 14 33 15 5 16 30 17 2 18 1 19 31 20 32 21 10 22 11 23
REMARK SMILES IDX 16 24 12 25 15 26 14 27 17 28 13 29 24 30 26 31 27 32 25 33
REMARK H PARENT 25 34 25 35
ROOT
ATOM      1  C   UNL     1      12.890 -51.383 -24.267  1.00  0.00     0.060 A 
ATOM      2  C   UNL     1      12.196 -51.168 -23.058  1.00  0.00     0.029 A 
ATOM      3  C   UNL     1      11.423 -52.165 -22.454  1.00  0.00     0.024 A 
ATOM      4  C   UNL     1      11.338 -53.417 -23.054  1.00  0.00     0.082 A 
ATOM      5  C   UNL     1      11.994 -53.665 -24.259  1.00  0.00     0.024 A 
ATOM      6  C   UNL     1      12.760 -52.653 -24.852  1.00  0.00     0.029 A 
ENDROOT
BRANCH   1   7
ATOM      7  N   UNL     1      13.656 -50.367 -24.831  1.00  0.00    -0.257 N 
ATOM      8  C   UNL     1      14.230 -49.208 -24.140  1.00  0.00     0.148 C 
ATOM      9  C   UNL     1      15.273 -48.696 -25.136  1.00  0.00     0.091 C 
ATOM     10  C   UNL     1      14.909 -49.506 -26.353  1.00  0.00     0.074 C 
ATOM     11  N   UNL     1      14.052 -50.456 -26.137  1.00  0.00    -0.176 NA
BRANCH   8  12
ATOM     12  C   UNL     1      13.197 -48.156 -23.755  1.00  0.00     0.019 A 
ATOM     13  C   UNL     1      11.221 -46.207 -23.164  1.00  0.00     0.122 A 
ATOM     14  C   UNL     1      11.375 -46.678 -24.464  1.00  0.00     0.047 A 
ATOM     15  C   UNL     1      12.046 -46.712 -22.159  1.00  0.00     0.093 A 
ATOM     16  C   UNL     1      12.345 -47.646 -24.753  1.00  0.00     0.013 A 
ATOM     17  C   UNL     1      13.031 -47.663 -22.452  1.00  0.00     0.127 A 
BRANCH  13  18
ATOM     18  O   UNL     1      10.311 -45.277 -22.745  1.00  0.00    -0.497 OA
ATOM     19  C   UNL     1      10.631 -43.911 -22.977  1.00  0.00     0.278 C 
ENDBRANCH  13  18
BRANCH  17  20
ATOM     20  O   UNL     1      13.771 -48.178 -21.420  1.00  0.00    -0.496 OA
ATOM     21  C   UNL     1      13.982 -47.192 -20.405  1.00  0.00     0.278 C 
ENDBRANCH  17  20
ENDBRANCH   8  12
BRANCH  10  22
ATOM     22  C   UNL     1      15.521 -49.237 -27.671  1.00  0.00     0.037 A 
ATOM     23  C   UNL     1      14.769 -48.656 -28.699  1.00  0.00     0.052 A 
ATOM     24  C   UNL     1      16.862 -49.561 -27.912  1.00  0.00     0.132 A 
ATOM     25  C   UNL     1      15.365 -48.408 -29.932  1.00  0.00     0.124 A 
ATOM     26  C   UNL     1      17.450 -49.309 -29.153  1.00  0.00     0.043 A 
ATOM     27  C   UNL     1      16.698 -48.728 -30.171  1.00  0.00     0.042 A 
ATOM     28  F   UNL     1      17.625 -50.142 -26.974  1.00  0.00    -0.206 F 
ATOM     29  F   UNL     1      14.639 -47.849 -30.909  1.00  0.00    -0.207 F 
ENDBRANCH  10  22
ENDBRANCH   1   7
BRANCH   4  30
ATOM     30  S   UNL     1      10.377 -54.698 -22.301  1.00  0.00     0.238 S 
ATOM     31  O   UNL     1      11.273 -55.674 -21.726  1.00  0.00    -0.207 OA
ATOM     32  O   UNL     1       9.306 -54.089 -21.549  1.00  0.00    -0.207 OA
BRANCH  30  33
ATOM     33  N   UNL     1       9.699 -55.442 -23.653  1.00  0.00    -0.225 NA
ATOM     34  H   UNL     1       9.412 -54.778 -24.370  1.00  0.00     0.137 HD
ATOM     35  H   UNL     1      10.366 -56.125 -24.017  1.00  0.00     0.137 HD
ENDBRANCH  30  33
ENDBRANCH   4  30
TORSDOF 7
ENDMDL
MODEL 6
REMARK VINA RESULT:    -8.595      3.178      6.342
REMARK INTER + INTRA:         -13.253
REMARK INTER:                 -11.777
REMARK INTRA:                  -1.476
REMARK UNBOUND:                -1.392
REMARK SMILES COc1ccc([C@@H]2CC(c3cc(F)ccc3F)=NN2c2ccc(S(N)(=O)=O)cc2)c(OC)c1
REMARK SMILES IDX 20 1 21 2 22 3 23 4 28 5 29 6 19 7 7 8 8 9 9 10 18 11 6 12
REMARK SMILES IDX 3 13 4 14 33 15 5 16 30 17 2 18 1 19 31 20 32 21 10 22 11 23
REMARK SMILES IDX 16 24 12 25 15 26 14 27 17 28 13 29 24 30 26 31 27 32 25 33
REMARK H PARENT 25 34 25 35
ROOT
ATOM      1  C   UNL     1      12.841 -51.220 -24.202  1.00  0.00     0.060 A 
ATOM      2  C   UNL     1      12.842 -52.482 -24.831  1.00  0.00     0.029 A 
ATOM      3  C   UNL     1      12.057 -53.545 -24.373  1.00  0.00     0.024 A 
ATOM      4  C   UNL     1      11.238 -53.356 -23.265  1.00  0.00     0.082 A 
ATOM      5  C   UNL     1      11.222 -52.129 -22.603  1.00  0.00     0.024 A 
ATOM      6  C   UNL     1      12.017 -51.078 -23.074  1.00  0.00     0.029 A 
ENDROOT
BRANCH   1   7
ATOM      7  N   UNL     1      13.630 -50.185 -24.697  1.00  0.00    -0.257 N 
ATOM      8  C   UNL     1      14.158 -49.041 -23.946  1.00  0.00     0.148 C 
ATOM      9  C   UNL     1      15.249 -48.498 -24.870  1.00  0.00     0.091 C 
ATOM     10  C   UNL     1      14.956 -49.277 -26.126  1.00  0.00     0.074 C 
ATOM     11  N   UNL     1      14.096 -50.237 -25.982  1.00  0.00    -0.176 NA
BRANCH   8  12
ATOM     12  C   UNL     1      13.099 -48.006 -23.589  1.00  0.00     0.019 A 
ATOM     13  C   UNL     1      11.077 -46.089 -23.051  1.00  0.00     0.122 A 
ATOM     14  C   UNL     1      11.269 -46.562 -24.346  1.00  0.00     0.047 A 
ATOM     15  C   UNL     1      11.887 -46.576 -22.026  1.00  0.00     0.093 A 
ATOM     16  C   UNL     1      12.262 -47.513 -24.608  1.00  0.00     0.013 A 
ATOM     17  C   UNL     1      12.894 -47.512 -22.292  1.00  0.00     0.127 A 
BRANCH  13  18
ATOM     18  O   UNL     1      10.141 -45.172 -22.657  1.00  0.00    -0.497 OA
ATOM     19  C   UNL     1      10.260 -43.860 -23.191  1.00  0.00     0.278 C 
ENDBRANCH  13  18
BRANCH  17  20
ATOM     20  O   UNL     1      13.618 -48.010 -21.241  1.00  0.00    -0.496 OA
ATOM     21  C   UNL     1      14.423 -46.987 -20.648  1.00  0.00     0.278 C 
ENDBRANCH  17  20
ENDBRANCH   8  12
BRANCH  10  22
ATOM     22  C   UNL     1      15.636 -48.969 -27.402  1.00  0.00     0.037 A 
ATOM     23  C   UNL     1      16.697 -49.763 -27.852  1.00  0.00     0.052 A 
ATOM     24  C   UNL     1      15.229 -47.876 -28.178  1.00  0.00     0.132 A 
ATOM     25  C   UNL     1      17.322 -49.457 -29.058  1.00  0.00     0.124 A 
ATOM     26  C   UNL     1      15.864 -47.578 -29.386  1.00  0.00     0.043 A 
ATOM     27  C   UNL     1      16.917 -48.374 -29.830  1.00  0.00     0.042 A 
ATOM     28  F   UNL     1      14.236 -47.066 -27.787  1.00  0.00    -0.206 F 
ATOM     29  F   UNL     1      18.335 -50.224 -29.483  1.00  0.00    -0.207 F 
ENDBRANCH  10  22
ENDBRANCH   1   7
BRANCH   4  30
ATOM     30  S   UNL     1      10.226 -54.683 -22.674  1.00  0.00     0.238 S 
ATOM     31  O   UNL     1       9.466 -54.217 -21.537  1.00  0.00    -0.207 OA
ATOM     32  O   UNL     1       9.610 -55.332 -23.806  1.00  0.00    -0.207 OA
BRANCH  30  33
ATOM     33  N   UNL     1      11.387 -55.731 -22.047  1.00  0.00    -0.225 NA
ATOM     34  H   UNL     1      11.074 -56.701 -22.021  1.00  0.00     0.137 HD
ATOM     35  H   UNL     1      12.247 -55.626 -22.587  1.00  0.00     0.137 HD
ENDBRANCH  30  33
ENDBRANCH   4  30
TORSDOF 7
ENDMDL
MODEL 7
REMARK VINA RESULT:    -8.583      1.338      2.270
REMARK INTER + INTRA:         -13.236
REMARK INTER:                 -12.321
REMARK INTRA:                  -0.915
REMARK UNBOUND:                -1.392
REMARK SMILES COc1ccc([C@@H]2CC(c3cc(F)ccc3F)=NN2c2ccc(S(N)(=O)=O)cc2)c(OC)c1
REMARK SMILES IDX 20 1 21 2 22 3 23 4 28 5 29 6 19 7 7 8 8 9 9 10 18 11 6 12
REMARK SMILES IDX 3 13 4 14 33 15 5 16 30 17 2 18 1 19 31 20 32 21 10 22 11 23
REMARK SMILES IDX 16 24 12 25 15 26 14 27 17 28 13 29 24 30 26 31 27 32 25 33
REMARK H PARENT 25 34 25 35
ROOT
ATOM      1  C   UNL     1      12.129 -51.857 -23.719  1.00  0.00     0.060 A 
ATOM      2  C   UNL     1      12.407 -52.892 -24.635  1.00  0.00     0.029 A 
ATOM      3  C   UNL     1      12.009 -54.214 -24.411  1.00  0.00     0.024 A 
ATOM      4  C   UNL     1      11.305 -54.524 -23.252  1.00  0.00     0.082 A 
ATOM      5  C   UNL     1      11.026 -53.533 -22.312  1.00  0.00     0.024 A 
ATOM      6  C   UNL     1      11.436 -52.216 -22.552  1.00  0.00     0.029 A 
ENDROOT
BRANCH   1   7
ATOM      7  N   UNL     1      12.534 -50.552 -23.985  1.00  0.00    -0.257 N 
ATOM      8  C   UNL     1      13.437 -50.108 -25.052  1.00  0.00     0.148 C 
ATOM      9  C   UNL     1      13.184 -48.600 -25.111  1.00  0.00     0.091 C 
ATOM     10  C   UNL     1      12.370 -48.411 -23.858  1.00  0.00     0.074 C 
ATOM     11  N   UNL     1      11.982 -49.511 -23.291  1.00  0.00    -0.176 NA
BRANCH   8  12
ATOM     12  C   UNL     1      14.897 -50.466 -24.802  1.00  0.00     0.019 A 
ATOM     13  C   UNL     1      17.621 -51.185 -24.463  1.00  0.00     0.122 A 
ATOM     14  C   UNL     1      16.922 -51.598 -25.593  1.00  0.00     0.047 A 
ATOM     15  C   UNL     1      16.966 -50.409 -23.508  1.00  0.00     0.093 A 
ATOM     16  C   UNL     1      15.580 -51.236 -25.763  1.00  0.00     0.013 A 
ATOM     17  C   UNL     1      15.617 -50.065 -23.667  1.00  0.00     0.127 A 
BRANCH  13  18
ATOM     18  O   UNL     1      18.931 -51.458 -24.181  1.00  0.00    -0.497 OA
ATOM     19  C   UNL     1      19.828 -51.524 -25.282  1.00  0.00     0.278 C 
ENDBRANCH  13  18
BRANCH  17  20
ATOM     20  O   UNL     1      15.037 -49.246 -22.735  1.00  0.00    -0.496 OA
ATOM     21  C   UNL     1      16.031 -48.504 -22.022  1.00  0.00     0.278 C 
ENDBRANCH  17  20
ENDBRANCH   8  12
BRANCH  10  22
ATOM     22  C   UNL     1      12.027 -47.063 -23.356  1.00  0.00     0.037 A 
ATOM     23  C   UNL     1      12.749 -46.492 -22.302  1.00  0.00     0.052 A 
ATOM     24  C   UNL     1      10.973 -46.339 -23.928  1.00  0.00     0.132 A 
ATOM     25  C   UNL     1      12.411 -45.221 -21.846  1.00  0.00     0.124 A 
ATOM     26  C   UNL     1      10.642 -45.065 -23.462  1.00  0.00     0.043 A 
ATOM     27  C   UNL     1      11.367 -44.500 -22.415  1.00  0.00     0.042 A 
ATOM     28  F   UNL     1      10.230 -46.844 -24.923  1.00  0.00    -0.206 F 
ATOM     29  F   UNL     1      13.110 -44.680 -20.839  1.00  0.00    -0.207 F 
ENDBRANCH  10  22
ENDBRANCH   1   7
BRANCH   4  30
ATOM     30  S   UNL     1      10.779 -56.188 -22.953  1.00  0.00     0.238 S 
ATOM     31  O   UNL     1      11.232 -56.589 -21.641  1.00  0.00    -0.207 OA
ATOM     32  O   UNL     1       9.406 -56.320 -23.374  1.00  0.00    -0.207 OA
BRANCH  30  33
ATOM     33  N   UNL     1      11.739 -57.040 -24.045  1.00  0.00    -0.225 NA
ATOM     34  H   UNL     1      11.851 -58.021 -23.794  1.00  0.00     0.137 HD
ATOM     35  H   UNL     1      11.343 -56.932 -24.980  1.00  0.00     0.137 HD
ENDBRANCH  30  33
ENDBRANCH   4  30
TORSDOF 7
ENDMDL
MODEL 8
REMARK VINA RESULT:    -8.409      4.409      7.080
REMARK INTER + INTRA:         -12.996
REMARK INTER:                 -11.412
REMARK INTRA:                  -1.585
REMARK UNBOUND:                -1.392
REMARK SMILES COc1ccc([C@@H]2CC(c3cc(F)ccc3F)=NN2c2ccc(S(N)(=O)=O)cc2)c(OC)c1
REMARK SMILES IDX 20 1 21 2 22 3 23 4 28 5 29 6 19 7 7 8 8 9 9 10 18 11 6 12
REMARK SMILES IDX 3 13 4 14 33 15 5 16 30 17 2 18 1 19 31 20 32 21 10 22 11 23
REMARK SMILES IDX 16 24 12 25 15 26 14 27 17 28 13 29 24 30 26 31 27 32 25 33
REMARK H PARENT 25 34 25 35
ROOT
ATOM      1  C   UNL     1      16.863 -51.271 -24.956  1.00  0.00     0.060 A 
ATOM      2  C   UNL     1      17.531 -50.425 -24.045  1.00  0.00     0.029 A 
ATOM      3  C   UNL     1      18.924 -50.404 -23.930  1.00  0.00     0.024 A 
ATOM      4  C   UNL     1      19.686 -51.235 -24.746  1.00  0.00     0.082 A 
ATOM      5  C   UNL     1      19.064 -52.100 -25.646  1.00  0.00     0.024 A 
ATOM      6  C   UNL     1      17.667 -52.110 -25.744  1.00  0.00     0.029 A 
ENDROOT
BRANCH   1   7
ATOM      7  N   UNL     1      15.474 -51.254 -25.046  1.00  0.00    -0.257 N 
ATOM      8  C   UNL     1      14.670 -50.871 -26.210  1.00  0.00     0.148 C 
ATOM      9  C   UNL     1      13.287 -51.433 -25.872  1.00  0.00     0.091 C 
ATOM     10  C   UNL     1      13.489 -51.802 -24.426  1.00  0.00     0.074 C 
ATOM     11  N   UNL     1      14.719 -51.743 -24.016  1.00  0.00    -0.176 NA
BRANCH   8  12
ATOM     12  C   UNL     1      14.663 -49.371 -26.479  1.00  0.00     0.019 A 
ATOM     13  C   UNL     1      14.596 -46.560 -26.856  1.00  0.00     0.122 A 
ATOM     14  C   UNL     1      14.005 -47.131 -25.733  1.00  0.00     0.047 A 
ATOM     15  C   UNL     1      15.224 -47.388 -27.785  1.00  0.00     0.093 A 
ATOM     16  C   UNL     1      14.046 -48.518 -25.544  1.00  0.00     0.013 A 
ATOM     17  C   UNL     1      15.246 -48.777 -27.608  1.00  0.00     0.127 A 
BRANCH  13  18
ATOM     18  O   UNL     1      14.638 -45.226 -27.154  1.00  0.00    -0.497 OA
ATOM     19  C   UNL     1      13.928 -44.349 -26.289  1.00  0.00     0.278 C 
ENDBRANCH  13  18
BRANCH  17  20
ATOM     20  O   UNL     1      15.934 -49.541 -28.513  1.00  0.00    -0.496 OA
ATOM     21  C   UNL     1      16.012 -48.881 -29.780  1.00  0.00     0.278 C 
ENDBRANCH  17  20
ENDBRANCH   8  12
BRANCH  10  22
ATOM     22  C   UNL     1      12.359 -52.226 -23.572  1.00  0.00     0.037 A 
ATOM     23  C   UNL     1      11.708 -53.442 -23.806  1.00  0.00     0.052 A 
ATOM     24  C   UNL     1      11.921 -51.414 -22.518  1.00  0.00     0.132 A 
ATOM     25  C   UNL     1      10.647 -53.824 -22.989  1.00  0.00     0.124 A 
ATOM     26  C   UNL     1      10.856 -51.806 -21.704  1.00  0.00     0.043 A 
ATOM     27  C   UNL     1      10.215 -53.020 -21.940  1.00  0.00     0.042 A 
ATOM     28  F   UNL     1      12.489 -50.227 -22.260  1.00  0.00    -0.206 F 
ATOM     29  F   UNL     1      10.032 -54.992 -23.218  1.00  0.00    -0.207 F 
ENDBRANCH  10  22
ENDBRANCH   1   7
BRANCH   4  30
ATOM     30  S   UNL     1      21.452 -51.216 -24.628  1.00  0.00     0.238 S 
ATOM     31  O   UNL     1      21.970 -50.247 -25.565  1.00  0.00    -0.207 OA
ATOM     32  O   UNL     1      21.821 -51.221 -23.233  1.00  0.00    -0.207 OA
BRANCH  30  33
ATOM     33  N   UNL     1      21.843 -52.724 -25.270  1.00  0.00    -0.225 NA
ATOM     34  H   UNL     1      22.253 -53.355 -24.582  1.00  0.00     0.137 HD
ATOM     35  H   UNL     1      21.006 -53.125 -25.696  1.00  0.00     0.137 HD
ENDBRANCH  30  33
ENDBRANCH   4  30
TORSDOF 7
ENDMDL
MODEL 9
REMARK VINA RESULT:    -8.308      3.521      5.659
REMARK INTER + INTRA:         -12.857
REMARK INTER:                 -11.272
REMARK INTRA:                  -1.586
REMARK UNBOUND:                -1.392
REMARK SMILES COc1ccc([C@@H]2CC(c3cc(F)ccc3F)=NN2c2ccc(S(N)(=O)=O)cc2)c(OC)c1
REMARK SMILES IDX 20 1 21 2 22 3 23 4 28 5 29 6 19 7 7 8 8 9 9 10 18 11 6 12
REMARK SMILES IDX 3 13 4 14 33 15 5 16 30 17 2 18 1 19 31 20 32 21 10 22 11 23
REMARK SMILES IDX 16 24 12 25 15 26 14 27 17 28 13 29 24 30 26 31 27 32 25 33
REMARK H PARENT 25 34 25 35
ROOT
ATOM      1  C   UNL     1      13.355 -50.895 -24.419  1.00  0.00     0.060 A 
ATOM      2  C   UNL     1      13.101 -52.246 -24.733  1.00  0.00     0.029 A 
ATOM      3  C   UNL     1      12.144 -53.004 -24.050  1.00  0.00     0.024 A 
ATOM      4  C   UNL     1      11.406 -52.407 -23.032  1.00  0.00     0.082 A 
ATOM      5  C   UNL     1      11.640 -51.080 -22.678  1.00  0.00     0.024 A 
ATOM      6  C   UNL     1      12.606 -50.339 -23.371  1.00  0.00     0.029 A 
ENDROOT
BRANCH   1   7
ATOM      7  N   UNL     1      14.310 -50.174 -25.131  1.00  0.00    -0.257 N 
ATOM      8  C   UNL     1      15.726 -50.005 -24.787  1.00  0.00     0.148 C 
ATOM      9  C   UNL     1      16.339 -49.498 -26.094  1.00  0.00     0.091 C 
ATOM     10  C   UNL     1      15.090 -49.202 -26.883  1.00  0.00     0.074 C 
ATOM     11  N   UNL     1      13.992 -49.637 -26.348  1.00  0.00    -0.176 NA
BRANCH   8  12
ATOM     12  C   UNL     1      15.959 -49.069 -23.608  1.00  0.00     0.019 A 
ATOM     13  C   UNL     1      16.329 -47.226 -21.482  1.00  0.00     0.122 A 
ATOM     14  C   UNL     1      15.810 -46.797 -22.700  1.00  0.00     0.047 A 
ATOM     15  C   UNL     1      16.655 -48.572 -21.323  1.00  0.00     0.093 A 
ATOM     16  C   UNL     1      15.621 -47.709 -23.746  1.00  0.00     0.013 A 
ATOM     17  C   UNL     1      16.487 -49.480 -22.375  1.00  0.00     0.127 A 
BRANCH  13  18
ATOM     18  O   UNL     1      16.552 -46.446 -20.381  1.00  0.00    -0.497 OA
ATOM     19  C   UNL     1      15.492 -46.342 -19.439  1.00  0.00     0.278 C 
ENDBRANCH  13  18
BRANCH  17  20
ATOM     20  O   UNL     1      16.759 -50.803 -22.148  1.00  0.00    -0.496 OA
ATOM     21  C   UNL     1      17.971 -50.952 -21.403  1.00  0.00     0.278 C 
ENDBRANCH  17  20
ENDBRANCH   8  12
BRANCH  10  22
ATOM     22  C   UNL     1      15.147 -48.497 -28.182  1.00  0.00     0.037 A 
ATOM     23  C   UNL     1      15.539 -49.174 -29.342  1.00  0.00     0.052 A 
ATOM     24  C   UNL     1      14.812 -47.140 -28.269  1.00  0.00     0.132 A 
ATOM     25  C   UNL     1      15.584 -48.492 -30.555  1.00  0.00     0.124 A 
ATOM     26  C   UNL     1      14.861 -46.465 -29.491  1.00  0.00     0.043 A 
ATOM     27  C   UNL     1      15.248 -47.146 -30.642  1.00  0.00     0.042 A 
ATOM     28  F   UNL     1      14.453 -46.433 -27.188  1.00  0.00    -0.206 F 
ATOM     29  F   UNL     1      15.957 -49.149 -31.662  1.00  0.00    -0.207 F 
ENDBRANCH  10  22
ENDBRANCH   1   7
BRANCH   4  30
ATOM     30  S   UNL     1      10.180 -53.342 -22.162  1.00  0.00     0.238 S 
ATOM     31  O   UNL     1       9.813 -54.486 -22.964  1.00  0.00    -0.207 OA
ATOM     32  O   UNL     1      10.583 -53.459 -20.781  1.00  0.00    -0.207 OA
BRANCH  30  33
ATOM     33  N   UNL     1       8.859 -52.298 -22.227  1.00  0.00    -0.225 NA
ATOM     34  H   UNL     1       8.923 -51.624 -22.989  1.00  0.00     0.137 HD
ATOM     35  H   UNL     1       8.006 -52.856 -22.287  1.00  0.00     0.137 HD
ENDBRANCH  30  33
ENDBRANCH   4  30
TORSDOF 7
ENDMDL
