MODEL 1
REMARK VINA RESULT:   -12.582      0.000      0.000
REMARK INTER + INTRA:         -17.185
REMARK INTER:                 -16.628
REMARK INTRA:                  -0.557
REMARK UNBOUND:                -0.557
REMARK SMILES O[C@H]1C=Nc2cc3onc(CC[C@H]4CC[N@H+](Cc5ccccc5)CC4)c3cc2C1
REMARK SMILES IDX 11 1 10 2 2 3 3 4 29 5 4 6 28 7 5 8 27 9 6 10 26 11 7 12
REMARK SMILES IDX 8 13 9 14 1 15 12 17 13 18 25 19 14 20 24 21 15 22 16 23
REMARK SMILES IDX 17 25 18 26 19 27 23 28 20 29 22 30 21 31
REMARK H PARENT 1 16 16 24
ROOT
ATOM      1  C   UNL     1      10.548 -55.730 -22.616  1.00  0.00     0.061 C 
ENDROOT
BRANCH   1   2
ATOM      2  C   UNL     1      10.691 -54.273 -22.341  1.00  0.00     0.091 A 
ATOM      3  C   UNL     1      14.510 -50.711 -25.830  1.00  0.00     0.160 C 
ATOM      4  C   UNL     1      13.903 -49.506 -25.143  1.00  0.00     0.116 C 
ATOM      5  C   UNL     1      13.508 -51.858 -25.898  1.00  0.00     0.075 C 
ATOM      6  N   UNL     1      12.962 -49.562 -24.252  1.00  0.00    -0.258 NA
ATOM      7  C   UNL     1      12.708 -51.980 -24.630  1.00  0.00    -0.018 A 
ATOM      8  C   UNL     1      12.455 -50.817 -23.879  1.00  0.00     0.070 A 
ATOM      9  C   UNL     1      12.172 -53.227 -24.247  1.00  0.00     0.020 A 
ATOM     10  C   UNL     1      11.674 -50.877 -22.720  1.00  0.00     0.079 A 
ATOM     11  C   UNL     1      11.394 -53.289 -23.079  1.00  0.00     0.045 A 
ATOM     12  C   UNL     1      11.174 -52.125 -22.365  1.00  0.00     0.169 A 
ATOM     13  O   UNL     1      10.399 -52.400 -21.282  1.00  0.00    -0.356 OA
ATOM     14  N   UNL     1      10.091 -53.751 -21.262  1.00  0.00    -0.084 NA
BRANCH   3  15
ATOM     15  O   UNL     1      14.946 -50.361 -27.137  1.00  0.00    -0.387 OA
ATOM     16  H   UNL     1      15.582 -49.627 -27.061  1.00  0.00     0.211 HD
ENDBRANCH   3  15
ENDBRANCH   1   2
BRANCH   1  17
ATOM     17  C   UNL     1      11.386 -56.581 -21.652  1.00  0.00     0.010 C 
BRANCH  17  18
ATOM     18  C   UNL     1      11.549 -58.064 -22.039  1.00  0.00     0.000 C 
ATOM     19  C   UNL     1      10.389 -58.947 -21.563  1.00  0.00     0.065 C 
ATOM     20  C   UNL     1      11.767 -58.248 -23.547  1.00  0.00     0.065 C 
ATOM     21  C   UNL     1      10.616 -60.410 -21.931  1.00  0.00     0.262 C 
ATOM     22  C   UNL     1      11.987 -59.712 -23.911  1.00  0.00     0.262 C 
ATOM     23  N   UNL     1      10.818 -60.535 -23.419  1.00  0.00    -0.331 N 
ATOM     24  H   UNL     1       9.978 -60.170 -23.887  1.00  0.00     0.348 HD
BRANCH  23  25
ATOM     25  C   UNL     1      10.919 -61.990 -23.839  1.00  0.00     0.299 C 
BRANCH  25  26
ATOM     26  C   UNL     1       9.582 -62.615 -24.126  1.00  0.00     0.006 A 
ATOM     27  C   UNL     1       8.960 -62.425 -25.371  1.00  0.00     0.009 A 
ATOM     28  C   UNL     1       8.947 -63.414 -23.163  1.00  0.00     0.009 A 
ATOM     29  C   UNL     1       7.733 -63.029 -25.646  1.00  0.00     0.001 A 
ATOM     30  C   UNL     1       7.718 -64.016 -23.444  1.00  0.00     0.001 A 
ATOM     31  C   UNL     1       7.115 -63.825 -24.684  1.00  0.00     0.000 A 
ENDBRANCH  25  26
ENDBRANCH  23  25
ENDBRANCH  17  18
ENDBRANCH   1  17
TORSDOF 6
ENDMDL
MODEL 2
REMARK VINA RESULT:   -12.068      1.772      2.343
REMARK INTER + INTRA:         -16.506
REMARK INTER:                 -16.278
REMARK INTRA:                  -0.228
REMARK UNBOUND:                -0.557
REMARK SMILES O[C@H]1C=Nc2cc3onc(CC[C@H]4CC[N@H+](Cc5ccccc5)CC4)c3cc2C1
REMARK SMILES IDX 11 1 10 2 2 3 3 4 29 5 4 6 28 7 5 8 27 9 6 10 26 11 7 12
REMARK SMILES IDX 8 13 9 14 1 15 12 17 13 18 25 19 14 20 24 21 15 22 16 23
REMARK SMILES IDX 17 25 18 26 19 27 23 28 20 29 22 30 21 31
REMARK H PARENT 1 16 16 24
ROOT
ATOM      1  C   UNL     1      11.313 -54.699 -22.894  1.00  0.00     0.061 C 
ENDROOT
BRANCH   1   2
ATOM      2  C   UNL     1      10.558 -53.456 -22.570  1.00  0.00     0.091 A 
ATOM      3  C   UNL     1      13.360 -47.841 -22.848  1.00  0.00     0.160 C 
ATOM      4  C   UNL     1      11.988 -47.224 -22.677  1.00  0.00     0.116 C 
ATOM      5  C   UNL     1      13.262 -49.194 -23.545  1.00  0.00     0.075 C 
ATOM      6  N   UNL     1      10.885 -47.897 -22.573  1.00  0.00    -0.258 NA
ATOM      7  C   UNL     1      12.082 -49.990 -23.059  1.00  0.00    -0.018 A 
ATOM      8  C   UNL     1      10.939 -49.299 -22.616  1.00  0.00     0.070 A 
ATOM      9  C   UNL     1      12.107 -51.400 -23.114  1.00  0.00     0.020 A 
ATOM     10  C   UNL     1       9.801 -50.001 -22.204  1.00  0.00     0.079 A 
ATOM     11  C   UNL     1      10.968 -52.104 -22.692  1.00  0.00     0.045 A 
ATOM     12  C   UNL     1       9.867 -51.389 -22.258  1.00  0.00     0.169 A 
ATOM     13  O   UNL     1       8.878 -52.253 -21.903  1.00  0.00    -0.356 OA
ATOM     14  N   UNL     1       9.308 -53.556 -22.098  1.00  0.00    -0.084 NA
BRANCH   3  15
ATOM     15  O   UNL     1      14.201 -46.967 -23.589  1.00  0.00    -0.387 OA
ATOM     16  H   UNL     1      13.914 -46.981 -24.519  1.00  0.00     0.211 HD
ENDBRANCH   3  15
ENDBRANCH   1   2
BRANCH   1  17
ATOM     17  C   UNL     1      10.995 -55.835 -21.913  1.00  0.00     0.010 C 
BRANCH  17  18
ATOM     18  C   UNL     1      10.950 -57.250 -22.521  1.00  0.00     0.000 C 
ATOM     19  C   UNL     1      11.803 -57.396 -23.787  1.00  0.00     0.065 C 
ATOM     20  C   UNL     1      11.333 -58.331 -21.500  1.00  0.00     0.065 C 
ATOM     21  C   UNL     1      11.693 -58.799 -24.374  1.00  0.00     0.262 C 
ATOM     22  C   UNL     1      11.227 -59.731 -22.093  1.00  0.00     0.262 C 
ATOM     23  N   UNL     1      12.085 -59.819 -23.336  1.00  0.00    -0.331 N 
ATOM     24  H   UNL     1      13.051 -59.623 -23.045  1.00  0.00     0.348 HD
BRANCH  23  25
ATOM     25  C   UNL     1      12.111 -61.218 -23.923  1.00  0.00     0.299 C 
BRANCH  25  26
ATOM     26  C   UNL     1      10.752 -61.858 -23.984  1.00  0.00     0.006 A 
ATOM     27  C   UNL     1       9.894 -61.606 -25.067  1.00  0.00     0.009 A 
ATOM     28  C   UNL     1      10.329 -62.732 -22.971  1.00  0.00     0.009 A 
ATOM     29  C   UNL     1       8.645 -62.222 -25.136  1.00  0.00     0.001 A 
ATOM     30  C   UNL     1       9.077 -63.346 -23.045  1.00  0.00     0.001 A 
ATOM     31  C   UNL     1       8.239 -63.093 -24.127  1.00  0.00     0.000 A 
ENDBRANCH  25  26
ENDBRANCH  23  25
ENDBRANCH  17  18
ENDBRANCH   1  17
TORSDOF 6
ENDMDL
MODEL 3
REMARK VINA RESULT:   -11.815      1.790      2.581
REMARK INTER + INTRA:         -16.171
REMARK INTER:                 -15.960
REMARK INTRA:                  -0.210
REMARK UNBOUND:                -0.557
REMARK SMILES O[C@H]1C=Nc2cc3onc(CC[C@H]4CC[N@H+](Cc5ccccc5)CC4)c3cc2C1
REMARK SMILES IDX 11 1 10 2 2 3 3 4 29 5 4 6 28 7 5 8 27 9 6 10 26 11 7 12
REMARK SMILES IDX 8 13 9 14 1 15 12 17 13 18 25 19 14 20 24 21 15 22 16 23
REMARK SMILES IDX 17 25 18 26 19 27 23 28 20 29 22 30 21 31
REMARK H PARENT 1 16 16 24
ROOT
ATOM      1  C   UNL     1      10.336 -55.243 -22.722  1.00  0.00     0.061 C 
ENDROOT
BRANCH   1   2
ATOM      2  C   UNL     1      11.211 -54.445 -23.625  1.00  0.00     0.091 A 
ATOM      3  C   UNL     1      11.936 -48.268 -22.745  1.00  0.00     0.160 C 
ATOM      4  C   UNL     1      13.045 -48.320 -23.774  1.00  0.00     0.116 C 
ATOM      5  C   UNL     1      11.813 -49.601 -22.014  1.00  0.00     0.075 C 
ATOM      6  N   UNL     1      13.441 -49.398 -24.377  1.00  0.00    -0.258 NA
ATOM      7  C   UNL     1      11.984 -50.769 -22.945  1.00  0.00    -0.018 A 
ATOM      8  C   UNL     1      12.811 -50.615 -24.074  1.00  0.00     0.070 A 
ATOM      9  C   UNL     1      11.378 -52.007 -22.648  1.00  0.00     0.020 A 
ATOM     10  C   UNL     1      13.038 -51.692 -24.938  1.00  0.00     0.079 A 
ATOM     11  C   UNL     1      11.598 -53.085 -23.521  1.00  0.00     0.045 A 
ATOM     12  C   UNL     1      12.412 -52.892 -24.622  1.00  0.00     0.169 A 
ATOM     13  O   UNL     1      12.500 -54.052 -25.328  1.00  0.00    -0.356 OA
ATOM     14  N   UNL     1      11.745 -55.033 -24.704  1.00  0.00    -0.084 NA
BRANCH   3  15
ATOM     15  O   UNL     1      12.180 -47.219 -21.817  1.00  0.00    -0.387 OA
ATOM     16  H   UNL     1      11.323 -46.841 -21.550  1.00  0.00     0.211 HD
ENDBRANCH   3  15
ENDBRANCH   1   2
BRANCH   1  17
ATOM     17  C   UNL     1      11.113 -56.358 -22.009  1.00  0.00     0.010 C 
BRANCH  17  18
ATOM     18  C   UNL     1      10.868 -57.786 -22.536  1.00  0.00     0.000 C 
ATOM     19  C   UNL     1      11.771 -58.162 -23.717  1.00  0.00     0.065 C 
ATOM     20  C   UNL     1      10.985 -58.840 -21.427  1.00  0.00     0.065 C 
ATOM     21  C   UNL     1      11.463 -59.565 -24.229  1.00  0.00     0.262 C 
ATOM     22  C   UNL     1      10.682 -60.241 -21.944  1.00  0.00     0.262 C 
ATOM     23  N   UNL     1      11.598 -60.559 -23.104  1.00  0.00    -0.331 N 
ATOM     24  H   UNL     1      12.560 -60.508 -22.747  1.00  0.00     0.348 HD
BRANCH  23  25
ATOM     25  C   UNL     1      11.424 -61.981 -23.605  1.00  0.00     0.299 C 
BRANCH  25  26
ATOM     26  C   UNL     1       9.983 -62.401 -23.702  1.00  0.00     0.006 A 
ATOM     27  C   UNL     1       9.208 -62.032 -24.812  1.00  0.00     0.009 A 
ATOM     28  C   UNL     1       9.400 -63.185 -22.695  1.00  0.00     0.009 A 
ATOM     29  C   UNL     1       7.879 -62.446 -24.914  1.00  0.00     0.001 A 
ATOM     30  C   UNL     1       8.070 -63.596 -22.801  1.00  0.00     0.001 A 
ATOM     31  C   UNL     1       7.313 -63.229 -23.910  1.00  0.00     0.000 A 
ENDBRANCH  25  26
ENDBRANCH  23  25
ENDBRANCH  17  18
ENDBRANCH   1  17
TORSDOF 6
ENDMDL
MODEL 4
REMARK VINA RESULT:   -11.447      3.703      8.723
REMARK INTER + INTRA:         -15.685
REMARK INTER:                 -14.662
REMARK INTRA:                  -1.024
REMARK UNBOUND:                -0.557
REMARK SMILES O[C@H]1C=Nc2cc3onc(CC[C@H]4CC[N@H+](Cc5ccccc5)CC4)c3cc2C1
REMARK SMILES IDX 11 1 10 2 2 3 3 4 29 5 4 6 28 7 5 8 27 9 6 10 26 11 7 12
REMARK SMILES IDX 8 13 9 14 1 15 12 17 13 18 25 19 14 20 24 21 15 22 16 23
REMARK SMILES IDX 17 25 18 26 19 27 23 28 20 29 22 30 21 31
REMARK H PARENT 1 16 16 24
ROOT
ATOM      1  C   UNL     1      11.283 -60.863 -22.778  1.00  0.00     0.061 C 
ENDROOT
BRANCH   1   2
ATOM      2  C   UNL     1      10.570 -61.305 -24.008  1.00  0.00     0.091 A 
ATOM      3  C   UNL     1      11.878 -58.715 -29.579  1.00  0.00     0.160 C 
ATOM      4  C   UNL     1      11.030 -59.802 -30.207  1.00  0.00     0.116 C 
ATOM      5  C   UNL     1      12.509 -59.204 -28.280  1.00  0.00     0.075 C 
ATOM      6  N   UNL     1      10.440 -60.749 -29.548  1.00  0.00    -0.258 NA
ATOM      7  C   UNL     1      11.555 -60.040 -27.473  1.00  0.00    -0.018 A 
ATOM      8  C   UNL     1      10.577 -60.792 -28.151  1.00  0.00     0.070 A 
ATOM      9  C   UNL     1      11.688 -60.113 -26.070  1.00  0.00     0.020 A 
ATOM     10  C   UNL     1       9.702 -61.622 -27.442  1.00  0.00     0.079 A 
ATOM     11  C   UNL     1      10.804 -60.940 -25.358  1.00  0.00     0.045 A 
ATOM     12  C   UNL     1       9.853 -61.658 -26.061  1.00  0.00     0.169 A 
ATOM     13  O   UNL     1       9.109 -62.393 -25.192  1.00  0.00    -0.356 OA
ATOM     14  N   UNL     1       9.556 -62.176 -23.898  1.00  0.00    -0.084 NA
BRANCH   3  15
ATOM     15  O   UNL     1      12.886 -58.295 -30.488  1.00  0.00    -0.387 OA
ATOM     16  H   UNL     1      12.918 -57.321 -30.481  1.00  0.00     0.211 HD
ENDBRANCH   3  15
ENDBRANCH   1   2
BRANCH   1  17
ATOM     17  C   UNL     1      10.328 -60.233 -21.757  1.00  0.00     0.010 C 
BRANCH  17  18
ATOM     18  C   UNL     1      10.115 -58.712 -21.889  1.00  0.00     0.000 C 
ATOM     19  C   UNL     1      11.424 -57.913 -21.895  1.00  0.00     0.065 C 
ATOM     20  C   UNL     1       9.272 -58.350 -23.120  1.00  0.00     0.065 C 
ATOM     21  C   UNL     1      11.161 -56.413 -21.985  1.00  0.00     0.262 C 
ATOM     22  C   UNL     1       9.017 -56.851 -23.210  1.00  0.00     0.262 C 
ATOM     23  N   UNL     1      10.337 -56.114 -23.211  1.00  0.00    -0.331 N 
ATOM     24  H   UNL     1      10.860 -56.439 -24.035  1.00  0.00     0.348 HD
BRANCH  23  25
ATOM     25  C   UNL     1      10.164 -54.618 -23.404  1.00  0.00     0.299 C 
BRANCH  25  26
ATOM     26  C   UNL     1      11.348 -53.967 -24.062  1.00  0.00     0.006 A 
ATOM     27  C   UNL     1      11.990 -54.587 -25.146  1.00  0.00     0.009 A 
ATOM     28  C   UNL     1      11.816 -52.721 -23.617  1.00  0.00     0.009 A 
ATOM     29  C   UNL     1      13.072 -53.968 -25.774  1.00  0.00     0.001 A 
ATOM     30  C   UNL     1      12.898 -52.106 -24.248  1.00  0.00     0.001 A 
ATOM     31  C   UNL     1      13.523 -52.728 -25.326  1.00  0.00     0.000 A 
ENDBRANCH  25  26
ENDBRANCH  23  25
ENDBRANCH  17  18
ENDBRANCH   1  17
TORSDOF 6
ENDMDL
MODEL 5
REMARK VINA RESULT:   -11.316      3.948      8.857
REMARK INTER + INTRA:         -15.512
REMARK INTER:                 -14.424
REMARK INTRA:                  -1.088
REMARK UNBOUND:                -0.557
REMARK SMILES O[C@H]1C=Nc2cc3onc(CC[C@H]4CC[N@H+](Cc5ccccc5)CC4)c3cc2C1
REMARK SMILES IDX 11 1 10 2 2 3 3 4 29 5 4 6 28 7 5 8 27 9 6 10 26 11 7 12
REMARK SMILES IDX 8 13 9 14 1 15 12 17 13 18 25 19 14 20 24 21 15 22 16 23
REMARK SMILES IDX 17 25 18 26 19 27 23 28 20 29 22 30 21 31
REMARK H PARENT 1 16 16 24
ROOT
ATOM      1  C   UNL     1       7.708 -62.595 -23.798  1.00  0.00     0.061 C 
ENDROOT
BRANCH   1   2
ATOM      2  C   UNL     1       7.894 -62.750 -25.268  1.00  0.00     0.091 A 
ATOM      3  C   UNL     1      11.573 -58.790 -28.467  1.00  0.00     0.160 C 
ATOM      4  C   UNL     1      11.435 -59.724 -29.650  1.00  0.00     0.116 C 
ATOM      5  C   UNL     1      11.453 -59.556 -27.154  1.00  0.00     0.075 C 
ATOM      6  N   UNL     1      10.764 -60.834 -29.639  1.00  0.00    -0.258 NA
ATOM      7  C   UNL     1      10.384 -60.613 -27.218  1.00  0.00    -0.018 A 
ATOM      8  C   UNL     1      10.107 -61.217 -28.459  1.00  0.00     0.070 A 
ATOM      9  C   UNL     1       9.727 -61.028 -26.041  1.00  0.00     0.020 A 
ATOM     10  C   UNL     1       9.157 -62.239 -28.553  1.00  0.00     0.079 A 
ATOM     11  C   UNL     1       8.767 -62.048 -26.137  1.00  0.00     0.045 A 
ATOM     12  C   UNL     1       8.519 -62.613 -27.375  1.00  0.00     0.169 A 
ATOM     13  O   UNL     1       7.568 -63.577 -27.250  1.00  0.00    -0.356 OA
ATOM     14  N   UNL     1       7.171 -63.668 -25.925  1.00  0.00    -0.084 NA
BRANCH   3  15
ATOM     15  O   UNL     1      12.819 -58.107 -28.525  1.00  0.00    -0.387 OA
ATOM     16  H   UNL     1      12.714 -57.242 -28.091  1.00  0.00     0.211 HD
ENDBRANCH   3  15
ENDBRANCH   1   2
BRANCH   1  17
ATOM     17  C   UNL     1       7.085 -61.240 -23.439  1.00  0.00     0.010 C 
BRANCH  17  18
ATOM     18  C   UNL     1       8.025 -60.236 -22.743  1.00  0.00     0.000 C 
ATOM     19  C   UNL     1       9.384 -60.838 -22.364  1.00  0.00     0.065 C 
ATOM     20  C   UNL     1       8.226 -58.960 -23.572  1.00  0.00     0.065 C 
ATOM     21  C   UNL     1      10.261 -59.820 -21.641  1.00  0.00     0.262 C 
ATOM     22  C   UNL     1       9.108 -57.949 -22.849  1.00  0.00     0.262 C 
ATOM     23  N   UNL     1      10.431 -58.593 -22.500  1.00  0.00    -0.331 N 
ATOM     24  H   UNL     1      10.866 -58.881 -23.386  1.00  0.00     0.348 HD
BRANCH  23  25
ATOM     25  C   UNL     1      11.402 -57.612 -21.869  1.00  0.00     0.299 C 
BRANCH  25  26
ATOM     26  C   UNL     1      11.211 -56.200 -22.349  1.00  0.00     0.006 A 
ATOM     27  C   UNL     1      10.787 -55.198 -21.461  1.00  0.00     0.009 A 
ATOM     28  C   UNL     1      11.474 -55.860 -23.684  1.00  0.00     0.009 A 
ATOM     29  C   UNL     1      10.636 -53.883 -21.902  1.00  0.00     0.001 A 
ATOM     30  C   UNL     1      11.321 -54.542 -24.120  1.00  0.00     0.001 A 
ATOM     31  C   UNL     1      10.906 -53.556 -23.229  1.00  0.00     0.000 A 
ENDBRANCH  25  26
ENDBRANCH  23  25
ENDBRANCH  17  18
ENDBRANCH   1  17
TORSDOF 6
ENDMDL
MODEL 6
REMARK VINA RESULT:   -11.128      3.286     11.105
REMARK INTER + INTRA:         -15.263
REMARK INTER:                 -14.985
REMARK INTRA:                  -0.278
REMARK UNBOUND:                -0.557
REMARK SMILES O[C@H]1C=Nc2cc3onc(CC[C@H]4CC[N@H+](Cc5ccccc5)CC4)c3cc2C1
REMARK SMILES IDX 11 1 10 2 2 3 3 4 29 5 4 6 28 7 5 8 27 9 6 10 26 11 7 12
REMARK SMILES IDX 8 13 9 14 1 15 12 17 13 18 25 19 14 20 24 21 15 22 16 23
REMARK SMILES IDX 17 25 18 26 19 27 23 28 20 29 22 30 21 31
REMARK H PARENT 1 16 16 24
ROOT
ATOM      1  C   UNL     1       9.923 -55.906 -23.114  1.00  0.00     0.061 C 
ENDROOT
BRANCH   1   2
ATOM      2  C   UNL     1      10.352 -57.227 -22.575  1.00  0.00     0.091 A 
ATOM      3  C   UNL     1       6.930 -62.385 -23.640  1.00  0.00     0.160 C 
ATOM      4  C   UNL     1       8.081 -63.185 -23.067  1.00  0.00     0.116 C 
ATOM      5  C   UNL     1       7.433 -61.098 -24.284  1.00  0.00     0.075 C 
ATOM      6  N   UNL     1       9.195 -62.674 -22.644  1.00  0.00    -0.258 NA
ATOM      7  C   UNL     1       8.527 -60.457 -23.475  1.00  0.00    -0.018 A 
ATOM      8  C   UNL     1       9.371 -61.282 -22.709  1.00  0.00     0.070 A 
ATOM      9  C   UNL     1       8.734 -59.063 -23.542  1.00  0.00     0.020 A 
ATOM     10  C   UNL     1      10.432 -60.732 -21.982  1.00  0.00     0.079 A 
ATOM     11  C   UNL     1       9.794 -58.510 -22.805  1.00  0.00     0.045 A 
ATOM     12  C   UNL     1      10.598 -59.354 -22.060  1.00  0.00     0.169 A 
ATOM     13  O   UNL     1      11.559 -58.625 -21.433  1.00  0.00    -0.356 OA
ATOM     14  N   UNL     1      11.410 -57.285 -21.754  1.00  0.00    -0.084 NA
BRANCH   3  15
ATOM     15  O   UNL     1       6.219 -63.166 -24.592  1.00  0.00    -0.387 OA
ATOM     16  H   UNL     1       5.381 -62.713 -24.795  1.00  0.00     0.211 HD
ENDBRANCH   3  15
ENDBRANCH   1   2
BRANCH   1  17
ATOM     17  C   UNL     1       9.945 -54.813 -22.038  1.00  0.00     0.010 C 
BRANCH  17  18
ATOM     18  C   UNL     1      10.990 -53.697 -22.240  1.00  0.00     0.000 C 
ATOM     19  C   UNL     1      11.376 -53.484 -23.708  1.00  0.00     0.065 C 
ATOM     20  C   UNL     1      10.544 -52.368 -21.614  1.00  0.00     0.065 C 
ATOM     21  C   UNL     1      12.441 -52.402 -23.852  1.00  0.00     0.262 C 
ATOM     22  C   UNL     1      11.608 -51.287 -21.766  1.00  0.00     0.262 C 
ATOM     23  N   UNL     1      11.951 -51.119 -23.229  1.00  0.00    -0.331 N 
ATOM     24  H   UNL     1      11.086 -50.841 -23.708  1.00  0.00     0.348 HD
BRANCH  23  25
ATOM     25  C   UNL     1      12.931 -49.985 -23.466  1.00  0.00     0.299 C 
BRANCH  25  26
ATOM     26  C   UNL     1      12.259 -48.651 -23.640  1.00  0.00     0.006 A 
ATOM     27  C   UNL     1      11.236 -48.250 -22.766  1.00  0.00     0.009 A 
ATOM     28  C   UNL     1      12.659 -47.780 -24.665  1.00  0.00     0.009 A 
ATOM     29  C   UNL     1      10.633 -47.001 -22.912  1.00  0.00     0.001 A 
ATOM     30  C   UNL     1      12.051 -46.531 -24.806  1.00  0.00     0.001 A 
ATOM     31  C   UNL     1      11.042 -46.142 -23.929  1.00  0.00     0.000 A 
ENDBRANCH  25  26
ENDBRANCH  23  25
ENDBRANCH  17  18
ENDBRANCH   1  17
TORSDOF 6
ENDMDL
MODEL 7
REMARK VINA RESULT:   -10.862      3.601      8.960
REMARK INTER + INTRA:         -14.912
REMARK INTER:                 -14.362
REMARK INTRA:                  -0.551
REMARK UNBOUND:                -0.557
REMARK SMILES O[C@H]1C=Nc2cc3onc(CC[C@H]4CC[N@H+](Cc5ccccc5)CC4)c3cc2C1
REMARK SMILES IDX 11 1 10 2 2 3 3 4 29 5 4 6 28 7 5 8 27 9 6 10 26 11 7 12
REMARK SMILES IDX 8 13 9 14 1 15 12 17 13 18 25 19 14 20 24 21 15 22 16 23
REMARK SMILES IDX 17 25 18 26 19 27 23 28 20 29 22 30 21 31
REMARK H PARENT 1 16 16 24
ROOT
ATOM      1  C   UNL     1       9.500 -62.700 -21.995  1.00  0.00     0.061 C 
ENDROOT
BRANCH   1   2
ATOM      2  C   UNL     1       8.972 -62.799 -23.384  1.00  0.00     0.091 A 
ATOM      3  C   UNL     1      11.526 -59.434 -28.032  1.00  0.00     0.160 C 
ATOM      4  C   UNL     1      10.690 -60.252 -28.992  1.00  0.00     0.116 C 
ATOM      5  C   UNL     1      11.858 -60.240 -26.781  1.00  0.00     0.075 C 
ATOM      6  N   UNL     1       9.891 -61.211 -28.642  1.00  0.00    -0.258 NA
ATOM      7  C   UNL     1      10.690 -61.066 -26.319  1.00  0.00    -0.018 A 
ATOM      8  C   UNL     1       9.772 -61.532 -27.280  1.00  0.00     0.070 A 
ATOM      9  C   UNL     1      10.563 -61.418 -24.959  1.00  0.00     0.020 A 
ATOM     10  C   UNL     1       8.700 -62.345 -26.900  1.00  0.00     0.079 A 
ATOM     11  C   UNL     1       9.481 -62.227 -24.577  1.00  0.00     0.045 A 
ATOM     12  C   UNL     1       8.598 -62.659 -25.549  1.00  0.00     0.169 A 
ATOM     13  O   UNL     1       7.635 -63.429 -24.975  1.00  0.00    -0.356 OA
ATOM     14  N   UNL     1       7.866 -63.521 -23.612  1.00  0.00    -0.084 NA
BRANCH   3  15
ATOM     15  O   UNL     1      12.720 -59.000 -28.670  1.00  0.00    -0.387 OA
ATOM     16  H   UNL     1      12.746 -58.027 -28.643  1.00  0.00     0.211 HD
ENDBRANCH   3  15
ENDBRANCH   1   2
BRANCH   1  17
ATOM     17  C   UNL     1       9.328 -61.289 -21.416  1.00  0.00     0.010 C 
BRANCH  17  18
ATOM     18  C   UNL     1       9.906 -60.142 -22.268  1.00  0.00     0.000 C 
ATOM     19  C   UNL     1       8.856 -59.105 -22.684  1.00  0.00     0.065 C 
ATOM     20  C   UNL     1      11.088 -59.448 -21.578  1.00  0.00     0.065 C 
ATOM     21  C   UNL     1       9.466 -58.015 -23.559  1.00  0.00     0.262 C 
ATOM     22  C   UNL     1      11.691 -58.355 -22.453  1.00  0.00     0.262 C 
ATOM     23  N   UNL     1      10.615 -57.363 -22.834  1.00  0.00    -0.331 N 
ATOM     24  H   UNL     1      10.255 -56.964 -21.957  1.00  0.00     0.348 HD
BRANCH  23  25
ATOM     25  C   UNL     1      11.165 -56.187 -23.621  1.00  0.00     0.299 C 
BRANCH  25  26
ATOM     26  C   UNL     1      11.080 -54.885 -22.874  1.00  0.00     0.006 A 
ATOM     27  C   UNL     1      11.361 -53.673 -23.524  1.00  0.00     0.009 A 
ATOM     28  C   UNL     1      10.699 -54.861 -21.524  1.00  0.00     0.009 A 
ATOM     29  C   UNL     1      11.255 -52.463 -22.837  1.00  0.00     0.001 A 
ATOM     30  C   UNL     1      10.595 -53.648 -20.842  1.00  0.00     0.001 A 
ATOM     31  C   UNL     1      10.870 -52.452 -21.498  1.00  0.00     0.000 A 
ENDBRANCH  25  26
ENDBRANCH  23  25
ENDBRANCH  17  18
ENDBRANCH   1  17
TORSDOF 6
ENDMDL
MODEL 8
REMARK VINA RESULT:   -10.785      1.338      1.710
REMARK INTER + INTRA:         -14.810
REMARK INTER:                 -14.149
REMARK INTRA:                  -0.661
REMARK UNBOUND:                -0.557
REMARK SMILES O[C@H]1C=Nc2cc3onc(CC[C@H]4CC[N@H+](Cc5ccccc5)CC4)c3cc2C1
REMARK SMILES IDX 11 1 10 2 2 3 3 4 29 5 4 6 28 7 5 8 27 9 6 10 26 11 7 12
REMARK SMILES IDX 8 13 9 14 1 15 12 17 13 18 25 19 14 20 24 21 15 22 16 23
REMARK SMILES IDX 17 25 18 26 19 27 23 28 20 29 22 30 21 31
REMARK H PARENT 1 16 16 24
ROOT
ATOM      1  C   UNL     1      10.261 -54.044 -21.753  1.00  0.00     0.061 C 
ENDROOT
BRANCH   1   2
ATOM      2  C   UNL     1      10.519 -52.623 -22.115  1.00  0.00     0.091 A 
ATOM      3  C   UNL     1      15.740 -51.002 -25.207  1.00  0.00     0.160 C 
ATOM      4  C   UNL     1      15.128 -49.628 -25.384  1.00  0.00     0.116 C 
ATOM      5  C   UNL     1      14.656 -52.070 -25.115  1.00  0.00     0.075 C 
ATOM      6  N   UNL     1      13.953 -49.285 -24.958  1.00  0.00    -0.258 NA
ATOM      7  C   UNL     1      13.482 -51.608 -24.298  1.00  0.00    -0.018 A 
ATOM      8  C   UNL     1      13.174 -50.234 -24.278  1.00  0.00     0.070 A 
ATOM      9  C   UNL     1      12.673 -52.547 -23.625  1.00  0.00     0.020 A 
ATOM     10  C   UNL     1      12.059 -49.768 -23.571  1.00  0.00     0.079 A 
ATOM     11  C   UNL     1      11.560 -52.077 -22.908  1.00  0.00     0.045 A 
ATOM     12  C   UNL     1      11.294 -50.720 -22.908  1.00  0.00     0.169 A 
ATOM     13  O   UNL     1      10.179 -50.478 -22.167  1.00  0.00    -0.356 OA
ATOM     14  N   UNL     1       9.687 -51.673 -21.666  1.00  0.00    -0.084 NA
BRANCH   3  15
ATOM     15  O   UNL     1      16.621 -51.287 -26.286  1.00  0.00    -0.387 OA
ATOM     16  H   UNL     1      16.122 -51.767 -26.971  1.00  0.00     0.211 HD
ENDBRANCH   3  15
ENDBRANCH   1   2
BRANCH   1  17
ATOM     17  C   UNL     1       9.995 -54.912 -22.990  1.00  0.00     0.010 C 
BRANCH  17  18
ATOM     18  C   UNL     1      10.183 -56.429 -22.796  1.00  0.00     0.000 C 
ATOM     19  C   UNL     1       9.007 -57.260 -23.322  1.00  0.00     0.065 C 
ATOM     20  C   UNL     1      11.499 -56.932 -23.406  1.00  0.00     0.065 C 
ATOM     21  C   UNL     1       9.220 -58.749 -23.070  1.00  0.00     0.262 C 
ATOM     22  C   UNL     1      11.705 -58.421 -23.156  1.00  0.00     0.262 C 
ATOM     23  N   UNL     1      10.519 -59.191 -23.693  1.00  0.00    -0.331 N 
ATOM     24  H   UNL     1      10.471 -58.999 -24.702  1.00  0.00     0.348 HD
BRANCH  23  25
ATOM     25  C   UNL     1      10.703 -60.693 -23.573  1.00  0.00     0.299 C 
BRANCH  25  26
ATOM     26  C   UNL     1       9.780 -61.474 -24.466  1.00  0.00     0.006 A 
ATOM     27  C   UNL     1       9.854 -61.335 -25.862  1.00  0.00     0.009 A 
ATOM     28  C   UNL     1       8.846 -62.368 -23.920  1.00  0.00     0.009 A 
ATOM     29  C   UNL     1       9.015 -62.082 -26.690  1.00  0.00     0.001 A 
ATOM     30  C   UNL     1       8.010 -63.112 -24.754  1.00  0.00     0.001 A 
ATOM     31  C   UNL     1       8.096 -62.970 -26.136  1.00  0.00     0.000 A 
ENDBRANCH  25  26
ENDBRANCH  23  25
ENDBRANCH  17  18
ENDBRANCH   1  17
TORSDOF 6
ENDMDL
MODEL 9
REMARK VINA RESULT:   -10.336      2.265      3.629
REMARK INTER + INTRA:         -14.217
REMARK INTER:                 -13.864
REMARK INTRA:                  -0.352
REMARK UNBOUND:                -0.557
REMARK SMILES O[C@H]1C=Nc2cc3onc(CC[C@H]4CC[N@H+](Cc5ccccc5)CC4)c3cc2C1
REMARK SMILES IDX 11 1 10 2 2 3 3 4 29 5 4 6 28 7 5 8 27 9 6 10 26 11 7 12
REMARK SMILES IDX 8 13 9 14 1 15 12 17 13 18 25 19 14 20 24 21 15 22 16 23
REMARK SMILES IDX 17 25 18 26 19 27 23 28 20 29 22 30 21 31
REMARK H PARENT 1 16 16 24
ROOT
ATOM      1  C   UNL     1      10.486 -51.775 -21.629  1.00  0.00     0.061 C 
ENDROOT
BRANCH   1   2
ATOM      2  C   UNL     1      11.091 -50.665 -22.417  1.00  0.00     0.091 A 
ATOM      3  C   UNL     1      16.586 -51.449 -25.358  1.00  0.00     0.160 C 
ATOM      4  C   UNL     1      16.332 -50.121 -26.040  1.00  0.00     0.116 C 
ATOM      5  C   UNL     1      15.271 -52.143 -25.019  1.00  0.00     0.075 C 
ATOM      6  N   UNL     1      15.273 -49.394 -25.867  1.00  0.00    -0.258 NA
ATOM      7  C   UNL     1      14.237 -51.172 -24.519  1.00  0.00    -0.018 A 
ATOM      8  C   UNL     1      14.277 -49.845 -24.988  1.00  0.00     0.070 A 
ATOM      9  C   UNL     1      13.214 -51.609 -23.652  1.00  0.00     0.020 A 
ATOM     10  C   UNL     1      13.304 -48.923 -24.587  1.00  0.00     0.079 A 
ATOM     11  C   UNL     1      12.243 -50.681 -23.243  1.00  0.00     0.045 A 
ATOM     12  C   UNL     1      12.320 -49.385 -23.721  1.00  0.00     0.169 A 
ATOM     13  O   UNL     1      11.291 -48.655 -23.213  1.00  0.00    -0.356 OA
ATOM     14  N   UNL     1      10.514 -49.456 -22.392  1.00  0.00    -0.084 NA
BRANCH   3  15
ATOM     15  O   UNL     1      17.381 -52.283 -26.190  1.00  0.00    -0.387 OA
ATOM     16  H   UNL     1      18.267 -52.357 -25.792  1.00  0.00     0.211 HD
ENDBRANCH   3  15
ENDBRANCH   1   2
BRANCH   1  17
ATOM     17  C   UNL     1       9.911 -52.873 -22.532  1.00  0.00     0.010 C 
BRANCH  17  18
ATOM     18  C   UNL     1      10.772 -54.144 -22.671  1.00  0.00     0.000 C 
ATOM     19  C   UNL     1      10.313 -55.292 -21.765  1.00  0.00     0.065 C 
ATOM     20  C   UNL     1      10.862 -54.625 -24.126  1.00  0.00     0.065 C 
ATOM     21  C   UNL     1      11.220 -56.510 -21.907  1.00  0.00     0.262 C 
ATOM     22  C   UNL     1      11.764 -55.845 -24.263  1.00  0.00     0.262 C 
ATOM     23  N   UNL     1      11.268 -56.944 -23.349  1.00  0.00    -0.331 N 
ATOM     24  H   UNL     1      10.310 -57.169 -23.647  1.00  0.00     0.348 HD
BRANCH  23  25
ATOM     25  C   UNL     1      12.058 -58.230 -23.510  1.00  0.00     0.299 C 
BRANCH  25  26
ATOM     26  C   UNL     1      11.339 -59.435 -22.970  1.00  0.00     0.006 A 
ATOM     27  C   UNL     1      10.698 -59.382 -21.722  1.00  0.00     0.009 A 
ATOM     28  C   UNL     1      11.282 -60.623 -23.715  1.00  0.00     0.009 A 
ATOM     29  C   UNL     1      10.008 -60.493 -21.236  1.00  0.00     0.001 A 
ATOM     30  C   UNL     1      10.590 -61.732 -23.222  1.00  0.00     0.001 A 
ATOM     31  C   UNL     1       9.952 -61.665 -21.987  1.00  0.00     0.000 A 
ENDBRANCH  25  26
ENDBRANCH  23  25
ENDBRANCH  17  18
ENDBRANCH   1  17
TORSDOF 6
ENDMDL
