MODEL 1
REMARK VINA RESULT:   -11.928      0.000      0.000
REMARK INTER + INTRA:         -17.935
REMARK INTER:                 -18.204
REMARK INTRA:                   0.270
REMARK UNBOUND:                 0.270
REMARK SMILES CNC(=O)Oc1cccc(C[N@H+](C)CCCOc2ccc3c(=O)c4cccnc4oc3c2)c1
REMARK SMILES IDX 12 1 13 2 11 4 10 5 9 6 33 7 8 8 6 9 7 10 5 11 3 12 2 13
REMARK SMILES IDX 4 14 1 15 14 17 15 18 16 19 17 20 18 21 19 22 32 23 20 24
REMARK SMILES IDX 31 25 21 26 30 27 22 28 29 29 24 30 28 31 25 32 27 33 26 34
REMARK SMILES IDX 23 35
REMARK H PARENT 12 3 2 16
ROOT
ATOM      1  N   UNL     1      11.108 -60.414 -22.937  1.00  0.00    -0.334 N 
ATOM      2  C   UNL     1      12.491 -60.182 -23.475  1.00  0.00     0.333 C 
ATOM      3  H   UNL     1      10.491 -59.929 -23.606  1.00  0.00     0.348 HD
ENDROOT
BRANCH   1   4
ATOM      4  C   UNL     1      10.681 -61.874 -23.008  1.00  0.00     0.298 C 
BRANCH   4   5
ATOM      5  C   UNL     1       9.692 -62.117 -24.115  1.00  0.00     0.010 A 
ATOM      6  C   UNL     1       8.605 -62.987 -23.947  1.00  0.00     0.010 A 
ATOM      7  C   UNL     1       9.900 -61.523 -25.368  1.00  0.00     0.056 A 
ATOM      8  C   UNL     1       7.760 -63.279 -25.022  1.00  0.00     0.004 A 
ATOM      9  C   UNL     1       9.095 -61.878 -26.448  1.00  0.00     0.133 A 
ATOM     10  C   UNL     1       8.010 -62.731 -26.279  1.00  0.00     0.047 A 
BRANCH   9  11
ATOM     11  O   UNL     1       9.329 -61.377 -27.738  1.00  0.00    -0.410 OA
BRANCH  11  12
ATOM     12  C   UNL     1      10.228 -60.319 -27.842  1.00  0.00     0.412 C 
ATOM     13  N   UNL     1      11.032 -60.514 -28.927  1.00  0.00    -0.324 N 
ATOM     14  O   UNL     1      10.283 -59.352 -27.090  1.00  0.00    -0.224 OA
ATOM     15  C   UNL     1      12.020 -59.559 -29.349  1.00  0.00     0.146 C 
ATOM     16  H   UNL     1      10.829 -61.316 -29.509  1.00  0.00     0.166 HD
ENDBRANCH  11  12
ENDBRANCH   9  11
ENDBRANCH   4   5
ENDBRANCH   1   4
BRANCH   1  17
ATOM     17  C   UNL     1      10.827 -59.759 -21.604  1.00  0.00     0.265 C 
BRANCH  17  18
ATOM     18  C   UNL     1      11.368 -58.338 -21.501  1.00  0.00     0.103 C 
BRANCH  18  19
ATOM     19  C   UNL     1      11.204 -57.542 -22.795  1.00  0.00     0.235 C 
BRANCH  19  20
ATOM     20  O   UNL     1      10.210 -56.552 -22.551  1.00  0.00    -0.493 OA
BRANCH  20  21
ATOM     21  C   UNL     1      10.605 -55.243 -22.568  1.00  0.00     0.123 A 
ATOM     22  C   UNL     1      10.357 -54.297 -21.571  1.00  0.00     0.047 A 
ATOM     23  C   UNL     1      11.325 -54.868 -23.709  1.00  0.00     0.094 A 
ATOM     24  C   UNL     1      10.820 -52.986 -21.718  1.00  0.00     0.020 A 
ATOM     25  C   UNL     1      11.789 -53.560 -23.859  1.00  0.00     0.144 A 
ATOM     26  C   UNL     1      11.534 -52.625 -22.864  1.00  0.00     0.066 A 
ATOM     27  O   UNL     1      12.482 -53.281 -25.010  1.00  0.00    -0.437 OA
ATOM     28  C   UNL     1      12.030 -51.256 -23.046  1.00  0.00     0.202 A 
ATOM     29  C   UNL     1      12.962 -52.005 -25.194  1.00  0.00     0.230 A 
ATOM     30  C   UNL     1      12.775 -50.982 -24.277  1.00  0.00     0.085 A 
ATOM     31  N   UNL     1      13.634 -51.832 -26.356  1.00  0.00    -0.221 NA
ATOM     32  C   UNL     1      13.299 -49.719 -24.549  1.00  0.00     0.019 A 
ATOM     33  C   UNL     1      14.135 -50.599 -26.601  1.00  0.00     0.115 A 
ATOM     34  C   UNL     1      13.995 -49.523 -25.737  1.00  0.00     0.021 A 
ATOM     35  O   UNL     1      11.827 -50.388 -22.208  1.00  0.00    -0.288 OA
ENDBRANCH  20  21
ENDBRANCH  19  20
ENDBRANCH  18  19
ENDBRANCH  17  18
ENDBRANCH   1  17
TORSDOF 9
ENDMDL
MODEL 2
REMARK VINA RESULT:   -11.829      2.217      3.123
REMARK INTER + INTRA:         -17.784
REMARK INTER:                 -17.375
REMARK INTRA:                  -0.408
REMARK UNBOUND:                 0.270
REMARK SMILES CNC(=O)Oc1cccc(C[N@H+](C)CCCOc2ccc3c(=O)c4cccnc4oc3c2)c1
REMARK SMILES IDX 12 1 13 2 11 4 10 5 9 6 33 7 8 8 6 9 7 10 5 11 3 12 2 13
REMARK SMILES IDX 4 14 1 15 14 17 15 18 16 19 17 20 18 21 19 22 32 23 20 24
REMARK SMILES IDX 31 25 21 26 30 27 22 28 29 29 24 30 28 31 25 32 27 33 26 34
REMARK SMILES IDX 23 35
REMARK H PARENT 12 3 2 16
ROOT
ATOM      1  N   UNL     1      11.343 -60.160 -24.064  1.00  0.00    -0.334 N 
ATOM      2  C   UNL     1      11.884 -59.970 -25.451  1.00  0.00     0.333 C 
ATOM      3  H   UNL     1      10.357 -59.866 -24.133  1.00  0.00     0.348 HD
ENDROOT
BRANCH   1   4
ATOM      4  C   UNL     1      11.280 -61.623 -23.646  1.00  0.00     0.298 C 
BRANCH   4   5
ATOM      5  C   UNL     1       9.869 -62.074 -23.390  1.00  0.00     0.010 A 
ATOM      6  C   UNL     1       9.589 -63.357 -22.895  1.00  0.00     0.010 A 
ATOM      7  C   UNL     1       8.803 -61.227 -23.722  1.00  0.00     0.056 A 
ATOM      8  C   UNL     1       8.267 -63.791 -22.764  1.00  0.00     0.004 A 
ATOM      9  C   UNL     1       7.493 -61.697 -23.655  1.00  0.00     0.133 A 
ATOM     10  C   UNL     1       7.215 -62.964 -23.154  1.00  0.00     0.047 A 
BRANCH   9  11
ATOM     11  O   UNL     1       6.406 -60.911 -24.067  1.00  0.00    -0.410 OA
BRANCH  11  12
ATOM     12  C   UNL     1       6.138 -59.773 -23.313  1.00  0.00     0.412 C 
ATOM     13  N   UNL     1       4.787 -59.591 -23.232  1.00  0.00    -0.324 N 
ATOM     14  O   UNL     1       6.978 -59.051 -22.786  1.00  0.00    -0.224 OA
ATOM     15  C   UNL     1       4.186 -58.539 -22.458  1.00  0.00     0.146 C 
ATOM     16  H   UNL     1       4.204 -60.305 -23.647  1.00  0.00     0.166 HD
ENDBRANCH  11  12
ENDBRANCH   9  11
ENDBRANCH   4   5
ENDBRANCH   1   4
BRANCH   1  17
ATOM     17  C   UNL     1      11.946 -59.251 -23.018  1.00  0.00     0.265 C 
BRANCH  17  18
ATOM     18  C   UNL     1      11.663 -57.774 -23.261  1.00  0.00     0.103 C 
BRANCH  18  19
ATOM     19  C   UNL     1      11.056 -57.075 -22.044  1.00  0.00     0.235 C 
BRANCH  19  20
ATOM     20  O   UNL     1      10.168 -56.077 -22.539  1.00  0.00    -0.493 OA
BRANCH  20  21
ATOM     21  C   UNL     1      10.619 -54.786 -22.561  1.00  0.00     0.123 A 
ATOM     22  C   UNL     1      10.423 -53.832 -21.560  1.00  0.00     0.047 A 
ATOM     23  C   UNL     1      11.339 -54.441 -23.710  1.00  0.00     0.094 A 
ATOM     24  C   UNL     1      10.940 -52.542 -21.712  1.00  0.00     0.020 A 
ATOM     25  C   UNL     1      11.856 -53.154 -23.866  1.00  0.00     0.144 A 
ATOM     26  C   UNL     1      11.654 -52.210 -22.866  1.00  0.00     0.066 A 
ATOM     27  O   UNL     1      12.546 -52.904 -25.025  1.00  0.00    -0.437 OA
ATOM     28  C   UNL     1      12.206 -50.863 -23.054  1.00  0.00     0.202 A 
ATOM     29  C   UNL     1      13.078 -51.649 -25.214  1.00  0.00     0.230 A 
ATOM     30  C   UNL     1      12.946 -50.620 -24.294  1.00  0.00     0.085 A 
ATOM     31  N   UNL     1      13.742 -51.503 -26.384  1.00  0.00    -0.221 NA
ATOM     32  C   UNL     1      13.520 -49.380 -24.572  1.00  0.00     0.019 A 
ATOM     33  C   UNL     1      14.292 -50.293 -26.634  1.00  0.00     0.115 A 
ATOM     34  C   UNL     1      14.208 -49.213 -25.768  1.00  0.00     0.021 A 
ATOM     35  O   UNL     1      12.050 -49.989 -22.213  1.00  0.00    -0.288 OA
ENDBRANCH  20  21
ENDBRANCH  19  20
ENDBRANCH  18  19
ENDBRANCH  17  18
ENDBRANCH   1  17
TORSDOF 9
ENDMDL
MODEL 3
REMARK VINA RESULT:   -11.747      1.518      2.485
REMARK INTER + INTRA:         -17.658
REMARK INTER:                 -16.705
REMARK INTRA:                  -0.954
REMARK UNBOUND:                 0.270
REMARK SMILES CNC(=O)Oc1cccc(C[N@H+](C)CCCOc2ccc3c(=O)c4cccnc4oc3c2)c1
REMARK SMILES IDX 12 1 13 2 11 4 10 5 9 6 33 7 8 8 6 9 7 10 5 11 3 12 2 13
REMARK SMILES IDX 4 14 1 15 14 17 15 18 16 19 17 20 18 21 19 22 32 23 20 24
REMARK SMILES IDX 31 25 21 26 30 27 22 28 29 29 24 30 28 31 25 32 27 33 26 34
REMARK SMILES IDX 23 35
REMARK H PARENT 12 3 2 16
ROOT
ATOM      1  N   UNL     1       8.009 -60.646 -23.878  1.00  0.00    -0.334 N 
ATOM      2  C   UNL     1       6.666 -61.255 -23.599  1.00  0.00     0.333 C 
ATOM      3  H   UNL     1       8.512 -60.717 -22.981  1.00  0.00     0.348 HD
ENDROOT
BRANCH   1   4
ATOM      4  C   UNL     1       8.842 -61.467 -24.852  1.00  0.00     0.298 C 
BRANCH   4   5
ATOM      5  C   UNL     1      10.300 -61.101 -24.792  1.00  0.00     0.010 A 
ATOM      6  C   UNL     1      10.957 -60.913 -23.567  1.00  0.00     0.010 A 
ATOM      7  C   UNL     1      11.002 -60.868 -25.982  1.00  0.00     0.056 A 
ATOM      8  C   UNL     1      12.283 -60.471 -23.537  1.00  0.00     0.004 A 
ATOM      9  C   UNL     1      12.298 -60.360 -25.938  1.00  0.00     0.133 A 
ATOM     10  C   UNL     1      12.954 -60.184 -24.724  1.00  0.00     0.047 A 
BRANCH   9  11
ATOM     11  O   UNL     1      13.000 -60.026 -27.106  1.00  0.00    -0.410 OA
BRANCH  11  12
ATOM     12  C   UNL     1      12.284 -59.352 -28.092  1.00  0.00     0.412 C 
ATOM     13  N   UNL     1      12.360 -60.051 -29.262  1.00  0.00    -0.324 N 
ATOM     14  O   UNL     1      11.667 -58.304 -27.937  1.00  0.00    -0.224 OA
ATOM     15  C   UNL     1      11.664 -59.652 -30.456  1.00  0.00     0.146 C 
ATOM     16  H   UNL     1      12.837 -60.941 -29.234  1.00  0.00     0.166 HD
ENDBRANCH  11  12
ENDBRANCH   9  11
ENDBRANCH   4   5
ENDBRANCH   1   4
BRANCH   1  17
ATOM     17  C   UNL     1       7.982 -59.168 -24.192  1.00  0.00     0.265 C 
BRANCH  17  18
ATOM     18  C   UNL     1       8.442 -58.292 -23.033  1.00  0.00     0.103 C 
BRANCH  18  19
ATOM     19  C   UNL     1       8.906 -56.906 -23.479  1.00  0.00     0.235 C 
BRANCH  19  20
ATOM     20  O   UNL     1      10.110 -56.623 -22.771  1.00  0.00    -0.493 OA
BRANCH  20  21
ATOM     21  C   UNL     1      10.523 -55.320 -22.725  1.00  0.00     0.123 A 
ATOM     22  C   UNL     1      10.262 -54.412 -21.696  1.00  0.00     0.047 A 
ATOM     23  C   UNL     1      11.275 -54.909 -23.832  1.00  0.00     0.094 A 
ATOM     24  C   UNL     1      10.746 -53.103 -21.778  1.00  0.00     0.020 A 
ATOM     25  C   UNL     1      11.759 -53.602 -23.917  1.00  0.00     0.144 A 
ATOM     26  C   UNL     1      11.492 -52.706 -22.890  1.00  0.00     0.066 A 
ATOM     27  O   UNL     1      12.484 -53.287 -25.038  1.00  0.00    -0.437 OA
ATOM     28  C   UNL     1      12.011 -51.337 -23.004  1.00  0.00     0.202 A 
ATOM     29  C   UNL     1      12.985 -52.011 -25.158  1.00  0.00     0.230 A 
ATOM     30  C   UNL     1      12.789 -51.024 -24.205  1.00  0.00     0.085 A 
ATOM     31  N   UNL     1      13.687 -51.800 -26.295  1.00  0.00    -0.221 NA
ATOM     32  C   UNL     1      13.335 -49.758 -24.412  1.00  0.00     0.019 A 
ATOM     33  C   UNL     1      14.210 -50.565 -26.477  1.00  0.00     0.115 A 
ATOM     34  C   UNL     1      14.063 -49.524 -25.574  1.00  0.00     0.021 A 
ATOM     35  O   UNL     1      11.798 -50.502 -22.136  1.00  0.00    -0.288 OA
ENDBRANCH  20  21
ENDBRANCH  19  20
ENDBRANCH  18  19
ENDBRANCH  17  18
ENDBRANCH   1  17
TORSDOF 9
ENDMDL
MODEL 4
REMARK VINA RESULT:   -11.723      2.356      3.224
REMARK INTER + INTRA:         -17.622
REMARK INTER:                 -16.367
REMARK INTRA:                  -1.255
REMARK UNBOUND:                 0.270
REMARK SMILES CNC(=O)Oc1cccc(C[N@H+](C)CCCOc2ccc3c(=O)c4cccnc4oc3c2)c1
REMARK SMILES IDX 12 1 13 2 11 4 10 5 9 6 33 7 8 8 6 9 7 10 5 11 3 12 2 13
REMARK SMILES IDX 4 14 1 15 14 17 15 18 16 19 17 20 18 21 19 22 32 23 20 24
REMARK SMILES IDX 31 25 21 26 30 27 22 28 29 29 24 30 28 31 25 32 27 33 26 34
REMARK SMILES IDX 23 35
REMARK H PARENT 12 3 2 16
ROOT
ATOM      1  N   UNL     1      11.164 -59.013 -24.448  1.00  0.00    -0.334 N 
ATOM      2  C   UNL     1      12.344 -58.527 -25.238  1.00  0.00     0.333 C 
ATOM      3  H   UNL     1      10.704 -58.150 -24.120  1.00  0.00     0.348 HD
ENDROOT
BRANCH   1   4
ATOM      4  C   UNL     1      10.116 -59.704 -25.310  1.00  0.00     0.298 C 
BRANCH   4   5
ATOM      5  C   UNL     1       8.776 -59.760 -24.630  1.00  0.00     0.010 A 
ATOM      6  C   UNL     1       8.076 -58.592 -24.294  1.00  0.00     0.010 A 
ATOM      7  C   UNL     1       8.246 -61.002 -24.254  1.00  0.00     0.056 A 
ATOM      8  C   UNL     1       6.884 -58.666 -23.568  1.00  0.00     0.004 A 
ATOM      9  C   UNL     1       7.095 -61.059 -23.470  1.00  0.00     0.133 A 
ATOM     10  C   UNL     1       6.395 -59.902 -23.146  1.00  0.00     0.047 A 
BRANCH   9  11
ATOM     11  O   UNL     1       6.586 -62.277 -22.995  1.00  0.00    -0.410 OA
BRANCH  11  12
ATOM     12  C   UNL     1       6.997 -63.427 -23.663  1.00  0.00     0.412 C 
ATOM     13  N   UNL     1       6.371 -63.494 -24.874  1.00  0.00    -0.324 N 
ATOM     14  O   UNL     1       7.806 -64.247 -23.242  1.00  0.00    -0.224 OA
ATOM     15  C   UNL     1       6.639 -64.530 -25.835  1.00  0.00     0.146 C 
ATOM     16  H   UNL     1       5.787 -62.710 -25.132  1.00  0.00     0.166 HD
ENDBRANCH  11  12
ENDBRANCH   9  11
ENDBRANCH   4   5
ENDBRANCH   1   4
BRANCH   1  17
ATOM     17  C   UNL     1      11.512 -59.770 -23.187  1.00  0.00     0.265 C 
BRANCH  17  18
ATOM     18  C   UNL     1      10.820 -59.228 -21.943  1.00  0.00     0.103 C 
BRANCH  18  19
ATOM     19  C   UNL     1      11.187 -57.775 -21.641  1.00  0.00     0.235 C 
BRANCH  19  20
ATOM     20  O   UNL     1      10.450 -56.963 -22.550  1.00  0.00    -0.493 OA
BRANCH  20  21
ATOM     21  C   UNL     1      10.724 -55.623 -22.564  1.00  0.00     0.123 A 
ATOM     22  C   UNL     1      10.327 -54.695 -21.598  1.00  0.00     0.047 A 
ATOM     23  C   UNL     1      11.477 -55.194 -23.663  1.00  0.00     0.094 A 
ATOM     24  C   UNL     1      10.676 -53.348 -21.737  1.00  0.00     0.020 A 
ATOM     25  C   UNL     1      11.827 -53.850 -23.805  1.00  0.00     0.144 A 
ATOM     26  C   UNL     1      11.425 -52.933 -22.841  1.00  0.00     0.066 A 
ATOM     27  O   UNL     1      12.563 -53.520 -24.914  1.00  0.00    -0.437 OA
ATOM     28  C   UNL     1      11.804 -51.526 -23.014  1.00  0.00     0.202 A 
ATOM     29  C   UNL     1      12.935 -52.207 -25.087  1.00  0.00     0.230 A 
ATOM     30  C   UNL     1      12.597 -51.196 -24.200  1.00  0.00     0.085 A 
ATOM     31  N   UNL     1      13.660 -51.983 -26.208  1.00  0.00    -0.221 NA
ATOM     32  C   UNL     1      13.018 -49.893 -24.459  1.00  0.00     0.019 A 
ATOM     33  C   UNL     1      14.060 -50.711 -26.440  1.00  0.00     0.115 A 
ATOM     34  C   UNL     1      13.767 -49.645 -25.604  1.00  0.00     0.021 A 
ATOM     35  O   UNL     1      11.468 -50.673 -22.203  1.00  0.00    -0.288 OA
ENDBRANCH  20  21
ENDBRANCH  19  20
ENDBRANCH  18  19
ENDBRANCH  17  18
ENDBRANCH   1  17
TORSDOF 9
ENDMDL
MODEL 5
REMARK VINA RESULT:   -11.427      3.284      4.539
REMARK INTER + INTRA:         -17.170
REMARK INTER:                 -16.344
REMARK INTRA:                  -0.826
REMARK UNBOUND:                 0.270
REMARK SMILES CNC(=O)Oc1cccc(C[N@H+](C)CCCOc2ccc3c(=O)c4cccnc4oc3c2)c1
REMARK SMILES IDX 12 1 13 2 11 4 10 5 9 6 33 7 8 8 6 9 7 10 5 11 3 12 2 13
REMARK SMILES IDX 4 14 1 15 14 17 15 18 16 19 17 20 18 21 19 22 32 23 20 24
REMARK SMILES IDX 31 25 21 26 30 27 22 28 29 29 24 30 28 31 25 32 27 33 26 34
REMARK SMILES IDX 23 35
REMARK H PARENT 12 3 2 16
ROOT
ATOM      1  N   UNL     1      11.009 -57.375 -23.492  1.00  0.00    -0.334 N 
ATOM      2  C   UNL     1      12.117 -57.945 -24.329  1.00  0.00     0.333 C 
ATOM      3  H   UNL     1      10.241 -57.214 -24.161  1.00  0.00     0.348 HD
ENDROOT
BRANCH   1   4
ATOM      4  C   UNL     1      10.446 -58.375 -22.492  1.00  0.00     0.298 C 
BRANCH   4   5
ATOM      5  C   UNL     1       9.151 -58.976 -22.967  1.00  0.00     0.010 A 
ATOM      6  C   UNL     1       8.004 -58.189 -23.153  1.00  0.00     0.010 A 
ATOM      7  C   UNL     1       9.062 -60.361 -23.158  1.00  0.00     0.056 A 
ATOM      8  C   UNL     1       6.786 -58.785 -23.493  1.00  0.00     0.004 A 
ATOM      9  C   UNL     1       7.828 -60.950 -23.425  1.00  0.00     0.133 A 
ATOM     10  C   UNL     1       6.694 -60.170 -23.620  1.00  0.00     0.047 A 
BRANCH   9  11
ATOM     11  O   UNL     1       7.682 -62.342 -23.530  1.00  0.00    -0.410 OA
BRANCH  11  12
ATOM     12  C   UNL     1       7.213 -62.830 -24.746  1.00  0.00     0.412 C 
ATOM     13  N   UNL     1       8.186 -62.695 -25.693  1.00  0.00    -0.324 N 
ATOM     14  O   UNL     1       6.106 -63.322 -24.939  1.00  0.00    -0.224 OA
ATOM     15  C   UNL     1       8.035 -63.173 -27.041  1.00  0.00     0.146 C 
ATOM     16  H   UNL     1       9.082 -62.345 -25.382  1.00  0.00     0.166 HD
ENDBRANCH  11  12
ENDBRANCH   9  11
ENDBRANCH   4   5
ENDBRANCH   1   4
BRANCH   1  17
ATOM     17  C   UNL     1      11.298 -56.015 -22.899  1.00  0.00     0.265 C 
BRANCH  17  18
ATOM     18  C   UNL     1      10.041 -55.228 -22.547  1.00  0.00     0.103 C 
BRANCH  18  19
ATOM     19  C   UNL     1      10.279 -54.180 -21.459  1.00  0.00     0.235 C 
BRANCH  19  20
ATOM     20  O   UNL     1       9.624 -52.988 -21.881  1.00  0.00    -0.493 OA
BRANCH  20  21
ATOM     21  C   UNL     1      10.410 -51.965 -22.337  1.00  0.00     0.123 A 
ATOM     22  C   UNL     1      11.606 -52.102 -23.045  1.00  0.00     0.047 A 
ATOM     23  C   UNL     1       9.925 -50.685 -22.045  1.00  0.00     0.094 A 
ATOM     24  C   UNL     1      12.312 -50.966 -23.452  1.00  0.00     0.020 A 
ATOM     25  C   UNL     1      10.628 -49.548 -22.449  1.00  0.00     0.144 A 
ATOM     26  C   UNL     1      11.819 -49.694 -23.150  1.00  0.00     0.066 A 
ATOM     27  O   UNL     1      10.081 -48.335 -22.116  1.00  0.00    -0.437 OA
ATOM     28  C   UNL     1      12.541 -48.485 -23.562  1.00  0.00     0.202 A 
ATOM     29  C   UNL     1      10.739 -47.191 -22.502  1.00  0.00     0.230 A 
ATOM     30  C   UNL     1      11.935 -47.200 -23.205  1.00  0.00     0.085 A 
ATOM     31  N   UNL     1      10.119 -46.047 -22.131  1.00  0.00    -0.221 NA
ATOM     32  C   UNL     1      12.530 -45.989 -23.553  1.00  0.00     0.019 A 
ATOM     33  C   UNL     1      10.712 -44.882 -22.479  1.00  0.00     0.115 A 
ATOM     34  C   UNL     1      11.905 -44.803 -23.182  1.00  0.00     0.021 A 
ATOM     35  O   UNL     1      13.599 -48.552 -24.172  1.00  0.00    -0.288 OA
ENDBRANCH  20  21
ENDBRANCH  19  20
ENDBRANCH  18  19
ENDBRANCH  17  18
ENDBRANCH   1  17
TORSDOF 9
ENDMDL
MODEL 6
REMARK VINA RESULT:   -11.277      3.111      5.070
REMARK INTER + INTRA:         -16.941
REMARK INTER:                 -15.805
REMARK INTRA:                  -1.136
REMARK UNBOUND:                 0.270
REMARK SMILES CNC(=O)Oc1cccc(C[N@H+](C)CCCOc2ccc3c(=O)c4cccnc4oc3c2)c1
REMARK SMILES IDX 12 1 13 2 11 4 10 5 9 6 33 7 8 8 6 9 7 10 5 11 3 12 2 13
REMARK SMILES IDX 4 14 1 15 14 17 15 18 16 19 17 20 18 21 19 22 32 23 20 24
REMARK SMILES IDX 31 25 21 26 30 27 22 28 29 29 24 30 28 31 25 32 27 33 26 34
REMARK SMILES IDX 23 35
REMARK H PARENT 12 3 2 16
ROOT
ATOM      1  N   UNL     1      10.765 -55.576 -23.666  1.00  0.00    -0.334 N 
ATOM      2  C   UNL     1      11.775 -55.158 -24.696  1.00  0.00     0.333 C 
ATOM      3  H   UNL     1      10.173 -56.264 -24.155  1.00  0.00     0.348 HD
ENDROOT
BRANCH   1   4
ATOM      4  C   UNL     1      11.382 -56.351 -22.510  1.00  0.00     0.298 C 
BRANCH   4   5
ATOM      5  C   UNL     1      10.690 -57.667 -22.283  1.00  0.00     0.010 A 
ATOM      6  C   UNL     1      11.189 -58.608 -21.370  1.00  0.00     0.010 A 
ATOM      7  C   UNL     1       9.565 -57.996 -23.051  1.00  0.00     0.056 A 
ATOM      8  C   UNL     1      10.589 -59.865 -21.253  1.00  0.00     0.004 A 
ATOM      9  C   UNL     1       9.021 -59.276 -22.977  1.00  0.00     0.133 A 
ATOM     10  C   UNL     1       9.508 -60.206 -22.064  1.00  0.00     0.047 A 
BRANCH   9  11
ATOM     11  O   UNL     1       7.954 -59.673 -23.798  1.00  0.00    -0.410 OA
BRANCH  11  12
ATOM     12  C   UNL     1       8.200 -60.726 -24.674  1.00  0.00     0.412 C 
ATOM     13  N   UNL     1       9.142 -60.346 -25.585  1.00  0.00    -0.324 N 
ATOM     14  O   UNL     1       7.669 -61.831 -24.629  1.00  0.00    -0.224 OA
ATOM     15  C   UNL     1       9.666 -61.237 -26.584  1.00  0.00     0.146 C 
ATOM     16  H   UNL     1       9.556 -59.432 -25.461  1.00  0.00     0.166 HD
ENDBRANCH  11  12
ENDBRANCH   9  11
ENDBRANCH   4   5
ENDBRANCH   1   4
BRANCH   1  17
ATOM     17  C   UNL     1       9.814 -54.484 -23.231  1.00  0.00     0.265 C 
BRANCH  17  18
ATOM     18  C   UNL     1       9.915 -54.147 -21.748  1.00  0.00     0.103 C 
BRANCH  18  19
ATOM     19  C   UNL     1      10.656 -52.836 -21.484  1.00  0.00     0.235 C 
BRANCH  19  20
ATOM     20  O   UNL     1      11.745 -52.783 -22.401  1.00  0.00    -0.493 OA
BRANCH  20  21
ATOM     21  C   UNL     1      12.023 -51.575 -22.980  1.00  0.00     0.123 A 
ATOM     22  C   UNL     1      12.918 -51.355 -24.029  1.00  0.00     0.047 A 
ATOM     23  C   UNL     1      11.316 -50.495 -22.440  1.00  0.00     0.094 A 
ATOM     24  C   UNL     1      13.108 -50.063 -24.528  1.00  0.00     0.020 A 
ATOM     25  C   UNL     1      11.504 -49.203 -22.935  1.00  0.00     0.144 A 
ATOM     26  C   UNL     1      12.399 -48.993 -23.976  1.00  0.00     0.066 A 
ATOM     27  O   UNL     1      10.772 -48.205 -22.343  1.00  0.00    -0.437 OA
ATOM     28  C   UNL     1      12.580 -47.626 -24.478  1.00  0.00     0.202 A 
ATOM     29  C   UNL     1      10.922 -46.919 -22.807  1.00  0.00     0.230 A 
ATOM     30  C   UNL     1      11.783 -46.577 -23.839  1.00  0.00     0.085 A 
ATOM     31  N   UNL     1      10.156 -46.008 -22.163  1.00  0.00    -0.221 NA
ATOM     32  C   UNL     1      11.869 -45.245 -24.242  1.00  0.00     0.019 A 
ATOM     33  C   UNL     1      10.253 -44.721 -22.569  1.00  0.00     0.115 A 
ATOM     34  C   UNL     1      11.087 -44.296 -23.593  1.00  0.00     0.021 A 
ATOM     35  O   UNL     1      13.363 -47.380 -25.386  1.00  0.00    -0.288 OA
ENDBRANCH  20  21
ENDBRANCH  19  20
ENDBRANCH  18  19
ENDBRANCH  17  18
ENDBRANCH   1  17
TORSDOF 9
ENDMDL
MODEL 7
REMARK VINA RESULT:   -11.233      3.039      4.821
REMARK INTER + INTRA:         -16.874
REMARK INTER:                 -16.491
REMARK INTRA:                  -0.384
REMARK UNBOUND:                 0.270
REMARK SMILES CNC(=O)Oc1cccc(C[N@H+](C)CCCOc2ccc3c(=O)c4cccnc4oc3c2)c1
REMARK SMILES IDX 12 1 13 2 11 4 10 5 9 6 33 7 8 8 6 9 7 10 5 11 3 12 2 13
REMARK SMILES IDX 4 14 1 15 14 17 15 18 16 19 17 20 18 21 19 22 32 23 20 24
REMARK SMILES IDX 31 25 21 26 30 27 22 28 29 29 24 30 28 31 25 32 27 33 26 34
REMARK SMILES IDX 23 35
REMARK H PARENT 12 3 2 16
ROOT
ATOM      1  N   UNL     1      10.436 -57.124 -22.196  1.00  0.00    -0.334 N 
ATOM      2  C   UNL     1       9.360 -57.650 -23.102  1.00  0.00     0.333 C 
ATOM      3  H   UNL     1       9.926 -56.578 -21.486  1.00  0.00     0.348 HD
ENDROOT
BRANCH   1   4
ATOM      4  C   UNL     1      11.137 -58.221 -21.408  1.00  0.00     0.298 C 
BRANCH   4   5
ATOM      5  C   UNL     1      11.150 -59.528 -22.153  1.00  0.00     0.010 A 
ATOM      6  C   UNL     1      12.089 -59.785 -23.163  1.00  0.00     0.010 A 
ATOM      7  C   UNL     1      10.159 -60.482 -21.888  1.00  0.00     0.056 A 
ATOM      8  C   UNL     1      12.016 -60.963 -23.912  1.00  0.00     0.004 A 
ATOM      9  C   UNL     1      10.053 -61.618 -22.689  1.00  0.00     0.133 A 
ATOM     10  C   UNL     1      10.990 -61.878 -23.683  1.00  0.00     0.047 A 
BRANCH   9  11
ATOM     11  O   UNL     1       9.018 -62.549 -22.515  1.00  0.00    -0.410 OA
BRANCH  11  12
ATOM     12  C   UNL     1       7.948 -62.464 -23.401  1.00  0.00     0.412 C 
ATOM     13  N   UNL     1       7.979 -63.531 -24.251  1.00  0.00    -0.324 N 
ATOM     14  O   UNL     1       7.096 -61.581 -23.410  1.00  0.00    -0.224 OA
ATOM     15  C   UNL     1       6.964 -63.771 -25.241  1.00  0.00     0.146 C 
ATOM     16  H   UNL     1       8.691 -64.229 -24.084  1.00  0.00     0.166 HD
ENDBRANCH  11  12
ENDBRANCH   9  11
ENDBRANCH   4   5
ENDBRANCH   1   4
BRANCH   1  17
ATOM     17  C   UNL     1      11.380 -56.136 -22.841  1.00  0.00     0.265 C 
BRANCH  17  18
ATOM     18  C   UNL     1      10.669 -55.000 -23.566  1.00  0.00     0.103 C 
BRANCH  18  19
ATOM     19  C   UNL     1      10.202 -53.890 -22.624  1.00  0.00     0.235 C 
BRANCH  19  20
ATOM     20  O   UNL     1      11.371 -53.220 -22.161  1.00  0.00    -0.493 OA
BRANCH  20  21
ATOM     21  C   UNL     1      11.716 -52.052 -22.783  1.00  0.00     0.123 A 
ATOM     22  C   UNL     1      12.614 -51.922 -23.844  1.00  0.00     0.047 A 
ATOM     23  C   UNL     1      11.080 -50.913 -22.275  1.00  0.00     0.094 A 
ATOM     24  C   UNL     1      12.878 -50.661 -24.388  1.00  0.00     0.020 A 
ATOM     25  C   UNL     1      11.341 -49.652 -22.815  1.00  0.00     0.144 A 
ATOM     26  C   UNL     1      12.238 -49.532 -23.868  1.00  0.00     0.066 A 
ATOM     27  O   UNL     1      10.675 -48.593 -22.253  1.00  0.00    -0.437 OA
ATOM     28  C   UNL     1      12.497 -48.196 -24.417  1.00  0.00     0.202 A 
ATOM     29  C   UNL     1      10.899 -47.334 -22.760  1.00  0.00     0.230 A 
ATOM     30  C   UNL     1      11.770 -47.079 -23.809  1.00  0.00     0.085 A 
ATOM     31  N   UNL     1      10.194 -46.358 -22.143  1.00  0.00    -0.221 NA
ATOM     32  C   UNL     1      11.933 -45.769 -24.257  1.00  0.00     0.019 A 
ATOM     33  C   UNL     1      10.365 -45.093 -22.593  1.00  0.00     0.115 A 
ATOM     34  C   UNL     1      11.214 -44.754 -23.636  1.00  0.00     0.021 A 
ATOM     35  O   UNL     1      13.286 -48.028 -25.338  1.00  0.00    -0.288 OA
ENDBRANCH  20  21
ENDBRANCH  19  20
ENDBRANCH  18  19
ENDBRANCH  17  18
ENDBRANCH   1  17
TORSDOF 9
ENDMDL
MODEL 8
REMARK VINA RESULT:   -11.148      3.473      5.482
REMARK INTER + INTRA:         -16.743
REMARK INTER:                 -16.152
REMARK INTRA:                  -0.591
REMARK UNBOUND:                 0.270
REMARK SMILES CNC(=O)Oc1cccc(C[N@H+](C)CCCOc2ccc3c(=O)c4cccnc4oc3c2)c1
REMARK SMILES IDX 12 1 13 2 11 4 10 5 9 6 33 7 8 8 6 9 7 10 5 11 3 12 2 13
REMARK SMILES IDX 4 14 1 15 14 17 15 18 16 19 17 20 18 21 19 22 32 23 20 24
REMARK SMILES IDX 31 25 21 26 30 27 22 28 29 29 24 30 28 31 25 32 27 33 26 34
REMARK SMILES IDX 23 35
REMARK H PARENT 12 3 2 16
ROOT
ATOM      1  N   UNL     1      11.222 -56.053 -23.660  1.00  0.00    -0.334 N 
ATOM      2  C   UNL     1      12.162 -56.608 -24.691  1.00  0.00     0.333 C 
ATOM      3  H   UNL     1      10.289 -56.354 -23.979  1.00  0.00     0.348 HD
ENDROOT
BRANCH   1   4
ATOM      4  C   UNL     1      11.390 -56.702 -22.293  1.00  0.00     0.298 C 
BRANCH   4   5
ATOM      5  C   UNL     1      10.649 -58.007 -22.196  1.00  0.00     0.010 A 
ATOM      6  C   UNL     1      10.995 -58.976 -21.243  1.00  0.00     0.010 A 
ATOM      7  C   UNL     1       9.639 -58.297 -23.124  1.00  0.00     0.056 A 
ATOM      8  C   UNL     1      10.363 -60.223 -21.240  1.00  0.00     0.004 A 
ATOM      9  C   UNL     1       9.067 -59.567 -23.156  1.00  0.00     0.133 A 
ATOM     10  C   UNL     1       9.402 -60.525 -22.204  1.00  0.00     0.047 A 
BRANCH   9  11
ATOM     11  O   UNL     1       8.121 -59.926 -24.128  1.00  0.00    -0.410 OA
BRANCH  11  12
ATOM     12  C   UNL     1       6.825 -60.164 -23.680  1.00  0.00     0.412 C 
ATOM     13  N   UNL     1       6.378 -59.074 -22.990  1.00  0.00    -0.324 N 
ATOM     14  O   UNL     1       6.175 -61.183 -23.883  1.00  0.00    -0.224 OA
ATOM     15  C   UNL     1       5.045 -58.980 -22.458  1.00  0.00     0.146 C 
ATOM     16  H   UNL     1       6.987 -58.268 -22.962  1.00  0.00     0.166 HD
ENDBRANCH  11  12
ENDBRANCH   9  11
ENDBRANCH   4   5
ENDBRANCH   1   4
BRANCH   1  17
ATOM     17  C   UNL     1      11.149 -54.544 -23.615  1.00  0.00     0.265 C 
BRANCH  17  18
ATOM     18  C   UNL     1       9.817 -54.016 -23.097  1.00  0.00     0.103 C 
BRANCH  18  19
ATOM     19  C   UNL     1       9.953 -52.697 -22.337  1.00  0.00     0.235 C 
BRANCH  19  20
ATOM     20  O   UNL     1      11.342 -52.384 -22.293  1.00  0.00    -0.493 OA
BRANCH  20  21
ATOM     21  C   UNL     1      11.751 -51.237 -22.915  1.00  0.00     0.123 A 
ATOM     22  C   UNL     1      12.722 -51.148 -23.915  1.00  0.00     0.047 A 
ATOM     23  C   UNL     1      11.103 -50.076 -22.478  1.00  0.00     0.094 A 
ATOM     24  C   UNL     1      13.046 -49.904 -24.467  1.00  0.00     0.020 A 
ATOM     25  C   UNL     1      11.424 -48.833 -23.026  1.00  0.00     0.144 A 
ATOM     26  C   UNL     1      12.394 -48.753 -24.018  1.00  0.00     0.066 A 
ATOM     27  O   UNL     1      10.742 -47.749 -22.535  1.00  0.00    -0.437 OA
ATOM     28  C   UNL     1      12.715 -47.435 -24.578  1.00  0.00     0.202 A 
ATOM     29  C   UNL     1      11.024 -46.507 -23.054  1.00  0.00     0.230 A 
ATOM     30  C   UNL     1      11.969 -46.292 -24.045  1.00  0.00     0.085 A 
ATOM     31  N   UNL     1      10.297 -45.504 -22.508  1.00  0.00    -0.221 NA
ATOM     32  C   UNL     1      12.187 -44.996 -24.510  1.00  0.00     0.019 A 
ATOM     33  C   UNL     1      10.523 -44.254 -22.974  1.00  0.00     0.115 A 
ATOM     34  C   UNL     1      11.447 -43.954 -23.963  1.00  0.00     0.021 A 
ATOM     35  O   UNL     1      13.568 -47.302 -25.445  1.00  0.00    -0.288 OA
ENDBRANCH  20  21
ENDBRANCH  19  20
ENDBRANCH  18  19
ENDBRANCH  17  18
ENDBRANCH   1  17
TORSDOF 9
ENDMDL
MODEL 9
REMARK VINA RESULT:   -11.118      2.181     10.329
REMARK INTER + INTRA:         -16.698
REMARK INTER:                 -16.021
REMARK INTRA:                  -0.677
REMARK UNBOUND:                 0.270
REMARK SMILES CNC(=O)Oc1cccc(C[N@H+](C)CCCOc2ccc3c(=O)c4cccnc4oc3c2)c1
REMARK SMILES IDX 12 1 13 2 11 4 10 5 9 6 33 7 8 8 6 9 7 10 5 11 3 12 2 13
REMARK SMILES IDX 4 14 1 15 14 17 15 18 16 19 17 20 18 21 19 22 32 23 20 24
REMARK SMILES IDX 31 25 21 26 30 27 22 28 29 29 24 30 28 31 25 32 27 33 26 34
REMARK SMILES IDX 23 35
REMARK H PARENT 12 3 2 16
ROOT
ATOM      1  N   UNL     1      10.287 -53.027 -22.852  1.00  0.00    -0.334 N 
ATOM      2  C   UNL     1       9.429 -51.923 -22.306  1.00  0.00     0.333 C 
ATOM      3  H   UNL     1      10.137 -52.985 -23.871  1.00  0.00     0.348 HD
ENDROOT
BRANCH   1   4
ATOM      4  C   UNL     1      11.776 -52.767 -22.670  1.00  0.00     0.298 C 
BRANCH   4   5
ATOM      5  C   UNL     1      12.394 -52.158 -23.898  1.00  0.00     0.010 A 
ATOM      6  C   UNL     1      12.889 -52.956 -24.940  1.00  0.00     0.010 A 
ATOM      7  C   UNL     1      12.550 -50.767 -23.975  1.00  0.00     0.056 A 
ATOM      8  C   UNL     1      13.554 -52.372 -26.023  1.00  0.00     0.004 A 
ATOM      9  C   UNL     1      13.276 -50.204 -25.022  1.00  0.00     0.133 A 
ATOM     10  C   UNL     1      13.758 -50.993 -26.061  1.00  0.00     0.047 A 
BRANCH   9  11
ATOM     11  O   UNL     1      13.533 -48.826 -25.084  1.00  0.00    -0.410 OA
BRANCH  11  12
ATOM     12  C   UNL     1      12.858 -48.024 -24.168  1.00  0.00     0.412 C 
ATOM     13  N   UNL     1      13.696 -47.709 -23.138  1.00  0.00    -0.324 N 
ATOM     14  O   UNL     1      11.697 -47.642 -24.273  1.00  0.00    -0.224 OA
ATOM     15  C   UNL     1      13.317 -46.831 -22.064  1.00  0.00     0.146 C 
ATOM     16  H   UNL     1      14.653 -48.025 -23.214  1.00  0.00     0.166 HD
ENDBRANCH  11  12
ENDBRANCH   9  11
ENDBRANCH   4   5
ENDBRANCH   1   4
BRANCH   1  17
ATOM     17  C   UNL     1       9.857 -54.420 -22.454  1.00  0.00     0.265 C 
BRANCH  17  18
ATOM     18  C   UNL     1      10.988 -55.261 -21.873  1.00  0.00     0.103 C 
BRANCH  18  19
ATOM     19  C   UNL     1      11.369 -56.443 -22.764  1.00  0.00     0.235 C 
BRANCH  19  20
ATOM     20  O   UNL     1      11.395 -57.599 -21.932  1.00  0.00    -0.493 OA
BRANCH  20  21
ATOM     21  C   UNL     1      10.794 -58.732 -22.407  1.00  0.00     0.123 A 
ATOM     22  C   UNL     1      10.277 -59.773 -21.632  1.00  0.00     0.047 A 
ATOM     23  C   UNL     1      10.711 -58.805 -23.802  1.00  0.00     0.094 A 
ATOM     24  C   UNL     1       9.687 -60.880 -22.251  1.00  0.00     0.020 A 
ATOM     25  C   UNL     1      10.123 -59.908 -24.423  1.00  0.00     0.144 A 
ATOM     26  C   UNL     1       9.614 -60.941 -23.645  1.00  0.00     0.066 A 
ATOM     27  O   UNL     1      10.088 -59.896 -25.795  1.00  0.00    -0.437 OA
ATOM     28  C   UNL     1       9.003 -62.091 -24.321  1.00  0.00     0.202 A 
ATOM     29  C   UNL     1       9.510 -60.962 -26.445  1.00  0.00     0.230 A 
ATOM     30  C   UNL     1       8.967 -62.054 -25.785  1.00  0.00     0.085 A 
ATOM     31  N   UNL     1       9.521 -60.855 -27.794  1.00  0.00    -0.221 NA
ATOM     32  C   UNL     1       8.403 -63.088 -26.530  1.00  0.00     0.019 A 
ATOM     33  C   UNL     1       8.967 -61.869 -28.498  1.00  0.00     0.115 A 
ATOM     34  C   UNL     1       8.403 -62.994 -27.917  1.00  0.00     0.021 A 
ATOM     35  O   UNL     1       8.548 -63.033 -23.688  1.00  0.00    -0.288 OA
ENDBRANCH  20  21
ENDBRANCH  19  20
ENDBRANCH  18  19
ENDBRANCH  17  18
ENDBRANCH   1  17
TORSDOF 9
ENDMDL
