MODEL 1
REMARK VINA RESULT:    -7.748      0.000      0.000
REMARK INTER + INTRA:          -9.682
REMARK INTER:                  -9.334
REMARK INTRA:                  -0.348
REMARK UNBOUND:                -0.348
REMARK SMILES COc1cc2c(cc1OC(C)C)CC(C)=C2O
REMARK SMILES IDX 16 1 14 2 15 3 13 4 6 5 7 6 8 7 3 8 4 9 5 10 17 11 2 13 1 14
REMARK SMILES IDX 9 15 10 16 11 17 12 18
REMARK H PARENT 17 12
ROOT
ATOM      1  C   UNL     1      11.514 -54.768 -23.934  1.00  0.00     0.122 C 
ATOM      2  C   UNL     1      10.997 -54.218 -22.824  1.00  0.00    -0.026 C 
ATOM      3  C   UNL     1      10.694 -52.785 -22.575  1.00  0.00     0.044 C 
ATOM      4  C   UNL     1      10.726 -55.261 -21.763  1.00  0.00     0.071 C 
ATOM      5  C   UNL     1      11.183 -56.512 -22.458  1.00  0.00    -0.029 A 
ATOM      6  C   UNL     1      11.181 -57.808 -21.979  1.00  0.00     0.055 A 
ATOM      7  C   UNL     1      11.673 -58.813 -22.815  1.00  0.00     0.161 A 
ATOM      8  C   UNL     1      12.112 -58.532 -24.131  1.00  0.00     0.161 A 
ATOM      9  C   UNL     1      12.109 -57.209 -24.592  1.00  0.00     0.062 A 
ATOM     10  C   UNL     1      11.645 -56.208 -23.748  1.00  0.00     0.024 A 
ENDROOT
BRANCH   1  11
ATOM     11  O   UNL     1      11.871 -54.117 -25.071  1.00  0.00    -0.507 OA
ATOM     12  H   UNL     1      12.242 -54.763 -25.691  1.00  0.00     0.293 HD
ENDBRANCH   1  11
BRANCH   8  13
ATOM     13  O   UNL     1      12.522 -59.612 -24.873  1.00  0.00    -0.493 OA
ATOM     14  C   UNL     1      11.974 -59.757 -26.177  1.00  0.00     0.278 C 
ENDBRANCH   8  13
BRANCH   7  15
ATOM     15  O   UNL     1      11.625 -60.093 -22.317  1.00  0.00    -0.487 OA
BRANCH  15  16
ATOM     16  C   UNL     1      10.359 -60.729 -22.557  1.00  0.00     0.167 C 
ATOM     17  C   UNL     1       9.699 -60.965 -21.202  1.00  0.00     0.052 C 
ATOM     18  C   UNL     1      10.614 -62.058 -23.263  1.00  0.00     0.052 C 
ENDBRANCH  15  16
ENDBRANCH   7  15
TORSDOF 4
ENDMDL
MODEL 2
REMARK VINA RESULT:    -7.594      1.484      2.998
REMARK INTER + INTRA:          -9.497
REMARK INTER:                  -9.044
REMARK INTRA:                  -0.453
REMARK UNBOUND:                -0.348
REMARK SMILES COc1cc2c(cc1OC(C)C)CC(C)=C2O
REMARK SMILES IDX 16 1 14 2 15 3 13 4 6 5 7 6 8 7 3 8 4 9 5 10 17 11 2 13 1 14
REMARK SMILES IDX 9 15 10 16 11 17 12 18
REMARK H PARENT 17 12
ROOT
ATOM      1  C   UNL     1      10.729 -54.475 -21.726  1.00  0.00     0.122 C 
ATOM      2  C   UNL     1      10.916 -53.580 -22.708  1.00  0.00    -0.026 C 
ATOM      3  C   UNL     1      10.673 -52.115 -22.661  1.00  0.00     0.044 C 
ATOM      4  C   UNL     1      11.439 -54.236 -23.966  1.00  0.00     0.071 C 
ATOM      5  C   UNL     1      11.516 -55.673 -23.536  1.00  0.00    -0.029 A 
ATOM      6  C   UNL     1      11.928 -56.768 -24.272  1.00  0.00     0.055 A 
ATOM      7  C   UNL     1      11.899 -58.019 -23.653  1.00  0.00     0.161 A 
ATOM      8  C   UNL     1      11.511 -58.167 -22.300  1.00  0.00     0.161 A 
ATOM      9  C   UNL     1      11.092 -57.043 -21.575  1.00  0.00     0.062 A 
ATOM     10  C   UNL     1      11.096 -55.804 -22.203  1.00  0.00     0.024 A 
ENDROOT
BRANCH   1  11
ATOM     11  O   UNL     1      10.272 -54.222 -20.473  1.00  0.00    -0.507 OA
ATOM     12  H   UNL     1       9.386 -53.834 -20.541  1.00  0.00     0.293 HD
ENDBRANCH   1  11
BRANCH   8  13
ATOM     13  O   UNL     1      11.577 -59.439 -21.789  1.00  0.00    -0.493 OA
ATOM     14  C   UNL     1      10.352 -60.068 -21.436  1.00  0.00     0.278 C 
ENDBRANCH   8  13
BRANCH   7  15
ATOM     15  O   UNL     1      12.348 -59.078 -24.405  1.00  0.00    -0.487 OA
BRANCH  15  16
ATOM     16  C   UNL     1      11.381 -59.512 -25.377  1.00  0.00     0.167 C 
ATOM     17  C   UNL     1      10.973 -60.937 -25.016  1.00  0.00     0.052 C 
ATOM     18  C   UNL     1      12.036 -59.479 -26.755  1.00  0.00     0.052 C 
ENDBRANCH  15  16
ENDBRANCH   7  15
TORSDOF 4
ENDMDL
MODEL 3
REMARK VINA RESULT:    -7.584      3.289      5.512
REMARK INTER + INTRA:          -9.483
REMARK INTER:                  -9.213
REMARK INTRA:                  -0.270
REMARK UNBOUND:                -0.348
REMARK SMILES COc1cc2c(cc1OC(C)C)CC(C)=C2O
REMARK SMILES IDX 16 1 14 2 15 3 13 4 6 5 7 6 8 7 3 8 4 9 5 10 17 11 2 13 1 14
REMARK SMILES IDX 9 15 10 16 11 17 12 18
REMARK H PARENT 17 12
ROOT
ATOM      1  C   UNL     1      10.630 -60.605 -28.242  1.00  0.00     0.122 C 
ATOM      2  C   UNL     1      11.529 -59.659 -28.552  1.00  0.00    -0.026 C 
ATOM      3  C   UNL     1      11.849 -59.114 -29.897  1.00  0.00     0.044 C 
ATOM      4  C   UNL     1      12.247 -59.150 -27.322  1.00  0.00     0.071 C 
ATOM      5  C   UNL     1      11.604 -59.975 -26.245  1.00  0.00    -0.029 A 
ATOM      6  C   UNL     1      11.855 -59.957 -24.886  1.00  0.00     0.055 A 
ATOM      7  C   UNL     1      11.132 -60.837 -24.077  1.00  0.00     0.161 A 
ATOM      8  C   UNL     1      10.134 -61.686 -24.614  1.00  0.00     0.161 A 
ATOM      9  C   UNL     1       9.901 -61.689 -25.996  1.00  0.00     0.062 A 
ATOM     10  C   UNL     1      10.642 -60.833 -26.801  1.00  0.00     0.024 A 
ENDROOT
BRANCH   1  11
ATOM     11  O   UNL     1       9.818 -61.268 -29.105  1.00  0.00    -0.507 OA
ATOM     12  H   UNL     1       8.960 -60.819 -29.127  1.00  0.00     0.293 HD
ENDBRANCH   1  11
BRANCH   8  13
ATOM     13  O   UNL     1       9.455 -62.464 -23.711  1.00  0.00    -0.493 OA
ATOM     14  C   UNL     1       8.311 -63.166 -24.179  1.00  0.00     0.278 C 
ENDBRANCH   8  13
BRANCH   7  15
ATOM     15  O   UNL     1      11.385 -60.767 -22.728  1.00  0.00    -0.487 OA
BRANCH  15  16
ATOM     16  C   UNL     1      10.556 -59.799 -22.063  1.00  0.00     0.167 C 
ATOM     17  C   UNL     1      11.469 -58.697 -21.535  1.00  0.00     0.052 C 
ATOM     18  C   UNL     1       9.838 -60.493 -20.909  1.00  0.00     0.052 C 
ENDBRANCH  15  16
ENDBRANCH   7  15
TORSDOF 4
ENDMDL
MODEL 4
REMARK VINA RESULT:    -7.566      2.807      6.334
REMARK INTER + INTRA:          -9.463
REMARK INTER:                  -9.059
REMARK INTRA:                  -0.404
REMARK UNBOUND:                -0.348
REMARK SMILES COc1cc2c(cc1OC(C)C)CC(C)=C2O
REMARK SMILES IDX 16 1 14 2 15 3 13 4 6 5 7 6 8 7 3 8 4 9 5 10 17 11 2 13 1 14
REMARK SMILES IDX 9 15 10 16 11 17 12 18
REMARK H PARENT 17 12
ROOT
ATOM      1  C   UNL     1       8.201 -62.696 -26.291  1.00  0.00     0.122 C 
ATOM      2  C   UNL     1       7.633 -63.370 -25.280  1.00  0.00    -0.026 C 
ATOM      3  C   UNL     1       6.593 -64.428 -25.362  1.00  0.00     0.044 C 
ATOM      4  C   UNL     1       8.183 -62.931 -23.941  1.00  0.00     0.071 C 
ATOM      5  C   UNL     1       9.169 -61.878 -24.361  1.00  0.00    -0.029 A 
ATOM      6  C   UNL     1       9.991 -61.106 -23.562  1.00  0.00     0.055 A 
ATOM      7  C   UNL     1      10.821 -60.174 -24.188  1.00  0.00     0.161 A 
ATOM      8  C   UNL     1      10.866 -60.052 -25.598  1.00  0.00     0.161 A 
ATOM      9  C   UNL     1      10.020 -60.843 -26.387  1.00  0.00     0.062 A 
ATOM     10  C   UNL     1       9.175 -61.749 -25.759  1.00  0.00     0.024 A 
ENDROOT
BRANCH   1  11
ATOM     11  O   UNL     1       7.937 -62.844 -27.615  1.00  0.00    -0.507 OA
ATOM     12  H   UNL     1       7.208 -63.475 -27.714  1.00  0.00     0.293 HD
ENDBRANCH   1  11
BRANCH   8  13
ATOM     13  O   UNL     1      11.762 -59.139 -26.096  1.00  0.00    -0.493 OA
ATOM     14  C   UNL     1      12.082 -59.222 -27.478  1.00  0.00     0.278 C 
ENDBRANCH   8  13
BRANCH   7  15
ATOM     15  O   UNL     1      11.648 -59.448 -23.364  1.00  0.00    -0.487 OA
BRANCH  15  16
ATOM     16  C   UNL     1      10.938 -58.447 -22.617  1.00  0.00     0.167 C 
ATOM     17  C   UNL     1      11.381 -57.083 -23.137  1.00  0.00     0.052 C 
ATOM     18  C   UNL     1      11.303 -58.598 -21.143  1.00  0.00     0.052 C 
ENDBRANCH  15  16
ENDBRANCH   7  15
TORSDOF 4
ENDMDL
MODEL 5
REMARK VINA RESULT:    -7.330      3.679      8.309
REMARK INTER + INTRA:          -9.178
REMARK INTER:                  -8.816
REMARK INTRA:                  -0.363
REMARK UNBOUND:                -0.348
REMARK SMILES COc1cc2c(cc1OC(C)C)CC(C)=C2O
REMARK SMILES IDX 16 1 14 2 15 3 13 4 6 5 7 6 8 7 3 8 4 9 5 10 17 11 2 13 1 14
REMARK SMILES IDX 9 15 10 16 11 17 12 18
REMARK H PARENT 17 12
ROOT
ATOM      1  C   UNL     1      11.715 -54.248 -24.153  1.00  0.00     0.122 C 
ATOM      2  C   UNL     1      10.956 -54.551 -23.089  1.00  0.00    -0.026 C 
ATOM      3  C   UNL     1      10.375 -55.871 -22.733  1.00  0.00     0.044 C 
ATOM      4  C   UNL     1      10.723 -53.342 -22.211  1.00  0.00     0.071 C 
ATOM      5  C   UNL     1      11.480 -52.285 -22.961  1.00  0.00    -0.029 A 
ATOM      6  C   UNL     1      11.632 -50.949 -22.641  1.00  0.00     0.055 A 
ATOM      7  C   UNL     1      12.379 -50.150 -23.510  1.00  0.00     0.161 A 
ATOM      8  C   UNL     1      13.009 -50.692 -24.655  1.00  0.00     0.161 A 
ATOM      9  C   UNL     1      12.837 -52.048 -24.962  1.00  0.00     0.062 A 
ATOM     10  C   UNL     1      12.069 -52.834 -24.111  1.00  0.00     0.024 A 
ENDROOT
BRANCH   1  11
ATOM     11  O   UNL     1      12.112 -55.097 -25.136  1.00  0.00    -0.507 OA
ATOM     12  H   UNL     1      11.959 -54.669 -25.992  1.00  0.00     0.293 HD
ENDBRANCH   1  11
BRANCH   8  13
ATOM     13  O   UNL     1      13.761 -49.817 -25.400  1.00  0.00    -0.493 OA
ATOM     14  C   UNL     1      14.276 -50.286 -26.639  1.00  0.00     0.278 C 
ENDBRANCH   8  13
BRANCH   7  15
ATOM     15  O   UNL     1      12.536 -48.835 -23.141  1.00  0.00    -0.487 OA
BRANCH  15  16
ATOM     16  C   UNL     1      11.428 -48.015 -23.548  1.00  0.00     0.167 C 
ATOM     17  C   UNL     1      11.952 -47.008 -24.568  1.00  0.00     0.052 C 
ATOM     18  C   UNL     1      10.887 -47.292 -22.318  1.00  0.00     0.052 C 
ENDBRANCH  15  16
ENDBRANCH   7  15
TORSDOF 4
ENDMDL
MODEL 6
REMARK VINA RESULT:    -7.285      3.974      8.240
REMARK INTER + INTRA:          -9.123
REMARK INTER:                  -8.737
REMARK INTRA:                  -0.386
REMARK UNBOUND:                -0.348
REMARK SMILES COc1cc2c(cc1OC(C)C)CC(C)=C2O
REMARK SMILES IDX 16 1 14 2 15 3 13 4 6 5 7 6 8 7 3 8 4 9 5 10 17 11 2 13 1 14
REMARK SMILES IDX 9 15 10 16 11 17 12 18
REMARK H PARENT 17 12
ROOT
ATOM      1  C   UNL     1      10.837 -53.724 -22.059  1.00  0.00     0.122 C 
ATOM      2  C   UNL     1      10.921 -54.765 -22.902  1.00  0.00    -0.026 C 
ATOM      3  C   UNL     1      10.405 -56.143 -22.700  1.00  0.00     0.044 C 
ATOM      4  C   UNL     1      11.640 -54.388 -24.178  1.00  0.00     0.071 C 
ATOM      5  C   UNL     1      11.960 -52.944 -23.919  1.00  0.00    -0.029 A 
ATOM      6  C   UNL     1      12.624 -52.052 -24.740  1.00  0.00     0.055 A 
ATOM      7  C   UNL     1      12.817 -50.751 -24.270  1.00  0.00     0.161 A 
ATOM      8  C   UNL     1      12.307 -50.334 -23.018  1.00  0.00     0.161 A 
ATOM      9  C   UNL     1      11.641 -51.258 -22.200  1.00  0.00     0.062 A 
ATOM     10  C   UNL     1      11.476 -52.559 -22.659  1.00  0.00     0.024 A 
ENDROOT
BRANCH   1  11
ATOM     11  O   UNL     1      10.257 -53.719 -20.831  1.00  0.00    -0.507 OA
ATOM     12  H   UNL     1      10.954 -53.791 -20.161  1.00  0.00     0.293 HD
ENDBRANCH   1  11
BRANCH   8  13
ATOM     13  O   UNL     1      12.513 -49.017 -22.691  1.00  0.00    -0.493 OA
ATOM     14  C   UNL     1      11.397 -48.140 -22.769  1.00  0.00     0.278 C 
ENDBRANCH   8  13
BRANCH   7  15
ATOM     15  O   UNL     1      13.451 -49.885 -25.128  1.00  0.00    -0.487 OA
BRANCH  15  16
ATOM     16  C   UNL     1      14.508 -50.518 -25.867  1.00  0.00     0.167 C 
ATOM     17  C   UNL     1      15.802 -50.320 -25.083  1.00  0.00     0.052 C 
ATOM     18  C   UNL     1      14.607 -49.848 -27.235  1.00  0.00     0.052 C 
ENDBRANCH  15  16
ENDBRANCH   7  15
TORSDOF 4
ENDMDL
MODEL 7
REMARK VINA RESULT:    -7.155      3.355      6.470
REMARK INTER + INTRA:          -8.968
REMARK INTER:                  -8.725
REMARK INTRA:                  -0.243
REMARK UNBOUND:                -0.348
REMARK SMILES COc1cc2c(cc1OC(C)C)CC(C)=C2O
REMARK SMILES IDX 16 1 14 2 15 3 13 4 6 5 7 6 8 7 3 8 4 9 5 10 17 11 2 13 1 14
REMARK SMILES IDX 9 15 10 16 11 17 12 18
REMARK H PARENT 17 12
ROOT
ATOM      1  C   UNL     1       9.203 -61.976 -28.136  1.00  0.00     0.122 C 
ATOM      2  C   UNL     1       8.403 -63.044 -27.996  1.00  0.00    -0.026 C 
ATOM      3  C   UNL     1       7.994 -64.018 -29.040  1.00  0.00     0.044 C 
ATOM      4  C   UNL     1       7.913 -63.187 -26.572  1.00  0.00     0.071 C 
ATOM      5  C   UNL     1       8.571 -62.007 -25.916  1.00  0.00    -0.029 A 
ATOM      6  C   UNL     1       8.492 -61.606 -24.595  1.00  0.00     0.055 A 
ATOM      7  C   UNL     1       9.189 -60.455 -24.220  1.00  0.00     0.161 A 
ATOM      8  C   UNL     1       9.994 -59.745 -25.142  1.00  0.00     0.161 A 
ATOM      9  C   UNL     1      10.054 -60.168 -26.477  1.00  0.00     0.062 A 
ATOM     10  C   UNL     1       9.338 -61.297 -26.852  1.00  0.00     0.024 A 
ENDROOT
BRANCH   1  11
ATOM     11  O   UNL     1       9.810 -61.561 -29.278  1.00  0.00    -0.507 OA
ATOM     12  H   UNL     1       9.636 -62.214 -29.973  1.00  0.00     0.293 HD
ENDBRANCH   1  11
BRANCH   8  13
ATOM     13  O   UNL     1      10.673 -58.662 -24.640  1.00  0.00    -0.493 OA
ATOM     14  C   UNL     1      12.092 -58.730 -24.619  1.00  0.00     0.278 C 
ENDBRANCH   8  13
BRANCH   7  15
ATOM     15  O   UNL     1       9.114 -60.107 -22.893  1.00  0.00    -0.487 OA
BRANCH  15  16
ATOM     16  C   UNL     1      10.173 -60.685 -22.112  1.00  0.00     0.167 C 
ATOM     17  C   UNL     1       9.591 -61.874 -21.355  1.00  0.00     0.052 C 
ATOM     18  C   UNL     1      10.681 -59.629 -21.135  1.00  0.00     0.052 C 
ENDBRANCH  15  16
ENDBRANCH   7  15
TORSDOF 4
ENDMDL
MODEL 8
REMARK VINA RESULT:    -7.079      3.645      6.921
REMARK INTER + INTRA:          -8.876
REMARK INTER:                  -8.446
REMARK INTRA:                  -0.429
REMARK UNBOUND:                -0.348
REMARK SMILES COc1cc2c(cc1OC(C)C)CC(C)=C2O
REMARK SMILES IDX 16 1 14 2 15 3 13 4 6 5 7 6 8 7 3 8 4 9 5 10 17 11 2 13 1 14
REMARK SMILES IDX 9 15 10 16 11 17 12 18
REMARK H PARENT 17 12
ROOT
ATOM      1  C   UNL     1       7.973 -62.746 -26.407  1.00  0.00     0.122 C 
ATOM      2  C   UNL     1       8.865 -62.637 -27.404  1.00  0.00    -0.026 C 
ATOM      3  C   UNL     1       9.041 -63.541 -28.570  1.00  0.00     0.044 C 
ATOM      4  C   UNL     1       9.746 -61.420 -27.230  1.00  0.00     0.071 C 
ATOM      5  C   UNL     1       9.206 -60.847 -25.952  1.00  0.00    -0.029 A 
ATOM      6  C   UNL     1       9.620 -59.714 -25.277  1.00  0.00     0.055 A 
ATOM      7  C   UNL     1       8.966 -59.387 -24.088  1.00  0.00     0.161 A 
ATOM      8  C   UNL     1       7.878 -60.154 -23.606  1.00  0.00     0.161 A 
ATOM      9  C   UNL     1       7.479 -61.301 -24.305  1.00  0.00     0.062 A 
ATOM     10  C   UNL     1       8.151 -61.640 -25.473  1.00  0.00     0.024 A 
ENDROOT
BRANCH   1  11
ATOM     11  O   UNL     1       7.037 -63.718 -26.258  1.00  0.00    -0.507 OA
ATOM     12  H   UNL     1       6.207 -63.409 -26.651  1.00  0.00     0.293 HD
ENDBRANCH   1  11
BRANCH   8  13
ATOM     13  O   UNL     1       7.282 -59.700 -22.456  1.00  0.00    -0.493 OA
ATOM     14  C   UNL     1       6.023 -59.053 -22.581  1.00  0.00     0.278 C 
ENDBRANCH   8  13
BRANCH   7  15
ATOM     15  O   UNL     1       9.383 -58.236 -23.463  1.00  0.00    -0.487 OA
BRANCH  15  16
ATOM     16  C   UNL     1      10.754 -58.307 -23.037  1.00  0.00     0.167 C 
ATOM     17  C   UNL     1      10.790 -59.098 -21.733  1.00  0.00     0.052 C 
ATOM     18  C   UNL     1      11.263 -56.886 -22.812  1.00  0.00     0.052 C 
ENDBRANCH  15  16
ENDBRANCH   7  15
TORSDOF 4
ENDMDL
MODEL 9
REMARK VINA RESULT:    -6.979      3.311      5.231
REMARK INTER + INTRA:          -8.756
REMARK INTER:                  -8.323
REMARK INTRA:                  -0.433
REMARK UNBOUND:                -0.348
REMARK SMILES COc1cc2c(cc1OC(C)C)CC(C)=C2O
REMARK SMILES IDX 16 1 14 2 15 3 13 4 6 5 7 6 8 7 3 8 4 9 5 10 17 11 2 13 1 14
REMARK SMILES IDX 9 15 10 16 11 17 12 18
REMARK H PARENT 17 12
ROOT
ATOM      1  C   UNL     1      11.665 -59.103 -26.987  1.00  0.00     0.122 C 
ATOM      2  C   UNL     1      11.435 -59.783 -28.122  1.00  0.00    -0.026 C 
ATOM      3  C   UNL     1      12.018 -59.533 -29.465  1.00  0.00     0.044 C 
ATOM      4  C   UNL     1      10.458 -60.916 -27.902  1.00  0.00     0.071 C 
ATOM      5  C   UNL     1      10.161 -60.766 -26.437  1.00  0.00    -0.029 A 
ATOM      6  C   UNL     1       9.318 -61.529 -25.652  1.00  0.00     0.055 A 
ATOM      7  C   UNL     1       9.193 -61.185 -24.304  1.00  0.00     0.161 A 
ATOM      8  C   UNL     1       9.940 -60.125 -23.738  1.00  0.00     0.161 A 
ATOM      9  C   UNL     1      10.785 -59.362 -24.557  1.00  0.00     0.062 A 
ATOM     10  C   UNL     1      10.885 -59.690 -25.903  1.00  0.00     0.024 A 
ENDROOT
BRANCH   1  11
ATOM     11  O   UNL     1      12.487 -58.033 -26.834  1.00  0.00    -0.507 OA
ATOM     12  H   UNL     1      12.769 -57.992 -25.908  1.00  0.00     0.293 HD
ENDBRANCH   1  11
BRANCH   8  13
ATOM     13  O   UNL     1       9.772 -59.919 -22.392  1.00  0.00    -0.493 OA
ATOM     14  C   UNL     1      10.883 -59.416 -21.661  1.00  0.00     0.278 C 
ENDBRANCH   8  13
BRANCH   7  15
ATOM     15  O   UNL     1       8.372 -61.986 -23.547  1.00  0.00    -0.487 OA
BRANCH  15  16
ATOM     16  C   UNL     1       8.840 -63.344 -23.478  1.00  0.00     0.167 C 
ATOM     17  C   UNL     1       7.630 -64.236 -23.221  1.00  0.00     0.052 C 
ATOM     18  C   UNL     1       9.835 -63.452 -22.325  1.00  0.00     0.052 C 
ENDBRANCH  15  16
ENDBRANCH   7  15
TORSDOF 4
ENDMDL
