MODEL 1
REMARK VINA RESULT:    -8.951      0.000      0.000
REMARK INTER + INTRA:          -9.212
REMARK INTER:                  -9.212
REMARK INTRA:                   0.000
REMARK UNBOUND:                 0.000
REMARK SMILES CC1=C[C@@H]2Cc3nc4cc(Cl)ccc4c(N)c3[C@H](C1)C2
REMARK SMILES IDX 1 1 2 2 3 3 4 4 5 5 6 6 7 7 8 8 9 9 10 10 11 11 12 12 13 13
REMARK SMILES IDX 14 14 15 15 17 16 18 17 19 18 20 19 16 20
REMARK H PARENT 16 21 16 22
ROOT
ATOM      1  C   UNL     1       9.644 -56.399 -22.756  1.00  0.00     0.039 C 
ATOM      2  C   UNL     1      10.531 -57.589 -22.978  1.00  0.00    -0.076 C 
ATOM      3  C   UNL     1      11.583 -57.556 -23.817  1.00  0.00    -0.024 C 
ATOM      4  C   UNL     1      12.498 -58.741 -24.038  1.00  0.00     0.018 C 
ATOM      5  C   UNL     1      12.120 -59.492 -25.320  1.00  0.00     0.064 C 
ATOM      6  C   UNL     1      10.914 -60.395 -25.172  1.00  0.00     0.047 A 
ATOM      7  N   UNL     1      10.451 -60.912 -26.335  1.00  0.00    -0.252 NA
ATOM      8  C   UNL     1       9.441 -61.787 -26.300  1.00  0.00     0.074 A 
ATOM      9  C   UNL     1       9.028 -62.331 -27.507  1.00  0.00     0.049 A 
ATOM     10  C   UNL     1       8.004 -63.271 -27.563  1.00  0.00     0.043 A 
ATOM     11  Cl  UNL     1       7.522 -63.926 -29.080  1.00  0.00    -0.084 Cl
ATOM     12  C   UNL     1       7.376 -63.690 -26.401  1.00  0.00     0.021 A 
ATOM     13  C   UNL     1       7.776 -63.150 -25.179  1.00  0.00     0.014 A 
ATOM     14  C   UNL     1       8.807 -62.178 -25.102  1.00  0.00     0.024 A 
ATOM     15  C   UNL     1       9.247 -61.567 -23.893  1.00  0.00     0.046 A 
ATOM     16  C   UNL     1      10.368 -60.713 -23.922  1.00  0.00     0.001 A 
ATOM     17  C   UNL     1      10.960 -60.103 -22.655  1.00  0.00     0.028 C 
ATOM     18  C   UNL     1      10.168 -58.846 -22.214  1.00  0.00     0.039 C 
ATOM     19  C   UNL     1      12.430 -59.719 -22.862  1.00  0.00     0.017 C 
ENDROOT
BRANCH  15  20
ATOM     20  N   UNL     1       8.697 -61.971 -22.651  1.00  0.00    -0.398 N 
ATOM     21  H   UNL     1       8.956 -62.909 -22.366  1.00  0.00     0.156 HD
ATOM     22  H   UNL     1       8.872 -61.315 -21.899  1.00  0.00     0.156 HD
ENDBRANCH  15  20
TORSDOF 1
ENDMDL
MODEL 2
REMARK VINA RESULT:    -8.760      7.338     10.015
REMARK INTER + INTRA:          -9.016
REMARK INTER:                  -9.016
REMARK INTRA:                   0.000
REMARK UNBOUND:                 0.000
REMARK SMILES CC1=C[C@@H]2Cc3nc4cc(Cl)ccc4c(N)c3[C@H](C1)C2
REMARK SMILES IDX 1 1 2 2 3 3 4 4 5 5 6 6 7 7 8 8 9 9 10 10 11 11 12 12 13 13
REMARK SMILES IDX 14 14 15 15 17 16 18 17 19 18 20 19 16 20
REMARK H PARENT 16 21 16 22
ROOT
ATOM      1  C   UNL     1      11.818 -46.947 -25.072  1.00  0.00     0.039 C 
ATOM      2  C   UNL     1      12.799 -47.993 -24.631  1.00  0.00    -0.076 C 
ATOM      3  C   UNL     1      13.598 -48.642 -25.498  1.00  0.00    -0.024 C 
ATOM      4  C   UNL     1      14.605 -49.687 -25.067  1.00  0.00     0.018 C 
ATOM      5  C   UNL     1      14.049 -51.101 -25.273  1.00  0.00     0.064 C 
ATOM      6  C   UNL     1      13.070 -51.540 -24.205  1.00  0.00     0.047 A 
ATOM      7  N   UNL     1      12.425 -52.700 -24.474  1.00  0.00    -0.252 NA
ATOM      8  C   UNL     1      11.603 -53.214 -23.554  1.00  0.00     0.074 A 
ATOM      9  C   UNL     1      10.998 -54.427 -23.847  1.00  0.00     0.049 A 
ATOM     10  C   UNL     1      10.150 -55.051 -22.936  1.00  0.00     0.043 A 
ATOM     11  Cl  UNL     1       9.423 -56.558 -23.335  1.00  0.00    -0.084 Cl
ATOM     12  C   UNL     1       9.896 -54.467 -21.706  1.00  0.00     0.021 A 
ATOM     13  C   UNL     1      10.492 -53.244 -21.397  1.00  0.00     0.014 A 
ATOM     14  C   UNL     1      11.346 -52.585 -22.317  1.00  0.00     0.024 A 
ATOM     15  C   UNL     1      11.966 -51.325 -22.078  1.00  0.00     0.046 A 
ATOM     16  C   UNL     1      12.900 -50.828 -23.010  1.00  0.00     0.001 A 
ATOM     17  C   UNL     1      13.679 -49.538 -22.774  1.00  0.00     0.028 C 
ATOM     18  C   UNL     1      12.832 -48.295 -23.146  1.00  0.00     0.039 C 
ATOM     19  C   UNL     1      14.977 -49.521 -23.592  1.00  0.00     0.017 C 
ENDROOT
BRANCH  15  20
ATOM     20  N   UNL     1      11.804 -50.679 -20.826  1.00  0.00    -0.398 N 
ATOM     21  H   UNL     1      11.058 -51.059 -20.255  1.00  0.00     0.156 HD
ATOM     22  H   UNL     1      12.662 -50.618 -20.289  1.00  0.00     0.156 HD
ENDBRANCH  15  20
TORSDOF 1
ENDMDL
MODEL 3
REMARK VINA RESULT:    -8.540      7.979     10.837
REMARK INTER + INTRA:          -8.790
REMARK INTER:                  -8.790
REMARK INTRA:                   0.000
REMARK UNBOUND:                 0.000
REMARK SMILES CC1=C[C@@H]2Cc3nc4cc(Cl)ccc4c(N)c3[C@H](C1)C2
REMARK SMILES IDX 1 1 2 2 3 3 4 4 5 5 6 6 7 7 8 8 9 9 10 10 11 11 12 12 13 13
REMARK SMILES IDX 14 14 15 15 17 16 18 17 19 18 20 19 16 20
REMARK H PARENT 16 21 16 22
ROOT
ATOM      1  C   UNL     1      16.625 -48.200 -22.619  1.00  0.00     0.039 C 
ATOM      2  C   UNL     1      15.245 -48.157 -23.206  1.00  0.00    -0.076 C 
ATOM      3  C   UNL     1      14.190 -47.667 -22.530  1.00  0.00    -0.024 C 
ATOM      4  C   UNL     1      12.795 -47.599 -23.115  1.00  0.00     0.018 C 
ATOM      5  C   UNL     1      11.941 -48.777 -22.630  1.00  0.00     0.064 C 
ATOM      6  C   UNL     1      12.226 -50.081 -23.345  1.00  0.00     0.047 A 
ATOM      7  N   UNL     1      11.625 -51.165 -22.800  1.00  0.00    -0.252 NA
ATOM      8  C   UNL     1      11.747 -52.349 -23.408  1.00  0.00     0.074 A 
ATOM      9  C   UNL     1      11.078 -53.425 -22.847  1.00  0.00     0.049 A 
ATOM     10  C   UNL     1      11.124 -54.689 -23.428  1.00  0.00     0.043 A 
ATOM     11  Cl  UNL     1      10.276 -55.999 -22.703  1.00  0.00    -0.084 Cl
ATOM     12  C   UNL     1      11.844 -54.895 -24.594  1.00  0.00     0.021 A 
ATOM     13  C   UNL     1      12.528 -53.825 -25.170  1.00  0.00     0.014 A 
ATOM     14  C   UNL     1      12.505 -52.533 -24.584  1.00  0.00     0.024 A 
ATOM     15  C   UNL     1      13.200 -51.403 -25.103  1.00  0.00     0.046 A 
ATOM     16  C   UNL     1      12.999 -50.139 -24.512  1.00  0.00     0.001 A 
ATOM     17  C   UNL     1      13.627 -48.867 -25.074  1.00  0.00     0.028 C 
ATOM     18  C   UNL     1      15.097 -48.714 -24.608  1.00  0.00     0.039 C 
ATOM     19  C   UNL     1      12.836 -47.625 -24.645  1.00  0.00     0.017 C 
ENDROOT
BRANCH  15  20
ATOM     20  N   UNL     1      13.920 -51.508 -26.320  1.00  0.00    -0.398 N 
ATOM     21  H   UNL     1      13.446 -52.042 -27.039  1.00  0.00     0.156 HD
ATOM     22  H   UNL     1      14.222 -50.613 -26.689  1.00  0.00     0.156 HD
ENDBRANCH  15  20
TORSDOF 1
ENDMDL
MODEL 4
REMARK VINA RESULT:    -8.338     11.005     13.393
REMARK INTER + INTRA:          -8.581
REMARK INTER:                  -8.581
REMARK INTRA:                   0.000
REMARK UNBOUND:                 0.000
REMARK SMILES CC1=C[C@@H]2Cc3nc4cc(Cl)ccc4c(N)c3[C@H](C1)C2
REMARK SMILES IDX 1 1 2 2 3 3 4 4 5 5 6 6 7 7 8 8 9 9 10 10 11 11 12 12 13 13
REMARK SMILES IDX 14 14 15 15 17 16 18 17 19 18 20 19 16 20
REMARK H PARENT 16 21 16 22
ROOT
ATOM      1  C   UNL     1      16.563 -51.378 -22.699  1.00  0.00     0.039 C 
ATOM      2  C   UNL     1      15.431 -51.258 -23.678  1.00  0.00    -0.076 C 
ATOM      3  C   UNL     1      15.627 -50.920 -24.966  1.00  0.00    -0.024 C 
ATOM      4  C   UNL     1      14.499 -50.814 -25.970  1.00  0.00     0.018 C 
ATOM      5  C   UNL     1      14.071 -49.353 -26.158  1.00  0.00     0.064 C 
ATOM      6  C   UNL     1      13.191 -48.821 -25.047  1.00  0.00     0.047 A 
ATOM      7  N   UNL     1      12.966 -47.486 -25.097  1.00  0.00    -0.252 NA
ATOM      8  C   UNL     1      12.134 -46.935 -24.208  1.00  0.00     0.074 A 
ATOM      9  C   UNL     1      11.892 -45.574 -24.322  1.00  0.00     0.049 A 
ATOM     10  C   UNL     1      11.017 -44.921 -23.459  1.00  0.00     0.043 A 
ATOM     11  Cl  UNL     1      10.739 -43.232 -23.635  1.00  0.00    -0.084 Cl
ATOM     12  C   UNL     1      10.361 -45.627 -22.463  1.00  0.00     0.021 A 
ATOM     13  C   UNL     1      10.597 -46.995 -22.331  1.00  0.00     0.014 A 
ATOM     14  C   UNL     1      11.497 -47.676 -23.191  1.00  0.00     0.024 A 
ATOM     15  C   UNL     1      11.804 -49.064 -23.096  1.00  0.00     0.046 A 
ATOM     16  C   UNL     1      12.611 -49.660 -24.087  1.00  0.00     0.001 A 
ATOM     17  C   UNL     1      12.900 -51.158 -24.110  1.00  0.00     0.028 C 
ATOM     18  C   UNL     1      14.043 -51.524 -23.132  1.00  0.00     0.039 C 
ATOM     19  C   UNL     1      13.281 -51.624 -25.521  1.00  0.00     0.017 C 
ENDROOT
BRANCH  15  20
ATOM     20  N   UNL     1      11.141 -49.875 -22.141  1.00  0.00    -0.398 N 
ATOM     21  H   UNL     1      11.447 -50.841 -22.131  1.00  0.00     0.156 HD
ATOM     22  H   UNL     1      11.160 -49.491 -21.203  1.00  0.00     0.156 HD
ENDBRANCH  15  20
TORSDOF 1
ENDMDL
MODEL 5
REMARK VINA RESULT:    -8.318      8.256     10.933
REMARK INTER + INTRA:          -8.561
REMARK INTER:                  -8.561
REMARK INTRA:                   0.000
REMARK UNBOUND:                 0.000
REMARK SMILES CC1=C[C@@H]2Cc3nc4cc(Cl)ccc4c(N)c3[C@H](C1)C2
REMARK SMILES IDX 1 1 2 2 3 3 4 4 5 5 6 6 7 7 8 8 9 9 10 10 11 11 12 12 13 13
REMARK SMILES IDX 14 14 15 15 17 16 18 17 19 18 20 19 16 20
REMARK H PARENT 16 21 16 22
ROOT
ATOM      1  C   UNL     1      10.628 -45.998 -24.246  1.00  0.00     0.039 C 
ATOM      2  C   UNL     1      11.807 -46.748 -23.697  1.00  0.00    -0.076 C 
ATOM      3  C   UNL     1      13.035 -46.653 -24.239  1.00  0.00    -0.024 C 
ATOM      4  C   UNL     1      14.238 -47.388 -23.686  1.00  0.00     0.018 C 
ATOM      5  C   UNL     1      14.515 -48.665 -24.489  1.00  0.00     0.064 C 
ATOM      6  C   UNL     1      13.597 -49.819 -24.146  1.00  0.00     0.047 A 
ATOM      7  N   UNL     1      13.697 -50.885 -24.976  1.00  0.00    -0.252 NA
ATOM      8  C   UNL     1      12.988 -51.985 -24.707  1.00  0.00     0.074 A 
ATOM      9  C   UNL     1      13.155 -53.072 -25.552  1.00  0.00     0.049 A 
ATOM     10  C   UNL     1      12.480 -54.270 -25.332  1.00  0.00     0.043 A 
ATOM     11  Cl  UNL     1      12.717 -55.597 -26.401  1.00  0.00    -0.084 Cl
ATOM     12  C   UNL     1      11.625 -54.400 -24.249  1.00  0.00     0.021 A 
ATOM     13  C   UNL     1      11.441 -53.316 -23.392  1.00  0.00     0.014 A 
ATOM     14  C   UNL     1      12.108 -52.082 -23.608  1.00  0.00     0.024 A 
ATOM     15  C   UNL     1      11.947 -50.927 -22.789  1.00  0.00     0.046 A 
ATOM     16  C   UNL     1      12.760 -49.800 -23.022  1.00  0.00     0.001 A 
ATOM     17  C   UNL     1      12.719 -48.566 -22.125  1.00  0.00     0.028 C 
ATOM     18  C   UNL     1      11.536 -47.638 -22.501  1.00  0.00     0.039 C 
ATOM     19  C   UNL     1      14.027 -47.771 -22.220  1.00  0.00     0.017 C 
ENDROOT
BRANCH  15  20
ATOM     20  N   UNL     1      11.132 -50.985 -21.631  1.00  0.00    -0.398 N 
ATOM     21  H   UNL     1      11.462 -50.415 -20.861  1.00  0.00     0.156 HD
ATOM     22  H   UNL     1      10.154 -50.793 -21.816  1.00  0.00     0.156 HD
ENDBRANCH  15  20
TORSDOF 1
ENDMDL
MODEL 6
REMARK VINA RESULT:    -7.946      8.925     12.062
REMARK INTER + INTRA:          -8.178
REMARK INTER:                  -8.178
REMARK INTRA:                   0.000
REMARK UNBOUND:                 0.000
REMARK SMILES CC1=C[C@@H]2Cc3nc4cc(Cl)ccc4c(N)c3[C@H](C1)C2
REMARK SMILES IDX 1 1 2 2 3 3 4 4 5 5 6 6 7 7 8 8 9 9 10 10 11 11 12 12 13 13
REMARK SMILES IDX 14 14 15 15 17 16 18 17 19 18 20 19 16 20
REMARK H PARENT 16 21 16 22
ROOT
ATOM      1  C   UNL     1      15.120 -46.184 -21.384  1.00  0.00     0.039 C 
ATOM      2  C   UNL     1      13.925 -46.384 -22.269  1.00  0.00    -0.076 C 
ATOM      3  C   UNL     1      12.689 -45.992 -21.908  1.00  0.00    -0.024 C 
ATOM      4  C   UNL     1      11.477 -46.169 -22.797  1.00  0.00     0.018 C 
ATOM      5  C   UNL     1      10.675 -47.410 -22.388  1.00  0.00     0.064 C 
ATOM      6  C   UNL     1      11.272 -48.716 -22.868  1.00  0.00     0.047 A 
ATOM      7  N   UNL     1      10.690 -49.825 -22.353  1.00  0.00    -0.252 NA
ATOM      8  C   UNL     1      11.091 -51.026 -22.780  1.00  0.00     0.074 A 
ATOM      9  C   UNL     1      10.437 -52.136 -22.267  1.00  0.00     0.049 A 
ATOM     10  C   UNL     1      10.768 -53.424 -22.675  1.00  0.00     0.043 A 
ATOM     11  Cl  UNL     1       9.931 -54.776 -22.017  1.00  0.00    -0.084 Cl
ATOM     12  C   UNL     1      11.764 -53.623 -23.618  1.00  0.00     0.021 A 
ATOM     13  C   UNL     1      12.436 -52.519 -24.141  1.00  0.00     0.014 A 
ATOM     14  C   UNL     1      12.124 -51.198 -23.726  1.00  0.00     0.024 A 
ATOM     15  C   UNL     1      12.786 -50.029 -24.199  1.00  0.00     0.046 A 
ATOM     16  C   UNL     1      12.303 -48.762 -23.816  1.00  0.00     0.001 A 
ATOM     17  C   UNL     1      12.894 -47.465 -24.361  1.00  0.00     0.028 C 
ATOM     18  C   UNL     1      14.182 -47.070 -23.595  1.00  0.00     0.039 C 
ATOM     19  C   UNL     1      11.884 -46.315 -24.265  1.00  0.00     0.017 C 
ENDROOT
BRANCH  15  20
ATOM     20  N   UNL     1      13.783 -50.133 -25.202  1.00  0.00    -0.398 N 
ATOM     21  H   UNL     1      13.908 -51.069 -25.569  1.00  0.00     0.156 HD
ATOM     22  H   UNL     1      13.662 -49.471 -25.960  1.00  0.00     0.156 HD
ENDBRANCH  15  20
TORSDOF 1
ENDMDL
MODEL 7
REMARK VINA RESULT:    -7.482      7.386     10.359
REMARK INTER + INTRA:          -7.701
REMARK INTER:                  -7.701
REMARK INTRA:                   0.000
REMARK UNBOUND:                 0.000
REMARK SMILES CC1=C[C@@H]2Cc3nc4cc(Cl)ccc4c(N)c3[C@H](C1)C2
REMARK SMILES IDX 1 1 2 2 3 3 4 4 5 5 6 6 7 7 8 8 9 9 10 10 11 11 12 12 13 13
REMARK SMILES IDX 14 14 15 15 17 16 18 17 19 18 20 19 16 20
REMARK H PARENT 16 21 16 22
ROOT
ATOM      1  C   UNL     1      11.549 -56.217 -20.492  1.00  0.00     0.039 C 
ATOM      2  C   UNL     1      11.040 -55.340 -21.599  1.00  0.00    -0.076 C 
ATOM      3  C   UNL     1      10.910 -55.780 -22.864  1.00  0.00    -0.024 C 
ATOM      4  C   UNL     1      10.381 -54.914 -23.987  1.00  0.00     0.018 C 
ATOM      5  C   UNL     1      11.531 -54.338 -24.821  1.00  0.00     0.064 C 
ATOM      6  C   UNL     1      12.227 -53.157 -24.179  1.00  0.00     0.047 A 
ATOM      7  N   UNL     1      13.361 -52.762 -24.805  1.00  0.00    -0.252 NA
ATOM      8  C   UNL     1      14.001 -51.675 -24.363  1.00  0.00     0.074 A 
ATOM      9  C   UNL     1      15.131 -51.274 -25.060  1.00  0.00     0.049 A 
ATOM     10  C   UNL     1      15.844 -50.138 -24.690  1.00  0.00     0.043 A 
ATOM     11  Cl  UNL     1      17.239 -49.671 -25.583  1.00  0.00    -0.084 Cl
ATOM     12  C   UNL     1      15.431 -49.376 -23.609  1.00  0.00     0.021 A 
ATOM     13  C   UNL     1      14.300 -49.767 -22.893  1.00  0.00     0.014 A 
ATOM     14  C   UNL     1      13.568 -50.931 -23.246  1.00  0.00     0.024 A 
ATOM     15  C   UNL     1      12.421 -51.402 -22.544  1.00  0.00     0.046 A 
ATOM     16  C   UNL     1      11.697 -52.494 -23.063  1.00  0.00     0.001 A 
ATOM     17  C   UNL     1      10.403 -52.992 -22.426  1.00  0.00     0.028 C 
ATOM     18  C   UNL     1      10.692 -53.916 -21.217  1.00  0.00     0.039 C 
ATOM     19  C   UNL     1       9.545 -53.754 -23.443  1.00  0.00     0.017 C 
ENDROOT
BRANCH  15  20
ATOM     20  N   UNL     1      11.897 -50.658 -21.458  1.00  0.00    -0.398 N 
ATOM     21  H   UNL     1      11.826 -49.662 -21.631  1.00  0.00     0.156 HD
ATOM     22  H   UNL     1      11.014 -51.018 -21.111  1.00  0.00     0.156 HD
ENDBRANCH  15  20
TORSDOF 1
ENDMDL
MODEL 8
REMARK VINA RESULT:    -7.109      9.629     12.505
REMARK INTER + INTRA:          -7.317
REMARK INTER:                  -7.317
REMARK INTRA:                   0.000
REMARK UNBOUND:                 0.000
REMARK SMILES CC1=C[C@@H]2Cc3nc4cc(Cl)ccc4c(N)c3[C@H](C1)C2
REMARK SMILES IDX 1 1 2 2 3 3 4 4 5 5 6 6 7 7 8 8 9 9 10 10 11 11 12 12 13 13
REMARK SMILES IDX 14 14 15 15 17 16 18 17 19 18 20 19 16 20
REMARK H PARENT 16 21 16 22
ROOT
ATOM      1  C   UNL     1      17.894 -47.197 -24.590  1.00  0.00     0.039 C 
ATOM      2  C   UNL     1      16.444 -47.062 -24.952  1.00  0.00    -0.076 C 
ATOM      3  C   UNL     1      15.612 -46.233 -24.295  1.00  0.00    -0.024 C 
ATOM      4  C   UNL     1      14.152 -46.071 -24.659  1.00  0.00     0.018 C 
ATOM      5  C   UNL     1      13.261 -46.910 -23.735  1.00  0.00     0.064 C 
ATOM      6  C   UNL     1      13.230 -48.384 -24.080  1.00  0.00     0.047 A 
ATOM      7  N   UNL     1      12.610 -49.165 -23.163  1.00  0.00    -0.252 NA
ATOM      8  C   UNL     1      12.458 -50.468 -23.417  1.00  0.00     0.074 A 
ATOM      9  C   UNL     1      11.775 -51.224 -22.477  1.00  0.00     0.049 A 
ATOM     10  C   UNL     1      11.543 -52.583 -22.671  1.00  0.00     0.043 A 
ATOM     11  Cl  UNL     1      10.688 -53.487 -21.483  1.00  0.00    -0.084 Cl
ATOM     12  C   UNL     1      11.991 -53.209 -23.824  1.00  0.00     0.021 A 
ATOM     13  C   UNL     1      12.684 -52.465 -24.778  1.00  0.00     0.014 A 
ATOM     14  C   UNL     1      12.944 -51.083 -24.591  1.00  0.00     0.024 A 
ATOM     15  C   UNL     1      13.667 -50.269 -25.510  1.00  0.00     0.046 A 
ATOM     16  C   UNL     1      13.749 -48.880 -25.283  1.00  0.00     0.001 A 
ATOM     17  C   UNL     1      14.417 -47.931 -26.273  1.00  0.00     0.028 C 
ATOM     18  C   UNL     1      15.956 -47.928 -26.096  1.00  0.00     0.039 C 
ATOM     19  C   UNL     1      13.892 -46.500 -26.105  1.00  0.00     0.017 C 
ENDROOT
BRANCH  15  20
ATOM     20  N   UNL     1      14.117 -50.814 -26.739  1.00  0.00    -0.398 N 
ATOM     21  H   UNL     1      14.991 -51.324 -26.673  1.00  0.00     0.156 HD
ATOM     22  H   UNL     1      13.418 -51.374 -27.212  1.00  0.00     0.156 HD
ENDBRANCH  15  20
TORSDOF 1
ENDMDL
MODEL 9
REMARK VINA RESULT:    -6.858      9.776     13.008
REMARK INTER + INTRA:          -7.059
REMARK INTER:                  -7.059
REMARK INTRA:                   0.000
REMARK UNBOUND:                 0.000
REMARK SMILES CC1=C[C@@H]2Cc3nc4cc(Cl)ccc4c(N)c3[C@H](C1)C2
REMARK SMILES IDX 1 1 2 2 3 3 4 4 5 5 6 6 7 7 8 8 9 9 10 10 11 11 12 12 13 13
REMARK SMILES IDX 14 14 15 15 17 16 18 17 19 18 20 19 16 20
REMARK H PARENT 16 21 16 22
ROOT
ATOM      1  C   UNL     1      11.330 -53.039 -23.035  1.00  0.00     0.039 C 
ATOM      2  C   UNL     1      12.281 -52.329 -23.953  1.00  0.00    -0.076 C 
ATOM      3  C   UNL     1      13.054 -52.986 -24.836  1.00  0.00    -0.024 C 
ATOM      4  C   UNL     1      14.004 -52.283 -25.783  1.00  0.00     0.018 C 
ATOM      5  C   UNL     1      15.438 -52.315 -25.241  1.00  0.00     0.064 C 
ATOM      6  C   UNL     1      15.707 -51.302 -24.149  1.00  0.00     0.047 A 
ATOM      7  N   UNL     1      16.902 -51.447 -23.528  1.00  0.00    -0.252 NA
ATOM      8  C   UNL     1      17.267 -50.550 -22.606  1.00  0.00     0.074 A 
ATOM      9  C   UNL     1      18.518 -50.705 -22.028  1.00  0.00     0.049 A 
ATOM     10  C   UNL     1      18.994 -49.803 -21.081  1.00  0.00     0.043 A 
ATOM     11  Cl  UNL     1      20.553 -50.026 -20.390  1.00  0.00    -0.084 Cl
ATOM     12  C   UNL     1      18.220 -48.718 -20.699  1.00  0.00     0.021 A 
ATOM     13  C   UNL     1      16.957 -48.551 -21.267  1.00  0.00     0.014 A 
ATOM     14  C   UNL     1      16.448 -49.468 -22.222  1.00  0.00     0.024 A 
ATOM     15  C   UNL     1      15.159 -49.372 -22.821  1.00  0.00     0.046 A 
ATOM     16  C   UNL     1      14.812 -50.265 -23.855  1.00  0.00     0.001 A 
ATOM     17  C   UNL     1      13.492 -50.160 -24.614  1.00  0.00     0.028 C 
ATOM     18  C   UNL     1      12.336 -50.820 -23.822  1.00  0.00     0.039 C 
ATOM     19  C   UNL     1      13.596 -50.823 -25.993  1.00  0.00     0.017 C 
ENDROOT
BRANCH  15  20
ATOM     20  N   UNL     1      14.319 -48.268 -22.529  1.00  0.00    -0.398 N 
ATOM     21  H   UNL     1      13.880 -48.309 -21.617  1.00  0.00     0.156 HD
ATOM     22  H   UNL     1      14.773 -47.370 -22.660  1.00  0.00     0.156 HD
ENDBRANCH  15  20
TORSDOF 1
ENDMDL
