MODEL 1
REMARK VINA RESULT:   -11.845      0.000      0.000
REMARK INTER + INTRA:         -16.590
REMARK INTER:                 -16.000
REMARK INTRA:                  -0.589
REMARK UNBOUND:                -0.589
REMARK SMILES COc1cc2c(cc1OC)C(=O)/C(=C/c1cc[n+](Cc3ccccc3)cc1)C2
REMARK SMILES IDX 14 1 13 2 3 3 4 4 8 5 5 6 7 7 6 8 28 9 11 10 12 11 2 12 1 13
REMARK SMILES IDX 9 14 10 15 15 16 16 17 27 18 17 19 26 20 18 21 19 22 20 23
REMARK SMILES IDX 21 24 25 25 22 26 24 27 23 28
REMARK H PARENT
ROOT
ATOM      1  C   UNL     1      10.454 -55.955 -22.281  1.00  0.00     0.016 C 
ENDROOT
BRANCH   1   2
ATOM      2  C   UNL     1      10.944 -54.806 -22.769  1.00  0.00     0.005 C 
ATOM      3  C   UNL     1      12.846 -50.862 -24.504  1.00  0.00     0.161 A 
ATOM      4  C   UNL     1      12.687 -52.222 -24.813  1.00  0.00     0.055 A 
ATOM      5  C   UNL     1      12.309 -50.327 -23.298  1.00  0.00     0.161 A 
ATOM      6  C   UNL     1      12.000 -53.031 -23.921  1.00  0.00    -0.028 A 
ATOM      7  C   UNL     1      11.618 -51.153 -22.408  1.00  0.00     0.063 A 
ATOM      8  C   UNL     1      11.482 -52.487 -22.746  1.00  0.00     0.030 A 
ATOM      9  C   UNL     1      11.703 -54.496 -24.035  1.00  0.00     0.076 C 
ATOM     10  C   UNL     1      10.811 -53.540 -21.981  1.00  0.00     0.189 C 
ATOM     11  O   UNL     1      10.257 -53.411 -20.909  1.00  0.00    -0.289 OA
BRANCH   3  12
ATOM     12  O   UNL     1      13.506 -49.964 -25.307  1.00  0.00    -0.493 OA
ATOM     13  C   UNL     1      14.132 -50.451 -26.484  1.00  0.00     0.278 C 
ENDBRANCH   3  12
BRANCH   5  14
ATOM     14  O   UNL     1      12.522 -48.985 -23.096  1.00  0.00    -0.493 OA
ATOM     15  C   UNL     1      11.383 -48.139 -23.015  1.00  0.00     0.278 C 
ENDBRANCH   5  14
ENDBRANCH   1   2
BRANCH   1  16
ATOM     16  C   UNL     1      10.577 -57.266 -22.917  1.00  0.00    -0.013 A 
ATOM     17  C   UNL     1      11.813 -57.801 -23.266  1.00  0.00     0.079 A 
ATOM     18  C   UNL     1       9.422 -57.972 -23.245  1.00  0.00     0.079 A 
ATOM     19  C   UNL     1      11.869 -59.029 -23.918  1.00  0.00     0.309 A 
ATOM     20  C   UNL     1       9.524 -59.196 -23.895  1.00  0.00     0.309 A 
ATOM     21  N   UNL     1      10.735 -59.703 -24.222  1.00  0.00    -0.201 N 
BRANCH  21  22
ATOM     22  C   UNL     1      10.824 -61.013 -24.919  1.00  0.00     0.393 C 
BRANCH  22  23
ATOM     23  C   UNL     1       9.901 -62.026 -24.296  1.00  0.00     0.017 A 
ATOM     24  C   UNL     1       8.740 -62.437 -24.971  1.00  0.00     0.010 A 
ATOM     25  C   UNL     1      10.185 -62.581 -23.038  1.00  0.00     0.010 A 
ATOM     26  C   UNL     1       7.878 -63.369 -24.393  1.00  0.00     0.001 A 
ATOM     27  C   UNL     1       9.318 -63.512 -22.464  1.00  0.00     0.001 A 
ATOM     28  C   UNL     1       8.165 -63.903 -23.140  1.00  0.00     0.000 A 
ENDBRANCH  22  23
ENDBRANCH  21  22
ENDBRANCH   1  16
TORSDOF 6
ENDMDL
MODEL 2
REMARK VINA RESULT:   -10.979      1.097      1.892
REMARK INTER + INTRA:         -15.419
REMARK INTER:                 -14.759
REMARK INTRA:                  -0.659
REMARK UNBOUND:                -0.589
REMARK SMILES COc1cc2c(cc1OC)C(=O)/C(=C/c1cc[n+](Cc3ccccc3)cc1)C2
REMARK SMILES IDX 14 1 13 2 3 3 4 4 8 5 5 6 7 7 6 8 28 9 11 10 12 11 2 12 1 13
REMARK SMILES IDX 9 14 10 15 15 16 16 17 27 18 17 19 26 20 18 21 19 22 20 23
REMARK SMILES IDX 21 24 25 25 22 26 24 27 23 28
REMARK H PARENT
ROOT
ATOM      1  C   UNL     1       9.995 -55.422 -22.441  1.00  0.00     0.016 C 
ENDROOT
BRANCH   1   2
ATOM      2  C   UNL     1      10.705 -54.420 -22.980  1.00  0.00     0.005 C 
ATOM      3  C   UNL     1      13.357 -51.023 -24.881  1.00  0.00     0.161 A 
ATOM      4  C   UNL     1      12.958 -52.350 -25.109  1.00  0.00     0.055 A 
ATOM      5  C   UNL     1      12.891 -50.315 -23.736  1.00  0.00     0.161 A 
ATOM      6  C   UNL     1      12.106 -52.953 -24.197  1.00  0.00    -0.028 A 
ATOM      7  C   UNL     1      12.032 -50.935 -22.826  1.00  0.00     0.063 A 
ATOM      8  C   UNL     1      11.662 -52.243 -23.083  1.00  0.00     0.030 A 
ATOM      9  C   UNL     1      11.546 -54.344 -24.230  1.00  0.00     0.076 C 
ATOM     10  C   UNL     1      10.784 -53.098 -22.282  1.00  0.00     0.189 C 
ATOM     11  O   UNL     1      10.231 -52.794 -21.245  1.00  0.00    -0.289 OA
BRANCH   3  12
ATOM     12  O   UNL     1      14.196 -50.319 -25.710  1.00  0.00    -0.493 OA
ATOM     13  C   UNL     1      15.569 -50.680 -25.737  1.00  0.00     0.278 C 
ENDBRANCH   3  12
BRANCH   5  14
ATOM     14  O   UNL     1      13.343 -49.023 -23.611  1.00  0.00    -0.493 OA
ATOM     15  C   UNL     1      12.432 -47.972 -23.905  1.00  0.00     0.278 C 
ENDBRANCH   5  14
ENDBRANCH   1   2
BRANCH   1  16
ATOM     16  C   UNL     1      10.162 -56.841 -22.755  1.00  0.00    -0.013 A 
ATOM     17  C   UNL     1       9.091 -57.637 -23.149  1.00  0.00     0.079 A 
ATOM     18  C   UNL     1      11.413 -57.430 -22.592  1.00  0.00     0.079 A 
ATOM     19  C   UNL     1       9.295 -58.993 -23.385  1.00  0.00     0.309 A 
ATOM     20  C   UNL     1      11.573 -58.788 -22.839  1.00  0.00     0.309 A 
ATOM     21  N   UNL     1      10.521 -59.546 -23.227  1.00  0.00    -0.201 N 
BRANCH  21  22
ATOM     22  C   UNL     1      10.711 -60.997 -23.485  1.00  0.00     0.393 C 
BRANCH  22  23
ATOM     23  C   UNL     1      10.068 -61.409 -24.783  1.00  0.00     0.017 A 
ATOM     24  C   UNL     1      10.494 -60.841 -25.995  1.00  0.00     0.010 A 
ATOM     25  C   UNL     1       9.042 -62.366 -24.807  1.00  0.00     0.010 A 
ATOM     26  C   UNL     1       9.896 -61.213 -27.199  1.00  0.00     0.001 A 
ATOM     27  C   UNL     1       8.447 -62.734 -26.015  1.00  0.00     0.001 A 
ATOM     28  C   UNL     1       8.871 -62.155 -27.208  1.00  0.00     0.000 A 
ENDBRANCH  22  23
ENDBRANCH  21  22
ENDBRANCH   1  16
TORSDOF 6
ENDMDL
MODEL 3
REMARK VINA RESULT:   -10.862      1.168      2.386
REMARK INTER + INTRA:         -15.261
REMARK INTER:                 -15.082
REMARK INTRA:                  -0.179
REMARK UNBOUND:                -0.589
REMARK SMILES COc1cc2c(cc1OC)C(=O)/C(=C/c1cc[n+](Cc3ccccc3)cc1)C2
REMARK SMILES IDX 14 1 13 2 3 3 4 4 8 5 5 6 7 7 6 8 28 9 11 10 12 11 2 12 1 13
REMARK SMILES IDX 9 14 10 15 15 16 16 17 27 18 17 19 26 20 18 21 19 22 20 23
REMARK SMILES IDX 21 24 25 25 22 26 24 27 23 28
REMARK H PARENT
ROOT
ATOM      1  C   UNL     1       9.739 -55.568 -22.428  1.00  0.00     0.016 C 
ENDROOT
BRANCH   1   2
ATOM      2  C   UNL     1      10.471 -54.458 -22.605  1.00  0.00     0.005 C 
ATOM      3  C   UNL     1      12.872 -50.448 -23.191  1.00  0.00     0.161 A 
ATOM      4  C   UNL     1      12.027 -51.088 -22.269  1.00  0.00     0.055 A 
ATOM      5  C   UNL     1      13.227 -51.090 -24.412  1.00  0.00     0.161 A 
ATOM      6  C   UNL     1      11.547 -52.352 -22.574  1.00  0.00    -0.028 A 
ATOM      7  C   UNL     1      12.736 -52.365 -24.706  1.00  0.00     0.063 A 
ATOM      8  C   UNL     1      11.907 -52.962 -23.774  1.00  0.00     0.030 A 
ATOM      9  C   UNL     1      10.645 -53.225 -21.754  1.00  0.00     0.076 C 
ATOM     10  C   UNL     1      11.270 -54.278 -23.857  1.00  0.00     0.189 C 
ATOM     11  O   UNL     1      11.368 -55.071 -24.772  1.00  0.00    -0.289 OA
BRANCH   3  12
ATOM     12  O   UNL     1      13.410 -49.199 -23.002  1.00  0.00    -0.493 OA
ATOM     13  C   UNL     1      12.806 -48.348 -22.038  1.00  0.00     0.278 C 
ENDBRANCH   3  12
BRANCH   5  14
ATOM     14  O   UNL     1      14.059 -50.375 -25.240  1.00  0.00    -0.493 OA
ATOM     15  C   UNL     1      15.207 -51.036 -25.755  1.00  0.00     0.278 C 
ENDBRANCH   5  14
ENDBRANCH   1   2
BRANCH   1  16
ATOM     16  C   UNL     1      10.184 -56.930 -22.719  1.00  0.00    -0.013 A 
ATOM     17  C   UNL     1       9.414 -57.810 -23.473  1.00  0.00     0.079 A 
ATOM     18  C   UNL     1      11.382 -57.384 -22.172  1.00  0.00     0.079 A 
ATOM     19  C   UNL     1       9.861 -59.112 -23.675  1.00  0.00     0.309 A 
ATOM     20  C   UNL     1      11.791 -58.693 -22.400  1.00  0.00     0.309 A 
ATOM     21  N   UNL     1      11.031 -59.533 -23.140  1.00  0.00    -0.201 N 
BRANCH  21  22
ATOM     22  C   UNL     1      11.484 -60.929 -23.372  1.00  0.00     0.393 C 
BRANCH  22  23
ATOM     23  C   UNL     1      10.314 -61.869 -23.492  1.00  0.00     0.017 A 
ATOM     24  C   UNL     1       9.639 -62.008 -24.715  1.00  0.00     0.010 A 
ATOM     25  C   UNL     1       9.883 -62.626 -22.391  1.00  0.00     0.010 A 
ATOM     26  C   UNL     1       8.549 -62.871 -24.828  1.00  0.00     0.001 A 
ATOM     27  C   UNL     1       8.791 -63.488 -22.509  1.00  0.00     0.001 A 
ATOM     28  C   UNL     1       8.124 -63.607 -23.726  1.00  0.00     0.000 A 
ENDBRANCH  22  23
ENDBRANCH  21  22
ENDBRANCH   1  16
TORSDOF 6
ENDMDL
MODEL 4
REMARK VINA RESULT:   -10.254      3.660     10.178
REMARK INTER + INTRA:         -14.440
REMARK INTER:                 -13.867
REMARK INTRA:                  -0.573
REMARK UNBOUND:                -0.589
REMARK SMILES COc1cc2c(cc1OC)C(=O)/C(=C/c1cc[n+](Cc3ccccc3)cc1)C2
REMARK SMILES IDX 14 1 13 2 3 3 4 4 8 5 5 6 7 7 6 8 28 9 11 10 12 11 2 12 1 13
REMARK SMILES IDX 9 14 10 15 15 16 16 17 27 18 17 19 26 20 18 21 19 22 20 23
REMARK SMILES IDX 21 24 25 25 22 26 24 27 23 28
REMARK H PARENT
ROOT
ATOM      1  C   UNL     1      11.360 -57.488 -22.341  1.00  0.00     0.016 C 
ENDROOT
BRANCH   1   2
ATOM      2  C   UNL     1      10.657 -58.430 -22.986  1.00  0.00     0.005 C 
ATOM      3  C   UNL     1       8.192 -61.853 -25.082  1.00  0.00     0.161 A 
ATOM      4  C   UNL     1       8.177 -61.048 -23.932  1.00  0.00     0.055 A 
ATOM      5  C   UNL     1       9.230 -61.716 -26.048  1.00  0.00     0.161 A 
ATOM      6  C   UNL     1       9.193 -60.122 -23.757  1.00  0.00    -0.028 A 
ATOM      7  C   UNL     1      10.247 -60.777 -25.859  1.00  0.00     0.063 A 
ATOM      8  C   UNL     1      10.200 -60.003 -24.714  1.00  0.00     0.030 A 
ATOM      9  C   UNL     1       9.386 -59.159 -22.623  1.00  0.00     0.076 C 
ATOM     10  C   UNL     1      11.145 -58.966 -24.295  1.00  0.00     0.189 C 
ATOM     11  O   UNL     1      12.140 -58.612 -24.895  1.00  0.00    -0.289 OA
BRANCH   3  12
ATOM     12  O   UNL     1       7.242 -62.804 -25.366  1.00  0.00    -0.493 OA
ATOM     13  C   UNL     1       7.191 -63.964 -24.549  1.00  0.00     0.278 C 
ENDBRANCH   3  12
BRANCH   5  14
ATOM     14  O   UNL     1       9.146 -62.552 -27.135  1.00  0.00    -0.493 OA
ATOM     15  C   UNL     1       9.037 -61.957 -28.421  1.00  0.00     0.278 C 
ENDBRANCH   5  14
ENDBRANCH   1   2
BRANCH   1  16
ATOM     16  C   UNL     1      11.024 -56.066 -22.291  1.00  0.00    -0.013 A 
ATOM     17  C   UNL     1      11.022 -55.352 -21.097  1.00  0.00     0.079 A 
ATOM     18  C   UNL     1      10.630 -55.421 -23.461  1.00  0.00     0.079 A 
ATOM     19  C   UNL     1      10.643 -54.013 -21.099  1.00  0.00     0.309 A 
ATOM     20  C   UNL     1      10.260 -54.081 -23.417  1.00  0.00     0.309 A 
ATOM     21  N   UNL     1      10.268 -53.402 -22.247  1.00  0.00    -0.201 N 
BRANCH  21  22
ATOM     22  C   UNL     1       9.868 -51.971 -22.220  1.00  0.00     0.393 C 
BRANCH  22  23
ATOM     23  C   UNL     1      11.017 -51.076 -22.601  1.00  0.00     0.017 A 
ATOM     24  C   UNL     1      10.884 -49.680 -22.521  1.00  0.00     0.010 A 
ATOM     25  C   UNL     1      12.238 -51.616 -23.035  1.00  0.00     0.010 A 
ATOM     26  C   UNL     1      11.943 -48.847 -22.882  1.00  0.00     0.001 A 
ATOM     27  C   UNL     1      13.293 -50.778 -23.396  1.00  0.00     0.001 A 
ATOM     28  C   UNL     1      13.144 -49.395 -23.322  1.00  0.00     0.000 A 
ENDBRANCH  22  23
ENDBRANCH  21  22
ENDBRANCH   1  16
TORSDOF 6
ENDMDL
MODEL 5
REMARK VINA RESULT:   -10.133      3.549      9.842
REMARK INTER + INTRA:         -14.277
REMARK INTER:                 -13.500
REMARK INTRA:                  -0.777
REMARK UNBOUND:                -0.589
REMARK SMILES COc1cc2c(cc1OC)C(=O)/C(=C/c1cc[n+](Cc3ccccc3)cc1)C2
REMARK SMILES IDX 14 1 13 2 3 3 4 4 8 5 5 6 7 7 6 8 28 9 11 10 12 11 2 12 1 13
REMARK SMILES IDX 9 14 10 15 15 16 16 17 27 18 17 19 26 20 18 21 19 22 20 23
REMARK SMILES IDX 21 24 25 25 22 26 24 27 23 28
REMARK H PARENT
ROOT
ATOM      1  C   UNL     1       9.937 -55.468 -22.307  1.00  0.00     0.016 C 
ENDROOT
BRANCH   1   2
ATOM      2  C   UNL     1       9.691 -56.711 -22.748  1.00  0.00     0.005 C 
ATOM      3  C   UNL     1       8.642 -61.061 -24.218  1.00  0.00     0.161 A 
ATOM      4  C   UNL     1       8.162 -59.743 -24.284  1.00  0.00     0.055 A 
ATOM      5  C   UNL     1       9.842 -61.358 -23.509  1.00  0.00     0.161 A 
ATOM      6  C   UNL     1       8.878 -58.742 -23.645  1.00  0.00    -0.028 A 
ATOM      7  C   UNL     1      10.553 -60.340 -22.871  1.00  0.00     0.063 A 
ATOM      8  C   UNL     1      10.049 -59.055 -22.957  1.00  0.00     0.030 A 
ATOM      9  C   UNL     1       8.568 -57.277 -23.581  1.00  0.00     0.076 C 
ATOM     10  C   UNL     1      10.607 -57.833 -22.374  1.00  0.00     0.189 C 
ATOM     11  O   UNL     1      11.619 -57.749 -21.708  1.00  0.00    -0.289 OA
BRANCH   3  12
ATOM     12  O   UNL     1       8.023 -62.135 -24.809  1.00  0.00    -0.493 OA
ATOM     13  C   UNL     1       6.827 -62.625 -24.221  1.00  0.00     0.278 C 
ENDBRANCH   3  12
BRANCH   5  14
ATOM     14  O   UNL     1      10.220 -62.680 -23.509  1.00  0.00    -0.493 OA
ATOM     15  C   UNL     1       9.830 -63.479 -22.400  1.00  0.00     0.278 C 
ENDBRANCH   5  14
ENDBRANCH   1   2
BRANCH   1  16
ATOM     16  C   UNL     1      10.744 -54.467 -23.002  1.00  0.00    -0.013 A 
ATOM     17  C   UNL     1      11.410 -54.754 -24.189  1.00  0.00     0.079 A 
ATOM     18  C   UNL     1      10.906 -53.208 -22.428  1.00  0.00     0.079 A 
ATOM     19  C   UNL     1      12.208 -53.780 -24.781  1.00  0.00     0.309 A 
ATOM     20  C   UNL     1      11.712 -52.264 -23.054  1.00  0.00     0.309 A 
ATOM     21  N   UNL     1      12.348 -52.560 -24.211  1.00  0.00    -0.201 N 
BRANCH  21  22
ATOM     22  C   UNL     1      13.207 -51.539 -24.865  1.00  0.00     0.393 C 
BRANCH  22  23
ATOM     23  C   UNL     1      14.647 -51.691 -24.451  1.00  0.00     0.017 A 
ATOM     24  C   UNL     1      15.533 -52.446 -25.237  1.00  0.00     0.010 A 
ATOM     25  C   UNL     1      15.129 -51.080 -23.283  1.00  0.00     0.010 A 
ATOM     26  C   UNL     1      16.866 -52.597 -24.853  1.00  0.00     0.001 A 
ATOM     27  C   UNL     1      16.463 -51.235 -22.904  1.00  0.00     0.001 A 
ATOM     28  C   UNL     1      17.329 -51.995 -23.686  1.00  0.00     0.000 A 
ENDBRANCH  22  23
ENDBRANCH  21  22
ENDBRANCH   1  16
TORSDOF 6
ENDMDL
MODEL 6
REMARK VINA RESULT:    -9.828      3.460      9.810
REMARK INTER + INTRA:         -13.864
REMARK INTER:                 -13.514
REMARK INTRA:                  -0.350
REMARK UNBOUND:                -0.589
REMARK SMILES COc1cc2c(cc1OC)C(=O)/C(=C/c1cc[n+](Cc3ccccc3)cc1)C2
REMARK SMILES IDX 14 1 13 2 3 3 4 4 8 5 5 6 7 7 6 8 28 9 11 10 12 11 2 12 1 13
REMARK SMILES IDX 9 14 10 15 15 16 16 17 27 18 17 19 26 20 18 21 19 22 20 23
REMARK SMILES IDX 21 24 25 25 22 26 24 27 23 28
REMARK H PARENT
ROOT
ATOM      1  C   UNL     1      10.551 -55.315 -22.134  1.00  0.00     0.016 C 
ENDROOT
BRANCH   1   2
ATOM      2  C   UNL     1      10.452 -56.638 -22.331  1.00  0.00     0.005 C 
ATOM      3  C   UNL     1      10.300 -61.287 -23.077  1.00  0.00     0.161 A 
ATOM      4  C   UNL     1      11.031 -60.321 -22.367  1.00  0.00     0.055 A 
ATOM      5  C   UNL     1       9.198 -60.903 -23.894  1.00  0.00     0.161 A 
ATOM      6  C   UNL     1      10.658 -58.990 -22.480  1.00  0.00    -0.028 A 
ATOM      7  C   UNL     1       8.833 -59.559 -23.999  1.00  0.00     0.063 A 
ATOM      8  C   UNL     1       9.577 -58.636 -23.285  1.00  0.00     0.030 A 
ATOM      9  C   UNL     1      11.277 -57.794 -21.821  1.00  0.00     0.076 C 
ATOM     10  C   UNL     1       9.393 -57.184 -23.238  1.00  0.00     0.189 C 
ATOM     11  O   UNL     1       8.546 -56.544 -23.826  1.00  0.00    -0.289 OA
BRANCH   3  12
ATOM     12  O   UNL     1      10.572 -62.633 -23.045  1.00  0.00    -0.493 OA
ATOM     13  C   UNL     1       9.733 -63.467 -22.261  1.00  0.00     0.278 C 
ENDBRANCH   3  12
BRANCH   5  14
ATOM     14  O   UNL     1       8.554 -61.929 -24.544  1.00  0.00    -0.493 OA
ATOM     15  C   UNL     1       8.756 -62.054 -25.945  1.00  0.00     0.278 C 
ENDBRANCH   5  14
ENDBRANCH   1   2
BRANCH   1  16
ATOM     16  C   UNL     1      11.221 -54.374 -23.031  1.00  0.00    -0.013 A 
ATOM     17  C   UNL     1      11.703 -54.762 -24.277  1.00  0.00     0.079 A 
ATOM     18  C   UNL     1      11.442 -53.068 -22.601  1.00  0.00     0.079 A 
ATOM     19  C   UNL     1      12.380 -53.838 -25.068  1.00  0.00     0.309 A 
ATOM     20  C   UNL     1      12.122 -52.178 -23.424  1.00  0.00     0.309 A 
ATOM     21  N   UNL     1      12.580 -52.571 -24.635  1.00  0.00    -0.201 N 
BRANCH  21  22
ATOM     22  C   UNL     1      13.306 -51.606 -25.500  1.00  0.00     0.393 C 
BRANCH  22  23
ATOM     23  C   UNL     1      14.793 -51.688 -25.280  1.00  0.00     0.017 A 
ATOM     24  C   UNL     1      15.521 -50.542 -24.921  1.00  0.00     0.010 A 
ATOM     25  C   UNL     1      15.476 -52.907 -25.422  1.00  0.00     0.010 A 
ATOM     26  C   UNL     1      16.900 -50.611 -24.725  1.00  0.00     0.001 A 
ATOM     27  C   UNL     1      16.856 -52.971 -25.225  1.00  0.00     0.001 A 
ATOM     28  C   UNL     1      17.567 -51.824 -24.880  1.00  0.00     0.000 A 
ENDBRANCH  22  23
ENDBRANCH  21  22
ENDBRANCH   1  16
TORSDOF 6
ENDMDL
MODEL 7
REMARK VINA RESULT:    -9.680      1.907      3.119
REMARK INTER + INTRA:         -13.664
REMARK INTER:                 -13.808
REMARK INTRA:                   0.144
REMARK UNBOUND:                -0.589
REMARK SMILES COc1cc2c(cc1OC)C(=O)/C(=C/c1cc[n+](Cc3ccccc3)cc1)C2
REMARK SMILES IDX 14 1 13 2 3 3 4 4 8 5 5 6 7 7 6 8 28 9 11 10 12 11 2 12 1 13
REMARK SMILES IDX 9 14 10 15 15 16 16 17 27 18 17 19 26 20 18 21 19 22 20 23
REMARK SMILES IDX 21 24 25 25 22 26 24 27 23 28
REMARK H PARENT
ROOT
ATOM      1  C   UNL     1      10.654 -53.206 -21.715  1.00  0.00     0.016 C 
ENDROOT
BRANCH   1   2
ATOM      2  C   UNL     1      11.086 -52.030 -22.194  1.00  0.00     0.005 C 
ATOM      3  C   UNL     1      12.771 -47.920 -23.758  1.00  0.00     0.161 A 
ATOM      4  C   UNL     1      13.142 -49.267 -23.619  1.00  0.00     0.055 A 
ATOM      5  C   UNL     1      11.484 -47.477 -23.338  1.00  0.00     0.161 A 
ATOM      6  C   UNL     1      12.231 -50.152 -23.064  1.00  0.00    -0.028 A 
ATOM      7  C   UNL     1      10.576 -48.381 -22.781  1.00  0.00     0.063 A 
ATOM      8  C   UNL     1      10.977 -49.698 -22.659  1.00  0.00     0.030 A 
ATOM      9  C   UNL     1      12.397 -51.623 -22.820  1.00  0.00     0.076 C 
ATOM     10  C   UNL     1      10.212 -50.819 -22.108  1.00  0.00     0.189 C 
ATOM     11  O   UNL     1       9.085 -50.772 -21.660  1.00  0.00    -0.289 OA
BRANCH   3  12
ATOM     12  O   UNL     1      13.585 -46.950 -24.293  1.00  0.00    -0.493 OA
ATOM     13  C   UNL     1      13.954 -47.064 -25.659  1.00  0.00     0.278 C 
ENDBRANCH   3  12
BRANCH   5  14
ATOM     14  O   UNL     1      11.226 -46.139 -23.521  1.00  0.00    -0.493 OA
ATOM     15  C   UNL     1      10.362 -45.499 -22.592  1.00  0.00     0.278 C 
ENDBRANCH   5  14
ENDBRANCH   1   2
BRANCH   1  16
ATOM     16  C   UNL     1      10.939 -54.515 -22.301  1.00  0.00    -0.013 A 
ATOM     17  C   UNL     1      10.977 -55.674 -21.530  1.00  0.00     0.079 A 
ATOM     18  C   UNL     1      11.248 -54.599 -23.656  1.00  0.00     0.079 A 
ATOM     19  C   UNL     1      11.306 -56.885 -22.130  1.00  0.00     0.309 A 
ATOM     20  C   UNL     1      11.569 -55.831 -24.214  1.00  0.00     0.309 A 
ATOM     21  N   UNL     1      11.596 -56.948 -23.450  1.00  0.00    -0.201 N 
BRANCH  21  22
ATOM     22  C   UNL     1      11.944 -58.255 -24.064  1.00  0.00     0.393 C 
BRANCH  22  23
ATOM     23  C   UNL     1      11.087 -59.363 -23.511  1.00  0.00     0.017 A 
ATOM     24  C   UNL     1       9.833 -59.074 -22.949  1.00  0.00     0.010 A 
ATOM     25  C   UNL     1      11.520 -60.698 -23.552  1.00  0.00     0.010 A 
ATOM     26  C   UNL     1       9.039 -60.096 -22.427  1.00  0.00     0.001 A 
ATOM     27  C   UNL     1      10.723 -61.716 -23.028  1.00  0.00     0.001 A 
ATOM     28  C   UNL     1       9.486 -61.415 -22.464  1.00  0.00     0.000 A 
ENDBRANCH  22  23
ENDBRANCH  21  22
ENDBRANCH   1  16
TORSDOF 6
ENDMDL
MODEL 8
REMARK VINA RESULT:    -9.677      2.033      3.399
REMARK INTER + INTRA:         -13.660
REMARK INTER:                 -13.469
REMARK INTRA:                  -0.191
REMARK UNBOUND:                -0.589
REMARK SMILES COc1cc2c(cc1OC)C(=O)/C(=C/c1cc[n+](Cc3ccccc3)cc1)C2
REMARK SMILES IDX 14 1 13 2 3 3 4 4 8 5 5 6 7 7 6 8 28 9 11 10 12 11 2 12 1 13
REMARK SMILES IDX 9 14 10 15 15 16 16 17 27 18 17 19 26 20 18 21 19 22 20 23
REMARK SMILES IDX 21 24 25 25 22 26 24 27 23 28
REMARK H PARENT
ROOT
ATOM      1  C   UNL     1       9.938 -54.853 -22.048  1.00  0.00     0.016 C 
ENDROOT
BRANCH   1   2
ATOM      2  C   UNL     1      10.693 -53.803 -22.406  1.00  0.00     0.005 C 
ATOM      3  C   UNL     1      13.183 -49.994 -23.619  1.00  0.00     0.161 A 
ATOM      4  C   UNL     1      12.418 -50.502 -22.557  1.00  0.00     0.055 A 
ATOM      5  C   UNL     1      13.374 -50.760 -24.805  1.00  0.00     0.161 A 
ATOM      6  C   UNL     1      11.854 -51.762 -22.688  1.00  0.00    -0.028 A 
ATOM      7  C   UNL     1      12.800 -52.028 -24.923  1.00  0.00     0.063 A 
ATOM      8  C   UNL     1      12.053 -52.495 -23.857  1.00  0.00     0.030 A 
ATOM      9  C   UNL     1      11.011 -52.509 -21.699  1.00  0.00     0.076 C 
ATOM     10  C   UNL     1      11.356 -53.779 -23.747  1.00  0.00     0.189 C 
ATOM     11  O   UNL     1      11.319 -54.654 -24.587  1.00  0.00    -0.289 OA
BRANCH   3  12
ATOM     12  O   UNL     1      13.791 -48.762 -23.607  1.00  0.00    -0.493 OA
ATOM     13  C   UNL     1      14.614 -48.432 -22.499  1.00  0.00     0.278 C 
ENDBRANCH   3  12
BRANCH   5  14
ATOM     14  O   UNL     1      14.139 -50.167 -25.780  1.00  0.00    -0.493 OA
ATOM     15  C   UNL     1      15.502 -50.556 -25.879  1.00  0.00     0.278 C 
ENDBRANCH   5  14
ENDBRANCH   1   2
BRANCH   1  16
ATOM     16  C   UNL     1      10.149 -56.233 -22.482  1.00  0.00    -0.013 A 
ATOM     17  C   UNL     1      11.371 -56.878 -22.317  1.00  0.00     0.079 A 
ATOM     18  C   UNL     1       9.119 -56.903 -23.139  1.00  0.00     0.079 A 
ATOM     19  C   UNL     1      11.533 -58.174 -22.796  1.00  0.00     0.309 A 
ATOM     20  C   UNL     1       9.324 -58.198 -23.601  1.00  0.00     0.309 A 
ATOM     21  N   UNL     1      10.518 -58.810 -23.427  1.00  0.00    -0.201 N 
BRANCH  21  22
ATOM     22  C   UNL     1      10.718 -60.195 -23.929  1.00  0.00     0.393 C 
BRANCH  22  23
ATOM     23  C   UNL     1      11.332 -60.192 -25.304  1.00  0.00     0.017 A 
ATOM     24  C   UNL     1      12.715 -60.378 -25.462  1.00  0.00     0.010 A 
ATOM     25  C   UNL     1      10.538 -60.013 -26.447  1.00  0.00     0.010 A 
ATOM     26  C   UNL     1      13.290 -60.368 -26.733  1.00  0.00     0.001 A 
ATOM     27  C   UNL     1      11.118 -60.003 -27.717  1.00  0.00     0.001 A 
ATOM     28  C   UNL     1      12.492 -60.177 -27.858  1.00  0.00     0.000 A 
ENDBRANCH  22  23
ENDBRANCH  21  22
ENDBRANCH   1  16
TORSDOF 6
ENDMDL
MODEL 9
REMARK VINA RESULT:    -9.676      3.696     10.050
REMARK INTER + INTRA:         -13.659
REMARK INTER:                 -13.211
REMARK INTRA:                  -0.448
REMARK UNBOUND:                -0.589
REMARK SMILES COc1cc2c(cc1OC)C(=O)/C(=C/c1cc[n+](Cc3ccccc3)cc1)C2
REMARK SMILES IDX 14 1 13 2 3 3 4 4 8 5 5 6 7 7 6 8 28 9 11 10 12 11 2 12 1 13
REMARK SMILES IDX 9 14 10 15 15 16 16 17 27 18 17 19 26 20 18 21 19 22 20 23
REMARK SMILES IDX 21 24 25 25 22 26 24 27 23 28
REMARK H PARENT
ROOT
ATOM      1  C   UNL     1      11.611 -57.704 -22.291  1.00  0.00     0.016 C 
ENDROOT
BRANCH   1   2
ATOM      2  C   UNL     1      11.103 -58.679 -23.060  1.00  0.00     0.005 C 
ATOM      3  C   UNL     1       9.248 -61.958 -25.886  1.00  0.00     0.161 A 
ATOM      4  C   UNL     1      10.107 -60.848 -25.923  1.00  0.00     0.055 A 
ATOM      5  C   UNL     1       8.651 -62.370 -24.660  1.00  0.00     0.161 A 
ATOM      6  C   UNL     1      10.360 -60.165 -24.743  1.00  0.00    -0.028 A 
ATOM      7  C   UNL     1       8.915 -61.673 -23.479  1.00  0.00     0.063 A 
ATOM      8  C   UNL     1       9.766 -60.585 -23.554  1.00  0.00     0.030 A 
ATOM      9  C   UNL     1      11.237 -58.967 -24.535  1.00  0.00     0.076 C 
ATOM     10  C   UNL     1      10.187 -59.702 -22.465  1.00  0.00     0.189 C 
ATOM     11  O   UNL     1       9.852 -59.782 -21.301  1.00  0.00    -0.289 OA
BRANCH   3  12
ATOM     12  O   UNL     1       8.922 -62.714 -26.986  1.00  0.00    -0.493 OA
ATOM     13  C   UNL     1       8.928 -62.083 -28.258  1.00  0.00     0.278 C 
ENDBRANCH   3  12
BRANCH   5  14
ATOM     14  O   UNL     1       7.828 -63.468 -24.739  1.00  0.00    -0.493 OA
ATOM     15  C   UNL     1       7.581 -64.197 -23.545  1.00  0.00     0.278 C 
ENDBRANCH   5  14
ENDBRANCH   1   2
BRANCH   1  16
ATOM     16  C   UNL     1      11.156 -56.315 -22.275  1.00  0.00    -0.013 A 
ATOM     17  C   UNL     1      11.082 -55.579 -21.096  1.00  0.00     0.079 A 
ATOM     18  C   UNL     1      10.721 -55.730 -23.461  1.00  0.00     0.079 A 
ATOM     19  C   UNL     1      10.591 -54.277 -21.130  1.00  0.00     0.309 A 
ATOM     20  C   UNL     1      10.239 -54.425 -23.450  1.00  0.00     0.309 A 
ATOM     21  N   UNL     1      10.179 -53.724 -22.295  1.00  0.00    -0.201 N 
BRANCH  21  22
ATOM     22  C   UNL     1       9.659 -52.332 -22.302  1.00  0.00     0.393 C 
BRANCH  22  23
ATOM     23  C   UNL     1      10.755 -51.341 -22.592  1.00  0.00     0.017 A 
ATOM     24  C   UNL     1      10.533 -49.966 -22.414  1.00  0.00     0.010 A 
ATOM     25  C   UNL     1      12.015 -51.772 -23.037  1.00  0.00     0.010 A 
ATOM     26  C   UNL     1      11.544 -49.045 -22.690  1.00  0.00     0.001 A 
ATOM     27  C   UNL     1      13.022 -50.846 -23.313  1.00  0.00     0.001 A 
ATOM     28  C   UNL     1      12.785 -49.484 -23.142  1.00  0.00     0.000 A 
ENDBRANCH  22  23
ENDBRANCH  21  22
ENDBRANCH   1  16
TORSDOF 6
ENDMDL
