MODEL 1
REMARK VINA RESULT:   -12.215      0.000      0.000
REMARK INTER + INTRA:         -17.215
REMARK INTER:                 -16.499
REMARK INTRA:                  -0.716
REMARK UNBOUND:                -0.716
REMARK SMILES O=C(CC[C@H]1CC[N@@H+](Cc2ccccc2)CC1)c1cc2c3c(c1)CCN3C(=O)CC2
REMARK SMILES IDX 4 1 5 2 7 3 8 4 6 5 16 6 17 7 9 9 10 10 11 11 15 12 12 13
REMARK SMILES IDX 14 14 13 15 3 16 2 17 1 18 18 19 19 20 23 21 20 22 22 23
REMARK SMILES IDX 21 24 30 25 24 26 26 27 29 28 25 29 27 30 28 31
REMARK H PARENT 8 8
ROOT
ATOM      1  C   UNL     1      11.367 -56.512 -23.091  1.00  0.00     0.012 C 
ENDROOT
BRANCH   1   2
ATOM      2  C   UNL     1      10.598 -57.471 -22.150  1.00  0.00     0.000 C 
ATOM      3  C   UNL     1       9.682 -59.125 -23.874  1.00  0.00     0.262 C 
ATOM      4  N   UNL     1      10.506 -60.212 -23.236  1.00  0.00    -0.331 N 
ATOM      5  C   UNL     1       9.355 -58.050 -22.845  1.00  0.00     0.065 C 
ATOM      6  C   UNL     1      11.784 -59.681 -22.627  1.00  0.00     0.262 C 
ATOM      7  C   UNL     1      11.446 -58.622 -21.588  1.00  0.00     0.065 C 
ATOM      8  H   UNL     1       9.956 -60.608 -22.463  1.00  0.00     0.348 HD
BRANCH   4   9
ATOM      9  C   UNL     1      10.750 -61.357 -24.198  1.00  0.00     0.299 C 
BRANCH   9  10
ATOM     10  C   UNL     1       9.553 -62.254 -24.364  1.00  0.00     0.006 A 
ATOM     11  C   UNL     1       8.852 -62.288 -25.580  1.00  0.00     0.009 A 
ATOM     12  C   UNL     1       9.109 -63.055 -23.300  1.00  0.00     0.009 A 
ATOM     13  C   UNL     1       7.727 -63.101 -25.723  1.00  0.00     0.001 A 
ATOM     14  C   UNL     1       7.983 -63.865 -23.449  1.00  0.00     0.001 A 
ATOM     15  C   UNL     1       7.292 -63.886 -24.658  1.00  0.00     0.000 A 
ENDBRANCH   9  10
ENDBRANCH   4   9
ENDBRANCH   1   2
BRANCH   1  16
ATOM     16  C   UNL     1      10.640 -55.217 -23.465  1.00  0.00     0.081 C 
BRANCH  16  17
ATOM     17  C   UNL     1      10.976 -54.062 -22.541  1.00  0.00     0.162 C 
ATOM     18  O   UNL     1      10.767 -54.170 -21.333  1.00  0.00    -0.294 OA
BRANCH  17  19
ATOM     19  C   UNL     1      11.532 -52.786 -23.088  1.00  0.00     0.018 A 
ATOM     20  C   UNL     1      12.307 -52.869 -24.274  1.00  0.00     0.017 A 
ATOM     21  C   UNL     1      11.307 -51.541 -22.466  1.00  0.00     0.017 A 
ATOM     22  C   UNL     1      12.872 -51.725 -24.835  1.00  0.00    -0.023 A 
ATOM     23  C   UNL     1      11.858 -50.410 -23.045  1.00  0.00    -0.021 A 
ATOM     24  C   UNL     1      12.629 -50.535 -24.188  1.00  0.00     0.050 A 
ATOM     25  C   UNL     1      13.606 -51.673 -26.140  1.00  0.00     0.047 C 
ATOM     26  C   UNL     1      11.788 -48.969 -22.630  1.00  0.00     0.059 C 
ATOM     27  N   UNL     1      13.092 -49.309 -24.624  1.00  0.00    -0.312 N 
ATOM     28  C   UNL     1      14.534 -50.454 -26.227  1.00  0.00     0.105 C 
ATOM     29  C   UNL     1      12.505 -48.252 -23.802  1.00  0.00     0.130 C 
ATOM     30  C   UNL     1      13.927 -49.156 -25.700  1.00  0.00     0.227 C 
ATOM     31  O   UNL     1      14.252 -48.059 -26.146  1.00  0.00    -0.275 OA
ENDBRANCH  17  19
ENDBRANCH  16  17
ENDBRANCH   1  16
TORSDOF 6
ENDMDL
MODEL 2
REMARK VINA RESULT:   -12.141      0.405      1.881
REMARK INTER + INTRA:         -17.115
REMARK INTER:                 -16.358
REMARK INTRA:                  -0.757
REMARK UNBOUND:                -0.716
REMARK SMILES O=C(CC[C@H]1CC[N@@H+](Cc2ccccc2)CC1)c1cc2c3c(c1)CCN3C(=O)CC2
REMARK SMILES IDX 4 1 5 2 7 3 8 4 6 5 16 6 17 7 9 9 10 10 11 11 15 12 12 13
REMARK SMILES IDX 14 14 13 15 3 16 2 17 1 18 18 19 19 20 23 21 20 22 22 23
REMARK SMILES IDX 21 24 30 25 24 26 26 27 29 28 25 29 27 30 28 31
REMARK H PARENT 8 8
ROOT
ATOM      1  C   UNL     1      11.396 -56.506 -23.208  1.00  0.00     0.012 C 
ENDROOT
BRANCH   1   2
ATOM      2  C   UNL     1      10.781 -57.521 -22.214  1.00  0.00     0.000 C 
ATOM      3  C   UNL     1       9.694 -59.142 -23.868  1.00  0.00     0.262 C 
ATOM      4  N   UNL     1      10.622 -60.224 -23.384  1.00  0.00    -0.331 N 
ATOM      5  C   UNL     1       9.474 -58.114 -22.766  1.00  0.00     0.065 C 
ATOM      6  C   UNL     1      11.954 -59.675 -22.924  1.00  0.00     0.262 C 
ATOM      7  C   UNL     1      11.725 -58.664 -21.810  1.00  0.00     0.065 C 
ATOM      8  H   UNL     1      10.188 -60.664 -22.563  1.00  0.00     0.348 HD
BRANCH   4   9
ATOM      9  C   UNL     1      10.770 -61.327 -24.413  1.00  0.00     0.299 C 
BRANCH   9  10
ATOM     10  C   UNL     1       9.576 -62.241 -24.475  1.00  0.00     0.006 A 
ATOM     11  C   UNL     1       8.810 -62.332 -25.647  1.00  0.00     0.009 A 
ATOM     12  C   UNL     1       9.201 -63.000 -23.356  1.00  0.00     0.009 A 
ATOM     13  C   UNL     1       7.687 -63.161 -25.694  1.00  0.00     0.001 A 
ATOM     14  C   UNL     1       8.078 -63.827 -23.408  1.00  0.00     0.001 A 
ATOM     15  C   UNL     1       7.321 -63.905 -24.575  1.00  0.00     0.000 A 
ENDBRANCH   9  10
ENDBRANCH   4   9
ENDBRANCH   1   2
BRANCH   1  16
ATOM     16  C   UNL     1      10.582 -55.233 -23.453  1.00  0.00     0.081 C 
BRANCH  16  17
ATOM     17  C   UNL     1      11.054 -54.059 -22.616  1.00  0.00     0.162 C 
ATOM     18  O   UNL     1      10.932 -54.097 -21.392  1.00  0.00    -0.294 OA
BRANCH  17  19
ATOM     19  C   UNL     1      11.639 -52.847 -23.267  1.00  0.00     0.018 A 
ATOM     20  C   UNL     1      11.369 -51.590 -22.665  1.00  0.00     0.017 A 
ATOM     21  C   UNL     1      12.429 -52.926 -24.432  1.00  0.00     0.017 A 
ATOM     22  C   UNL     1      11.867 -50.413 -23.223  1.00  0.00    -0.023 A 
ATOM     23  C   UNL     1      12.933 -51.751 -24.965  1.00  0.00    -0.021 A 
ATOM     24  C   UNL     1      12.626 -50.543 -24.363  1.00  0.00     0.050 A 
ATOM     25  C   UNL     1      11.746 -49.049 -22.616  1.00  0.00     0.047 C 
ATOM     26  C   UNL     1      13.798 -51.518 -26.169  1.00  0.00     0.059 C 
ATOM     27  N   UNL     1      13.213 -49.483 -25.026  1.00  0.00    -0.312 N 
ATOM     28  C   UNL     1      11.901 -47.938 -23.664  1.00  0.00     0.105 C 
ATOM     29  C   UNL     1      14.083 -49.997 -26.083  1.00  0.00     0.130 C 
ATOM     30  C   UNL     1      13.022 -48.172 -24.673  1.00  0.00     0.227 C 
ATOM     31  O   UNL     1      13.627 -47.242 -25.199  1.00  0.00    -0.275 OA
ENDBRANCH  17  19
ENDBRANCH  16  17
ENDBRANCH   1  16
TORSDOF 6
ENDMDL
MODEL 3
REMARK VINA RESULT:   -11.755      1.651      2.989
REMARK INTER + INTRA:         -16.594
REMARK INTER:                 -16.213
REMARK INTRA:                  -0.381
REMARK UNBOUND:                -0.716
REMARK SMILES O=C(CC[C@H]1CC[N@@H+](Cc2ccccc2)CC1)c1cc2c3c(c1)CCN3C(=O)CC2
REMARK SMILES IDX 4 1 5 2 7 3 8 4 6 5 16 6 17 7 9 9 10 10 11 11 15 12 12 13
REMARK SMILES IDX 14 14 13 15 3 16 2 17 1 18 18 19 19 20 23 21 20 22 22 23
REMARK SMILES IDX 21 24 30 25 24 26 26 27 29 28 25 29 27 30 28 31
REMARK H PARENT 8 8
ROOT
ATOM      1  C   UNL     1      11.052 -58.234 -21.607  1.00  0.00     0.012 C 
ENDROOT
BRANCH   1   2
ATOM      2  C   UNL     1      11.118 -59.750 -21.914  1.00  0.00     0.000 C 
ATOM      3  C   UNL     1       9.099 -59.964 -23.472  1.00  0.00     0.262 C 
ATOM      4  N   UNL     1      10.030 -60.363 -24.586  1.00  0.00    -0.331 N 
ATOM      5  C   UNL     1       9.711 -60.334 -22.127  1.00  0.00     0.065 C 
ATOM      6  C   UNL     1      11.393 -59.725 -24.452  1.00  0.00     0.262 C 
ATOM      7  C   UNL     1      12.004 -60.116 -23.114  1.00  0.00     0.065 C 
ATOM      8  H   UNL     1      10.175 -61.379 -24.523  1.00  0.00     0.348 HD
BRANCH   4   9
ATOM      9  C   UNL     1       9.402 -60.119 -25.944  1.00  0.00     0.299 C 
BRANCH   9  10
ATOM     10  C   UNL     1       8.985 -61.387 -26.639  1.00  0.00     0.006 A 
ATOM     11  C   UNL     1       9.398 -61.646 -27.955  1.00  0.00     0.009 A 
ATOM     12  C   UNL     1       8.162 -62.320 -25.988  1.00  0.00     0.009 A 
ATOM     13  C   UNL     1       8.989 -62.810 -28.608  1.00  0.00     0.001 A 
ATOM     14  C   UNL     1       7.756 -63.481 -26.645  1.00  0.00     0.001 A 
ATOM     15  C   UNL     1       8.167 -63.725 -27.953  1.00  0.00     0.000 A 
ENDBRANCH   9  10
ENDBRANCH   4   9
ENDBRANCH   1   2
BRANCH   1  16
ATOM     16  C   UNL     1      11.647 -57.309 -22.672  1.00  0.00     0.081 C 
BRANCH  16  17
ATOM     17  C   UNL     1      10.689 -56.217 -23.108  1.00  0.00     0.162 C 
ATOM     18  O   UNL     1       9.497 -56.482 -23.267  1.00  0.00    -0.294 OA
BRANCH  17  19
ATOM     19  C   UNL     1      11.184 -54.831 -23.374  1.00  0.00     0.018 A 
ATOM     20  C   UNL     1      10.831 -53.824 -22.438  1.00  0.00     0.017 A 
ATOM     21  C   UNL     1      11.970 -54.517 -24.500  1.00  0.00     0.017 A 
ATOM     22  C   UNL     1      11.241 -52.504 -22.625  1.00  0.00    -0.023 A 
ATOM     23  C   UNL     1      12.387 -53.206 -24.664  1.00  0.00    -0.021 A 
ATOM     24  C   UNL     1      12.001 -52.247 -23.743  1.00  0.00     0.050 A 
ATOM     25  C   UNL     1      11.030 -51.386 -21.652  1.00  0.00     0.047 C 
ATOM     26  C   UNL     1      13.226 -52.576 -25.738  1.00  0.00     0.059 C 
ATOM     27  N   UNL     1      12.508 -51.003 -24.064  1.00  0.00    -0.312 N 
ATOM     28  C   UNL     1      11.100 -50.012 -22.332  1.00  0.00     0.105 C 
ATOM     29  C   UNL     1      13.405 -51.130 -25.212  1.00  0.00     0.130 C 
ATOM     30  C   UNL     1      12.229 -49.867 -23.350  1.00  0.00     0.227 C 
ATOM     31  O   UNL     1      12.764 -48.785 -23.577  1.00  0.00    -0.275 OA
ENDBRANCH  17  19
ENDBRANCH  16  17
ENDBRANCH   1  16
TORSDOF 6
ENDMDL
MODEL 4
REMARK VINA RESULT:   -11.519      2.751     11.182
REMARK INTER + INTRA:         -16.275
REMARK INTER:                 -15.491
REMARK INTRA:                  -0.784
REMARK UNBOUND:                -0.716
REMARK SMILES O=C(CC[C@H]1CC[N@@H+](Cc2ccccc2)CC1)c1cc2c3c(c1)CCN3C(=O)CC2
REMARK SMILES IDX 4 1 5 2 7 3 8 4 6 5 16 6 17 7 9 9 10 10 11 11 15 12 12 13
REMARK SMILES IDX 14 14 13 15 3 16 2 17 1 18 18 19 19 20 23 21 20 22 22 23
REMARK SMILES IDX 21 24 30 25 24 26 26 27 29 28 25 29 27 30 28 31
REMARK H PARENT 8 8
ROOT
ATOM      1  C   UNL     1      10.767 -55.211 -21.963  1.00  0.00     0.012 C 
ENDROOT
BRANCH   1   2
ATOM      2  C   UNL     1      10.189 -54.272 -23.050  1.00  0.00     0.000 C 
ATOM      3  C   UNL     1      10.474 -52.019 -21.871  1.00  0.00     0.262 C 
ATOM      4  N   UNL     1      11.438 -51.602 -22.951  1.00  0.00    -0.331 N 
ATOM      5  C   UNL     1       9.498 -53.052 -22.418  1.00  0.00     0.065 C 
ATOM      6  C   UNL     1      12.201 -52.773 -23.523  1.00  0.00     0.262 C 
ATOM      7  C   UNL     1      11.218 -53.791 -24.084  1.00  0.00     0.065 C 
ATOM      8  H   UNL     1      10.888 -51.205 -23.723  1.00  0.00     0.348 HD
BRANCH   4   9
ATOM      9  C   UNL     1      12.349 -50.487 -22.477  1.00  0.00     0.299 C 
BRANCH   9  10
ATOM     10  C   UNL     1      12.103 -49.182 -23.185  1.00  0.00     0.006 A 
ATOM     11  C   UNL     1      12.902 -48.804 -24.276  1.00  0.00     0.009 A 
ATOM     12  C   UNL     1      11.086 -48.316 -22.754  1.00  0.00     0.009 A 
ATOM     13  C   UNL     1      12.691 -47.581 -24.915  1.00  0.00     0.001 A 
ATOM     14  C   UNL     1      10.879 -47.096 -23.397  1.00  0.00     0.001 A 
ATOM     15  C   UNL     1      11.682 -46.728 -24.474  1.00  0.00     0.000 A 
ENDBRANCH   9  10
ENDBRANCH   4   9
ENDBRANCH   1   2
BRANCH   1  16
ATOM     16  C   UNL     1      11.500 -56.454 -22.474  1.00  0.00     0.081 C 
BRANCH  16  17
ATOM     17  C   UNL     1      11.259 -57.679 -21.613  1.00  0.00     0.162 C 
ATOM     18  O   UNL     1      11.750 -57.735 -20.486  1.00  0.00    -0.294 OA
BRANCH  17  19
ATOM     19  C   UNL     1      10.454 -58.828 -22.132  1.00  0.00     0.018 A 
ATOM     20  C   UNL     1       9.153 -58.542 -22.622  1.00  0.00     0.017 A 
ATOM     21  C   UNL     1      10.949 -60.147 -22.142  1.00  0.00     0.017 A 
ATOM     22  C   UNL     1       8.336 -59.563 -23.107  1.00  0.00    -0.023 A 
ATOM     23  C   UNL     1      10.135 -61.149 -22.645  1.00  0.00    -0.021 A 
ATOM     24  C   UNL     1       8.862 -60.835 -23.090  1.00  0.00     0.050 A 
ATOM     25  C   UNL     1       6.999 -59.369 -23.752  1.00  0.00     0.047 C 
ATOM     26  C   UNL     1      10.380 -62.623 -22.794  1.00  0.00     0.059 C 
ATOM     27  N   UNL     1       8.198 -61.953 -23.556  1.00  0.00    -0.312 N 
ATOM     28  C   UNL     1       6.143 -60.641 -23.692  1.00  0.00     0.105 C 
ATOM     29  C   UNL     1       9.111 -63.095 -23.548  1.00  0.00     0.130 C 
ATOM     30  C   UNL     1       6.901 -61.930 -23.999  1.00  0.00     0.227 C 
ATOM     31  O   UNL     1       6.350 -62.902 -24.508  1.00  0.00    -0.275 OA
ENDBRANCH  17  19
ENDBRANCH  16  17
ENDBRANCH   1  16
TORSDOF 6
ENDMDL
MODEL 5
REMARK VINA RESULT:   -11.293      2.826     11.226
REMARK INTER + INTRA:         -15.970
REMARK INTER:                 -15.220
REMARK INTRA:                  -0.750
REMARK UNBOUND:                -0.716
REMARK SMILES O=C(CC[C@H]1CC[N@@H+](Cc2ccccc2)CC1)c1cc2c3c(c1)CCN3C(=O)CC2
REMARK SMILES IDX 4 1 5 2 7 3 8 4 6 5 16 6 17 7 9 9 10 10 11 11 15 12 12 13
REMARK SMILES IDX 14 14 13 15 3 16 2 17 1 18 18 19 19 20 23 21 20 22 22 23
REMARK SMILES IDX 21 24 30 25 24 26 26 27 29 28 25 29 27 30 28 31
REMARK H PARENT 8 8
ROOT
ATOM      1  C   UNL     1      11.165 -56.226 -22.319  1.00  0.00     0.012 C 
ENDROOT
BRANCH   1   2
ATOM      2  C   UNL     1      10.259 -55.163 -22.988  1.00  0.00     0.000 C 
ATOM      3  C   UNL     1      11.009 -53.083 -21.700  1.00  0.00     0.262 C 
ATOM      4  N   UNL     1      11.529 -52.501 -22.988  1.00  0.00    -0.331 N 
ATOM      5  C   UNL     1       9.874 -54.056 -21.992  1.00  0.00     0.065 C 
ATOM      6  C   UNL     1      12.004 -53.567 -23.950  1.00  0.00     0.262 C 
ATOM      7  C   UNL     1      10.858 -54.523 -24.249  1.00  0.00     0.065 C 
ATOM      8  H   UNL     1      10.748 -52.017 -23.450  1.00  0.00     0.348 HD
BRANCH   4   9
ATOM      9  C   UNL     1      12.578 -51.438 -22.730  1.00  0.00     0.299 C 
BRANCH   9  10
ATOM     10  C   UNL     1      12.152 -50.066 -23.176  1.00  0.00     0.006 A 
ATOM     11  C   UNL     1      12.891 -49.372 -24.147  1.00  0.00     0.009 A 
ATOM     12  C   UNL     1      11.021 -49.453 -22.615  1.00  0.00     0.009 A 
ATOM     13  C   UNL     1      12.510 -48.088 -24.540  1.00  0.00     0.001 A 
ATOM     14  C   UNL     1      10.644 -48.170 -23.012  1.00  0.00     0.001 A 
ATOM     15  C   UNL     1      11.388 -47.488 -23.971  1.00  0.00     0.000 A 
ENDBRANCH   9  10
ENDBRANCH   4   9
ENDBRANCH   1   2
BRANCH   1  16
ATOM     16  C   UNL     1      10.658 -57.669 -22.379  1.00  0.00     0.081 C 
BRANCH  16  17
ATOM     17  C   UNL     1      11.264 -58.461 -23.522  1.00  0.00     0.162 C 
ATOM     18  O   UNL     1      12.395 -58.184 -23.921  1.00  0.00    -0.294 OA
BRANCH  17  19
ATOM     19  C   UNL     1      10.489 -59.554 -24.186  1.00  0.00     0.018 A 
ATOM     20  C   UNL     1       9.581 -60.289 -23.380  1.00  0.00     0.017 A 
ATOM     21  C   UNL     1      10.639 -59.858 -25.553  1.00  0.00     0.017 A 
ATOM     22  C   UNL     1       8.834 -61.335 -23.923  1.00  0.00    -0.023 A 
ATOM     23  C   UNL     1       9.877 -60.886 -26.085  1.00  0.00    -0.021 A 
ATOM     24  C   UNL     1       9.021 -61.596 -25.261  1.00  0.00     0.050 A 
ATOM     25  C   UNL     1       7.766 -62.100 -23.204  1.00  0.00     0.047 C 
ATOM     26  C   UNL     1       9.809 -61.428 -27.483  1.00  0.00     0.059 C 
ATOM     27  N   UNL     1       8.344 -62.578 -25.959  1.00  0.00    -0.312 N 
ATOM     28  C   UNL     1       7.515 -63.473 -23.843  1.00  0.00     0.105 C 
ATOM     29  C   UNL     1       8.659 -62.461 -27.382  1.00  0.00     0.130 C 
ATOM     30  C   UNL     1       7.479 -63.463 -25.370  1.00  0.00     0.227 C 
ATOM     31  O   UNL     1       6.802 -64.264 -26.009  1.00  0.00    -0.275 OA
ENDBRANCH  17  19
ENDBRANCH  16  17
ENDBRANCH   1  16
TORSDOF 6
ENDMDL
MODEL 6
REMARK VINA RESULT:   -11.075      2.708     10.707
REMARK INTER + INTRA:         -15.675
REMARK INTER:                 -15.015
REMARK INTRA:                  -0.660
REMARK UNBOUND:                -0.716
REMARK SMILES O=C(CC[C@H]1CC[N@@H+](Cc2ccccc2)CC1)c1cc2c3c(c1)CCN3C(=O)CC2
REMARK SMILES IDX 4 1 5 2 7 3 8 4 6 5 16 6 17 7 9 9 10 10 11 11 15 12 12 13
REMARK SMILES IDX 14 14 13 15 3 16 2 17 1 18 18 19 19 20 23 21 20 22 22 23
REMARK SMILES IDX 21 24 30 25 24 26 26 27 29 28 25 29 27 30 28 31
REMARK H PARENT 8 8
ROOT
ATOM      1  C   UNL     1      10.468 -55.293 -21.864  1.00  0.00     0.012 C 
ENDROOT
BRANCH   1   2
ATOM      2  C   UNL     1       9.920 -54.341 -22.955  1.00  0.00     0.000 C 
ATOM      3  C   UNL     1      10.685 -52.096 -21.992  1.00  0.00     0.262 C 
ATOM      4  N   UNL     1      11.569 -51.907 -23.195  1.00  0.00    -0.331 N 
ATOM      5  C   UNL     1       9.504 -52.989 -22.351  1.00  0.00     0.065 C 
ATOM      6  C   UNL     1      12.071 -53.220 -23.752  1.00  0.00     0.262 C 
ATOM      7  C   UNL     1      10.885 -54.096 -24.125  1.00  0.00     0.065 C 
ATOM      8  H   UNL     1      11.002 -51.473 -23.935  1.00  0.00     0.348 HD
BRANCH   4   9
ATOM      9  C   UNL     1      12.690 -50.928 -22.908  1.00  0.00     0.299 C 
BRANCH   9  10
ATOM     10  C   UNL     1      13.722 -50.874 -24.001  1.00  0.00     0.006 A 
ATOM     11  C   UNL     1      15.050 -51.253 -23.746  1.00  0.00     0.009 A 
ATOM     12  C   UNL     1      13.378 -50.426 -25.286  1.00  0.00     0.009 A 
ATOM     13  C   UNL     1      16.012 -51.178 -24.755  1.00  0.00     0.001 A 
ATOM     14  C   UNL     1      14.344 -50.353 -26.290  1.00  0.00     0.001 A 
ATOM     15  C   UNL     1      15.659 -50.726 -26.024  1.00  0.00     0.000 A 
ENDBRANCH   9  10
ENDBRANCH   4   9
ENDBRANCH   1   2
BRANCH   1  16
ATOM     16  C   UNL     1      11.395 -56.409 -22.354  1.00  0.00     0.081 C 
BRANCH  16  17
ATOM     17  C   UNL     1      11.254 -57.689 -21.554  1.00  0.00     0.162 C 
ATOM     18  O   UNL     1      11.814 -57.788 -20.462  1.00  0.00    -0.294 OA
BRANCH  17  19
ATOM     19  C   UNL     1      10.466 -58.841 -22.092  1.00  0.00     0.018 A 
ATOM     20  C   UNL     1       9.172 -58.560 -22.604  1.00  0.00     0.017 A 
ATOM     21  C   UNL     1      10.968 -60.157 -22.099  1.00  0.00     0.017 A 
ATOM     22  C   UNL     1       8.370 -59.584 -23.108  1.00  0.00    -0.023 A 
ATOM     23  C   UNL     1      10.169 -61.162 -22.620  1.00  0.00    -0.021 A 
ATOM     24  C   UNL     1       8.903 -60.853 -23.087  1.00  0.00     0.050 A 
ATOM     25  C   UNL     1       7.043 -59.395 -23.777  1.00  0.00     0.047 C 
ATOM     26  C   UNL     1      10.426 -62.633 -22.772  1.00  0.00     0.059 C 
ATOM     27  N   UNL     1       8.253 -61.973 -23.570  1.00  0.00    -0.312 N 
ATOM     28  C   UNL     1       6.194 -60.672 -23.737  1.00  0.00     0.105 C 
ATOM     29  C   UNL     1       9.173 -63.109 -23.550  1.00  0.00     0.130 C 
ATOM     30  C   UNL     1       6.965 -61.955 -24.036  1.00  0.00     0.227 C 
ATOM     31  O   UNL     1       6.429 -62.929 -24.559  1.00  0.00    -0.275 OA
ENDBRANCH  17  19
ENDBRANCH  16  17
ENDBRANCH   1  16
TORSDOF 6
ENDMDL
MODEL 7
REMARK VINA RESULT:   -10.760      2.436     11.541
REMARK INTER + INTRA:         -15.249
REMARK INTER:                 -14.679
REMARK INTRA:                  -0.570
REMARK UNBOUND:                -0.716
REMARK SMILES O=C(CC[C@H]1CC[N@@H+](Cc2ccccc2)CC1)c1cc2c3c(c1)CCN3C(=O)CC2
REMARK SMILES IDX 4 1 5 2 7 3 8 4 6 5 16 6 17 7 9 9 10 10 11 11 15 12 12 13
REMARK SMILES IDX 14 14 13 15 3 16 2 17 1 18 18 19 19 20 23 21 20 22 22 23
REMARK SMILES IDX 21 24 30 25 24 26 26 27 29 28 25 29 27 30 28 31
REMARK H PARENT 8 8
ROOT
ATOM      1  C   UNL     1      11.263 -52.691 -23.494  1.00  0.00     0.012 C 
ENDROOT
BRANCH   1   2
ATOM      2  C   UNL     1      12.312 -51.911 -22.664  1.00  0.00     0.000 C 
ATOM      3  C   UNL     1      13.202 -50.331 -24.470  1.00  0.00     0.262 C 
ATOM      4  N   UNL     1      12.670 -49.165 -23.679  1.00  0.00    -0.331 N 
ATOM      5  C   UNL     1      13.509 -51.494 -23.536  1.00  0.00     0.065 C 
ATOM      6  C   UNL     1      11.434 -49.523 -22.887  1.00  0.00     0.262 C 
ATOM      7  C   UNL     1      11.756 -50.674 -21.943  1.00  0.00     0.065 C 
ATOM      8  H   UNL     1      13.389 -48.898 -22.995  1.00  0.00     0.348 HD
BRANCH   4   9
ATOM      9  C   UNL     1      12.466 -47.948 -24.560  1.00  0.00     0.299 C 
BRANCH   9  10
ATOM     10  C   UNL     1      12.057 -46.722 -23.788  1.00  0.00     0.006 A 
ATOM     11  C   UNL     1      12.887 -46.205 -22.781  1.00  0.00     0.009 A 
ATOM     12  C   UNL     1      10.831 -46.090 -24.050  1.00  0.00     0.009 A 
ATOM     13  C   UNL     1      12.494 -45.084 -22.049  1.00  0.00     0.001 A 
ATOM     14  C   UNL     1      10.444 -44.970 -23.315  1.00  0.00     0.001 A 
ATOM     15  C   UNL     1      11.273 -44.469 -22.314  1.00  0.00     0.000 A 
ENDBRANCH   9  10
ENDBRANCH   4   9
ENDBRANCH   1   2
BRANCH   1  16
ATOM     16  C   UNL     1      11.485 -54.203 -23.599  1.00  0.00     0.081 C 
BRANCH  16  17
ATOM     17  C   UNL     1      10.858 -54.973 -22.453  1.00  0.00     0.162 C 
ATOM     18  O   UNL     1      10.739 -54.435 -21.352  1.00  0.00    -0.294 OA
BRANCH  17  19
ATOM     19  C   UNL     1      10.410 -56.388 -22.641  1.00  0.00     0.018 A 
ATOM     20  C   UNL     1       9.090 -56.594 -23.121  1.00  0.00     0.017 A 
ATOM     21  C   UNL     1      11.248 -57.485 -22.359  1.00  0.00     0.017 A 
ATOM     22  C   UNL     1       8.595 -57.884 -23.307  1.00  0.00    -0.023 A 
ATOM     23  C   UNL     1      10.750 -58.761 -22.566  1.00  0.00    -0.021 A 
ATOM     24  C   UNL     1       9.450 -58.922 -23.011  1.00  0.00     0.050 A 
ATOM     25  C   UNL     1       7.269 -58.223 -23.914  1.00  0.00     0.047 C 
ATOM     26  C   UNL     1      11.394 -60.103 -22.370  1.00  0.00     0.059 C 
ATOM     27  N   UNL     1       9.127 -60.257 -23.163  1.00  0.00    -0.312 N 
ATOM     28  C   UNL     1       6.793 -59.625 -23.509  1.00  0.00     0.105 C 
ATOM     29  C   UNL     1      10.318 -61.070 -22.926  1.00  0.00     0.130 C 
ATOM     30  C   UNL     1       7.882 -60.695 -23.535  1.00  0.00     0.227 C 
ATOM     31  O   UNL     1       7.630 -61.874 -23.768  1.00  0.00    -0.275 OA
ENDBRANCH  17  19
ENDBRANCH  16  17
ENDBRANCH   1  16
TORSDOF 6
ENDMDL
MODEL 8
REMARK VINA RESULT:   -10.741      2.397     11.472
REMARK INTER + INTRA:         -15.224
REMARK INTER:                 -14.552
REMARK INTRA:                  -0.672
REMARK UNBOUND:                -0.716
REMARK SMILES O=C(CC[C@H]1CC[N@@H+](Cc2ccccc2)CC1)c1cc2c3c(c1)CCN3C(=O)CC2
REMARK SMILES IDX 4 1 5 2 7 3 8 4 6 5 16 6 17 7 9 9 10 10 11 11 15 12 12 13
REMARK SMILES IDX 14 14 13 15 3 16 2 17 1 18 18 19 19 20 23 21 20 22 22 23
REMARK SMILES IDX 21 24 30 25 24 26 26 27 29 28 25 29 27 30 28 31
REMARK H PARENT 8 8
ROOT
ATOM      1  C   UNL     1      11.092 -52.616 -23.207  1.00  0.00     0.012 C 
ENDROOT
BRANCH   1   2
ATOM      2  C   UNL     1      12.125 -51.815 -22.378  1.00  0.00     0.000 C 
ATOM      3  C   UNL     1      13.093 -50.324 -24.218  1.00  0.00     0.262 C 
ATOM      4  N   UNL     1      12.555 -49.119 -23.493  1.00  0.00    -0.331 N 
ATOM      5  C   UNL     1      13.355 -51.452 -23.228  1.00  0.00     0.065 C 
ATOM      6  C   UNL     1      11.290 -49.428 -22.726  1.00  0.00     0.262 C 
ATOM      7  C   UNL     1      11.566 -50.542 -21.726  1.00  0.00     0.065 C 
ATOM      8  H   UNL     1      13.257 -48.833 -22.799  1.00  0.00     0.348 HD
BRANCH   4   9
ATOM      9  C   UNL     1      12.396 -47.937 -24.429  1.00  0.00     0.299 C 
BRANCH   9  10
ATOM     10  C   UNL     1      12.038 -46.662 -23.715  1.00  0.00     0.006 A 
ATOM     11  C   UNL     1      12.898 -46.124 -22.745  1.00  0.00     0.009 A 
ATOM     12  C   UNL     1      10.830 -46.003 -23.994  1.00  0.00     0.009 A 
ATOM     13  C   UNL     1      12.552 -44.955 -22.065  1.00  0.00     0.001 A 
ATOM     14  C   UNL     1      10.489 -44.836 -23.311  1.00  0.00     0.001 A 
ATOM     15  C   UNL     1      11.348 -44.314 -22.347  1.00  0.00     0.000 A 
ENDBRANCH   9  10
ENDBRANCH   4   9
ENDBRANCH   1   2
BRANCH   1  16
ATOM     16  C   UNL     1      11.342 -54.123 -23.311  1.00  0.00     0.081 C 
BRANCH  16  17
ATOM     17  C   UNL     1      10.362 -54.943 -22.493  1.00  0.00     0.162 C 
ATOM     18  O   UNL     1       9.772 -54.419 -21.548  1.00  0.00    -0.294 OA
BRANCH  17  19
ATOM     19  C   UNL     1      10.130 -56.386 -22.806  1.00  0.00     0.018 A 
ATOM     20  C   UNL     1      11.258 -57.248 -22.776  1.00  0.00     0.017 A 
ATOM     21  C   UNL     1       8.852 -56.891 -23.120  1.00  0.00     0.017 A 
ATOM     22  C   UNL     1      11.124 -58.604 -23.073  1.00  0.00    -0.023 A 
ATOM     23  C   UNL     1       8.730 -58.244 -23.394  1.00  0.00    -0.021 A 
ATOM     24  C   UNL     1       9.857 -59.047 -23.379  1.00  0.00     0.050 A 
ATOM     25  C   UNL     1      12.213 -59.626 -22.961  1.00  0.00     0.047 C 
ATOM     26  C   UNL     1       7.523 -59.063 -23.745  1.00  0.00     0.059 C 
ATOM     27  N   UNL     1       9.548 -60.361 -23.672  1.00  0.00    -0.312 N 
ATOM     28  C   UNL     1      11.933 -60.861 -23.828  1.00  0.00     0.105 C 
ATOM     29  C   UNL     1       8.096 -60.502 -23.775  1.00  0.00     0.130 C 
ATOM     30  C   UNL     1      10.488 -61.352 -23.782  1.00  0.00     0.227 C 
ATOM     31  O   UNL     1      10.199 -62.535 -23.938  1.00  0.00    -0.275 OA
ENDBRANCH  17  19
ENDBRANCH  16  17
ENDBRANCH   1  16
TORSDOF 6
ENDMDL
MODEL 9
REMARK VINA RESULT:   -10.140      2.499      4.335
REMARK INTER + INTRA:         -14.413
REMARK INTER:                 -13.968
REMARK INTRA:                  -0.445
REMARK UNBOUND:                -0.716
REMARK SMILES O=C(CC[C@H]1CC[N@@H+](Cc2ccccc2)CC1)c1cc2c3c(c1)CCN3C(=O)CC2
REMARK SMILES IDX 4 1 5 2 7 3 8 4 6 5 16 6 17 7 9 9 10 10 11 11 15 12 12 13
REMARK SMILES IDX 14 14 13 15 3 16 2 17 1 18 18 19 19 20 23 21 20 22 22 23
REMARK SMILES IDX 21 24 30 25 24 26 26 27 29 28 25 29 27 30 28 31
REMARK H PARENT 8 8
ROOT
ATOM      1  C   UNL     1      11.783 -53.089 -23.274  1.00  0.00     0.012 C 
ENDROOT
BRANCH   1   2
ATOM      2  C   UNL     1      10.463 -53.874 -23.078  1.00  0.00     0.000 C 
ATOM      3  C   UNL     1      11.350 -56.266 -23.272  1.00  0.00     0.262 C 
ATOM      4  N   UNL     1      10.942 -56.509 -21.843  1.00  0.00    -0.331 N 
ATOM      5  C   UNL     1      10.472 -55.183 -23.885  1.00  0.00     0.065 C 
ATOM      6  C   UNL     1      11.017 -55.254 -21.003  1.00  0.00     0.262 C 
ATOM      7  C   UNL     1      10.122 -54.185 -21.613  1.00  0.00     0.065 C 
ATOM      8  H   UNL     1       9.957 -56.802 -21.845  1.00  0.00     0.348 HD
BRANCH   4   9
ATOM      9  C   UNL     1      11.715 -57.663 -21.236  1.00  0.00     0.299 C 
BRANCH   9  10
ATOM     10  C   UNL     1      11.352 -58.996 -21.834  1.00  0.00     0.006 A 
ATOM     11  C   UNL     1      12.046 -59.487 -22.951  1.00  0.00     0.009 A 
ATOM     12  C   UNL     1      10.303 -59.757 -21.296  1.00  0.00     0.009 A 
ATOM     13  C   UNL     1      11.690 -60.711 -23.521  1.00  0.00     0.001 A 
ATOM     14  C   UNL     1       9.952 -60.980 -21.869  1.00  0.00     0.001 A 
ATOM     15  C   UNL     1      10.643 -61.454 -22.981  1.00  0.00     0.000 A 
ENDBRANCH   9  10
ENDBRANCH   4   9
ENDBRANCH   1   2
BRANCH   1  16
ATOM     16  C   UNL     1      11.753 -51.615 -22.859  1.00  0.00     0.081 C 
BRANCH  16  17
ATOM     17  C   UNL     1      12.593 -50.730 -23.760  1.00  0.00     0.162 C 
ATOM     18  O   UNL     1      13.496 -51.229 -24.431  1.00  0.00    -0.294 OA
BRANCH  17  19
ATOM     19  C   UNL     1      12.353 -49.255 -23.817  1.00  0.00     0.018 A 
ATOM     20  C   UNL     1      13.121 -48.507 -24.747  1.00  0.00     0.017 A 
ATOM     21  C   UNL     1      11.409 -48.615 -22.990  1.00  0.00     0.017 A 
ATOM     22  C   UNL     1      12.965 -47.124 -24.847  1.00  0.00    -0.023 A 
ATOM     23  C   UNL     1      11.250 -47.244 -23.113  1.00  0.00    -0.021 A 
ATOM     24  C   UNL     1      12.036 -46.546 -24.014  1.00  0.00     0.050 A 
ATOM     25  C   UNL     1      13.631 -46.250 -25.865  1.00  0.00     0.047 C 
ATOM     26  C   UNL     1      10.335 -46.299 -22.392  1.00  0.00     0.059 C 
ATOM     27  N   UNL     1      11.741 -45.196 -24.003  1.00  0.00    -0.312 N 
ATOM     28  C   UNL     1      13.694 -44.786 -25.411  1.00  0.00     0.105 C 
ATOM     29  C   UNL     1      10.594 -44.961 -23.128  1.00  0.00     0.130 C 
ATOM     30  C   UNL     1      12.414 -44.271 -24.758  1.00  0.00     0.227 C 
ATOM     31  O   UNL     1      12.081 -43.090 -24.823  1.00  0.00    -0.275 OA
ENDBRANCH  17  19
ENDBRANCH  16  17
ENDBRANCH   1  16
TORSDOF 6
ENDMDL
