MODEL 1
REMARK VINA RESULT:    -9.809      0.000      0.000
REMARK INTER + INTRA:         -10.096
REMARK INTER:                 -10.096
REMARK INTRA:                   0.000
REMARK UNBOUND:                 0.000
REMARK SMILES CC1=C[C@@H]2Cc3nc4cc(Cl)ccc4c(N)c3[C@H](C1)C2
REMARK SMILES IDX 15 1 17 2 6 3 7 4 8 5 9 6 10 7 11 8 12 9 13 10 14 11 5 12
REMARK SMILES IDX 4 13 3 14 2 15 1 16 19 17 18 18 20 19 16 20
REMARK H PARENT 16 21 16 22
ROOT
ATOM      1  C   UNL     1      11.935 -56.549 -24.399  1.00  0.00     0.046 A 
ATOM      2  C   UNL     1      11.753 -57.713 -23.630  1.00  0.00     0.001 A 
ATOM      3  C   UNL     1      11.216 -57.572 -22.346  1.00  0.00     0.047 A 
ATOM      4  N   UNL     1      10.930 -56.368 -21.797  1.00  0.00    -0.252 NA
ATOM      5  C   UNL     1      11.159 -55.257 -22.506  1.00  0.00     0.074 A 
ATOM      6  C   UNL     1      10.879 -54.042 -21.902  1.00  0.00     0.049 A 
ATOM      7  C   UNL     1      11.111 -52.836 -22.557  1.00  0.00     0.043 A 
ATOM      8  Cl  UNL     1      10.753 -51.349 -21.771  1.00  0.00    -0.084 Cl
ATOM      9  C   UNL     1      11.635 -52.827 -23.840  1.00  0.00     0.021 A 
ATOM     10  C   UNL     1      11.922 -54.040 -24.467  1.00  0.00     0.014 A 
ATOM     11  C   UNL     1      11.683 -55.277 -23.818  1.00  0.00     0.024 A 
ATOM     12  C   UNL     1      10.968 -58.763 -21.447  1.00  0.00     0.064 C 
ATOM     13  C   UNL     1      11.060 -60.115 -22.170  1.00  0.00     0.018 C 
ATOM     14  C   UNL     1       9.804 -60.386 -22.972  1.00  0.00    -0.024 C 
ATOM     15  C   UNL     1       9.721 -60.169 -24.297  1.00  0.00    -0.076 C 
ATOM     16  C   UNL     1       8.477 -60.460 -25.082  1.00  0.00     0.039 C 
ATOM     17  C   UNL     1      10.887 -59.599 -25.083  1.00  0.00     0.039 C 
ATOM     18  C   UNL     1      12.053 -59.097 -24.198  1.00  0.00     0.028 C 
ATOM     19  C   UNL     1      12.298 -60.106 -23.070  1.00  0.00     0.017 C 
ENDROOT
BRANCH   1  20
ATOM     20  N   UNL     1      12.567 -56.671 -25.664  1.00  0.00    -0.398 N 
ATOM     21  H   UNL     1      12.475 -55.835 -26.233  1.00  0.00     0.156 HD
ATOM     22  H   UNL     1      13.553 -56.896 -25.541  1.00  0.00     0.156 HD
ENDBRANCH   1  20
TORSDOF 1
ENDMDL
MODEL 2
REMARK VINA RESULT:    -9.230      2.058      3.130
REMARK INTER + INTRA:          -9.499
REMARK INTER:                  -9.499
REMARK INTRA:                   0.000
REMARK UNBOUND:                 0.000
REMARK SMILES CC1=C[C@@H]2Cc3nc4cc(Cl)ccc4c(N)c3[C@H](C1)C2
REMARK SMILES IDX 15 1 17 2 6 3 7 4 8 5 9 6 10 7 11 8 12 9 13 10 14 11 5 12
REMARK SMILES IDX 4 13 3 14 2 15 1 16 19 17 18 18 20 19 16 20
REMARK H PARENT 16 21 16 22
ROOT
ATOM      1  C   UNL     1      11.018 -59.128 -23.435  1.00  0.00     0.046 A 
ATOM      2  C   UNL     1       9.982 -60.074 -23.332  1.00  0.00     0.001 A 
ATOM      3  C   UNL     1       8.676 -59.597 -23.174  1.00  0.00     0.047 A 
ATOM      4  N   UNL     1       8.381 -58.281 -23.052  1.00  0.00    -0.252 NA
ATOM      5  C   UNL     1       9.374 -57.386 -23.090  1.00  0.00     0.074 A 
ATOM      6  C   UNL     1       9.038 -56.050 -22.937  1.00  0.00     0.049 A 
ATOM      7  C   UNL     1      10.010 -55.054 -22.938  1.00  0.00     0.043 A 
ATOM      8  Cl  UNL     1       9.552 -53.408 -22.741  1.00  0.00    -0.084 Cl
ATOM      9  C   UNL     1      11.348 -55.382 -23.094  1.00  0.00     0.021 A 
ATOM     10  C   UNL     1      11.707 -56.721 -23.253  1.00  0.00     0.014 A 
ATOM     11  C   UNL     1      10.729 -57.747 -23.262  1.00  0.00     0.024 A 
ATOM     12  C   UNL     1       7.491 -60.532 -23.067  1.00  0.00     0.064 C 
ATOM     13  C   UNL     1       7.810 -61.985 -23.455  1.00  0.00     0.018 C 
ATOM     14  C   UNL     1       7.872 -62.141 -24.960  1.00  0.00    -0.024 C 
ATOM     15  C   UNL     1       9.029 -62.156 -25.647  1.00  0.00    -0.076 C 
ATOM     16  C   UNL     1       9.077 -62.330 -27.136  1.00  0.00     0.039 C 
ATOM     17  C   UNL     1      10.367 -61.981 -24.953  1.00  0.00     0.039 C 
ATOM     18  C   UNL     1      10.252 -61.569 -23.466  1.00  0.00     0.028 C 
ATOM     19  C   UNL     1       9.136 -62.385 -22.803  1.00  0.00     0.017 C 
ENDROOT
BRANCH   1  20
ATOM     20  N   UNL     1      12.354 -59.600 -23.499  1.00  0.00    -0.398 N 
ATOM     21  H   UNL     1      12.850 -59.507 -22.618  1.00  0.00     0.156 HD
ATOM     22  H   UNL     1      12.367 -60.573 -23.799  1.00  0.00     0.156 HD
ENDBRANCH   1  20
TORSDOF 1
ENDMDL
MODEL 3
REMARK VINA RESULT:    -8.925      4.234      7.291
REMARK INTER + INTRA:          -9.186
REMARK INTER:                  -9.186
REMARK INTRA:                   0.000
REMARK UNBOUND:                 0.000
REMARK SMILES CC1=C[C@@H]2Cc3nc4cc(Cl)ccc4c(N)c3[C@H](C1)C2
REMARK SMILES IDX 15 1 17 2 6 3 7 4 8 5 9 6 10 7 11 8 12 9 13 10 14 11 5 12
REMARK SMILES IDX 4 13 3 14 2 15 1 16 19 17 18 18 20 19 16 20
REMARK H PARENT 16 21 16 22
ROOT
ATOM      1  C   UNL     1       9.281 -61.602 -23.875  1.00  0.00     0.046 A 
ATOM      2  C   UNL     1      10.383 -60.728 -23.901  1.00  0.00     0.001 A 
ATOM      3  C   UNL     1      10.920 -60.390 -25.148  1.00  0.00     0.047 A 
ATOM      4  N   UNL     1      10.468 -60.916 -26.311  1.00  0.00    -0.252 NA
ATOM      5  C   UNL     1       9.459 -61.793 -26.281  1.00  0.00     0.074 A 
ATOM      6  C   UNL     1       9.040 -62.330 -27.488  1.00  0.00     0.049 A 
ATOM      7  C   UNL     1       8.014 -63.268 -27.546  1.00  0.00     0.043 A 
ATOM      8  Cl  UNL     1       7.525 -63.913 -29.064  1.00  0.00    -0.084 Cl
ATOM      9  C   UNL     1       7.384 -63.689 -26.385  1.00  0.00     0.021 A 
ATOM     10  C   UNL     1       7.789 -63.159 -25.160  1.00  0.00     0.014 A 
ATOM     11  C   UNL     1       8.827 -62.197 -25.083  1.00  0.00     0.024 A 
ATOM     12  C   UNL     1      12.096 -59.448 -25.284  1.00  0.00     0.064 C 
ATOM     13  C   UNL     1      12.426 -58.679 -23.996  1.00  0.00     0.018 C 
ATOM     14  C   UNL     1      11.458 -57.533 -23.787  1.00  0.00    -0.024 C 
ATOM     15  C   UNL     1      10.400 -57.611 -22.959  1.00  0.00    -0.076 C 
ATOM     16  C   UNL     1       9.460 -56.462 -22.748  1.00  0.00     0.039 C 
ATOM     17  C   UNL     1      10.082 -58.881 -22.194  1.00  0.00     0.039 C 
ATOM     18  C   UNL     1      10.933 -60.101 -22.624  1.00  0.00     0.028 C 
ATOM     19  C   UNL     1      12.387 -59.656 -22.818  1.00  0.00     0.017 C 
ENDROOT
BRANCH   1  20
ATOM     20  N   UNL     1       8.789 -62.025 -22.614  1.00  0.00    -0.398 N 
ATOM     21  H   UNL     1       8.888 -61.317 -21.892  1.00  0.00     0.156 HD
ATOM     22  H   UNL     1       7.811 -62.299 -22.694  1.00  0.00     0.156 HD
ENDBRANCH   1  20
TORSDOF 1
ENDMDL
MODEL 4
REMARK VINA RESULT:    -8.783      3.965      8.258
REMARK INTER + INTRA:          -9.040
REMARK INTER:                  -9.040
REMARK INTRA:                   0.000
REMARK UNBOUND:                 0.000
REMARK SMILES CC1=C[C@@H]2Cc3nc4cc(Cl)ccc4c(N)c3[C@H](C1)C2
REMARK SMILES IDX 15 1 17 2 6 3 7 4 8 5 9 6 10 7 11 8 12 9 13 10 14 11 5 12
REMARK SMILES IDX 4 13 3 14 2 15 1 16 19 17 18 18 20 19 16 20
REMARK H PARENT 16 21 16 22
ROOT
ATOM      1  C   UNL     1      11.931 -51.373 -22.049  1.00  0.00     0.046 A 
ATOM      2  C   UNL     1      12.819 -50.821 -22.990  1.00  0.00     0.001 A 
ATOM      3  C   UNL     1      12.966 -51.479 -24.216  1.00  0.00     0.047 A 
ATOM      4  N   UNL     1      12.344 -52.648 -24.503  1.00  0.00    -0.252 NA
ATOM      5  C   UNL     1      11.546 -53.203 -23.584  1.00  0.00     0.074 A 
ATOM      6  C   UNL     1      10.947 -54.412 -23.903  1.00  0.00     0.049 A 
ATOM      7  C   UNL     1      10.122 -55.073 -22.998  1.00  0.00     0.043 A 
ATOM      8  Cl  UNL     1       9.400 -56.573 -23.431  1.00  0.00    -0.084 Cl
ATOM      9  C   UNL     1       9.882 -54.530 -21.746  1.00  0.00     0.021 A 
ATOM     10  C   UNL     1      10.472 -53.312 -21.406  1.00  0.00     0.014 A 
ATOM     11  C   UNL     1      11.309 -52.622 -22.319  1.00  0.00     0.024 A 
ATOM     12  C   UNL     1      13.885 -50.959 -25.298  1.00  0.00     0.064 C 
ATOM     13  C   UNL     1      14.378 -49.523 -25.056  1.00  0.00     0.018 C 
ATOM     14  C   UNL     1      13.302 -48.517 -25.405  1.00  0.00    -0.024 C 
ATOM     15  C   UNL     1      12.509 -47.943 -24.481  1.00  0.00    -0.076 C 
ATOM     16  C   UNL     1      11.460 -46.933 -24.839  1.00  0.00     0.039 C 
ATOM     17  C   UNL     1      12.620 -48.296 -23.010  1.00  0.00     0.039 C 
ATOM     18  C   UNL     1      13.543 -49.505 -22.725  1.00  0.00     0.028 C 
ATOM     19  C   UNL     1      14.802 -49.392 -23.592  1.00  0.00     0.017 C 
ENDROOT
BRANCH   1  20
ATOM     20  N   UNL     1      11.846 -50.768 -20.769  1.00  0.00    -0.398 N 
ATOM     21  H   UNL     1      11.640 -49.774 -20.814  1.00  0.00     0.156 HD
ATOM     22  H   UNL     1      11.139 -51.239 -20.206  1.00  0.00     0.156 HD
ENDBRANCH   1  20
TORSDOF 1
ENDMDL
MODEL 5
REMARK VINA RESULT:    -8.644      4.926      5.899
REMARK INTER + INTRA:          -8.897
REMARK INTER:                  -8.897
REMARK INTRA:                   0.000
REMARK UNBOUND:                 0.000
REMARK SMILES CC1=C[C@@H]2Cc3nc4cc(Cl)ccc4c(N)c3[C@H](C1)C2
REMARK SMILES IDX 15 1 17 2 6 3 7 4 8 5 9 6 10 7 11 8 12 9 13 10 14 11 5 12
REMARK SMILES IDX 4 13 3 14 2 15 1 16 19 17 18 18 20 19 16 20
REMARK H PARENT 16 21 16 22
ROOT
ATOM      1  C   UNL     1      11.721 -60.565 -24.917  1.00  0.00     0.046 A 
ATOM      2  C   UNL     1      10.479 -60.338 -24.298  1.00  0.00     0.001 A 
ATOM      3  C   UNL     1       9.410 -59.933 -25.105  1.00  0.00     0.047 A 
ATOM      4  N   UNL     1       9.540 -59.691 -26.431  1.00  0.00    -0.252 NA
ATOM      5  C   UNL     1      10.736 -59.849 -27.008  1.00  0.00     0.074 A 
ATOM      6  C   UNL     1      10.837 -59.568 -28.362  1.00  0.00     0.049 A 
ATOM      7  C   UNL     1      12.049 -59.681 -29.037  1.00  0.00     0.043 A 
ATOM      8  Cl  UNL     1      12.133 -59.318 -30.716  1.00  0.00    -0.084 Cl
ATOM      9  C   UNL     1      13.191 -60.081 -28.361  1.00  0.00     0.021 A 
ATOM     10  C   UNL     1      13.110 -60.372 -26.999  1.00  0.00     0.014 A 
ATOM     11  C   UNL     1      11.883 -60.270 -26.298  1.00  0.00     0.024 A 
ATOM     12  C   UNL     1       8.032 -59.677 -24.538  1.00  0.00     0.064 C 
ATOM     13  C   UNL     1       7.846 -60.192 -23.103  1.00  0.00     0.018 C 
ATOM     14  C   UNL     1       7.636 -61.692 -23.090  1.00  0.00    -0.024 C 
ATOM     15  C   UNL     1       8.622 -62.566 -22.818  1.00  0.00    -0.076 C 
ATOM     16  C   UNL     1       8.395 -64.049 -22.791  1.00  0.00     0.039 C 
ATOM     17  C   UNL     1      10.038 -62.104 -22.536  1.00  0.00     0.039 C 
ATOM     18  C   UNL     1      10.271 -60.598 -22.809  1.00  0.00     0.028 C 
ATOM     19  C   UNL     1       9.075 -59.800 -22.279  1.00  0.00     0.017 C 
ENDROOT
BRANCH   1  20
ATOM     20  N   UNL     1      12.834 -60.883 -24.096  1.00  0.00    -0.398 N 
ATOM     21  H   UNL     1      12.957 -61.883 -23.967  1.00  0.00     0.156 HD
ATOM     22  H   UNL     1      13.683 -60.480 -24.487  1.00  0.00     0.156 HD
ENDBRANCH   1  20
TORSDOF 1
ENDMDL
MODEL 6
REMARK VINA RESULT:    -8.605      1.846      2.920
REMARK INTER + INTRA:          -8.856
REMARK INTER:                  -8.856
REMARK INTRA:                   0.000
REMARK UNBOUND:                 0.000
REMARK SMILES CC1=C[C@@H]2Cc3nc4cc(Cl)ccc4c(N)c3[C@H](C1)C2
REMARK SMILES IDX 15 1 17 2 6 3 7 4 8 5 9 6 10 7 11 8 12 9 13 10 14 11 5 12
REMARK SMILES IDX 4 13 3 14 2 15 1 16 19 17 18 18 20 19 16 20
REMARK H PARENT 16 21 16 22
ROOT
ATOM      1  C   UNL     1      10.986 -57.682 -21.625  1.00  0.00     0.046 A 
ATOM      2  C   UNL     1      10.362 -58.615 -22.473  1.00  0.00     0.001 A 
ATOM      3  C   UNL     1       9.515 -58.126 -23.473  1.00  0.00     0.047 A 
ATOM      4  N   UNL     1       9.224 -56.811 -23.614  1.00  0.00    -0.252 NA
ATOM      5  C   UNL     1       9.771 -55.930 -22.770  1.00  0.00     0.074 A 
ATOM      6  C   UNL     1       9.431 -54.595 -22.928  1.00  0.00     0.049 A 
ATOM      7  C   UNL     1       9.933 -53.614 -22.079  1.00  0.00     0.043 A 
ATOM      8  Cl  UNL     1       9.483 -51.969 -22.306  1.00  0.00    -0.084 Cl
ATOM      9  C   UNL     1      10.792 -53.956 -21.046  1.00  0.00     0.021 A 
ATOM     10  C   UNL     1      11.150 -55.293 -20.871  1.00  0.00     0.014 A 
ATOM     11  C   UNL     1      10.654 -56.304 -21.732  1.00  0.00     0.024 A 
ATOM     12  C   UNL     1       8.809 -59.047 -24.443  1.00  0.00     0.064 C 
ATOM     13  C   UNL     1       9.340 -60.489 -24.429  1.00  0.00     0.018 C 
ATOM     14  C   UNL     1      10.644 -60.592 -25.191  1.00  0.00    -0.024 C 
ATOM     15  C   UNL     1      11.846 -60.599 -24.586  1.00  0.00    -0.076 C 
ATOM     16  C   UNL     1      13.130 -60.720 -25.352  1.00  0.00     0.039 C 
ATOM     17  C   UNL     1      11.979 -60.468 -23.081  1.00  0.00     0.039 C 
ATOM     18  C   UNL     1      10.655 -60.108 -22.365  1.00  0.00     0.028 C 
ATOM     19  C   UNL     1       9.514 -60.932 -22.974  1.00  0.00     0.017 C 
ENDROOT
BRANCH   1  20
ATOM     20  N   UNL     1      11.771 -58.170 -20.549  1.00  0.00    -0.398 N 
ATOM     21  H   UNL     1      12.400 -58.918 -20.826  1.00  0.00     0.156 HD
ATOM     22  H   UNL     1      12.306 -57.409 -20.133  1.00  0.00     0.156 HD
ENDBRANCH   1  20
TORSDOF 1
ENDMDL
MODEL 7
REMARK VINA RESULT:    -8.468      4.211      8.660
REMARK INTER + INTRA:          -8.716
REMARK INTER:                  -8.716
REMARK INTRA:                   0.000
REMARK UNBOUND:                 0.000
REMARK SMILES CC1=C[C@@H]2Cc3nc4cc(Cl)ccc4c(N)c3[C@H](C1)C2
REMARK SMILES IDX 15 1 17 2 6 3 7 4 8 5 9 6 10 7 11 8 12 9 13 10 14 11 5 12
REMARK SMILES IDX 4 13 3 14 2 15 1 16 19 17 18 18 20 19 16 20
REMARK H PARENT 16 21 16 22
ROOT
ATOM      1  C   UNL     1      13.208 -51.400 -25.159  1.00  0.00     0.046 A 
ATOM      2  C   UNL     1      13.034 -50.135 -24.569  1.00  0.00     0.001 A 
ATOM      3  C   UNL     1      12.283 -50.061 -23.391  1.00  0.00     0.047 A 
ATOM      4  N   UNL     1      11.670 -51.136 -22.840  1.00  0.00    -0.252 NA
ATOM      5  C   UNL     1      11.786 -52.328 -23.435  1.00  0.00     0.074 A 
ATOM      6  C   UNL     1      11.124 -53.400 -22.857  1.00  0.00     0.049 A 
ATOM      7  C   UNL     1      11.169 -54.670 -23.423  1.00  0.00     0.043 A 
ATOM      8  Cl  UNL     1      10.331 -55.973 -22.677  1.00  0.00    -0.084 Cl
ATOM      9  C   UNL     1      11.885 -54.890 -24.590  1.00  0.00     0.021 A 
ATOM     10  C   UNL     1      12.561 -53.826 -25.185  1.00  0.00     0.014 A 
ATOM     11  C   UNL     1      12.532 -52.527 -24.618  1.00  0.00     0.024 A 
ATOM     12  C   UNL     1      12.050 -48.751 -22.672  1.00  0.00     0.064 C 
ATOM     13  C   UNL     1      12.948 -47.605 -23.164  1.00  0.00     0.018 C 
ATOM     14  C   UNL     1      14.346 -47.734 -22.598  1.00  0.00    -0.024 C 
ATOM     15  C   UNL     1      15.371 -48.262 -23.292  1.00  0.00    -0.076 C 
ATOM     16  C   UNL     1      16.756 -48.366 -22.725  1.00  0.00     0.039 C 
ATOM     17  C   UNL     1      15.184 -48.802 -24.696  1.00  0.00     0.039 C 
ATOM     18  C   UNL     1      13.704 -48.891 -25.141  1.00  0.00     0.028 C 
ATOM     19  C   UNL     1      12.968 -47.622 -24.694  1.00  0.00     0.017 C 
ENDROOT
BRANCH   1  20
ATOM     20  N   UNL     1      13.887 -51.474 -26.403  1.00  0.00    -0.398 N 
ATOM     21  H   UNL     1      14.300 -52.386 -26.574  1.00  0.00     0.156 HD
ATOM     22  H   UNL     1      13.250 -51.238 -27.162  1.00  0.00     0.156 HD
ENDBRANCH   1  20
TORSDOF 1
ENDMDL
MODEL 8
REMARK VINA RESULT:    -8.246      7.084      9.138
REMARK INTER + INTRA:          -8.487
REMARK INTER:                  -8.487
REMARK INTRA:                   0.000
REMARK UNBOUND:                 0.000
REMARK SMILES CC1=C[C@@H]2Cc3nc4cc(Cl)ccc4c(N)c3[C@H](C1)C2
REMARK SMILES IDX 15 1 17 2 6 3 7 4 8 5 9 6 10 7 11 8 12 9 13 10 14 11 5 12
REMARK SMILES IDX 4 13 3 14 2 15 1 16 19 17 18 18 20 19 16 20
REMARK H PARENT 16 21 16 22
ROOT
ATOM      1  C   UNL     1      11.783 -49.048 -23.119  1.00  0.00     0.046 A 
ATOM      2  C   UNL     1      12.584 -49.647 -24.108  1.00  0.00     0.001 A 
ATOM      3  C   UNL     1      13.182 -48.812 -25.058  1.00  0.00     0.047 A 
ATOM      4  N   UNL     1      12.971 -47.475 -25.101  1.00  0.00    -0.252 NA
ATOM      5  C   UNL     1      12.161 -46.915 -24.196  1.00  0.00     0.074 A 
ATOM      6  C   UNL     1      11.948 -45.548 -24.287  1.00  0.00     0.049 A 
ATOM      7  C   UNL     1      11.101 -44.887 -23.402  1.00  0.00     0.043 A 
ATOM      8  Cl  UNL     1      10.860 -43.190 -23.550  1.00  0.00    -0.084 Cl
ATOM      9  C   UNL     1      10.446 -45.590 -22.403  1.00  0.00     0.021 A 
ATOM     10  C   UNL     1      10.650 -46.966 -22.293  1.00  0.00     0.014 A 
ATOM     11  C   UNL     1      11.515 -47.654 -23.180  1.00  0.00     0.024 A 
ATOM     12  C   UNL     1      14.072 -49.357 -26.154  1.00  0.00     0.064 C 
ATOM     13  C   UNL     1      14.496 -50.818 -25.940  1.00  0.00     0.018 C 
ATOM     14  C   UNL     1      15.604 -50.914 -24.912  1.00  0.00    -0.024 C 
ATOM     15  C   UNL     1      15.382 -51.240 -23.625  1.00  0.00    -0.076 C 
ATOM     16  C   UNL     1      16.492 -51.349 -22.622  1.00  0.00     0.039 C 
ATOM     17  C   UNL     1      13.983 -51.503 -23.102  1.00  0.00     0.039 C 
ATOM     18  C   UNL     1      12.862 -51.146 -24.107  1.00  0.00     0.028 C 
ATOM     19  C   UNL     1      13.270 -51.625 -25.506  1.00  0.00     0.017 C 
ENDROOT
BRANCH   1  20
ATOM     20  N   UNL     1      11.095 -49.892 -22.209  1.00  0.00    -0.398 N 
ATOM     21  H   UNL     1      11.074 -49.521 -21.264  1.00  0.00     0.156 HD
ATOM     22  H   UNL     1      10.144 -50.055 -22.534  1.00  0.00     0.156 HD
ENDBRANCH   1  20
TORSDOF 1
ENDMDL
MODEL 9
REMARK VINA RESULT:    -7.945      5.236      9.883
REMARK INTER + INTRA:          -8.177
REMARK INTER:                  -8.177
REMARK INTRA:                   0.000
REMARK UNBOUND:                 0.000
REMARK SMILES CC1=C[C@@H]2Cc3nc4cc(Cl)ccc4c(N)c3[C@H](C1)C2
REMARK SMILES IDX 15 1 17 2 6 3 7 4 8 5 9 6 10 7 11 8 12 9 13 10 14 11 5 12
REMARK SMILES IDX 4 13 3 14 2 15 1 16 19 17 18 18 20 19 16 20
REMARK H PARENT 16 21 16 22
ROOT
ATOM      1  C   UNL     1      12.758 -49.718 -24.184  1.00  0.00     0.046 A 
ATOM      2  C   UNL     1      12.261 -48.448 -23.838  1.00  0.00     0.001 A 
ATOM      3  C   UNL     1      11.233 -48.384 -22.891  1.00  0.00     0.047 A 
ATOM      4  N   UNL     1      10.662 -49.486 -22.349  1.00  0.00    -0.252 NA
ATOM      5  C   UNL     1      11.094 -50.695 -22.724  1.00  0.00     0.074 A 
ATOM      6  C   UNL     1      10.468 -51.800 -22.168  1.00  0.00     0.049 A 
ATOM      7  C   UNL     1      10.837 -53.094 -22.519  1.00  0.00     0.043 A 
ATOM      8  Cl  UNL     1      10.033 -54.439 -21.810  1.00  0.00    -0.084 Cl
ATOM      9  C   UNL     1      11.849 -53.307 -23.444  1.00  0.00     0.021 A 
ATOM     10  C   UNL     1      12.494 -52.208 -24.012  1.00  0.00     0.014 A 
ATOM     11  C   UNL     1      12.136 -50.883 -23.659  1.00  0.00     0.024 A 
ATOM     12  C   UNL     1      10.641 -47.067 -22.442  1.00  0.00     0.064 C 
ATOM     13  C   UNL     1      11.460 -45.840 -22.870  1.00  0.00     0.018 C 
ATOM     14  C   UNL     1      12.673 -45.663 -21.982  1.00  0.00    -0.024 C 
ATOM     15  C   UNL     1      13.905 -46.073 -22.335  1.00  0.00    -0.076 C 
ATOM     16  C   UNL     1      15.102 -45.875 -21.453  1.00  0.00     0.039 C 
ATOM     17  C   UNL     1      14.159 -46.782 -23.652  1.00  0.00     0.039 C 
ATOM     18  C   UNL     1      12.868 -47.172 -24.412  1.00  0.00     0.028 C 
ATOM     19  C   UNL     1      11.869 -46.012 -24.335  1.00  0.00     0.017 C 
ENDROOT
BRANCH   1  20
ATOM     20  N   UNL     1      13.732 -49.801 -25.212  1.00  0.00    -0.398 N 
ATOM     21  H   UNL     1      13.621 -50.624 -25.797  1.00  0.00     0.156 HD
ATOM     22  H   UNL     1      13.702 -48.963 -25.790  1.00  0.00     0.156 HD
ENDBRANCH   1  20
TORSDOF 1
ENDMDL
