MODEL 1
REMARK VINA RESULT:   -11.332      0.000      0.000
REMARK INTER + INTRA:         -15.607
REMARK INTER:                 -15.307
REMARK INTRA:                  -0.300
REMARK UNBOUND:                -0.300
REMARK SMILES COc1cc2c(cc1OC)C(=O)[C@H](C[C@H]1CC[N@@H+](Cc3ccccc3)CC1)C2
REMARK SMILES IDX 14 1 15 2 17 3 18 4 16 5 26 6 27 7 19 9 20 10 21 11 25 12
REMARK SMILES IDX 22 13 24 14 23 15 13 16 11 17 28 18 6 19 5 20 7 21 4 22 8 23
REMARK SMILES IDX 3 24 12 25 9 26 10 27 2 28 1 29
REMARK H PARENT 18 8
ROOT
ATOM      1  C   UNL     1      11.635 -56.458 -23.358  1.00  0.00     0.016 C 
ENDROOT
BRANCH   1   2
ATOM      2  C   UNL     1      10.658 -57.182 -22.394  1.00  0.00     0.001 C 
ATOM      3  C   UNL     1      11.752 -59.479 -22.196  1.00  0.00     0.262 C 
ATOM      4  N   UNL     1      10.561 -60.089 -22.908  1.00  0.00    -0.331 N 
ATOM      5  C   UNL     1      11.300 -58.220 -21.466  1.00  0.00     0.065 C 
ATOM      6  C   UNL     1       9.939 -59.131 -23.890  1.00  0.00     0.262 C 
ATOM      7  C   UNL     1       9.514 -57.854 -23.173  1.00  0.00     0.065 C 
ATOM      8  H   UNL     1       9.864 -60.309 -22.188  1.00  0.00     0.348 HD
BRANCH   4   9
ATOM      9  C   UNL     1      10.908 -61.409 -23.568  1.00  0.00     0.299 C 
BRANCH   9  10
ATOM     10  C   UNL     1       9.703 -62.272 -23.826  1.00  0.00     0.006 A 
ATOM     11  C   UNL     1       9.164 -63.070 -22.806  1.00  0.00     0.009 A 
ATOM     12  C   UNL     1       9.085 -62.271 -25.088  1.00  0.00     0.009 A 
ATOM     13  C   UNL     1       8.030 -63.848 -23.042  1.00  0.00     0.001 A 
ATOM     14  C   UNL     1       7.952 -63.053 -25.318  1.00  0.00     0.001 A 
ATOM     15  C   UNL     1       7.425 -63.838 -24.297  1.00  0.00     0.000 A 
ENDBRANCH   9  10
ENDBRANCH   4   9
ENDBRANCH   1   2
BRANCH   1  16
ATOM     16  C   UNL     1      11.153 -55.076 -23.832  1.00  0.00     0.066 C 
ATOM     17  C   UNL     1      11.064 -54.075 -22.689  1.00  0.00     0.166 C 
ATOM     18  C   UNL     1      12.137 -54.400 -24.821  1.00  0.00     0.048 C 
ATOM     19  C   UNL     1      11.635 -52.805 -23.108  1.00  0.00     0.025 A 
ATOM     20  C   UNL     1      12.222 -52.982 -24.350  1.00  0.00    -0.033 A 
ATOM     21  C   UNL     1      11.639 -51.597 -22.444  1.00  0.00     0.062 A 
ATOM     22  C   UNL     1      12.856 -51.915 -24.972  1.00  0.00     0.055 A 
ATOM     23  C   UNL     1      12.250 -50.506 -23.073  1.00  0.00     0.161 A 
ATOM     24  C   UNL     1      12.883 -50.662 -24.334  1.00  0.00     0.161 A 
ATOM     25  O   UNL     1      10.587 -54.281 -21.585  1.00  0.00    -0.294 OA
BRANCH  23  26
ATOM     26  O   UNL     1      12.207 -49.360 -22.319  1.00  0.00    -0.493 OA
ATOM     27  C   UNL     1      11.212 -48.406 -22.681  1.00  0.00     0.278 C 
ENDBRANCH  23  26
BRANCH  24  28
ATOM     28  O   UNL     1      13.527 -49.569 -24.849  1.00  0.00    -0.493 OA
ATOM     29  C   UNL     1      14.060 -49.655 -26.164  1.00  0.00     0.278 C 
ENDBRANCH  24  28
ENDBRANCH   1  16
TORSDOF 6
ENDMDL
MODEL 2
REMARK VINA RESULT:   -11.170      1.515      2.627
REMARK INTER + INTRA:         -15.387
REMARK INTER:                 -14.935
REMARK INTRA:                  -0.452
REMARK UNBOUND:                -0.300
REMARK SMILES COc1cc2c(cc1OC)C(=O)[C@H](C[C@H]1CC[N@@H+](Cc3ccccc3)CC1)C2
REMARK SMILES IDX 14 1 15 2 17 3 18 4 16 5 26 6 27 7 19 9 20 10 21 11 25 12
REMARK SMILES IDX 22 13 24 14 23 15 13 16 11 17 28 18 6 19 5 20 7 21 4 22 8 23
REMARK SMILES IDX 3 24 12 25 9 26 10 27 2 28 1 29
REMARK H PARENT 18 8
ROOT
ATOM      1  C   UNL     1       9.758 -56.459 -23.084  1.00  0.00     0.016 C 
ENDROOT
BRANCH   1   2
ATOM      2  C   UNL     1       9.907 -57.895 -22.517  1.00  0.00     0.001 C 
ATOM      3  C   UNL     1      11.462 -58.960 -24.238  1.00  0.00     0.262 C 
ATOM      4  N   UNL     1      10.336 -59.883 -24.659  1.00  0.00    -0.331 N 
ATOM      5  C   UNL     1      11.261 -58.568 -22.779  1.00  0.00     0.065 C 
ATOM      6  C   UNL     1       8.986 -59.239 -24.491  1.00  0.00     0.262 C 
ATOM      7  C   UNL     1       8.788 -58.813 -23.041  1.00  0.00     0.065 C 
ATOM      8  H   UNL     1      10.379 -60.705 -24.046  1.00  0.00     0.348 HD
BRANCH   4   9
ATOM      9  C   UNL     1      10.528 -60.407 -26.069  1.00  0.00     0.299 C 
BRANCH   9  10
ATOM     10  C   UNL     1       9.554 -61.495 -26.429  1.00  0.00     0.006 A 
ATOM     11  C   UNL     1       8.815 -62.151 -25.434  1.00  0.00     0.009 A 
ATOM     12  C   UNL     1       9.354 -61.854 -27.773  1.00  0.00     0.009 A 
ATOM     13  C   UNL     1       7.893 -63.141 -25.774  1.00  0.00     0.001 A 
ATOM     14  C   UNL     1       8.432 -62.847 -28.108  1.00  0.00     0.001 A 
ATOM     15  C   UNL     1       7.702 -63.487 -27.111  1.00  0.00     0.000 A 
ENDBRANCH   9  10
ENDBRANCH   4   9
ENDBRANCH   1   2
BRANCH   1  16
ATOM     16  C   UNL     1      10.887 -55.496 -22.680  1.00  0.00     0.066 C 
ATOM     17  C   UNL     1      11.539 -54.838 -23.888  1.00  0.00     0.166 C 
ATOM     18  C   UNL     1      10.383 -54.289 -21.847  1.00  0.00     0.048 C 
ATOM     19  C   UNL     1      11.723 -53.418 -23.629  1.00  0.00     0.025 A 
ATOM     20  C   UNL     1      11.087 -53.109 -22.438  1.00  0.00    -0.033 A 
ATOM     21  C   UNL     1      12.390 -52.479 -24.387  1.00  0.00     0.062 A 
ATOM     22  C   UNL     1      11.100 -51.802 -21.968  1.00  0.00     0.055 A 
ATOM     23  C   UNL     1      12.436 -51.165 -23.910  1.00  0.00     0.161 A 
ATOM     24  C   UNL     1      11.772 -50.810 -22.706  1.00  0.00     0.161 A 
ATOM     25  O   UNL     1      11.872 -55.395 -24.921  1.00  0.00    -0.294 OA
BRANCH  23  26
ATOM     26  O   UNL     1      13.113 -50.314 -24.747  1.00  0.00    -0.493 OA
ATOM     27  C   UNL     1      13.811 -50.921 -25.831  1.00  0.00     0.278 C 
ENDBRANCH  23  26
BRANCH  24  28
ATOM     28  O   UNL     1      11.795 -49.490 -22.345  1.00  0.00    -0.493 OA
ATOM     29  C   UNL     1      10.685 -48.674 -22.695  1.00  0.00     0.278 C 
ENDBRANCH  24  28
ENDBRANCH   1  16
TORSDOF 6
ENDMDL
MODEL 3
REMARK VINA RESULT:   -10.947      1.363      2.348
REMARK INTER + INTRA:         -15.086
REMARK INTER:                 -14.347
REMARK INTRA:                  -0.740
REMARK UNBOUND:                -0.300
REMARK SMILES COc1cc2c(cc1OC)C(=O)[C@H](C[C@H]1CC[N@@H+](Cc3ccccc3)CC1)C2
REMARK SMILES IDX 14 1 15 2 17 3 18 4 16 5 26 6 27 7 19 9 20 10 21 11 25 12
REMARK SMILES IDX 22 13 24 14 23 15 13 16 11 17 28 18 6 19 5 20 7 21 4 22 8 23
REMARK SMILES IDX 3 24 12 25 9 26 10 27 2 28 1 29
REMARK H PARENT 18 8
ROOT
ATOM      1  C   UNL     1      10.246 -55.453 -23.833  1.00  0.00     0.016 C 
ENDROOT
BRANCH   1   2
ATOM      2  C   UNL     1       9.887 -56.385 -22.646  1.00  0.00     0.001 C 
ATOM      3  C   UNL     1      11.520 -58.313 -23.002  1.00  0.00     0.262 C 
ATOM      4  N   UNL     1      10.350 -59.227 -23.302  1.00  0.00    -0.331 N 
ATOM      5  C   UNL     1      11.053 -57.199 -22.073  1.00  0.00     0.065 C 
ATOM      6  C   UNL     1       9.203 -58.487 -23.937  1.00  0.00     0.262 C 
ATOM      7  C   UNL     1       8.750 -57.349 -23.029  1.00  0.00     0.065 C 
ATOM      8  H   UNL     1      10.029 -59.606 -22.403  1.00  0.00     0.348 HD
BRANCH   4   9
ATOM      9  C   UNL     1      10.762 -60.426 -24.133  1.00  0.00     0.299 C 
BRANCH   9  10
ATOM     10  C   UNL     1       9.893 -61.631 -23.899  1.00  0.00     0.006 A 
ATOM     11  C   UNL     1      10.016 -62.383 -22.722  1.00  0.00     0.009 A 
ATOM     12  C   UNL     1       8.928 -62.007 -24.849  1.00  0.00     0.009 A 
ATOM     13  C   UNL     1       9.189 -63.485 -22.497  1.00  0.00     0.001 A 
ATOM     14  C   UNL     1       8.105 -63.110 -24.620  1.00  0.00     0.001 A 
ATOM     15  C   UNL     1       8.234 -63.846 -23.445  1.00  0.00     0.000 A 
ENDBRANCH   9  10
ENDBRANCH   4   9
ENDBRANCH   1   2
BRANCH   1  16
ATOM     16  C   UNL     1      11.534 -54.636 -23.633  1.00  0.00     0.066 C 
ATOM     17  C   UNL     1      12.175 -54.240 -24.956  1.00  0.00     0.166 C 
ATOM     18  C   UNL     1      11.284 -53.274 -22.937  1.00  0.00     0.048 C 
ATOM     19  C   UNL     1      12.586 -52.846 -24.900  1.00  0.00     0.025 A 
ATOM     20  C   UNL     1      12.103 -52.299 -23.722  1.00  0.00    -0.033 A 
ATOM     21  C   UNL     1      13.320 -52.122 -25.815  1.00  0.00     0.062 A 
ATOM     22  C   UNL     1      12.348 -50.963 -23.431  1.00  0.00     0.055 A 
ATOM     23  C   UNL     1      13.597 -50.783 -25.520  1.00  0.00     0.161 A 
ATOM     24  C   UNL     1      13.095 -50.186 -24.334  1.00  0.00     0.161 A 
ATOM     25  O   UNL     1      12.335 -54.963 -25.925  1.00  0.00    -0.294 OA
BRANCH  23  26
ATOM     26  O   UNL     1      14.321 -50.157 -26.503  1.00  0.00    -0.493 OA
ATOM     27  C   UNL     1      15.738 -50.178 -26.353  1.00  0.00     0.278 C 
ENDBRANCH  23  26
BRANCH  24  28
ATOM     28  O   UNL     1      13.342 -48.851 -24.153  1.00  0.00    -0.493 OA
ATOM     29  C   UNL     1      12.239 -47.955 -24.141  1.00  0.00     0.278 C 
ENDBRANCH  24  28
ENDBRANCH   1  16
TORSDOF 6
ENDMDL
MODEL 4
REMARK VINA RESULT:   -10.451      3.270     10.475
REMARK INTER + INTRA:         -14.416
REMARK INTER:                 -14.072
REMARK INTRA:                  -0.345
REMARK UNBOUND:                -0.300
REMARK SMILES COc1cc2c(cc1OC)C(=O)[C@H](C[C@H]1CC[N@@H+](Cc3ccccc3)CC1)C2
REMARK SMILES IDX 14 1 15 2 17 3 18 4 16 5 26 6 27 7 19 9 20 10 21 11 25 12
REMARK SMILES IDX 22 13 24 14 23 15 13 16 11 17 28 18 6 19 5 20 7 21 4 22 8 23
REMARK SMILES IDX 3 24 12 25 9 26 10 27 2 28 1 29
REMARK H PARENT 18 8
ROOT
ATOM      1  C   UNL     1      10.916 -55.490 -21.783  1.00  0.00     0.016 C 
ENDROOT
BRANCH   1   2
ATOM      2  C   UNL     1      10.104 -54.476 -22.630  1.00  0.00     0.001 C 
ATOM      3  C   UNL     1      11.968 -53.154 -23.766  1.00  0.00     0.262 C 
ATOM      4  N   UNL     1      11.553 -51.926 -22.981  1.00  0.00    -0.331 N 
ATOM      5  C   UNL     1      10.753 -54.055 -23.954  1.00  0.00     0.065 C 
ATOM      6  C   UNL     1      10.977 -52.283 -21.637  1.00  0.00     0.262 C 
ATOM      7  C   UNL     1       9.780 -53.212 -21.813  1.00  0.00     0.065 C 
ATOM      8  H   UNL     1      10.824 -51.455 -23.529  1.00  0.00     0.348 HD
BRANCH   4   9
ATOM      9  C   UNL     1      12.685 -50.926 -22.849  1.00  0.00     0.299 C 
BRANCH   9  10
ATOM     10  C   UNL     1      12.327 -49.561 -23.369  1.00  0.00     0.006 A 
ATOM     11  C   UNL     1      13.067 -48.975 -24.407  1.00  0.00     0.009 A 
ATOM     12  C   UNL     1      11.231 -48.863 -22.837  1.00  0.00     0.009 A 
ATOM     13  C   UNL     1      12.715 -47.720 -24.905  1.00  0.00     0.001 A 
ATOM     14  C   UNL     1      10.884 -47.607 -23.337  1.00  0.00     0.001 A 
ATOM     15  C   UNL     1      11.624 -47.038 -24.370  1.00  0.00     0.000 A 
ENDBRANCH   9  10
ENDBRANCH   4   9
ENDBRANCH   1   2
BRANCH   1  16
ATOM     16  C   UNL     1      11.152 -56.846 -22.468  1.00  0.00     0.066 C 
ATOM     17  C   UNL     1      11.159 -57.999 -21.474  1.00  0.00     0.166 C 
ATOM     18  C   UNL     1      10.017 -57.232 -23.452  1.00  0.00     0.048 C 
ATOM     19  C   UNL     1      10.376 -59.104 -22.005  1.00  0.00     0.025 A 
ATOM     20  C   UNL     1       9.747 -58.674 -23.162  1.00  0.00    -0.033 A 
ATOM     21  C   UNL     1      10.230 -60.380 -21.504  1.00  0.00     0.062 A 
ATOM     22  C   UNL     1       8.920 -59.543 -23.861  1.00  0.00     0.055 A 
ATOM     23  C   UNL     1       9.422 -61.274 -22.214  1.00  0.00     0.161 A 
ATOM     24  C   UNL     1       8.743 -60.857 -23.389  1.00  0.00     0.161 A 
ATOM     25  O   UNL     1      11.729 -58.018 -20.396  1.00  0.00    -0.294 OA
BRANCH  23  26
ATOM     26  O   UNL     1       9.337 -62.508 -21.620  1.00  0.00    -0.493 OA
ATOM     27  C   UNL     1       9.854 -63.605 -22.369  1.00  0.00     0.278 C 
ENDBRANCH  23  26
BRANCH  24  28
ATOM     28  O   UNL     1       7.909 -61.764 -23.985  1.00  0.00    -0.493 OA
ATOM     29  C   UNL     1       8.245 -62.241 -25.282  1.00  0.00     0.278 C 
ENDBRANCH  24  28
ENDBRANCH   1  16
TORSDOF 6
ENDMDL
MODEL 5
REMARK VINA RESULT:   -10.357      1.519      2.332
REMARK INTER + INTRA:         -14.289
REMARK INTER:                 -13.971
REMARK INTRA:                  -0.318
REMARK UNBOUND:                -0.300
REMARK SMILES COc1cc2c(cc1OC)C(=O)[C@H](C[C@H]1CC[N@@H+](Cc3ccccc3)CC1)C2
REMARK SMILES IDX 14 1 15 2 17 3 18 4 16 5 26 6 27 7 19 9 20 10 21 11 25 12
REMARK SMILES IDX 22 13 24 14 23 15 13 16 11 17 28 18 6 19 5 20 7 21 4 22 8 23
REMARK SMILES IDX 3 24 12 25 9 26 10 27 2 28 1 29
REMARK H PARENT 18 8
ROOT
ATOM      1  C   UNL     1      11.588 -56.418 -23.066  1.00  0.00     0.016 C 
ENDROOT
BRANCH   1   2
ATOM      2  C   UNL     1      10.544 -57.186 -22.212  1.00  0.00     0.001 C 
ATOM      3  C   UNL     1      11.400 -59.583 -22.400  1.00  0.00     0.262 C 
ATOM      4  N   UNL     1      10.152 -59.949 -23.179  1.00  0.00    -0.331 N 
ATOM      5  C   UNL     1      11.079 -58.418 -21.471  1.00  0.00     0.065 C 
ATOM      6  C   UNL     1       9.629 -58.790 -23.985  1.00  0.00     0.262 C 
ATOM      7  C   UNL     1       9.337 -57.607 -23.067  1.00  0.00     0.065 C 
ATOM      8  H   UNL     1       9.437 -60.211 -22.490  1.00  0.00     0.348 HD
BRANCH   4   9
ATOM      9  C   UNL     1      10.362 -61.175 -24.046  1.00  0.00     0.299 C 
BRANCH   9  10
ATOM     10  C   UNL     1      10.704 -60.836 -25.471  1.00  0.00     0.006 A 
ATOM     11  C   UNL     1       9.845 -61.202 -26.518  1.00  0.00     0.009 A 
ATOM     12  C   UNL     1      11.879 -60.126 -25.770  1.00  0.00     0.009 A 
ATOM     13  C   UNL     1      10.153 -60.862 -27.836  1.00  0.00     0.001 A 
ATOM     14  C   UNL     1      12.182 -59.789 -27.090  1.00  0.00     0.001 A 
ATOM     15  C   UNL     1      11.320 -60.155 -28.120  1.00  0.00     0.000 A 
ENDBRANCH   9  10
ENDBRANCH   4   9
ENDBRANCH   1   2
BRANCH   1  16
ATOM     16  C   UNL     1      11.094 -55.068 -23.611  1.00  0.00     0.066 C 
ATOM     17  C   UNL     1      11.034 -53.998 -22.530  1.00  0.00     0.166 C 
ATOM     18  C   UNL     1      12.051 -54.455 -24.665  1.00  0.00     0.048 C 
ATOM     19  C   UNL     1      11.594 -52.757 -23.042  1.00  0.00     0.025 A 
ATOM     20  C   UNL     1      12.148 -53.011 -24.285  1.00  0.00    -0.033 A 
ATOM     21  C   UNL     1      11.615 -51.510 -22.454  1.00  0.00     0.062 A 
ATOM     22  C   UNL     1      12.767 -51.986 -24.988  1.00  0.00     0.055 A 
ATOM     23  C   UNL     1      12.209 -50.461 -23.164  1.00  0.00     0.161 A 
ATOM     24  C   UNL     1      12.810 -50.695 -24.429  1.00  0.00     0.161 A 
ATOM     25  O   UNL     1      10.586 -54.135 -21.404  1.00  0.00    -0.294 OA
BRANCH  23  26
ATOM     26  O   UNL     1      12.186 -49.271 -22.482  1.00  0.00    -0.493 OA
ATOM     27  C   UNL     1      11.058 -48.433 -22.718  1.00  0.00     0.278 C 
ENDBRANCH  23  26
BRANCH  24  28
ATOM     28  O   UNL     1      13.440 -49.637 -25.027  1.00  0.00    -0.493 OA
ATOM     29  C   UNL     1      14.836 -49.472 -24.813  1.00  0.00     0.278 C 
ENDBRANCH  24  28
ENDBRANCH   1  16
TORSDOF 6
ENDMDL
MODEL 6
REMARK VINA RESULT:   -10.220      1.938      3.205
REMARK INTER + INTRA:         -14.104
REMARK INTER:                 -13.576
REMARK INTRA:                  -0.528
REMARK UNBOUND:                -0.300
REMARK SMILES COc1cc2c(cc1OC)C(=O)[C@H](C[C@H]1CC[N@@H+](Cc3ccccc3)CC1)C2
REMARK SMILES IDX 14 1 15 2 17 3 18 4 16 5 26 6 27 7 19 9 20 10 21 11 25 12
REMARK SMILES IDX 22 13 24 14 23 15 13 16 11 17 28 18 6 19 5 20 7 21 4 22 8 23
REMARK SMILES IDX 3 24 12 25 9 26 10 27 2 28 1 29
REMARK H PARENT 18 8
ROOT
ATOM      1  C   UNL     1      10.089 -56.114 -23.496  1.00  0.00     0.016 C 
ENDROOT
BRANCH   1   2
ATOM      2  C   UNL     1       9.783 -57.229 -22.462  1.00  0.00     0.001 C 
ATOM      3  C   UNL     1      11.784 -58.780 -22.782  1.00  0.00     0.262 C 
ATOM      4  N   UNL     1      10.851 -59.846 -23.320  1.00  0.00    -0.331 N 
ATOM      5  C   UNL     1      11.012 -57.886 -21.820  1.00  0.00     0.065 C 
ATOM      6  C   UNL     1       9.663 -59.251 -24.028  1.00  0.00     0.262 C 
ATOM      7  C   UNL     1       8.902 -58.328 -23.083  1.00  0.00     0.065 C 
ATOM      8  H   UNL     1      10.510 -60.379 -22.512  1.00  0.00     0.348 HD
BRANCH   4   9
ATOM      9  C   UNL     1      11.576 -60.845 -24.201  1.00  0.00     0.299 C 
BRANCH   9  10
ATOM     10  C   UNL     1      11.425 -60.553 -25.669  1.00  0.00     0.006 A 
ATOM     11  C   UNL     1      12.347 -59.730 -26.332  1.00  0.00     0.009 A 
ATOM     12  C   UNL     1      10.370 -61.121 -26.401  1.00  0.00     0.009 A 
ATOM     13  C   UNL     1      12.219 -59.483 -27.699  1.00  0.00     0.001 A 
ATOM     14  C   UNL     1      10.245 -60.870 -27.768  1.00  0.00     0.001 A 
ATOM     15  C   UNL     1      11.169 -60.055 -28.416  1.00  0.00     0.000 A 
ENDBRANCH   9  10
ENDBRANCH   4   9
ENDBRANCH   1   2
BRANCH   1  16
ATOM     16  C   UNL     1      11.199 -55.139 -23.070  1.00  0.00     0.066 C 
ATOM     17  C   UNL     1      11.807 -54.406 -24.257  1.00  0.00     0.166 C 
ATOM     18  C   UNL     1      10.680 -53.988 -22.170  1.00  0.00     0.048 C 
ATOM     19  C   UNL     1      11.957 -52.996 -23.935  1.00  0.00     0.025 A 
ATOM     20  C   UNL     1      11.338 -52.761 -22.718  1.00  0.00    -0.033 A 
ATOM     21  C   UNL     1      12.582 -52.004 -24.659  1.00  0.00     0.062 A 
ATOM     22  C   UNL     1      11.325 -51.479 -22.186  1.00  0.00     0.055 A 
ATOM     23  C   UNL     1      12.601 -50.712 -24.121  1.00  0.00     0.161 A 
ATOM     24  C   UNL     1      11.954 -50.434 -22.889  1.00  0.00     0.161 A 
ATOM     25  O   UNL     1      12.133 -54.904 -25.322  1.00  0.00    -0.294 OA
BRANCH  23  26
ATOM     26  O   UNL     1      13.237 -49.804 -24.930  1.00  0.00    -0.493 OA
ATOM     27  C   UNL     1      14.661 -49.815 -24.891  1.00  0.00     0.278 C 
ENDBRANCH  23  26
BRANCH  24  28
ATOM     28  O   UNL     1      11.948 -49.132 -22.465  1.00  0.00    -0.493 OA
ATOM     29  C   UNL     1      10.821 -48.324 -22.778  1.00  0.00     0.278 C 
ENDBRANCH  24  28
ENDBRANCH   1  16
TORSDOF 6
ENDMDL
MODEL 7
REMARK VINA RESULT:    -9.868      2.354      4.157
REMARK INTER + INTRA:         -13.628
REMARK INTER:                 -12.905
REMARK INTRA:                  -0.723
REMARK UNBOUND:                -0.300
REMARK SMILES COc1cc2c(cc1OC)C(=O)[C@H](C[C@H]1CC[N@@H+](Cc3ccccc3)CC1)C2
REMARK SMILES IDX 14 1 15 2 17 3 18 4 16 5 26 6 27 7 19 9 20 10 21 11 25 12
REMARK SMILES IDX 22 13 24 14 23 15 13 16 11 17 28 18 6 19 5 20 7 21 4 22 8 23
REMARK SMILES IDX 3 24 12 25 9 26 10 27 2 28 1 29
REMARK H PARENT 18 8
ROOT
ATOM      1  C   UNL     1      11.773 -52.235 -22.213  1.00  0.00     0.016 C 
ENDROOT
BRANCH   1   2
ATOM      2  C   UNL     1      10.455 -52.977 -21.867  1.00  0.00     0.001 C 
ATOM      3  C   UNL     1      11.328 -55.290 -21.231  1.00  0.00     0.262 C 
ATOM      4  N   UNL     1      10.636 -55.867 -22.449  1.00  0.00    -0.331 N 
ATOM      5  C   UNL     1      10.571 -54.048 -20.774  1.00  0.00     0.065 C 
ATOM      6  C   UNL     1      10.564 -54.876 -23.580  1.00  0.00     0.262 C 
ATOM      7  C   UNL     1       9.837 -53.615 -23.123  1.00  0.00     0.065 C 
ATOM      8  H   UNL     1       9.678 -56.101 -22.165  1.00  0.00     0.348 HD
BRANCH   4   9
ATOM      9  C   UNL     1      11.267 -57.171 -22.896  1.00  0.00     0.299 C 
BRANCH   9  10
ATOM     10  C   UNL     1      10.434 -58.376 -22.553  1.00  0.00     0.006 A 
ATOM     11  C   UNL     1       9.196 -58.590 -23.177  1.00  0.00     0.009 A 
ATOM     12  C   UNL     1      10.897 -59.317 -21.618  1.00  0.00     0.009 A 
ATOM     13  C   UNL     1       8.438 -59.722 -22.875  1.00  0.00     0.001 A 
ATOM     14  C   UNL     1      10.134 -60.447 -21.319  1.00  0.00     0.001 A 
ATOM     15  C   UNL     1       8.909 -60.650 -21.948  1.00  0.00     0.000 A 
ENDBRANCH   9  10
ENDBRANCH   4   9
ENDBRANCH   1   2
BRANCH   1  16
ATOM     16  C   UNL     1      11.729 -51.441 -23.529  1.00  0.00     0.066 C 
ATOM     17  C   UNL     1      12.210 -50.008 -23.352  1.00  0.00     0.166 C 
ATOM     18  C   UNL     1      12.687 -52.007 -24.609  1.00  0.00     0.048 C 
ATOM     19  C   UNL     1      13.103 -49.655 -24.445  1.00  0.00     0.025 A 
ATOM     20  C   UNL     1      13.350 -50.798 -25.189  1.00  0.00    -0.033 A 
ATOM     21  C   UNL     1      13.654 -48.430 -24.752  1.00  0.00     0.062 A 
ATOM     22  C   UNL     1      14.193 -50.735 -26.290  1.00  0.00     0.055 A 
ATOM     23  C   UNL     1      14.482 -48.346 -25.876  1.00  0.00     0.161 A 
ATOM     24  C   UNL     1      14.776 -49.504 -26.643  1.00  0.00     0.161 A 
ATOM     25  O   UNL     1      11.904 -49.251 -22.446  1.00  0.00    -0.294 OA
BRANCH  23  26
ATOM     26  O   UNL     1      14.984 -47.086 -26.080  1.00  0.00    -0.493 OA
ATOM     27  C   UNL     1      14.051 -46.013 -25.985  1.00  0.00     0.278 C 
ENDBRANCH  23  26
BRANCH  24  28
ATOM     28  O   UNL     1      15.656 -49.359 -27.682  1.00  0.00    -0.493 OA
ATOM     29  C   UNL     1      15.157 -48.909 -28.935  1.00  0.00     0.278 C 
ENDBRANCH  24  28
ENDBRANCH   1  16
TORSDOF 6
ENDMDL
MODEL 8
REMARK VINA RESULT:    -9.635      2.613      4.604
REMARK INTER + INTRA:         -13.314
REMARK INTER:                 -12.763
REMARK INTRA:                  -0.552
REMARK UNBOUND:                -0.300
REMARK SMILES COc1cc2c(cc1OC)C(=O)[C@H](C[C@H]1CC[N@@H+](Cc3ccccc3)CC1)C2
REMARK SMILES IDX 14 1 15 2 17 3 18 4 16 5 26 6 27 7 19 9 20 10 21 11 25 12
REMARK SMILES IDX 22 13 24 14 23 15 13 16 11 17 28 18 6 19 5 20 7 21 4 22 8 23
REMARK SMILES IDX 3 24 12 25 9 26 10 27 2 28 1 29
REMARK H PARENT 18 8
ROOT
ATOM      1  C   UNL     1      11.426 -51.929 -21.954  1.00  0.00     0.016 C 
ENDROOT
BRANCH   1   2
ATOM      2  C   UNL     1      10.132 -52.783 -21.903  1.00  0.00     0.001 C 
ATOM      3  C   UNL     1      11.068 -55.087 -21.332  1.00  0.00     0.262 C 
ATOM      4  N   UNL     1      10.632 -55.584 -22.695  1.00  0.00    -0.331 N 
ATOM      5  C   UNL     1      10.151 -53.947 -20.904  1.00  0.00     0.065 C 
ATOM      6  C   UNL     1      10.668 -54.492 -23.732  1.00  0.00     0.262 C 
ATOM      7  C   UNL     1       9.780 -53.331 -23.297  1.00  0.00     0.065 C 
ATOM      8  H   UNL     1       9.661 -55.905 -22.600  1.00  0.00     0.348 HD
BRANCH   4   9
ATOM      9  C   UNL     1      11.428 -56.795 -23.141  1.00  0.00     0.299 C 
BRANCH   9  10
ATOM     10  C   UNL     1      10.825 -58.095 -22.684  1.00  0.00     0.006 A 
ATOM     11  C   UNL     1      11.201 -58.667 -21.460  1.00  0.00     0.009 A 
ATOM     12  C   UNL     1       9.857 -58.744 -23.469  1.00  0.00     0.009 A 
ATOM     13  C   UNL     1      10.619 -59.859 -21.028  1.00  0.00     0.001 A 
ATOM     14  C   UNL     1       9.280 -59.937 -23.033  1.00  0.00     0.001 A 
ATOM     15  C   UNL     1       9.658 -60.492 -21.814  1.00  0.00     0.000 A 
ENDBRANCH   9  10
ENDBRANCH   4   9
ENDBRANCH   1   2
BRANCH   1  16
ATOM     16  C   UNL     1      11.367 -50.742 -22.931  1.00  0.00     0.066 C 
ATOM     17  C   UNL     1      10.500 -49.608 -22.405  1.00  0.00     0.166 C 
ATOM     18  C   UNL     1      12.746 -50.067 -23.145  1.00  0.00     0.048 C 
ATOM     19  C   UNL     1      11.175 -48.337 -22.623  1.00  0.00     0.025 A 
ATOM     20  C   UNL     1      12.456 -48.600 -23.081  1.00  0.00    -0.033 A 
ATOM     21  C   UNL     1      10.699 -47.059 -22.426  1.00  0.00     0.062 A 
ATOM     22  C   UNL     1      13.320 -47.549 -23.354  1.00  0.00     0.055 A 
ATOM     23  C   UNL     1      11.550 -45.989 -22.724  1.00  0.00     0.161 A 
ATOM     24  C   UNL     1      12.877 -46.226 -23.171  1.00  0.00     0.161 A 
ATOM     25  O   UNL     1       9.403 -49.720 -21.884  1.00  0.00    -0.294 OA
BRANCH  23  26
ATOM     26  O   UNL     1      10.980 -44.766 -22.480  1.00  0.00    -0.493 OA
ATOM     27  C   UNL     1      10.204 -44.210 -23.539  1.00  0.00     0.278 C 
ENDBRANCH  23  26
BRANCH  24  28
ATOM     28  O   UNL     1      13.675 -45.131 -23.368  1.00  0.00    -0.493 OA
ATOM     29  C   UNL     1      14.291 -44.961 -24.638  1.00  0.00     0.278 C 
ENDBRANCH  24  28
ENDBRANCH   1  16
TORSDOF 6
ENDMDL
MODEL 9
REMARK VINA RESULT:    -9.104      4.821     12.706
REMARK INTER + INTRA:         -12.597
REMARK INTER:                 -12.064
REMARK INTRA:                  -0.533
REMARK UNBOUND:                -0.300
REMARK SMILES COc1cc2c(cc1OC)C(=O)[C@H](C[C@H]1CC[N@@H+](Cc3ccccc3)CC1)C2
REMARK SMILES IDX 14 1 15 2 17 3 18 4 16 5 26 6 27 7 19 9 20 10 21 11 25 12
REMARK SMILES IDX 22 13 24 14 23 15 13 16 11 17 28 18 6 19 5 20 7 21 4 22 8 23
REMARK SMILES IDX 3 24 12 25 9 26 10 27 2 28 1 29
REMARK H PARENT 18 8
ROOT
ATOM      1  C   UNL     1      10.968 -48.735 -22.667  1.00  0.00     0.016 C 
ENDROOT
BRANCH   1   2
ATOM      2  C   UNL     1      12.054 -47.846 -23.326  1.00  0.00     0.001 C 
ATOM      3  C   UNL     1      11.881 -45.716 -21.931  1.00  0.00     0.262 C 
ATOM      4  N   UNL     1      11.379 -44.976 -23.154  1.00  0.00    -0.331 N 
ATOM      5  C   UNL     1      12.768 -46.870 -22.381  1.00  0.00     0.065 C 
ATOM      6  C   UNL     1      10.605 -45.876 -24.081  1.00  0.00     0.262 C 
ATOM      7  C   UNL     1      11.474 -47.053 -24.510  1.00  0.00     0.065 C 
ATOM      8  H   UNL     1      12.206 -44.633 -23.656  1.00  0.00     0.348 HD
BRANCH   4   9
ATOM      9  C   UNL     1      10.578 -43.743 -22.784  1.00  0.00     0.299 C 
BRANCH   9  10
ATOM     10  C   UNL     1      10.975 -42.525 -23.573  1.00  0.00     0.006 A 
ATOM     11  C   UNL     1      11.255 -42.621 -24.944  1.00  0.00     0.009 A 
ATOM     12  C   UNL     1      11.047 -41.268 -22.950  1.00  0.00     0.009 A 
ATOM     13  C   UNL     1      11.597 -41.485 -25.677  1.00  0.00     0.001 A 
ATOM     14  C   UNL     1      11.391 -40.134 -23.688  1.00  0.00     0.001 A 
ATOM     15  C   UNL     1      11.663 -40.242 -25.049  1.00  0.00     0.000 A 
ENDBRANCH   9  10
ENDBRANCH   4   9
ENDBRANCH   1   2
BRANCH   1  16
ATOM     16  C   UNL     1      11.441 -50.151 -22.299  1.00  0.00     0.066 C 
ATOM     17  C   UNL     1      10.283 -51.131 -22.177  1.00  0.00     0.166 C 
ATOM     18  C   UNL     1      12.336 -50.792 -23.390  1.00  0.00     0.048 C 
ATOM     19  C   UNL     1      10.625 -52.376 -22.846  1.00  0.00     0.025 A 
ATOM     20  C   UNL     1      11.824 -52.193 -23.516  1.00  0.00    -0.033 A 
ATOM     21  C   UNL     1       9.933 -53.568 -22.866  1.00  0.00     0.062 A 
ATOM     22  C   UNL     1      12.369 -53.235 -24.253  1.00  0.00     0.055 A 
ATOM     23  C   UNL     1      10.486 -54.636 -23.581  1.00  0.00     0.161 A 
ATOM     24  C   UNL     1      11.699 -54.472 -24.299  1.00  0.00     0.161 A 
ATOM     25  O   UNL     1       9.223 -50.929 -21.607  1.00  0.00    -0.294 OA
BRANCH  23  26
ATOM     26  O   UNL     1       9.709 -55.766 -23.543  1.00  0.00    -0.493 OA
ATOM     27  C   UNL     1      10.222 -56.857 -22.785  1.00  0.00     0.278 C 
ENDBRANCH  23  26
BRANCH  24  28
ATOM     28  O   UNL     1      12.137 -55.537 -25.039  1.00  0.00    -0.493 OA
ATOM     29  C   UNL     1      12.912 -55.281 -26.203  1.00  0.00     0.278 C 
ENDBRANCH  24  28
ENDBRANCH   1  16
TORSDOF 6
ENDMDL
