MODEL 1
REMARK VINA RESULT:   -10.080      0.000      0.000
REMARK INTER + INTRA:         -10.374
REMARK INTER:                 -10.374
REMARK INTRA:                   0.000
REMARK UNBOUND:                 0.000
REMARK SMILES CC1=C[C@@H]2Cc3nc4cc(Cl)ccc4c(N)c3[C@H](C1)C2
REMARK SMILES IDX 1 1 2 2 3 3 4 4 5 5 6 6 7 7 8 8 9 9 10 10 11 11 12 12 13 13
REMARK SMILES IDX 14 14 15 15 17 16 18 17 19 18 20 19 16 20
REMARK H PARENT 16 21 16 22
ROOT
ATOM      1  C   UNL     1       7.041 -58.226 -23.536  1.00  0.00     0.039 C 
ATOM      2  C   UNL     1       8.415 -58.622 -23.102  1.00  0.00    -0.076 C 
ATOM      3  C   UNL     1       9.352 -57.696 -23.121  1.00  0.00    -0.024 C 
ATOM      4  C   UNL     1      11.874 -58.963 -22.302  1.00  0.00     0.018 C 
ATOM      5  C   UNL     1      11.140 -58.333 -23.438  1.00  0.00     0.064 C 
ATOM      6  C   UNL     1      10.409 -59.522 -23.892  1.00  0.00     0.047 A 
ATOM      7  N   UNL     1      10.408 -59.725 -25.220  1.00  0.00    -0.252 NA
ATOM      8  C   UNL     1       9.766 -60.790 -25.754  1.00  0.00     0.074 A 
ATOM      9  C   UNL     1       9.782 -60.972 -27.124  1.00  0.00     0.049 A 
ATOM     10  C   UNL     1       9.125 -62.059 -27.658  1.00  0.00     0.043 A 
ATOM     11  Cl  UNL     1       9.159 -62.270 -29.396  1.00  0.00    -0.084 Cl
ATOM     12  C   UNL     1       8.455 -62.967 -26.863  1.00  0.00     0.021 A 
ATOM     13  C   UNL     1       8.425 -62.809 -25.506  1.00  0.00     0.014 A 
ATOM     14  C   UNL     1       9.086 -61.719 -24.994  1.00  0.00     0.024 A 
ATOM     15  C   UNL     1       9.076 -61.528 -23.624  1.00  0.00     0.046 A 
ATOM     16  C   UNL     1       9.738 -60.432 -23.100  1.00  0.00     0.001 A 
ATOM     17  C   UNL     1       9.813 -60.095 -21.630  1.00  0.00     0.028 C 
ATOM     18  C   UNL     1       8.742 -59.999 -22.660  1.00  0.00     0.039 C 
ATOM     19  C   UNL     1      11.003 -59.306 -21.114  1.00  0.00     0.017 C 
ENDROOT
BRANCH  15  20
ATOM     20  N   UNL     1       8.426 -62.388 -22.725  1.00  0.00    -0.398 N 
ATOM     21  H   UNL     1       8.633 -63.416 -22.840  1.00  0.00     0.156 HD
ATOM     22  H   UNL     1       7.793 -61.974 -22.012  1.00  0.00     0.156 HD
ENDBRANCH  15  20
TORSDOF 1
ENDMDL
MODEL 2
REMARK VINA RESULT:    -9.801      2.177      3.440
REMARK INTER + INTRA:         -10.087
REMARK INTER:                 -10.087
REMARK INTRA:                   0.000
REMARK UNBOUND:                 0.000
REMARK SMILES CC1=C[C@@H]2Cc3nc4cc(Cl)ccc4c(N)c3[C@H](C1)C2
REMARK SMILES IDX 1 1 2 2 3 3 4 4 5 5 6 6 7 7 8 8 9 9 10 10 11 11 12 12 13 13
REMARK SMILES IDX 14 14 15 15 17 16 18 17 19 18 20 19 16 20
REMARK H PARENT 16 21 16 22
ROOT
ATOM      1  C   UNL     1      10.082 -62.690 -23.475  1.00  0.00     0.039 C 
ATOM      2  C   UNL     1      10.308 -61.248 -23.152  1.00  0.00    -0.076 C 
ATOM      3  C   UNL     1       9.253 -60.514 -22.863  1.00  0.00    -0.024 C 
ATOM      4  C   UNL     1      10.176 -57.761 -22.414  1.00  0.00     0.018 C 
ATOM      5  C   UNL     1       9.390 -58.650 -23.319  1.00  0.00     0.064 C 
ATOM      6  C   UNL     1      10.505 -59.148 -24.133  1.00  0.00     0.047 A 
ATOM      7  N   UNL     1      10.288 -59.162 -25.458  1.00  0.00    -0.252 NA
ATOM      8  C   UNL     1      11.244 -59.601 -26.309  1.00  0.00     0.074 A 
ATOM      9  C   UNL     1      10.992 -59.603 -27.668  1.00  0.00     0.049 A 
ATOM     10  C   UNL     1      11.972 -60.053 -28.526  1.00  0.00     0.043 A 
ATOM     11  Cl  UNL     1      11.631 -60.046 -30.243  1.00  0.00    -0.084 Cl
ATOM     12  C   UNL     1      13.195 -60.498 -28.065  1.00  0.00     0.021 A 
ATOM     13  C   UNL     1      13.468 -60.504 -26.726  1.00  0.00     0.014 A 
ATOM     14  C   UNL     1      12.478 -60.053 -25.888  1.00  0.00     0.024 A 
ATOM     15  C   UNL     1      12.721 -60.046 -24.526  1.00  0.00     0.046 A 
ATOM     16  C   UNL     1      11.729 -59.594 -23.675  1.00  0.00     0.001 A 
ATOM     17  C   UNL     1      11.849 -59.530 -22.172  1.00  0.00     0.028 C 
ATOM     18  C   UNL     1      11.659 -60.638 -23.147  1.00  0.00     0.039 C 
ATOM     19  C   UNL     1      11.034 -58.500 -21.409  1.00  0.00     0.017 C 
ENDROOT
BRANCH  15  20
ATOM     20  N   UNL     1      13.927 -60.477 -23.950  1.00  0.00    -0.398 N 
ATOM     21  H   UNL     1      14.024 -61.517 -23.808  1.00  0.00     0.156 HD
ATOM     22  H   UNL     1      14.641 -59.763 -23.704  1.00  0.00     0.156 HD
ENDBRANCH  15  20
TORSDOF 1
ENDMDL
MODEL 3
REMARK VINA RESULT:    -9.755      2.737      5.096
REMARK INTER + INTRA:         -10.040
REMARK INTER:                 -10.040
REMARK INTRA:                   0.000
REMARK UNBOUND:                 0.000
REMARK SMILES CC1=C[C@@H]2Cc3nc4cc(Cl)ccc4c(N)c3[C@H](C1)C2
REMARK SMILES IDX 1 1 2 2 3 3 4 4 5 5 6 6 7 7 8 8 9 9 10 10 11 11 12 12 13 13
REMARK SMILES IDX 14 14 15 15 17 16 18 17 19 18 20 19 16 20
REMARK H PARENT 16 21 16 22
ROOT
ATOM      1  C   UNL     1       9.873 -60.768 -26.873  1.00  0.00     0.039 C 
ATOM      2  C   UNL     1       9.606 -61.324 -25.511  1.00  0.00    -0.076 C 
ATOM      3  C   UNL     1       8.403 -61.807 -25.273  1.00  0.00    -0.024 C 
ATOM      4  C   UNL     1       8.327 -62.669 -22.465  1.00  0.00     0.018 C 
ATOM      5  C   UNL     1       7.804 -61.677 -23.449  1.00  0.00     0.064 C 
ATOM      6  C   UNL     1       8.910 -60.715 -23.376  1.00  0.00     0.047 A 
ATOM      7  N   UNL     1       8.546 -59.425 -23.287  1.00  0.00    -0.252 NA
ATOM      8  C   UNL     1       9.480 -58.449 -23.214  1.00  0.00     0.074 A 
ATOM      9  C   UNL     1       9.075 -57.130 -23.123  1.00  0.00     0.049 A 
ATOM     10  C   UNL     1      10.034 -56.144 -23.049  1.00  0.00     0.043 A 
ATOM     11  Cl  UNL     1       9.498 -54.480 -22.934  1.00  0.00    -0.084 Cl
ATOM     12  C   UNL     1      11.382 -56.437 -23.063  1.00  0.00     0.021 A 
ATOM     13  C   UNL     1      11.808 -57.733 -23.152  1.00  0.00     0.014 A 
ATOM     14  C   UNL     1      10.836 -58.701 -23.224  1.00  0.00     0.024 A 
ATOM     15  C   UNL     1      11.232 -60.024 -23.316  1.00  0.00     0.046 A 
ATOM     16  C   UNL     1      10.260 -61.005 -23.390  1.00  0.00     0.001 A 
ATOM     17  C   UNL     1      10.539 -62.485 -23.493  1.00  0.00     0.028 C 
ATOM     18  C   UNL     1      10.637 -61.345 -24.447  1.00  0.00     0.039 C 
ATOM     19  C   UNL     1       9.512 -63.469 -22.960  1.00  0.00     0.017 C 
ENDROOT
BRANCH  15  20
ATOM     20  N   UNL     1      12.574 -60.433 -23.338  1.00  0.00    -0.398 N 
ATOM     21  H   UNL     1      13.200 -59.923 -24.017  1.00  0.00     0.156 HD
ATOM     22  H   UNL     1      12.870 -61.197 -22.698  1.00  0.00     0.156 HD
ENDBRANCH  15  20
TORSDOF 1
ENDMDL
MODEL 4
REMARK VINA RESULT:    -9.250      2.143      3.072
REMARK INTER + INTRA:          -9.520
REMARK INTER:                  -9.520
REMARK INTRA:                   0.000
REMARK UNBOUND:                 0.000
REMARK SMILES CC1=C[C@@H]2Cc3nc4cc(Cl)ccc4c(N)c3[C@H](C1)C2
REMARK SMILES IDX 1 1 2 2 3 3 4 4 5 5 6 6 7 7 8 8 9 9 10 10 11 11 12 12 13 13
REMARK SMILES IDX 14 14 15 15 17 16 18 17 19 18 20 19 16 20
REMARK H PARENT 16 21 16 22
ROOT
ATOM      1  C   UNL     1       7.052 -59.551 -24.001  1.00  0.00     0.039 C 
ATOM      2  C   UNL     1       7.897 -60.728 -23.634  1.00  0.00    -0.076 C 
ATOM      3  C   UNL     1       8.672 -60.619 -22.575  1.00  0.00    -0.024 C 
ATOM      4  C   UNL     1      10.203 -63.114 -22.327  1.00  0.00     0.018 C 
ATOM      5  C   UNL     1      10.293 -61.655 -22.622  1.00  0.00     0.064 C 
ATOM      6  C   UNL     1       9.961 -61.716 -24.051  1.00  0.00     0.047 A 
ATOM      7  N   UNL     1      10.746 -60.981 -24.856  1.00  0.00    -0.252 NA
ATOM      8  C   UNL     1      10.536 -60.960 -26.192  1.00  0.00     0.074 A 
ATOM      9  C   UNL     1      11.360 -60.193 -26.995  1.00  0.00     0.049 A 
ATOM     10  C   UNL     1      11.136 -60.178 -28.355  1.00  0.00     0.043 A 
ATOM     11  Cl  UNL     1      12.193 -59.201 -29.352  1.00  0.00    -0.084 Cl
ATOM     12  C   UNL     1      10.117 -60.906 -28.933  1.00  0.00     0.021 A 
ATOM     13  C   UNL     1       9.289 -61.672 -28.160  1.00  0.00     0.014 A 
ATOM     14  C   UNL     1       9.528 -61.673 -26.808  1.00  0.00     0.024 A 
ATOM     15  C   UNL     1       8.709 -62.437 -25.996  1.00  0.00     0.046 A 
ATOM     16  C   UNL     1       8.942 -62.443 -24.633  1.00  0.00     0.001 A 
ATOM     17  C   UNL     1       8.134 -63.225 -23.626  1.00  0.00     0.028 C 
ATOM     18  C   UNL     1       7.884 -61.988 -24.416  1.00  0.00     0.039 C 
ATOM     19  C   UNL     1       8.793 -63.663 -22.330  1.00  0.00     0.017 C 
ENDROOT
BRANCH  15  20
ATOM     20  N   UNL     1       7.644 -63.213 -26.479  1.00  0.00    -0.398 N 
ATOM     21  H   UNL     1       7.320 -63.994 -25.848  1.00  0.00     0.156 HD
ATOM     22  H   UNL     1       7.242 -62.980 -27.409  1.00  0.00     0.156 HD
ENDBRANCH  15  20
TORSDOF 1
ENDMDL
MODEL 5
REMARK VINA RESULT:    -8.787      8.424     10.708
REMARK INTER + INTRA:          -9.044
REMARK INTER:                  -9.044
REMARK INTRA:                   0.000
REMARK UNBOUND:                 0.000
REMARK SMILES CC1=C[C@@H]2Cc3nc4cc(Cl)ccc4c(N)c3[C@H](C1)C2
REMARK SMILES IDX 1 1 2 2 3 3 4 4 5 5 6 6 7 7 8 8 9 9 10 10 11 11 12 12 13 13
REMARK SMILES IDX 14 14 15 15 17 16 18 17 19 18 20 19 16 20
REMARK H PARENT 16 21 16 22
ROOT
ATOM      1  C   UNL     1      16.110 -50.775 -22.738  1.00  0.00     0.039 C 
ATOM      2  C   UNL     1      15.037 -49.925 -23.339  1.00  0.00    -0.076 C 
ATOM      3  C   UNL     1      14.593 -48.908 -22.630  1.00  0.00    -0.024 C 
ATOM      4  C   UNL     1      12.441 -47.622 -24.162  1.00  0.00     0.018 C 
ATOM      5  C   UNL     1      12.758 -48.418 -22.941  1.00  0.00     0.064 C 
ATOM      6  C   UNL     1      12.727 -49.752 -23.553  1.00  0.00     0.047 A 
ATOM      7  N   UNL     1      12.060 -50.688 -22.859  1.00  0.00    -0.252 NA
ATOM      8  C   UNL     1      11.964 -51.955 -23.326  1.00  0.00     0.074 A 
ATOM      9  C   UNL     1      11.272 -52.897 -22.588  1.00  0.00     0.049 A 
ATOM     10  C   UNL     1      11.181 -54.184 -23.073  1.00  0.00     0.043 A 
ATOM     11  Cl  UNL     1      10.298 -55.361 -22.122  1.00  0.00    -0.084 Cl
ATOM     12  C   UNL     1      11.760 -54.554 -24.269  1.00  0.00     0.021 A 
ATOM     13  C   UNL     1      12.449 -53.641 -25.016  1.00  0.00     0.014 A 
ATOM     14  C   UNL     1      12.529 -52.364 -24.516  1.00  0.00     0.024 A 
ATOM     15  C   UNL     1      13.220 -51.414 -25.246  1.00  0.00     0.046 A 
ATOM     16  C   UNL     1      13.305 -50.125 -24.750  1.00  0.00     0.001 A 
ATOM     17  C   UNL     1      14.024 -48.987 -25.433  1.00  0.00     0.028 C 
ATOM     18  C   UNL     1      14.474 -50.193 -24.684  1.00  0.00     0.039 C 
ATOM     19  C   UNL     1      13.564 -47.563 -25.174  1.00  0.00     0.017 C 
ENDROOT
BRANCH  15  20
ATOM     20  N   UNL     1      13.846 -51.682 -26.474  1.00  0.00    -0.398 N 
ATOM     21  H   UNL     1      13.728 -52.662 -26.847  1.00  0.00     0.156 HD
ATOM     22  H   UNL     1      14.378 -50.918 -26.936  1.00  0.00     0.156 HD
ENDBRANCH  15  20
TORSDOF 1
ENDMDL
MODEL 6
REMARK VINA RESULT:    -8.069     10.046     12.390
REMARK INTER + INTRA:          -8.305
REMARK INTER:                  -8.305
REMARK INTRA:                   0.000
REMARK UNBOUND:                 0.000
REMARK SMILES CC1=C[C@@H]2Cc3nc4cc(Cl)ccc4c(N)c3[C@H](C1)C2
REMARK SMILES IDX 1 1 2 2 3 3 4 4 5 5 6 6 7 7 8 8 9 9 10 10 11 11 12 12 13 13
REMARK SMILES IDX 14 14 15 15 17 16 18 17 19 18 20 19 16 20
REMARK H PARENT 16 21 16 22
ROOT
ATOM      1  C   UNL     1      14.308 -47.710 -20.925  1.00  0.00     0.039 C 
ATOM      2  C   UNL     1      13.307 -47.239 -21.931  1.00  0.00    -0.076 C 
ATOM      3  C   UNL     1      12.380 -46.398 -21.523  1.00  0.00    -0.024 C 
ATOM      4  C   UNL     1      10.601 -45.857 -23.799  1.00  0.00     0.018 C 
ATOM      5  C   UNL     1      10.699 -46.500 -22.456  1.00  0.00     0.064 C 
ATOM      6  C   UNL     1      11.258 -47.787 -22.886  1.00  0.00     0.047 A 
ATOM      7  N   UNL     1      10.692 -48.873 -22.335  1.00  0.00    -0.252 NA
ATOM      8  C   UNL     1      11.123 -50.114 -22.657  1.00  0.00     0.074 A 
ATOM      9  C   UNL     1      10.521 -51.213 -22.073  1.00  0.00     0.049 A 
ATOM     10  C   UNL     1      10.969 -52.473 -22.408  1.00  0.00     0.043 A 
ATOM     11  Cl  UNL     1      10.191 -53.850 -21.657  1.00  0.00    -0.084 Cl
ATOM     12  C   UNL     1      11.998 -52.664 -23.307  1.00  0.00     0.021 A 
ATOM     13  C   UNL     1      12.610 -51.594 -23.897  1.00  0.00     0.014 A 
ATOM     14  C   UNL     1      12.149 -50.347 -23.550  1.00  0.00     0.024 A 
ATOM     15  C   UNL     1      12.745 -49.241 -24.129  1.00  0.00     0.046 A 
ATOM     16  C   UNL     1      12.288 -47.982 -23.785  1.00  0.00     0.001 A 
ATOM     17  C   UNL     1      12.839 -46.688 -24.333  1.00  0.00     0.028 C 
ATOM     18  C   UNL     1      13.333 -47.687 -23.344  1.00  0.00     0.039 C 
ATOM     19  C   UNL     1      11.934 -45.470 -24.401  1.00  0.00     0.017 C 
ENDROOT
BRANCH  15  20
ATOM     20  N   UNL     1      13.798 -49.322 -25.054  1.00  0.00    -0.398 N 
ATOM     21  H   UNL     1      14.521 -48.556 -24.998  1.00  0.00     0.156 HD
ATOM     22  H   UNL     1      13.807 -50.115 -25.726  1.00  0.00     0.156 HD
ENDBRANCH  15  20
TORSDOF 1
ENDMDL
MODEL 7
REMARK VINA RESULT:    -7.924     10.517     12.954
REMARK INTER + INTRA:          -8.156
REMARK INTER:                  -8.156
REMARK INTRA:                   0.000
REMARK UNBOUND:                 0.000
REMARK SMILES CC1=C[C@@H]2Cc3nc4cc(Cl)ccc4c(N)c3[C@H](C1)C2
REMARK SMILES IDX 1 1 2 2 3 3 4 4 5 5 6 6 7 7 8 8 9 9 10 10 11 11 12 12 13 13
REMARK SMILES IDX 14 14 15 15 17 16 18 17 19 18 20 19 16 20
REMARK H PARENT 16 21 16 22
ROOT
ATOM      1  C   UNL     1      15.745 -48.911 -22.345  1.00  0.00     0.039 C 
ATOM      2  C   UNL     1      14.944 -49.668 -23.354  1.00  0.00    -0.076 C 
ATOM      3  C   UNL     1      15.478 -49.853 -24.544  1.00  0.00    -0.024 C 
ATOM      4  C   UNL     1      13.508 -51.277 -26.195  1.00  0.00     0.018 C 
ATOM      5  C   UNL     1      14.228 -49.985 -26.002  1.00  0.00     0.064 C 
ATOM      6  C   UNL     1      13.327 -49.397 -25.004  1.00  0.00     0.047 A 
ATOM      7  N   UNL     1      12.997 -48.112 -25.213  1.00  0.00    -0.252 NA
ATOM      8  C   UNL     1      12.171 -47.465 -24.359  1.00  0.00     0.074 A 
ATOM      9  C   UNL     1      11.849 -46.142 -24.601  1.00  0.00     0.049 A 
ATOM     10  C   UNL     1      11.008 -45.491 -23.724  1.00  0.00     0.043 A 
ATOM     11  Cl  UNL     1      10.613 -43.817 -24.050  1.00  0.00    -0.084 Cl
ATOM     12  C   UNL     1      10.480 -46.124 -22.617  1.00  0.00     0.021 A 
ATOM     13  C   UNL     1      10.784 -47.431 -22.356  1.00  0.00     0.014 A 
ATOM     14  C   UNL     1      11.624 -48.061 -23.242  1.00  0.00     0.024 A 
ATOM     15  C   UNL     1      11.952 -49.385 -23.009  1.00  0.00     0.046 A 
ATOM     16  C   UNL     1      12.798 -50.027 -23.895  1.00  0.00     0.001 A 
ATOM     17  C   UNL     1      13.243 -51.463 -23.770  1.00  0.00     0.028 C 
ATOM     18  C   UNL     1      13.595 -50.206 -23.055  1.00  0.00     0.039 C 
ATOM     19  C   UNL     1      13.619 -52.231 -25.025  1.00  0.00     0.017 C 
ENDROOT
BRANCH  15  20
ATOM     20  N   UNL     1      11.473 -50.122 -21.914  1.00  0.00    -0.398 N 
ATOM     21  H   UNL     1      11.967 -51.033 -21.721  1.00  0.00     0.156 HD
ATOM     22  H   UNL     1      10.676 -49.737 -21.368  1.00  0.00     0.156 HD
ENDBRANCH  15  20
TORSDOF 1
ENDMDL
MODEL 8
REMARK VINA RESULT:    -7.716      9.614     11.911
REMARK INTER + INTRA:          -7.942
REMARK INTER:                  -7.942
REMARK INTRA:                   0.000
REMARK UNBOUND:                 0.000
REMARK SMILES CC1=C[C@@H]2Cc3nc4cc(Cl)ccc4c(N)c3[C@H](C1)C2
REMARK SMILES IDX 1 1 2 2 3 3 4 4 5 5 6 6 7 7 8 8 9 9 10 10 11 11 12 12 13 13
REMARK SMILES IDX 14 14 15 15 17 16 18 17 19 18 20 19 16 20
REMARK H PARENT 16 21 16 22
ROOT
ATOM      1  C   UNL     1      14.378 -49.623 -27.315  1.00  0.00     0.039 C 
ATOM      2  C   UNL     1      13.987 -50.349 -26.068  1.00  0.00    -0.076 C 
ATOM      3  C   UNL     1      13.290 -49.686 -25.168  1.00  0.00    -0.024 C 
ATOM      4  C   UNL     1      12.862 -51.474 -22.876  1.00  0.00     0.018 C 
ATOM      5  C   UNL     1      13.554 -50.238 -23.344  1.00  0.00     0.064 C 
ATOM      6  C   UNL     1      14.738 -50.877 -23.931  1.00  0.00     0.047 A 
ATOM      7  N   UNL     1      15.913 -50.302 -23.627  1.00  0.00    -0.252 NA
ATOM      8  C   UNL     1      17.072 -50.805 -24.111  1.00  0.00     0.074 A 
ATOM      9  C   UNL     1      18.266 -50.191 -23.781  1.00  0.00     0.049 A 
ATOM     10  C   UNL     1      19.441 -50.710 -24.280  1.00  0.00     0.043 A 
ATOM     11  Cl  UNL     1      20.941 -49.917 -23.848  1.00  0.00    -0.084 Cl
ATOM     12  C   UNL     1      19.456 -51.823 -25.096  1.00  0.00     0.021 A 
ATOM     13  C   UNL     1      18.289 -52.447 -25.436  1.00  0.00     0.014 A 
ATOM     14  C   UNL     1      17.129 -51.914 -24.929  1.00  0.00     0.024 A 
ATOM     15  C   UNL     1      15.929 -52.521 -25.254  1.00  0.00     0.046 A 
ATOM     16  C   UNL     1      14.756 -51.990 -24.748  1.00  0.00     0.001 A 
ATOM     17  C   UNL     1      13.378 -52.542 -25.016  1.00  0.00     0.028 C 
ATOM     18  C   UNL     1      14.355 -51.764 -25.826  1.00  0.00     0.039 C 
ATOM     19  C   UNL     1      12.281 -52.320 -23.989  1.00  0.00     0.017 C 
ENDROOT
BRANCH  15  20
ATOM     20  N   UNL     1      15.830 -53.655 -26.075  1.00  0.00    -0.398 N 
ATOM     21  H   UNL     1      15.664 -54.571 -25.579  1.00  0.00     0.156 HD
ATOM     22  H   UNL     1      15.924 -53.532 -27.104  1.00  0.00     0.156 HD
ENDBRANCH  15  20
TORSDOF 1
ENDMDL
MODEL 9
REMARK VINA RESULT:    -7.357      3.650      5.652
REMARK INTER + INTRA:          -7.572
REMARK INTER:                  -7.572
REMARK INTRA:                   0.000
REMARK UNBOUND:                 0.000
REMARK SMILES CC1=C[C@@H]2Cc3nc4cc(Cl)ccc4c(N)c3[C@H](C1)C2
REMARK SMILES IDX 1 1 2 2 3 3 4 4 5 5 6 6 7 7 8 8 9 9 10 10 11 11 12 12 13 13
REMARK SMILES IDX 14 14 15 15 17 16 18 17 19 18 20 19 16 20
REMARK H PARENT 16 21 16 22
ROOT
ATOM      1  C   UNL     1       7.744 -58.749 -24.986  1.00  0.00     0.039 C 
ATOM      2  C   UNL     1       8.822 -59.432 -24.208  1.00  0.00    -0.076 C 
ATOM      3  C   UNL     1       8.465 -60.112 -23.137  1.00  0.00    -0.024 C 
ATOM      4  C   UNL     1      10.910 -61.167 -21.895  1.00  0.00     0.018 C 
ATOM      5  C   UNL     1       9.782 -60.203 -21.737  1.00  0.00     0.064 C 
ATOM      6  C   UNL     1      10.360 -59.088 -22.497  1.00  0.00     0.047 A 
ATOM      7  N   UNL     1      10.247 -57.881 -21.921  1.00  0.00    -0.252 NA
ATOM      8  C   UNL     1      10.744 -56.778 -22.528  1.00  0.00     0.074 A 
ATOM      9  C   UNL     1      10.613 -55.548 -21.911  1.00  0.00     0.049 A 
ATOM     10  C   UNL     1      11.121 -54.432 -22.539  1.00  0.00     0.043 A 
ATOM     11  Cl  UNL     1      10.945 -52.884 -21.738  1.00  0.00    -0.084 Cl
ATOM     12  C   UNL     1      11.754 -54.509 -23.762  1.00  0.00     0.021 A 
ATOM     13  C   UNL     1      11.896 -55.714 -24.392  1.00  0.00     0.014 A 
ATOM     14  C   UNL     1      11.383 -56.814 -23.750  1.00  0.00     0.024 A 
ATOM     15  C   UNL     1      11.509 -58.050 -24.360  1.00  0.00     0.046 A 
ATOM     16  C   UNL     1      10.994 -59.163 -23.721  1.00  0.00     0.001 A 
ATOM     17  C   UNL     1      11.056 -60.570 -24.263  1.00  0.00     0.028 C 
ATOM     18  C   UNL     1      10.249 -59.366 -24.603  1.00  0.00     0.039 C 
ATOM     19  C   UNL     1      11.049 -61.737 -23.290  1.00  0.00     0.017 C 
ENDROOT
BRANCH  15  20
ATOM     20  N   UNL     1      12.133 -58.242 -25.603  1.00  0.00    -0.398 N 
ATOM     21  H   UNL     1      11.963 -57.493 -26.325  1.00  0.00     0.156 HD
ATOM     22  H   UNL     1      12.717 -59.092 -25.738  1.00  0.00     0.156 HD
ENDBRANCH  15  20
TORSDOF 1
ENDMDL
