MODEL 1
REMARK VINA RESULT:    -7.514      0.000      0.000
REMARK INTER + INTRA:         -10.185
REMARK INTER:                  -9.710
REMARK INTRA:                  -0.475
REMARK UNBOUND:                -0.475
REMARK SMILES CCC(CC)n1cc(C(=O)C(F)(F)F)cn1
REMARK SMILES IDX 6 1 7 2 8 3 15 4 16 5 3 6 2 7 1 8 4 9 5 10 9 11 10 12 11 13
REMARK SMILES IDX 12 14 13 15 14 16
REMARK H PARENT
ROOT
ATOM      1  N   UNL     1       9.716 -58.539 -23.492  1.00  0.00    -0.269 N 
ATOM      2  C   UNL     1       9.518 -59.887 -23.581  1.00  0.00     0.121 A 
ATOM      3  C   UNL     1       8.237 -60.068 -24.069  1.00  0.00     0.065 A 
ATOM      4  C   UNL     1       7.752 -58.753 -24.241  1.00  0.00     0.147 A 
ATOM      5  N   UNL     1       8.646 -57.826 -23.892  1.00  0.00    -0.180 NA
ENDROOT
BRANCH   1   6
ATOM      6  C   UNL     1      10.923 -57.841 -23.026  1.00  0.00     0.107 C 
BRANCH   6   7
ATOM      7  C   UNL     1      10.527 -56.476 -22.428  1.00  0.00     0.024 C 
ATOM      8  C   UNL     1      11.165 -55.281 -23.119  1.00  0.00     0.006 C 
ENDBRANCH   6   7
BRANCH   6   9
ATOM      9  C   UNL     1      11.726 -58.743 -22.066  1.00  0.00     0.024 C 
ATOM     10  C   UNL     1      11.436 -58.456 -20.597  1.00  0.00     0.006 C 
ENDBRANCH   6   9
ENDBRANCH   1   6
BRANCH   3  11
ATOM     11  C   UNL     1       7.589 -61.350 -24.328  1.00  0.00     0.269 C 
ATOM     12  O   UNL     1       6.424 -61.541 -23.969  1.00  0.00    -0.284 OA
BRANCH  11  13
ATOM     13  C   UNL     1       8.412 -62.415 -25.048  1.00  0.00     0.454 C 
ATOM     14  F   UNL     1       9.200 -61.916 -26.040  1.00  0.00    -0.163 F 
ATOM     15  F   UNL     1       9.246 -63.085 -24.201  1.00  0.00    -0.163 F 
ATOM     16  F   UNL     1       7.628 -63.369 -25.629  1.00  0.00    -0.163 F 
ENDBRANCH  11  13
ENDBRANCH   3  11
TORSDOF 5
ENDMDL
MODEL 2
REMARK VINA RESULT:    -7.494      3.934      6.093
REMARK INTER + INTRA:         -10.160
REMARK INTER:                  -9.660
REMARK INTRA:                  -0.500
REMARK UNBOUND:                -0.475
REMARK SMILES CCC(CC)n1cc(C(=O)C(F)(F)F)cn1
REMARK SMILES IDX 6 1 7 2 8 3 15 4 16 5 3 6 2 7 1 8 4 9 5 10 9 11 10 12 11 13
REMARK SMILES IDX 12 14 13 15 14 16
REMARK H PARENT
ROOT
ATOM      1  N   UNL     1      10.907 -61.180 -23.372  1.00  0.00    -0.269 N 
ATOM      2  C   UNL     1      10.432 -60.220 -22.523  1.00  0.00     0.121 A 
ATOM      3  C   UNL     1      11.438 -59.282 -22.384  1.00  0.00     0.065 A 
ATOM      4  C   UNL     1      12.479 -59.779 -23.198  1.00  0.00     0.147 A 
ATOM      5  N   UNL     1      12.159 -60.928 -23.798  1.00  0.00    -0.180 NA
ENDROOT
BRANCH   1   6
ATOM      6  C   UNL     1      10.211 -62.389 -23.832  1.00  0.00     0.107 C 
BRANCH   6   7
ATOM      7  C   UNL     1       9.729 -63.200 -22.612  1.00  0.00     0.024 C 
ATOM      8  C   UNL     1       8.349 -63.814 -22.773  1.00  0.00     0.006 C 
ENDBRANCH   6   7
BRANCH   6   9
ATOM      9  C   UNL     1       9.091 -62.019 -24.827  1.00  0.00     0.024 C 
ATOM     10  C   UNL     1       9.621 -61.645 -26.207  1.00  0.00     0.006 C 
ENDBRANCH   6   9
ENDBRANCH   1   6
BRANCH   3  11
ATOM     11  C   UNL     1      11.378 -58.074 -21.567  1.00  0.00     0.269 C 
ATOM     12  O   UNL     1      11.595 -58.133 -20.353  1.00  0.00    -0.284 OA
BRANCH  11  13
ATOM     13  C   UNL     1      11.042 -56.766 -22.279  1.00  0.00     0.454 C 
ATOM     14  F   UNL     1       9.746 -56.685 -22.685  1.00  0.00    -0.163 F 
ATOM     15  F   UNL     1      11.263 -55.676 -21.488  1.00  0.00    -0.163 F 
ATOM     16  F   UNL     1      11.804 -56.576 -23.395  1.00  0.00    -0.163 F 
ENDBRANCH  11  13
ENDBRANCH   3  11
TORSDOF 5
ENDMDL
MODEL 3
REMARK VINA RESULT:    -7.410      0.473      1.982
REMARK INTER + INTRA:         -10.051
REMARK INTER:                  -9.566
REMARK INTRA:                  -0.485
REMARK UNBOUND:                -0.475
REMARK SMILES CCC(CC)n1cc(C(=O)C(F)(F)F)cn1
REMARK SMILES IDX 6 1 7 2 8 3 15 4 16 5 3 6 2 7 1 8 4 9 5 10 9 11 10 12 11 13
REMARK SMILES IDX 12 14 13 15 14 16
REMARK H PARENT
ROOT
ATOM      1  N   UNL     1       9.479 -58.410 -23.124  1.00  0.00    -0.269 N 
ATOM      2  C   UNL     1       9.352 -59.768 -23.200  1.00  0.00     0.121 A 
ATOM      3  C   UNL     1       8.232 -60.018 -23.973  1.00  0.00     0.065 A 
ATOM      4  C   UNL     1       7.761 -58.730 -24.311  1.00  0.00     0.147 A 
ATOM      5  N   UNL     1       8.515 -57.756 -23.798  1.00  0.00    -0.180 NA
ENDROOT
BRANCH   1   6
ATOM      6  C   UNL     1      10.515 -57.648 -22.412  1.00  0.00     0.107 C 
BRANCH   6   7
ATOM      7  C   UNL     1      11.436 -58.622 -21.651  1.00  0.00     0.024 C 
ATOM      8  C   UNL     1      11.557 -58.338 -20.163  1.00  0.00     0.006 C 
ENDBRANCH   6   7
BRANCH   6   9
ATOM      9  C   UNL     1      11.254 -56.708 -23.386  1.00  0.00     0.024 C 
ATOM     10  C   UNL     1      11.059 -55.233 -23.052  1.00  0.00     0.006 C 
ENDBRANCH   6   9
ENDBRANCH   1   6
BRANCH   3  11
ATOM     11  C   UNL     1       7.708 -61.334 -24.324  1.00  0.00     0.269 C 
ATOM     12  O   UNL     1       6.525 -61.610 -24.104  1.00  0.00    -0.284 OA
BRANCH  11  13
ATOM     13  C   UNL     1       8.679 -62.324 -24.963  1.00  0.00     0.454 C 
ATOM     14  F   UNL     1       9.506 -62.930 -24.068  1.00  0.00    -0.163 F 
ATOM     15  F   UNL     1       8.032 -63.326 -25.624  1.00  0.00    -0.163 F 
ATOM     16  F   UNL     1       9.488 -61.730 -25.887  1.00  0.00    -0.163 F 
ENDBRANCH  11  13
ENDBRANCH   3  11
TORSDOF 5
ENDMDL
MODEL 4
REMARK VINA RESULT:    -7.338      3.718      4.964
REMARK INTER + INTRA:          -9.958
REMARK INTER:                  -9.493
REMARK INTRA:                  -0.465
REMARK UNBOUND:                -0.475
REMARK SMILES CCC(CC)n1cc(C(=O)C(F)(F)F)cn1
REMARK SMILES IDX 6 1 7 2 8 3 15 4 16 5 3 6 2 7 1 8 4 9 5 10 9 11 10 12 11 13
REMARK SMILES IDX 12 14 13 15 14 16
REMARK H PARENT
ROOT
ATOM      1  N   UNL     1      11.118 -55.349 -23.277  1.00  0.00    -0.269 N 
ATOM      2  C   UNL     1      10.887 -55.956 -22.075  1.00  0.00     0.121 A 
ATOM      3  C   UNL     1      11.265 -57.278 -22.218  1.00  0.00     0.065 A 
ATOM      4  C   UNL     1      11.713 -57.357 -23.555  1.00  0.00     0.147 A 
ATOM      5  N   UNL     1      11.625 -56.191 -24.197  1.00  0.00    -0.180 NA
ENDROOT
BRANCH   1   6
ATOM      6  C   UNL     1      10.876 -53.944 -23.630  1.00  0.00     0.107 C 
BRANCH   6   7
ATOM      7  C   UNL     1       9.811 -53.353 -22.684  1.00  0.00     0.024 C 
ATOM      8  C   UNL     1      10.188 -52.014 -22.074  1.00  0.00     0.006 C 
ENDBRANCH   6   7
BRANCH   6   9
ATOM      9  C   UNL     1      12.204 -53.160 -23.655  1.00  0.00     0.024 C 
ATOM     10  C   UNL     1      12.774 -52.999 -25.060  1.00  0.00     0.006 C 
ENDBRANCH   6   9
ENDBRANCH   1   6
BRANCH   3  11
ATOM     11  C   UNL     1      11.195 -58.308 -21.187  1.00  0.00     0.269 C 
ATOM     12  O   UNL     1      11.679 -58.103 -20.070  1.00  0.00    -0.284 OA
BRANCH  11  13
ATOM     13  C   UNL     1      10.507 -59.619 -21.556  1.00  0.00     0.454 C 
ATOM     14  F   UNL     1       9.390 -59.454 -22.315  1.00  0.00    -0.163 F 
ATOM     15  F   UNL     1      11.327 -60.452 -22.261  1.00  0.00    -0.163 F 
ATOM     16  F   UNL     1      10.118 -60.326 -20.455  1.00  0.00    -0.163 F 
ENDBRANCH  11  13
ENDBRANCH   3  11
TORSDOF 5
ENDMDL
MODEL 5
REMARK VINA RESULT:    -7.222      4.416      6.096
REMARK INTER + INTRA:          -9.808
REMARK INTER:                  -9.385
REMARK INTRA:                  -0.423
REMARK UNBOUND:                -0.475
REMARK SMILES CCC(CC)n1cc(C(=O)C(F)(F)F)cn1
REMARK SMILES IDX 6 1 7 2 8 3 15 4 16 5 3 6 2 7 1 8 4 9 5 10 9 11 10 12 11 13
REMARK SMILES IDX 12 14 13 15 14 16
REMARK H PARENT
ROOT
ATOM      1  N   UNL     1       9.839 -59.601 -22.277  1.00  0.00    -0.269 N 
ATOM      2  C   UNL     1       9.851 -58.467 -23.039  1.00  0.00     0.121 A 
ATOM      3  C   UNL     1      10.792 -57.623 -22.479  1.00  0.00     0.065 A 
ATOM      4  C   UNL     1      11.289 -58.355 -21.378  1.00  0.00     0.147 A 
ATOM      5  N   UNL     1      10.713 -59.552 -21.254  1.00  0.00    -0.180 NA
ENDROOT
BRANCH   1   6
ATOM      6  C   UNL     1       9.004 -60.795 -22.466  1.00  0.00     0.107 C 
BRANCH   6   7
ATOM      7  C   UNL     1       8.101 -60.600 -23.700  1.00  0.00     0.024 C 
ATOM      8  C   UNL     1       6.663 -60.232 -23.372  1.00  0.00     0.006 C 
ENDBRANCH   6   7
BRANCH   6   9
ATOM      9  C   UNL     1       9.884 -62.061 -22.519  1.00  0.00     0.024 C 
ATOM     10  C   UNL     1      10.888 -62.040 -23.667  1.00  0.00     0.006 C 
ENDBRANCH   6   9
ENDBRANCH   1   6
BRANCH   3  11
ATOM     11  C   UNL     1      11.147 -56.292 -22.961  1.00  0.00     0.269 C 
ATOM     12  O   UNL     1      11.714 -56.156 -24.050  1.00  0.00    -0.284 OA
BRANCH  11  13
ATOM     13  C   UNL     1      10.788 -55.107 -22.068  1.00  0.00     0.454 C 
ATOM     14  F   UNL     1       9.448 -54.905 -21.945  1.00  0.00    -0.163 F 
ATOM     15  F   UNL     1      11.270 -55.252 -20.800  1.00  0.00    -0.163 F 
ATOM     16  F   UNL     1      11.309 -53.935 -22.532  1.00  0.00    -0.163 F 
ENDBRANCH  11  13
ENDBRANCH   3  11
TORSDOF 5
ENDMDL
MODEL 6
REMARK VINA RESULT:    -7.219      3.785      5.107
REMARK INTER + INTRA:          -9.804
REMARK INTER:                  -9.346
REMARK INTRA:                  -0.458
REMARK UNBOUND:                -0.475
REMARK SMILES CCC(CC)n1cc(C(=O)C(F)(F)F)cn1
REMARK SMILES IDX 6 1 7 2 8 3 15 4 16 5 3 6 2 7 1 8 4 9 5 10 9 11 10 12 11 13
REMARK SMILES IDX 12 14 13 15 14 16
REMARK H PARENT
ROOT
ATOM      1  N   UNL     1      11.047 -60.505 -23.941  1.00  0.00    -0.269 N 
ATOM      2  C   UNL     1      10.759 -59.753 -25.045  1.00  0.00     0.121 A 
ATOM      3  C   UNL     1      11.917 -59.695 -25.798  1.00  0.00     0.065 A 
ATOM      4  C   UNL     1      12.845 -60.452 -25.049  1.00  0.00     0.147 A 
ATOM      5  N   UNL     1      12.319 -60.943 -23.925  1.00  0.00    -0.180 NA
ENDROOT
BRANCH   1   6
ATOM      6  C   UNL     1      10.142 -60.854 -22.836  1.00  0.00     0.107 C 
BRANCH   6   7
ATOM      7  C   UNL     1      10.008 -62.388 -22.749  1.00  0.00     0.024 C 
ATOM      8  C   UNL     1       9.132 -63.002 -23.828  1.00  0.00     0.006 C 
ENDBRANCH   6   7
BRANCH   6   9
ATOM      9  C   UNL     1      10.610 -60.184 -21.528  1.00  0.00     0.024 C 
ATOM     10  C   UNL     1      10.962 -58.712 -21.706  1.00  0.00     0.006 C 
ENDBRANCH   6   9
ENDBRANCH   1   6
BRANCH   3  11
ATOM     11  C   UNL     1      12.080 -58.996 -27.069  1.00  0.00     0.269 C 
ATOM     12  O   UNL     1      12.200 -57.767 -27.091  1.00  0.00    -0.284 OA
BRANCH  11  13
ATOM     13  C   UNL     1      12.096 -59.846 -28.336  1.00  0.00     0.454 C 
ATOM     14  F   UNL     1      13.218 -60.604 -28.470  1.00  0.00    -0.163 F 
ATOM     15  F   UNL     1      11.043 -60.712 -28.390  1.00  0.00    -0.163 F 
ATOM     16  F   UNL     1      12.011 -59.088 -29.467  1.00  0.00    -0.163 F 
ENDBRANCH  11  13
ENDBRANCH   3  11
TORSDOF 5
ENDMDL
MODEL 7
REMARK VINA RESULT:    -7.098      3.342      4.382
REMARK INTER + INTRA:          -9.647
REMARK INTER:                  -9.143
REMARK INTRA:                  -0.504
REMARK UNBOUND:                -0.475
REMARK SMILES CCC(CC)n1cc(C(=O)C(F)(F)F)cn1
REMARK SMILES IDX 6 1 7 2 8 3 15 4 16 5 3 6 2 7 1 8 4 9 5 10 9 11 10 12 11 13
REMARK SMILES IDX 12 14 13 15 14 16
REMARK H PARENT
ROOT
ATOM      1  N   UNL     1      11.073 -59.099 -23.606  1.00  0.00    -0.269 N 
ATOM      2  C   UNL     1      10.339 -59.306 -24.740  1.00  0.00     0.121 A 
ATOM      3  C   UNL     1      11.220 -59.754 -25.707  1.00  0.00     0.065 A 
ATOM      4  C   UNL     1      12.466 -59.781 -25.042  1.00  0.00     0.147 A 
ATOM      5  N   UNL     1      12.378 -59.385 -23.770  1.00  0.00    -0.180 NA
ENDROOT
BRANCH   1   6
ATOM      6  C   UNL     1      10.591 -58.620 -22.303  1.00  0.00     0.107 C 
BRANCH   6   7
ATOM      7  C   UNL     1      10.712 -59.753 -21.264  1.00  0.00     0.024 C 
ATOM      8  C   UNL     1       9.836 -60.962 -21.549  1.00  0.00     0.006 C 
ENDBRANCH   6   7
BRANCH   6   9
ATOM      9  C   UNL     1      11.317 -57.318 -21.908  1.00  0.00     0.024 C 
ATOM     10  C   UNL     1      10.901 -56.123 -22.758  1.00  0.00     0.006 C 
ENDBRANCH   6   9
ENDBRANCH   1   6
BRANCH   3  11
ATOM     11  C   UNL     1      10.880 -60.104 -27.082  1.00  0.00     0.269 C 
ATOM     12  O   UNL     1       9.847 -60.735 -27.325  1.00  0.00    -0.284 OA
BRANCH  11  13
ATOM     13  C   UNL     1      11.846 -59.658 -28.175  1.00  0.00     0.454 C 
ATOM     14  F   UNL     1      13.057 -60.277 -28.118  1.00  0.00    -0.163 F 
ATOM     15  F   UNL     1      11.356 -59.895 -29.426  1.00  0.00    -0.163 F 
ATOM     16  F   UNL     1      12.101 -58.318 -28.124  1.00  0.00    -0.163 F 
ENDBRANCH  11  13
ENDBRANCH   3  11
TORSDOF 5
ENDMDL
MODEL 8
REMARK VINA RESULT:    -7.091      3.292      5.441
REMARK INTER + INTRA:          -9.639
REMARK INTER:                  -9.212
REMARK INTRA:                  -0.428
REMARK UNBOUND:                -0.475
REMARK SMILES CCC(CC)n1cc(C(=O)C(F)(F)F)cn1
REMARK SMILES IDX 6 1 7 2 8 3 15 4 16 5 3 6 2 7 1 8 4 9 5 10 9 11 10 12 11 13
REMARK SMILES IDX 12 14 13 15 14 16
REMARK H PARENT
ROOT
ATOM      1  N   UNL     1       8.198 -60.988 -24.249  1.00  0.00    -0.269 N 
ATOM      2  C   UNL     1       9.365 -60.310 -24.038  1.00  0.00     0.121 A 
ATOM      3  C   UNL     1       9.058 -59.239 -23.219  1.00  0.00     0.065 A 
ATOM      4  C   UNL     1       7.669 -59.370 -22.997  1.00  0.00     0.147 A 
ATOM      5  N   UNL     1       7.147 -60.429 -23.620  1.00  0.00    -0.180 NA
ENDROOT
BRANCH   1   6
ATOM      6  C   UNL     1       8.002 -62.201 -25.055  1.00  0.00     0.107 C 
BRANCH   6   7
ATOM      7  C   UNL     1       9.146 -62.324 -26.082  1.00  0.00     0.024 C 
ATOM      8  C   UNL     1       8.684 -62.402 -27.528  1.00  0.00     0.006 C 
ENDBRANCH   6   7
BRANCH   6   9
ATOM      9  C   UNL     1       7.837 -63.432 -24.141  1.00  0.00     0.024 C 
ATOM     10  C   UNL     1       8.943 -63.552 -23.099  1.00  0.00     0.006 C 
ENDBRANCH   6   9
ENDBRANCH   1   6
BRANCH   3  11
ATOM     11  C   UNL     1       9.998 -58.236 -22.729  1.00  0.00     0.269 C 
ATOM     12  O   UNL     1       9.955 -57.080 -23.162  1.00  0.00    -0.284 OA
BRANCH  11  13
ATOM     13  C   UNL     1      11.011 -58.683 -21.679  1.00  0.00     0.454 C 
ATOM     14  F   UNL     1      10.554 -59.676 -20.869  1.00  0.00    -0.163 F 
ATOM     15  F   UNL     1      12.164 -59.149 -22.239  1.00  0.00    -0.163 F 
ATOM     16  F   UNL     1      11.385 -57.661 -20.855  1.00  0.00    -0.163 F 
ENDBRANCH  11  13
ENDBRANCH   3  11
TORSDOF 5
ENDMDL
MODEL 9
REMARK VINA RESULT:    -6.955      3.326      5.649
REMARK INTER + INTRA:          -9.463
REMARK INTER:                  -8.901
REMARK INTRA:                  -0.562
REMARK UNBOUND:                -0.475
REMARK SMILES CCC(CC)n1cc(C(=O)C(F)(F)F)cn1
REMARK SMILES IDX 6 1 7 2 8 3 15 4 16 5 3 6 2 7 1 8 4 9 5 10 9 11 10 12 11 13
REMARK SMILES IDX 12 14 13 15 14 16
REMARK H PARENT
ROOT
ATOM      1  N   UNL     1       8.711 -61.372 -24.278  1.00  0.00    -0.269 N 
ATOM      2  C   UNL     1       9.791 -60.632 -23.887  1.00  0.00     0.121 A 
ATOM      3  C   UNL     1       9.295 -59.442 -23.386  1.00  0.00     0.065 A 
ATOM      4  C   UNL     1       7.895 -59.575 -23.524  1.00  0.00     0.147 A 
ATOM      5  N   UNL     1       7.541 -60.742 -24.063  1.00  0.00    -0.180 NA
ENDROOT
BRANCH   1   6
ATOM      6  C   UNL     1       8.717 -62.715 -24.876  1.00  0.00     0.107 C 
BRANCH   6   7
ATOM      7  C   UNL     1       7.970 -63.693 -23.946  1.00  0.00     0.024 C 
ATOM      8  C   UNL     1       8.631 -63.901 -22.594  1.00  0.00     0.006 C 
ENDBRANCH   6   7
BRANCH   6   9
ATOM      9  C   UNL     1       8.165 -62.663 -26.315  1.00  0.00     0.024 C 
ATOM     10  C   UNL     1       9.139 -62.032 -27.303  1.00  0.00     0.006 C 
ENDBRANCH   6   9
ENDBRANCH   1   6
BRANCH   3  11
ATOM     11  C   UNL     1      10.087 -58.339 -22.851  1.00  0.00     0.269 C 
ATOM     12  O   UNL     1       9.946 -57.198 -23.299  1.00  0.00    -0.284 OA
BRANCH  11  13
ATOM     13  C   UNL     1      11.074 -58.667 -21.733  1.00  0.00     0.454 C 
ATOM     14  F   UNL     1      12.259 -59.164 -22.182  1.00  0.00    -0.163 F 
ATOM     15  F   UNL     1      11.380 -57.573 -20.978  1.00  0.00    -0.163 F 
ATOM     16  F   UNL     1      10.578 -59.593 -20.862  1.00  0.00    -0.163 F 
ENDBRANCH  11  13
ENDBRANCH   3  11
TORSDOF 5
ENDMDL
