MODEL 1
REMARK VINA RESULT:    -9.196      0.000      0.000
REMARK INTER + INTRA:         -13.648
REMARK INTER:                 -12.691
REMARK INTRA:                  -0.958
REMARK UNBOUND:                -0.958
REMARK SMILES COc1cccc([C@H]2C=C(c3cc(F)ccc3F)NN2c2ccc(S(N)(=O)=O)cc2)c1OC
REMARK SMILES IDX 21 1 22 2 23 3 24 4 29 5 30 6 20 7 19 8 10 9 9 10 8 11 11 13
REMARK SMILES IDX 12 14 17 15 13 16 16 17 15 18 18 19 14 20 7 21 6 22 31 23
REMARK SMILES IDX 5 24 3 25 4 26 32 27 33 28 2 29 1 30 25 31 27 32 28 33 26 34
REMARK H PARENT 19 12 26 35 26 36
ROOT
ATOM      1  C   UNL     1      12.325 -48.102 -23.901  1.00  0.00     0.058 A 
ATOM      2  C   UNL     1      11.759 -47.497 -22.766  1.00  0.00     0.029 A 
ATOM      3  C   UNL     1      11.550 -46.114 -22.694  1.00  0.00     0.024 A 
ATOM      4  C   UNL     1      11.918 -45.310 -23.769  1.00  0.00     0.082 A 
ATOM      5  C   UNL     1      12.481 -45.874 -24.912  1.00  0.00     0.024 A 
ATOM      6  C   UNL     1      12.684 -47.257 -24.966  1.00  0.00     0.029 A 
ENDROOT
BRANCH   1   7
ATOM      7  N   UNL     1      12.520 -49.479 -23.993  1.00  0.00    -0.276 N 
ATOM      8  N   UNL     1      11.901 -50.439 -23.206  1.00  0.00    -0.297 N 
ATOM      9  C   UNL     1      12.238 -51.709 -23.666  1.00  0.00     0.063 C 
ATOM     10  C   UNL     1      13.131 -51.612 -24.665  1.00  0.00     0.033 C 
ATOM     11  C   UNL     1      13.431 -50.155 -24.969  1.00  0.00     0.165 C 
ATOM     12  H   UNL     1      10.888 -50.335 -23.110  1.00  0.00     0.188 HD
BRANCH   9  13
ATOM     13  C   UNL     1      11.645 -52.919 -23.092  1.00  0.00     0.038 A 
ATOM     14  C   UNL     1      11.278 -52.942 -21.738  1.00  0.00     0.052 A 
ATOM     15  C   UNL     1      11.403 -54.072 -23.855  1.00  0.00     0.132 A 
ATOM     16  C   UNL     1      10.702 -54.083 -21.183  1.00  0.00     0.124 A 
ATOM     17  C   UNL     1      10.825 -55.213 -23.296  1.00  0.00     0.043 A 
ATOM     18  C   UNL     1      10.471 -55.218 -21.950  1.00  0.00     0.042 A 
ATOM     19  F   UNL     1      11.715 -54.107 -25.161  1.00  0.00    -0.206 F 
ATOM     20  F   UNL     1      10.363 -54.085 -19.889  1.00  0.00    -0.207 F 
ENDBRANCH   9  13
BRANCH  11  21
ATOM     21  C   UNL     1      14.903 -49.832 -24.764  1.00  0.00     0.026 A 
ATOM     22  C   UNL     1      15.408 -49.492 -23.496  1.00  0.00     0.010 A 
ATOM     23  C   UNL     1      15.805 -49.904 -25.843  1.00  0.00     0.166 A 
ATOM     24  C   UNL     1      16.756 -49.183 -23.323  1.00  0.00     0.004 A 
ATOM     25  C   UNL     1      17.165 -49.565 -25.683  1.00  0.00     0.161 A 
ATOM     26  C   UNL     1      17.628 -49.209 -24.412  1.00  0.00     0.050 A 
BRANCH  23  27
ATOM     27  O   UNL     1      15.280 -50.255 -27.067  1.00  0.00    -0.492 OA
ATOM     28  C   UNL     1      15.029 -49.116 -27.894  1.00  0.00     0.278 C 
ENDBRANCH  23  27
BRANCH  25  29
ATOM     29  O   UNL     1      17.945 -49.592 -26.810  1.00  0.00    -0.493 OA
ATOM     30  C   UNL     1      18.742 -50.747 -27.034  1.00  0.00     0.278 C 
ENDBRANCH  25  29
ENDBRANCH  11  21
ENDBRANCH   1   7
BRANCH   4  31
ATOM     31  S   UNL     1      11.637 -43.564 -23.712  1.00  0.00     0.238 S 
ATOM     32  O   UNL     1      11.301 -43.197 -22.356  1.00  0.00    -0.207 OA
ATOM     33  O   UNL     1      12.679 -42.901 -24.463  1.00  0.00    -0.207 OA
BRANCH  31  34
ATOM     34  N   UNL     1      10.248 -43.412 -24.654  1.00  0.00    -0.225 NA
ATOM     35  H   UNL     1       9.438 -43.370 -24.033  1.00  0.00     0.137 HD
ATOM     36  H   UNL     1      10.280 -42.614 -25.287  1.00  0.00     0.137 HD
ENDBRANCH  31  34
ENDBRANCH   4  31
TORSDOF 7
ENDMDL
MODEL 2
REMARK VINA RESULT:    -9.168      1.835      2.519
REMARK INTER + INTRA:         -13.609
REMARK INTER:                 -12.826
REMARK INTRA:                  -0.783
REMARK UNBOUND:                -0.958
REMARK SMILES COc1cccc([C@H]2C=C(c3cc(F)ccc3F)NN2c2ccc(S(N)(=O)=O)cc2)c1OC
REMARK SMILES IDX 21 1 22 2 23 3 24 4 29 5 30 6 20 7 19 8 10 9 9 10 8 11 11 13
REMARK SMILES IDX 12 14 17 15 13 16 16 17 15 18 18 19 14 20 7 21 6 22 31 23
REMARK SMILES IDX 5 24 3 25 4 26 32 27 33 28 2 29 1 30 25 31 27 32 28 33 26 34
REMARK H PARENT 19 12 26 35 26 36
ROOT
ATOM      1  C   UNL     1      12.031 -49.923 -23.602  1.00  0.00     0.058 A 
ATOM      2  C   UNL     1      12.811 -48.881 -24.130  1.00  0.00     0.029 A 
ATOM      3  C   UNL     1      12.591 -47.544 -23.777  1.00  0.00     0.024 A 
ATOM      4  C   UNL     1      11.569 -47.231 -22.885  1.00  0.00     0.082 A 
ATOM      5  C   UNL     1      10.775 -48.238 -22.339  1.00  0.00     0.024 A 
ATOM      6  C   UNL     1      11.008 -49.568 -22.705  1.00  0.00     0.029 A 
ENDROOT
BRANCH   1   7
ATOM      7  N   UNL     1      12.251 -51.260 -23.930  1.00  0.00    -0.276 N 
ATOM      8  N   UNL     1      11.619 -52.350 -23.350  1.00  0.00    -0.297 N 
ATOM      9  C   UNL     1      11.992 -53.515 -24.015  1.00  0.00     0.063 C 
ATOM     10  C   UNL     1      12.918 -53.234 -24.947  1.00  0.00     0.033 C 
ATOM     11  C   UNL     1      13.207 -51.743 -24.975  1.00  0.00     0.165 C 
ATOM     12  H   UNL     1      10.602 -52.274 -23.276  1.00  0.00     0.188 HD
BRANCH   9  13
ATOM     13  C   UNL     1      11.397 -54.814 -23.689  1.00  0.00     0.038 A 
ATOM     14  C   UNL     1      12.072 -55.996 -24.031  1.00  0.00     0.052 A 
ATOM     15  C   UNL     1      10.169 -54.930 -23.020  1.00  0.00     0.132 A 
ATOM     16  C   UNL     1      11.521 -57.236 -23.716  1.00  0.00     0.124 A 
ATOM     17  C   UNL     1       9.621 -56.176 -22.705  1.00  0.00     0.043 A 
ATOM     18  C   UNL     1      10.304 -57.338 -23.056  1.00  0.00     0.042 A 
ATOM     19  F   UNL     1       9.484 -53.837 -22.650  1.00  0.00    -0.206 F 
ATOM     20  F   UNL     1      12.179 -58.352 -24.054  1.00  0.00    -0.207 F 
ENDBRANCH   9  13
BRANCH  11  21
ATOM     21  C   UNL     1      14.665 -51.449 -24.660  1.00  0.00     0.026 A 
ATOM     22  C   UNL     1      15.202 -51.696 -23.384  1.00  0.00     0.010 A 
ATOM     23  C   UNL     1      15.524 -50.954 -25.661  1.00  0.00     0.166 A 
ATOM     24  C   UNL     1      16.536 -51.408 -23.103  1.00  0.00     0.004 A 
ATOM     25  C   UNL     1      16.868 -50.633 -25.377  1.00  0.00     0.161 A 
ATOM     26  C   UNL     1      17.363 -50.870 -24.090  1.00  0.00     0.050 A 
BRANCH  23  27
ATOM     27  O   UNL     1      14.970 -50.739 -26.903  1.00  0.00    -0.492 OA
ATOM     28  C   UNL     1      14.726 -49.352 -27.153  1.00  0.00     0.278 C 
ENDBRANCH  23  27
BRANCH  25  29
ATOM     29  O   UNL     1      17.601 -50.084 -26.398  1.00  0.00    -0.493 OA
ATOM     30  C   UNL     1      18.563 -50.912 -27.039  1.00  0.00     0.278 C 
ENDBRANCH  25  29
ENDBRANCH  11  21
ENDBRANCH   1   7
BRANCH   4  31
ATOM     31  S   UNL     1      11.291 -45.551 -22.401  1.00  0.00     0.238 S 
ATOM     32  O   UNL     1      12.080 -45.277 -21.223  1.00  0.00    -0.207 OA
ATOM     33  O   UNL     1      11.335 -44.716 -23.579  1.00  0.00    -0.207 OA
BRANCH  31  34
ATOM     34  N   UNL     1       9.669 -45.591 -21.948  1.00  0.00    -0.225 NA
ATOM     35  H   UNL     1       9.117 -45.129 -22.673  1.00  0.00     0.137 HD
ATOM     36  H   UNL     1       9.330 -46.534 -21.759  1.00  0.00     0.137 HD
ENDBRANCH  31  34
ENDBRANCH   4  31
TORSDOF 7
ENDMDL
MODEL 3
REMARK VINA RESULT:    -8.903      3.563      5.744
REMARK INTER + INTRA:         -13.244
REMARK INTER:                 -11.703
REMARK INTRA:                  -1.540
REMARK UNBOUND:                -0.958
REMARK SMILES COc1cccc([C@H]2C=C(c3cc(F)ccc3F)NN2c2ccc(S(N)(=O)=O)cc2)c1OC
REMARK SMILES IDX 21 1 22 2 23 3 24 4 29 5 30 6 20 7 19 8 10 9 9 10 8 11 11 13
REMARK SMILES IDX 12 14 17 15 13 16 16 17 15 18 18 19 14 20 7 21 6 22 31 23
REMARK SMILES IDX 5 24 3 25 4 26 32 27 33 28 2 29 1 30 25 31 27 32 28 33 26 34
REMARK H PARENT 19 12 26 35 26 36
ROOT
ATOM      1  C   UNL     1      14.378 -47.730 -21.225  1.00  0.00     0.058 A 
ATOM      2  C   UNL     1      13.994 -47.224 -19.972  1.00  0.00     0.029 A 
ATOM      3  C   UNL     1      14.888 -46.517 -19.158  1.00  0.00     0.024 A 
ATOM      4  C   UNL     1      16.195 -46.311 -19.593  1.00  0.00     0.082 A 
ATOM      5  C   UNL     1      16.611 -46.797 -20.831  1.00  0.00     0.024 A 
ATOM      6  C   UNL     1      15.706 -47.504 -21.630  1.00  0.00     0.029 A 
ENDROOT
BRANCH   1   7
ATOM      7  N   UNL     1      13.494 -48.420 -22.054  1.00  0.00    -0.276 N 
ATOM      8  N   UNL     1      13.558 -49.772 -22.357  1.00  0.00    -0.297 N 
ATOM      9  C   UNL     1      12.442 -50.136 -23.106  1.00  0.00     0.063 C 
ATOM     10  C   UNL     1      11.702 -49.050 -23.382  1.00  0.00     0.033 C 
ATOM     11  C   UNL     1      12.318 -47.813 -22.752  1.00  0.00     0.165 C 
ATOM     12  H   UNL     1      13.685 -50.392 -21.554  1.00  0.00     0.188 HD
BRANCH   9  13
ATOM     13  C   UNL     1      12.185 -51.529 -23.480  1.00  0.00     0.038 A 
ATOM     14  C   UNL     1      12.817 -52.076 -24.608  1.00  0.00     0.052 A 
ATOM     15  C   UNL     1      11.336 -52.363 -22.737  1.00  0.00     0.132 A 
ATOM     16  C   UNL     1      12.590 -53.403 -24.967  1.00  0.00     0.124 A 
ATOM     17  C   UNL     1      11.112 -53.692 -23.100  1.00  0.00     0.043 A 
ATOM     18  C   UNL     1      11.745 -54.216 -24.224  1.00  0.00     0.042 A 
ATOM     19  F   UNL     1      10.717 -51.904 -21.637  1.00  0.00    -0.206 F 
ATOM     20  F   UNL     1      13.200 -53.904 -26.048  1.00  0.00    -0.207 F 
ENDBRANCH   9  13
BRANCH  11  21
ATOM     21  C   UNL     1      12.690 -46.777 -23.800  1.00  0.00     0.026 A 
ATOM     22  C   UNL     1      13.365 -47.139 -24.980  1.00  0.00     0.010 A 
ATOM     23  C   UNL     1      12.330 -45.426 -23.626  1.00  0.00     0.166 A 
ATOM     24  C   UNL     1      13.715 -46.178 -25.927  1.00  0.00     0.004 A 
ATOM     25  C   UNL     1      12.705 -44.443 -24.565  1.00  0.00     0.161 A 
ATOM     26  C   UNL     1      13.397 -44.835 -25.717  1.00  0.00     0.050 A 
BRANCH  23  27
ATOM     27  O   UNL     1      11.657 -45.108 -22.468  1.00  0.00    -0.492 OA
ATOM     28  C   UNL     1      10.241 -45.238 -22.612  1.00  0.00     0.278 C 
ENDBRANCH  23  27
BRANCH  25  29
ATOM     29  O   UNL     1      12.376 -43.146 -24.267  1.00  0.00    -0.493 OA
ATOM     30  C   UNL     1      11.361 -42.527 -25.046  1.00  0.00     0.278 C 
ENDBRANCH  25  29
ENDBRANCH  11  21
ENDBRANCH   1   7
BRANCH   4  31
ATOM     31  S   UNL     1      17.332 -45.395 -18.594  1.00  0.00     0.238 S 
ATOM     32  O   UNL     1      18.661 -45.916 -18.816  1.00  0.00    -0.207 OA
ATOM     33  O   UNL     1      17.020 -43.989 -18.706  1.00  0.00    -0.207 OA
BRANCH  31  34
ATOM     34  N   UNL     1      16.851 -45.833 -17.041  1.00  0.00    -0.225 NA
ATOM     35  H   UNL     1      17.686 -45.993 -16.474  1.00  0.00     0.137 HD
ATOM     36  H   UNL     1      16.227 -45.152 -16.609  1.00  0.00     0.137 HD
ENDBRANCH  31  34
ENDBRANCH   4  31
TORSDOF 7
ENDMDL
MODEL 4
REMARK VINA RESULT:    -8.809      4.438      7.466
REMARK INTER + INTRA:         -13.114
REMARK INTER:                 -11.616
REMARK INTRA:                  -1.498
REMARK UNBOUND:                -0.958
REMARK SMILES COc1cccc([C@H]2C=C(c3cc(F)ccc3F)NN2c2ccc(S(N)(=O)=O)cc2)c1OC
REMARK SMILES IDX 21 1 22 2 23 3 24 4 29 5 30 6 20 7 19 8 10 9 9 10 8 11 11 13
REMARK SMILES IDX 12 14 17 15 13 16 16 17 15 18 18 19 14 20 7 21 6 22 31 23
REMARK SMILES IDX 5 24 3 25 4 26 32 27 33 28 2 29 1 30 25 31 27 32 28 33 26 34
REMARK H PARENT 19 12 26 35 26 36
ROOT
ATOM      1  C   UNL     1      13.314 -50.955 -24.704  1.00  0.00     0.058 A 
ATOM      2  C   UNL     1      13.046 -52.305 -24.988  1.00  0.00     0.029 A 
ATOM      3  C   UNL     1      12.124 -53.047 -24.239  1.00  0.00     0.024 A 
ATOM      4  C   UNL     1      11.456 -52.439 -23.179  1.00  0.00     0.082 A 
ATOM      5  C   UNL     1      11.695 -51.102 -22.868  1.00  0.00     0.024 A 
ATOM      6  C   UNL     1      12.621 -50.376 -23.625  1.00  0.00     0.029 A 
ENDROOT
BRANCH   1   7
ATOM      7  N   UNL     1      14.216 -50.200 -25.452  1.00  0.00    -0.276 N 
ATOM      8  N   UNL     1      14.456 -50.340 -26.811  1.00  0.00    -0.297 N 
ATOM      9  C   UNL     1      15.319 -49.336 -27.239  1.00  0.00     0.063 C 
ATOM     10  C   UNL     1      15.726 -48.603 -26.190  1.00  0.00     0.033 C 
ATOM     11  C   UNL     1      15.074 -49.101 -24.911  1.00  0.00     0.165 C 
ATOM     12  H   UNL     1      13.620 -50.386 -27.398  1.00  0.00     0.188 HD
BRANCH   9  13
ATOM     13  C   UNL     1      15.666 -49.168 -28.653  1.00  0.00     0.038 A 
ATOM     14  C   UNL     1      14.726 -48.627 -29.543  1.00  0.00     0.052 A 
ATOM     15  C   UNL     1      16.928 -49.513 -29.163  1.00  0.00     0.132 A 
ATOM     16  C   UNL     1      15.048 -48.452 -30.887  1.00  0.00     0.124 A 
ATOM     17  C   UNL     1      17.247 -49.335 -30.510  1.00  0.00     0.043 A 
ATOM     18  C   UNL     1      16.300 -48.800 -31.379  1.00  0.00     0.042 A 
ATOM     19  F   UNL     1      17.877 -50.018 -28.359  1.00  0.00    -0.206 F 
ATOM     20  F   UNL     1      14.135 -47.938 -31.720  1.00  0.00    -0.207 F 
ENDBRANCH   9  13
BRANCH  11  21
ATOM     21  C   UNL     1      16.110 -49.568 -23.900  1.00  0.00     0.026 A 
ATOM     22  C   UNL     1      17.034 -50.580 -24.214  1.00  0.00     0.010 A 
ATOM     23  C   UNL     1      16.189 -48.964 -22.630  1.00  0.00     0.166 A 
ATOM     24  C   UNL     1      17.969 -51.011 -23.275  1.00  0.00     0.004 A 
ATOM     25  C   UNL     1      17.113 -49.413 -21.664  1.00  0.00     0.161 A 
ATOM     26  C   UNL     1      18.002 -50.438 -22.002  1.00  0.00     0.050 A 
BRANCH  23  27
ATOM     27  O   UNL     1      15.279 -47.966 -22.361  1.00  0.00    -0.492 OA
ATOM     28  C   UNL     1      15.841 -46.662 -22.529  1.00  0.00     0.278 C 
ENDBRANCH  23  27
BRANCH  25  29
ATOM     29  O   UNL     1      17.059 -48.814 -20.431  1.00  0.00    -0.493 OA
ATOM     30  C   UNL     1      18.269 -48.713 -19.693  1.00  0.00     0.278 C 
ENDBRANCH  25  29
ENDBRANCH  11  21
ENDBRANCH   1   7
BRANCH   4  31
ATOM     31  S   UNL     1      10.264 -53.348 -22.238  1.00  0.00     0.238 S 
ATOM     32  O   UNL     1       9.923 -54.547 -22.967  1.00  0.00    -0.207 OA
ATOM     33  O   UNL     1      10.683 -53.370 -20.856  1.00  0.00    -0.207 OA
BRANCH  31  34
ATOM     34  N   UNL     1       8.936 -52.313 -22.281  1.00  0.00    -0.225 NA
ATOM     35  H   UNL     1       8.716 -52.026 -21.325  1.00  0.00     0.137 HD
ATOM     36  H   UNL     1       9.074 -51.510 -22.894  1.00  0.00     0.137 HD
ENDBRANCH  31  34
ENDBRANCH   4  31
TORSDOF 7
ENDMDL
MODEL 5
REMARK VINA RESULT:    -8.789      4.155      7.262
REMARK INTER + INTRA:         -13.087
REMARK INTER:                 -12.028
REMARK INTRA:                  -1.059
REMARK UNBOUND:                -0.958
REMARK SMILES COc1cccc([C@H]2C=C(c3cc(F)ccc3F)NN2c2ccc(S(N)(=O)=O)cc2)c1OC
REMARK SMILES IDX 21 1 22 2 23 3 24 4 29 5 30 6 20 7 19 8 10 9 9 10 8 11 11 13
REMARK SMILES IDX 12 14 17 15 13 16 16 17 15 18 18 19 14 20 7 21 6 22 31 23
REMARK SMILES IDX 5 24 3 25 4 26 32 27 33 28 2 29 1 30 25 31 27 32 28 33 26 34
REMARK H PARENT 19 12 26 35 26 36
ROOT
ATOM      1  C   UNL     1      12.275 -50.963 -23.187  1.00  0.00     0.058 A 
ATOM      2  C   UNL     1      11.476 -51.507 -22.167  1.00  0.00     0.029 A 
ATOM      3  C   UNL     1      11.035 -52.835 -22.205  1.00  0.00     0.024 A 
ATOM      4  C   UNL     1      11.388 -53.643 -23.283  1.00  0.00     0.082 A 
ATOM      5  C   UNL     1      12.180 -53.140 -24.312  1.00  0.00     0.024 A 
ATOM      6  C   UNL     1      12.610 -51.810 -24.259  1.00  0.00     0.029 A 
ENDROOT
BRANCH   1   7
ATOM      7  N   UNL     1      12.736 -49.648 -23.153  1.00  0.00    -0.276 N 
ATOM      8  N   UNL     1      11.946 -48.511 -23.235  1.00  0.00    -0.297 N 
ATOM      9  C   UNL     1      12.732 -47.380 -23.037  1.00  0.00     0.063 C 
ATOM     10  C   UNL     1      14.023 -47.734 -22.924  1.00  0.00     0.033 C 
ATOM     11  C   UNL     1      14.169 -49.243 -23.013  1.00  0.00     0.165 C 
ATOM     12  H   UNL     1      11.127 -48.506 -22.623  1.00  0.00     0.188 HD
BRANCH   9  13
ATOM     13  C   UNL     1      12.149 -46.038 -22.963  1.00  0.00     0.038 A 
ATOM     14  C   UNL     1      12.722 -45.074 -22.120  1.00  0.00     0.052 A 
ATOM     15  C   UNL     1      11.033 -45.661 -23.727  1.00  0.00     0.132 A 
ATOM     16  C   UNL     1      12.182 -43.791 -22.049  1.00  0.00     0.124 A 
ATOM     17  C   UNL     1      10.497 -44.374 -23.654  1.00  0.00     0.043 A 
ATOM     18  C   UNL     1      11.076 -43.431 -22.809  1.00  0.00     0.042 A 
ATOM     19  F   UNL     1      10.451 -46.532 -24.566  1.00  0.00    -0.206 F 
ATOM     20  F   UNL     1      12.742 -42.887 -21.236  1.00  0.00    -0.207 F 
ENDBRANCH   9  13
BRANCH  11  21
ATOM     21  C   UNL     1      15.044 -49.652 -24.187  1.00  0.00     0.026 A 
ATOM     22  C   UNL     1      14.903 -49.049 -25.450  1.00  0.00     0.010 A 
ATOM     23  C   UNL     1      16.047 -50.628 -24.023  1.00  0.00     0.166 A 
ATOM     24  C   UNL     1      15.699 -49.443 -26.523  1.00  0.00     0.004 A 
ATOM     25  C   UNL     1      16.838 -51.053 -25.111  1.00  0.00     0.161 A 
ATOM     26  C   UNL     1      16.655 -50.447 -26.358  1.00  0.00     0.050 A 
BRANCH  23  27
ATOM     27  O   UNL     1      16.168 -51.188 -22.771  1.00  0.00    -0.492 OA
ATOM     28  C   UNL     1      17.250 -50.622 -22.028  1.00  0.00     0.278 C 
ENDBRANCH  23  27
BRANCH  25  29
ATOM     29  O   UNL     1      17.733 -52.063 -24.866  1.00  0.00    -0.493 OA
ATOM     30  C   UNL     1      19.085 -51.852 -25.250  1.00  0.00     0.278 C 
ENDBRANCH  25  29
ENDBRANCH  11  21
ENDBRANCH   1   7
BRANCH   4  31
ATOM     31  S   UNL     1      10.867 -55.334 -23.337  1.00  0.00     0.238 S 
ATOM     32  O   UNL     1       9.446 -55.368 -23.592  1.00  0.00    -0.207 OA
ATOM     33  O   UNL     1      11.817 -56.087 -24.123  1.00  0.00    -0.207 OA
BRANCH  31  34
ATOM     34  N   UNL     1      11.125 -55.820 -21.745  1.00  0.00    -0.225 NA
ATOM     35  H   UNL     1      11.878 -55.254 -21.350  1.00  0.00     0.137 HD
ATOM     36  H   UNL     1      10.282 -55.779 -21.173  1.00  0.00     0.137 HD
ENDBRANCH  31  34
ENDBRANCH   4  31
TORSDOF 7
ENDMDL
MODEL 6
REMARK VINA RESULT:    -8.720      2.851      5.723
REMARK INTER + INTRA:         -12.991
REMARK INTER:                 -11.671
REMARK INTRA:                  -1.320
REMARK UNBOUND:                -0.958
REMARK SMILES COc1cccc([C@H]2C=C(c3cc(F)ccc3F)NN2c2ccc(S(N)(=O)=O)cc2)c1OC
REMARK SMILES IDX 21 1 22 2 23 3 24 4 29 5 30 6 20 7 19 8 10 9 9 10 8 11 11 13
REMARK SMILES IDX 12 14 17 15 13 16 16 17 15 18 18 19 14 20 7 21 6 22 31 23
REMARK SMILES IDX 5 24 3 25 4 26 32 27 33 28 2 29 1 30 25 31 27 32 28 33 26 34
REMARK H PARENT 19 12 26 35 26 36
ROOT
ATOM      1  C   UNL     1      14.730 -50.158 -25.600  1.00  0.00     0.058 A 
ATOM      2  C   UNL     1      14.357 -49.577 -26.824  1.00  0.00     0.029 A 
ATOM      3  C   UNL     1      15.301 -49.275 -27.814  1.00  0.00     0.024 A 
ATOM      4  C   UNL     1      16.647 -49.549 -27.583  1.00  0.00     0.082 A 
ATOM      5  C   UNL     1      17.054 -50.126 -26.382  1.00  0.00     0.024 A 
ATOM      6  C   UNL     1      16.098 -50.419 -25.403  1.00  0.00     0.029 A 
ENDROOT
BRANCH   1   7
ATOM      7  N   UNL     1      13.799 -50.480 -24.613  1.00  0.00    -0.276 N 
ATOM      8  N   UNL     1      12.985 -51.603 -24.606  1.00  0.00    -0.297 N 
ATOM      9  C   UNL     1      12.280 -51.661 -23.406  1.00  0.00     0.063 C 
ATOM     10  C   UNL     1      12.535 -50.566 -22.672  1.00  0.00     0.033 C 
ATOM     11  C   UNL     1      13.528 -49.667 -23.387  1.00  0.00     0.165 C 
ATOM     12  H   UNL     1      13.461 -52.487 -24.800  1.00  0.00     0.188 HD
BRANCH   9  13
ATOM     13  C   UNL     1      11.420 -52.799 -23.072  1.00  0.00     0.038 A 
ATOM     14  C   UNL     1      11.778 -54.091 -23.490  1.00  0.00     0.052 A 
ATOM     15  C   UNL     1      10.243 -52.656 -22.322  1.00  0.00     0.132 A 
ATOM     16  C   UNL     1      10.973 -55.182 -23.168  1.00  0.00     0.124 A 
ATOM     17  C   UNL     1       9.440 -53.753 -22.001  1.00  0.00     0.043 A 
ATOM     18  C   UNL     1       9.809 -55.026 -22.427  1.00  0.00     0.042 A 
ATOM     19  F   UNL     1       9.856 -51.450 -21.878  1.00  0.00    -0.206 F 
ATOM     20  F   UNL     1      11.331 -56.404 -23.579  1.00  0.00    -0.207 F 
ENDBRANCH   9  13
BRANCH  11  21
ATOM     21  C   UNL     1      12.937 -48.296 -23.675  1.00  0.00     0.026 A 
ATOM     22  C   UNL     1      11.558 -48.125 -23.891  1.00  0.00     0.010 A 
ATOM     23  C   UNL     1      13.761 -47.154 -23.693  1.00  0.00     0.166 A 
ATOM     24  C   UNL     1      11.029 -46.866 -24.169  1.00  0.00     0.004 A 
ATOM     25  C   UNL     1      13.239 -45.881 -24.002  1.00  0.00     0.161 A 
ATOM     26  C   UNL     1      11.866 -45.751 -24.235  1.00  0.00     0.050 A 
BRANCH  23  27
ATOM     27  O   UNL     1      15.104 -47.355 -23.462  1.00  0.00    -0.492 OA
ATOM     28  C   UNL     1      15.462 -47.103 -22.101  1.00  0.00     0.278 C 
ENDBRANCH  23  27
BRANCH  25  29
ATOM     29  O   UNL     1      14.135 -44.845 -24.072  1.00  0.00    -0.493 OA
ATOM     30  C   UNL     1      13.702 -43.567 -23.627  1.00  0.00     0.278 C 
ENDBRANCH  25  29
ENDBRANCH  11  21
ENDBRANCH   1   7
BRANCH   4  31
ATOM     31  S   UNL     1      17.853 -49.204 -28.831  1.00  0.00     0.238 S 
ATOM     32  O   UNL     1      17.240 -48.377 -29.845  1.00  0.00    -0.207 OA
ATOM     33  O   UNL     1      19.098 -48.853 -28.189  1.00  0.00    -0.207 OA
BRANCH  31  34
ATOM     34  N   UNL     1      18.110 -50.734 -29.488  1.00  0.00    -0.225 NA
ATOM     35  H   UNL     1      19.073 -50.785 -29.826  1.00  0.00     0.137 HD
ATOM     36  H   UNL     1      17.897 -51.489 -28.838  1.00  0.00     0.137 HD
ENDBRANCH  31  34
ENDBRANCH   4  31
TORSDOF 7
ENDMDL
MODEL 7
REMARK VINA RESULT:    -8.662      4.285      8.058
REMARK INTER + INTRA:         -12.911
REMARK INTER:                 -11.794
REMARK INTRA:                  -1.117
REMARK UNBOUND:                -0.958
REMARK SMILES COc1cccc([C@H]2C=C(c3cc(F)ccc3F)NN2c2ccc(S(N)(=O)=O)cc2)c1OC
REMARK SMILES IDX 21 1 22 2 23 3 24 4 29 5 30 6 20 7 19 8 10 9 9 10 8 11 11 13
REMARK SMILES IDX 12 14 17 15 13 16 16 17 15 18 18 19 14 20 7 21 6 22 31 23
REMARK SMILES IDX 5 24 3 25 4 26 32 27 33 28 2 29 1 30 25 31 27 32 28 33 26 34
REMARK H PARENT 19 12 26 35 26 36
ROOT
ATOM      1  C   UNL     1      13.137 -51.461 -25.304  1.00  0.00     0.058 A 
ATOM      2  C   UNL     1      12.465 -51.288 -24.083  1.00  0.00     0.029 A 
ATOM      3  C   UNL     1      11.842 -52.356 -23.426  1.00  0.00     0.024 A 
ATOM      4  C   UNL     1      11.880 -53.626 -23.996  1.00  0.00     0.082 A 
ATOM      5  C   UNL     1      12.538 -53.837 -25.206  1.00  0.00     0.024 A 
ATOM      6  C   UNL     1      13.153 -52.758 -25.850  1.00  0.00     0.029 A 
ENDROOT
BRANCH   1   7
ATOM      7  N   UNL     1      13.777 -50.410 -25.960  1.00  0.00    -0.276 N 
ATOM      8  N   UNL     1      14.551 -50.523 -27.105  1.00  0.00    -0.297 N 
ATOM      9  C   UNL     1      14.920 -49.255 -27.546  1.00  0.00     0.063 C 
ATOM     10  C   UNL     1      14.494 -48.326 -26.676  1.00  0.00     0.033 C 
ATOM     11  C   UNL     1      13.729 -48.976 -25.537  1.00  0.00     0.165 C 
ATOM     12  H   UNL     1      14.133 -51.072 -27.860  1.00  0.00     0.188 HD
BRANCH   9  13
ATOM     13  C   UNL     1      15.654 -49.058 -28.800  1.00  0.00     0.038 A 
ATOM     14  C   UNL     1      14.979 -48.586 -29.936  1.00  0.00     0.052 A 
ATOM     15  C   UNL     1      17.030 -49.306 -28.911  1.00  0.00     0.132 A 
ATOM     16  C   UNL     1      15.667 -48.384 -31.130  1.00  0.00     0.124 A 
ATOM     17  C   UNL     1      17.717 -49.101 -30.110  1.00  0.00     0.043 A 
ATOM     18  C   UNL     1      17.030 -48.636 -31.228  1.00  0.00     0.042 A 
ATOM     19  F   UNL     1      17.736 -49.742 -27.855  1.00  0.00    -0.206 F 
ATOM     20  F   UNL     1      15.004 -47.936 -32.203  1.00  0.00    -0.207 F 
ENDBRANCH   9  13
BRANCH  11  21
ATOM     21  C   UNL     1      14.387 -48.707 -24.194  1.00  0.00     0.026 A 
ATOM     22  C   UNL     1      15.643 -49.252 -23.872  1.00  0.00     0.010 A 
ATOM     23  C   UNL     1      13.764 -47.867 -23.250  1.00  0.00     0.166 A 
ATOM     24  C   UNL     1      16.231 -49.011 -22.631  1.00  0.00     0.004 A 
ATOM     25  C   UNL     1      14.338 -47.640 -21.981  1.00  0.00     0.161 A 
ATOM     26  C   UNL     1      15.577 -48.218 -21.686  1.00  0.00     0.050 A 
BRANCH  23  27
ATOM     27  O   UNL     1      12.543 -47.337 -23.603  1.00  0.00    -0.492 OA
ATOM     28  C   UNL     1      11.453 -48.061 -23.027  1.00  0.00     0.278 C 
ENDBRANCH  23  27
BRANCH  25  29
ATOM     29  O   UNL     1      13.616 -46.871 -21.105  1.00  0.00    -0.493 OA
ATOM     30  C   UNL     1      13.880 -47.030 -19.717  1.00  0.00     0.278 C 
ENDBRANCH  25  29
ENDBRANCH  11  21
ENDBRANCH   1   7
BRANCH   4  31
ATOM     31  S   UNL     1      11.126 -54.997 -23.170  1.00  0.00     0.238 S 
ATOM     32  O   UNL     1      11.707 -56.217 -23.680  1.00  0.00    -0.207 OA
ATOM     33  O   UNL     1      11.050 -54.703 -21.758  1.00  0.00    -0.207 OA
BRANCH  31  34
ATOM     34  N   UNL     1       9.539 -54.900 -23.728  1.00  0.00    -0.225 NA
ATOM     35  H   UNL     1       9.558 -54.801 -24.745  1.00  0.00     0.137 HD
ATOM     36  H   UNL     1       8.964 -55.689 -23.437  1.00  0.00     0.137 HD
ENDBRANCH  31  34
ENDBRANCH   4  31
TORSDOF 7
ENDMDL
MODEL 8
REMARK VINA RESULT:    -8.511      4.172      7.890
REMARK INTER + INTRA:         -12.703
REMARK INTER:                 -11.690
REMARK INTRA:                  -1.012
REMARK UNBOUND:                -0.958
REMARK SMILES COc1cccc([C@H]2C=C(c3cc(F)ccc3F)NN2c2ccc(S(N)(=O)=O)cc2)c1OC
REMARK SMILES IDX 21 1 22 2 23 3 24 4 29 5 30 6 20 7 19 8 10 9 9 10 8 11 11 13
REMARK SMILES IDX 12 14 17 15 13 16 16 17 15 18 18 19 14 20 7 21 6 22 31 23
REMARK SMILES IDX 5 24 3 25 4 26 32 27 33 28 2 29 1 30 25 31 27 32 28 33 26 34
REMARK H PARENT 19 12 26 35 26 36
ROOT
ATOM      1  C   UNL     1      12.909 -51.608 -24.740  1.00  0.00     0.058 A 
ATOM      2  C   UNL     1      12.163 -51.359 -23.575  1.00  0.00     0.029 A 
ATOM      3  C   UNL     1      11.419 -52.366 -22.947  1.00  0.00     0.024 A 
ATOM      4  C   UNL     1      11.408 -53.648 -23.490  1.00  0.00     0.082 A 
ATOM      5  C   UNL     1      12.137 -53.933 -24.643  1.00  0.00     0.024 A 
ATOM      6  C   UNL     1      12.873 -52.915 -25.259  1.00  0.00     0.029 A 
ENDROOT
BRANCH   1   7
ATOM      7  N   UNL     1      13.669 -50.620 -25.364  1.00  0.00    -0.276 N 
ATOM      8  N   UNL     1      14.747 -50.841 -26.209  1.00  0.00    -0.297 N 
ATOM      9  C   UNL     1      15.176 -49.631 -26.746  1.00  0.00     0.063 C 
ATOM     10  C   UNL     1      14.478 -48.618 -26.208  1.00  0.00     0.033 C 
ATOM     11  C   UNL     1      13.441 -49.147 -25.233  1.00  0.00     0.165 C 
ATOM     12  H   UNL     1      14.589 -51.537 -26.941  1.00  0.00     0.188 HD
BRANCH   9  13
ATOM     13  C   UNL     1      16.234 -49.568 -27.758  1.00  0.00     0.038 A 
ATOM     14  C   UNL     1      17.544 -49.946 -27.422  1.00  0.00     0.052 A 
ATOM     15  C   UNL     1      15.989 -49.159 -29.077  1.00  0.00     0.132 A 
ATOM     16  C   UNL     1      18.556 -49.901 -28.378  1.00  0.00     0.124 A 
ATOM     17  C   UNL     1      17.006 -49.117 -30.033  1.00  0.00     0.043 A 
ATOM     18  C   UNL     1      18.300 -49.491 -29.680  1.00  0.00     0.042 A 
ATOM     19  F   UNL     1      14.754 -48.803 -29.465  1.00  0.00    -0.206 F 
ATOM     20  F   UNL     1      19.798 -50.262 -28.036  1.00  0.00    -0.207 F 
ENDBRANCH   9  13
BRANCH  11  21
ATOM     21  C   UNL     1      13.668 -48.611 -23.828  1.00  0.00     0.026 A 
ATOM     22  C   UNL     1      14.835 -48.920 -23.107  1.00  0.00     0.010 A 
ATOM     23  C   UNL     1      12.722 -47.756 -23.230  1.00  0.00     0.166 A 
ATOM     24  C   UNL     1      15.026 -48.436 -21.814  1.00  0.00     0.004 A 
ATOM     25  C   UNL     1      12.893 -47.285 -21.912  1.00  0.00     0.161 A 
ATOM     26  C   UNL     1      14.056 -47.631 -21.215  1.00  0.00     0.050 A 
BRANCH  23  27
ATOM     27  O   UNL     1      11.598 -47.461 -23.969  1.00  0.00    -0.492 OA
ATOM     28  C   UNL     1      11.774 -46.296 -24.779  1.00  0.00     0.278 C 
ENDBRANCH  23  27
BRANCH  25  29
ATOM     29  O   UNL     1      11.879 -46.522 -21.391  1.00  0.00    -0.493 OA
ATOM     30  C   UNL     1      11.982 -45.110 -21.521  1.00  0.00     0.278 C 
ENDBRANCH  25  29
ENDBRANCH  11  21
ENDBRANCH   1   7
BRANCH   4  31
ATOM     31  S   UNL     1      10.500 -54.943 -22.697  1.00  0.00     0.238 S 
ATOM     32  O   UNL     1       9.646 -55.572 -23.678  1.00  0.00    -0.207 OA
ATOM     33  O   UNL     1      11.401 -55.695 -21.855  1.00  0.00    -0.207 OA
BRANCH  31  34
ATOM     34  N   UNL     1       9.524 -54.073 -21.635  1.00  0.00    -0.225 NA
ATOM     35  H   UNL     1       9.287 -54.675 -20.844  1.00  0.00     0.137 HD
ATOM     36  H   UNL     1       9.947 -53.198 -21.329  1.00  0.00     0.137 HD
ENDBRANCH  31  34
ENDBRANCH   4  31
TORSDOF 7
ENDMDL
MODEL 9
REMARK VINA RESULT:    -8.485      4.605      7.927
REMARK INTER + INTRA:         -12.667
REMARK INTER:                 -11.537
REMARK INTRA:                  -1.131
REMARK UNBOUND:                -0.958
REMARK SMILES COc1cccc([C@H]2C=C(c3cc(F)ccc3F)NN2c2ccc(S(N)(=O)=O)cc2)c1OC
REMARK SMILES IDX 21 1 22 2 23 3 24 4 29 5 30 6 20 7 19 8 10 9 9 10 8 11 11 13
REMARK SMILES IDX 12 14 17 15 13 16 16 17 15 18 18 19 14 20 7 21 6 22 31 23
REMARK SMILES IDX 5 24 3 25 4 26 32 27 33 28 2 29 1 30 25 31 27 32 28 33 26 34
REMARK H PARENT 19 12 26 35 26 36
ROOT
ATOM      1  C   UNL     1      13.237 -51.569 -24.972  1.00  0.00     0.058 A 
ATOM      2  C   UNL     1      12.484 -51.474 -23.790  1.00  0.00     0.029 A 
ATOM      3  C   UNL     1      11.761 -52.563 -23.287  1.00  0.00     0.024 A 
ATOM      4  C   UNL     1      11.780 -53.774 -23.975  1.00  0.00     0.082 A 
ATOM      5  C   UNL     1      12.517 -53.906 -25.150  1.00  0.00     0.024 A 
ATOM      6  C   UNL     1      13.231 -52.807 -25.640  1.00  0.00     0.029 A 
ENDROOT
BRANCH   1   7
ATOM      7  N   UNL     1      13.975 -50.498 -25.474  1.00  0.00    -0.276 N 
ATOM      8  N   UNL     1      14.244 -50.259 -26.814  1.00  0.00    -0.297 N 
ATOM      9  C   UNL     1      14.894 -49.035 -26.948  1.00  0.00     0.063 C 
ATOM     10  C   UNL     1      15.144 -48.514 -25.736  1.00  0.00     0.033 C 
ATOM     11  C   UNL     1      14.598 -49.419 -24.646  1.00  0.00     0.165 C 
ATOM     12  H   UNL     1      13.436 -50.320 -27.437  1.00  0.00     0.188 HD
BRANCH   9  13
ATOM     13  C   UNL     1      15.208 -48.469 -28.263  1.00  0.00     0.038 A 
ATOM     14  C   UNL     1      15.850 -49.261 -29.228  1.00  0.00     0.052 A 
ATOM     15  C   UNL     1      14.872 -47.153 -28.614  1.00  0.00     0.132 A 
ATOM     16  C   UNL     1      16.143 -48.737 -30.485  1.00  0.00     0.124 A 
ATOM     17  C   UNL     1      15.166 -46.632 -29.876  1.00  0.00     0.043 A 
ATOM     18  C   UNL     1      15.807 -47.432 -30.819  1.00  0.00     0.042 A 
ATOM     19  F   UNL     1      14.240 -46.351 -27.741  1.00  0.00    -0.206 F 
ATOM     20  F   UNL     1      16.759 -49.508 -31.390  1.00  0.00    -0.207 F 
ENDBRANCH   9  13
BRANCH  11  21
ATOM     21  C   UNL     1      15.701 -49.910 -23.722  1.00  0.00     0.026 A 
ATOM     22  C   UNL     1      16.419 -51.087 -24.000  1.00  0.00     0.010 A 
ATOM     23  C   UNL     1      16.054 -49.169 -22.577  1.00  0.00     0.166 A 
ATOM     24  C   UNL     1      17.417 -51.536 -23.138  1.00  0.00     0.004 A 
ATOM     25  C   UNL     1      17.043 -49.631 -21.684  1.00  0.00     0.161 A 
ATOM     26  C   UNL     1      17.722 -50.818 -21.980  1.00  0.00     0.050 A 
BRANCH  23  27
ATOM     27  O   UNL     1      15.342 -48.014 -22.343  1.00  0.00    -0.492 OA
ATOM     28  C   UNL     1      16.071 -46.843 -22.719  1.00  0.00     0.278 C 
ENDBRANCH  23  27
BRANCH  25  29
ATOM     29  O   UNL     1      17.260 -48.878 -20.558  1.00  0.00    -0.493 OA
ATOM     30  C   UNL     1      18.244 -49.333 -19.639  1.00  0.00     0.278 C 
ENDBRANCH  25  29
ENDBRANCH  11  21
ENDBRANCH   1   7
BRANCH   4  31
ATOM     31  S   UNL     1      10.899 -55.172 -23.342  1.00  0.00     0.238 S 
ATOM     32  O   UNL     1      11.156 -55.273 -21.924  1.00  0.00    -0.207 OA
ATOM     33  O   UNL     1       9.564 -55.168 -23.894  1.00  0.00    -0.207 OA
BRANCH  31  34
ATOM     34  N   UNL     1      11.690 -56.447 -24.108  1.00  0.00    -0.225 NA
ATOM     35  H   UNL     1      11.352 -57.326 -23.710  1.00  0.00     0.137 HD
ATOM     36  H   UNL     1      11.589 -56.429 -25.122  1.00  0.00     0.137 HD
ENDBRANCH  31  34
ENDBRANCH   4  31
TORSDOF 7
ENDMDL
