MODEL 1
REMARK VINA RESULT:    -8.785      0.000      0.000
REMARK INTER + INTRA:          -9.041
REMARK INTER:                  -9.041
REMARK INTRA:                   0.000
REMARK UNBOUND:                 0.000
REMARK SMILES N=c1c2c([nH]c3cc(Cl)ccc13)CCCC2
REMARK SMILES IDX 5 1 4 2 3 3 2 4 12 5 11 6 10 7 8 8 9 9 7 10 6 11 16 12 15 13
REMARK SMILES IDX 14 14 13 15 1 17
REMARK H PARENT 5 16 1 18
ROOT
ATOM      1  N   UNL     1      12.530 -52.963 -24.835  1.00  0.00    -0.358 N 
ATOM      2  C   UNL     1      12.930 -51.646 -24.878  1.00  0.00     0.020 A 
ATOM      3  C   UNL     1      12.690 -50.767 -23.881  1.00  0.00    -0.003 A 
ATOM      4  C   UNL     1      11.964 -51.258 -22.656  1.00  0.00     0.068 A 
ATOM      5  C   UNL     1      11.473 -52.667 -22.671  1.00  0.00     0.023 A 
ATOM      6  C   UNL     1      10.737 -53.178 -21.594  1.00  0.00     0.014 A 
ATOM      7  C   UNL     1      10.295 -54.500 -21.619  1.00  0.00     0.021 A 
ATOM      8  C   UNL     1      10.595 -55.307 -22.716  1.00  0.00     0.043 A 
ATOM      9  Cl  UNL     1      10.059 -56.941 -22.744  1.00  0.00    -0.084 Cl
ATOM     10  C   UNL     1      11.332 -54.803 -23.790  1.00  0.00     0.047 A 
ATOM     11  C   UNL     1      11.767 -53.473 -23.780  1.00  0.00     0.049 A 
ATOM     12  C   UNL     1      13.096 -49.319 -23.941  1.00  0.00     0.039 C 
ATOM     13  C   UNL     1      13.541 -48.858 -25.330  1.00  0.00     0.005 C 
ATOM     14  C   UNL     1      14.426 -49.903 -25.991  1.00  0.00     0.007 C 
ATOM     15  C   UNL     1      13.680 -51.230 -26.128  1.00  0.00     0.054 C 
ATOM     16  H   UNL     1      12.641 -53.526 -25.671  1.00  0.00     0.166 HD
ENDROOT
BRANCH   4  17
ATOM     17  N   UNL     1      11.749 -50.531 -21.603  1.00  0.00    -0.300 NA
ATOM     18  H   UNL     1      12.200 -50.918 -20.772  1.00  0.00     0.188 HD
ENDBRANCH   4  17
TORSDOF 1
ENDMDL
MODEL 2
REMARK VINA RESULT:    -8.638      2.542      5.295
REMARK INTER + INTRA:          -8.891
REMARK INTER:                  -8.891
REMARK INTRA:                   0.000
REMARK UNBOUND:                 0.000
REMARK SMILES N=c1c2c([nH]c3cc(Cl)ccc13)CCCC2
REMARK SMILES IDX 5 1 4 2 3 3 2 4 12 5 11 6 10 7 8 8 9 9 7 10 6 11 16 12 15 13
REMARK SMILES IDX 14 14 13 15 1 17
REMARK H PARENT 5 16 1 18
ROOT
ATOM      1  N   UNL     1      12.433 -53.020 -24.791  1.00  0.00    -0.358 N 
ATOM      2  C   UNL     1      11.755 -53.422 -23.660  1.00  0.00     0.020 A 
ATOM      3  C   UNL     1      11.418 -52.578 -22.661  1.00  0.00    -0.003 A 
ATOM      4  C   UNL     1      11.787 -51.124 -22.799  1.00  0.00     0.068 A 
ATOM      5  C   UNL     1      12.589 -50.733 -23.994  1.00  0.00     0.023 A 
ATOM      6  C   UNL     1      13.023 -49.411 -24.162  1.00  0.00     0.014 A 
ATOM      7  C   UNL     1      13.763 -49.059 -25.290  1.00  0.00     0.021 A 
ATOM      8  C   UNL     1      14.060 -50.027 -26.248  1.00  0.00     0.043 A 
ATOM      9  Cl  UNL     1      14.965 -49.593 -27.646  1.00  0.00    -0.084 Cl
ATOM     10  C   UNL     1      13.628 -51.345 -26.087  1.00  0.00     0.047 A 
ATOM     11  C   UNL     1      12.897 -51.710 -24.951  1.00  0.00     0.049 A 
ATOM     12  C   UNL     1      10.708 -53.022 -21.410  1.00  0.00     0.039 C 
ATOM     13  C   UNL     1      10.657 -54.540 -21.233  1.00  0.00     0.005 C 
ATOM     14  C   UNL     1      10.337 -55.229 -22.550  1.00  0.00     0.007 C 
ATOM     15  C   UNL     1      11.391 -54.892 -23.604  1.00  0.00     0.054 C 
ATOM     16  H   UNL     1      12.753 -53.732 -25.436  1.00  0.00     0.166 HD
ENDROOT
BRANCH   4  17
ATOM     17  N   UNL     1      11.446 -50.207 -21.946  1.00  0.00    -0.300 NA
ATOM     18  H   UNL     1      10.739 -50.540 -21.289  1.00  0.00     0.188 HD
ENDBRANCH   4  17
TORSDOF 1
ENDMDL
MODEL 3
REMARK VINA RESULT:    -8.561      2.752      5.879
REMARK INTER + INTRA:          -8.811
REMARK INTER:                  -8.811
REMARK INTRA:                   0.000
REMARK UNBOUND:                 0.000
REMARK SMILES N=c1c2c([nH]c3cc(Cl)ccc13)CCCC2
REMARK SMILES IDX 5 1 4 2 3 3 2 4 12 5 11 6 10 7 8 8 9 9 7 10 6 11 16 12 15 13
REMARK SMILES IDX 14 14 13 15 1 17
REMARK H PARENT 5 16 1 18
ROOT
ATOM      1  N   UNL     1      11.922 -51.394 -22.920  1.00  0.00    -0.358 N 
ATOM      2  C   UNL     1      11.465 -52.685 -22.765  1.00  0.00     0.020 A 
ATOM      3  C   UNL     1      11.713 -53.669 -23.656  1.00  0.00    -0.003 A 
ATOM      4  C   UNL     1      12.543 -53.341 -24.870  1.00  0.00     0.068 A 
ATOM      5  C   UNL     1      12.957 -51.919 -25.051  1.00  0.00     0.023 A 
ATOM      6  C   UNL     1      13.678 -51.524 -26.186  1.00  0.00     0.014 A 
ATOM      7  C   UNL     1      14.067 -50.194 -26.335  1.00  0.00     0.021 A 
ATOM      8  C   UNL     1      13.738 -49.265 -25.349  1.00  0.00     0.043 A 
ATOM      9  Cl  UNL     1      14.225 -47.625 -25.526  1.00  0.00    -0.084 Cl
ATOM     10  C   UNL     1      13.021 -49.654 -24.215  1.00  0.00     0.047 A 
ATOM     11  C   UNL     1      12.615 -50.984 -24.063  1.00  0.00     0.049 A 
ATOM     12  C   UNL     1      11.185 -55.070 -23.506  1.00  0.00     0.039 C 
ATOM     13  C   UNL     1      10.116 -55.216 -22.422  1.00  0.00     0.005 C 
ATOM     14  C   UNL     1      10.495 -54.430 -21.177  1.00  0.00     0.007 C 
ATOM     15  C   UNL     1      10.662 -52.948 -21.507  1.00  0.00     0.054 C 
ATOM     16  H   UNL     1      11.594 -50.688 -22.271  1.00  0.00     0.166 HD
ENDROOT
BRANCH   4  17
ATOM     17  N   UNL     1      12.915 -54.219 -25.750  1.00  0.00    -0.300 NA
ATOM     18  H   UNL     1      12.715 -53.912 -26.704  1.00  0.00     0.188 HD
ENDBRANCH   4  17
TORSDOF 1
ENDMDL
MODEL 4
REMARK VINA RESULT:    -8.335      8.625     10.869
REMARK INTER + INTRA:          -8.578
REMARK INTER:                  -8.578
REMARK INTRA:                   0.000
REMARK UNBOUND:                 0.000
REMARK SMILES N=c1c2c([nH]c3cc(Cl)ccc13)CCCC2
REMARK SMILES IDX 5 1 4 2 3 3 2 4 12 5 11 6 10 7 8 8 9 9 7 10 6 11 16 12 15 13
REMARK SMILES IDX 14 14 13 15 1 17
REMARK H PARENT 5 16 1 18
ROOT
ATOM      1  N   UNL     1       9.124 -61.741 -26.443  1.00  0.00    -0.358 N 
ATOM      2  C   UNL     1       8.936 -62.331 -25.212  1.00  0.00     0.020 A 
ATOM      3  C   UNL     1       9.800 -62.186 -24.183  1.00  0.00    -0.003 A 
ATOM      4  C   UNL     1      11.018 -61.325 -24.389  1.00  0.00     0.068 A 
ATOM      5  C   UNL     1      11.236 -60.764 -25.754  1.00  0.00     0.023 A 
ATOM      6  C   UNL     1      12.378 -60.003 -26.040  1.00  0.00     0.014 A 
ATOM      7  C   UNL     1      12.561 -59.477 -27.318  1.00  0.00     0.021 A 
ATOM      8  C   UNL     1      11.602 -59.708 -28.302  1.00  0.00     0.043 A 
ATOM      9  Cl  UNL     1      11.822 -59.052 -29.877  1.00  0.00    -0.084 Cl
ATOM     10  C   UNL     1      10.461 -60.464 -28.022  1.00  0.00     0.047 A 
ATOM     11  C   UNL     1      10.275 -61.007 -26.746  1.00  0.00     0.049 A 
ATOM     12  C   UNL     1       9.614 -62.858 -22.849  1.00  0.00     0.039 C 
ATOM     13  C   UNL     1       8.531 -63.939 -22.846  1.00  0.00     0.005 C 
ATOM     14  C   UNL     1       7.306 -63.481 -23.622  1.00  0.00     0.007 C 
ATOM     15  C   UNL     1       7.675 -63.159 -25.069  1.00  0.00     0.054 C 
ATOM     16  H   UNL     1       8.496 -61.994 -27.197  1.00  0.00     0.166 HD
ENDROOT
BRANCH   4  17
ATOM     17  N   UNL     1      11.873 -61.045 -23.453  1.00  0.00    -0.300 NA
ATOM     18  H   UNL     1      11.434 -61.014 -22.532  1.00  0.00     0.188 HD
ENDBRANCH   4  17
TORSDOF 1
ENDMDL
MODEL 5
REMARK VINA RESULT:    -8.316      5.707      9.312
REMARK INTER + INTRA:          -8.559
REMARK INTER:                  -8.559
REMARK INTRA:                   0.000
REMARK UNBOUND:                 0.000
REMARK SMILES N=c1c2c([nH]c3cc(Cl)ccc13)CCCC2
REMARK SMILES IDX 5 1 4 2 3 3 2 4 12 5 11 6 10 7 8 8 9 9 7 10 6 11 16 12 15 13
REMARK SMILES IDX 14 14 13 15 1 17
REMARK H PARENT 5 16 1 18
ROOT
ATOM      1  N   UNL     1       8.097 -59.122 -23.271  1.00  0.00    -0.358 N 
ATOM      2  C   UNL     1       8.246 -60.475 -23.485  1.00  0.00     0.020 A 
ATOM      3  C   UNL     1       9.450 -61.085 -23.548  1.00  0.00    -0.003 A 
ATOM      4  C   UNL     1      10.686 -60.246 -23.359  1.00  0.00     0.068 A 
ATOM      5  C   UNL     1      10.497 -58.774 -23.208  1.00  0.00     0.023 A 
ATOM      6  C   UNL     1      11.602 -57.920 -23.088  1.00  0.00     0.014 A 
ATOM      7  C   UNL     1      11.409 -56.548 -22.937  1.00  0.00     0.021 A 
ATOM      8  C   UNL     1      10.113 -56.035 -22.901  1.00  0.00     0.043 A 
ATOM      9  Cl  UNL     1       9.871 -54.343 -22.706  1.00  0.00    -0.084 Cl
ATOM     10  C   UNL     1       9.008 -56.882 -23.017  1.00  0.00     0.047 A 
ATOM     11  C   UNL     1       9.193 -58.258 -23.183  1.00  0.00     0.049 A 
ATOM     12  C   UNL     1       9.616 -62.557 -23.816  1.00  0.00     0.039 C 
ATOM     13  C   UNL     1       8.337 -63.247 -24.295  1.00  0.00     0.005 C 
ATOM     14  C   UNL     1       7.134 -62.771 -23.498  1.00  0.00     0.007 C 
ATOM     15  C   UNL     1       6.959 -61.259 -23.639  1.00  0.00     0.054 C 
ATOM     16  H   UNL     1       7.169 -58.722 -23.358  1.00  0.00     0.166 HD
ENDROOT
BRANCH   4  17
ATOM     17  N   UNL     1      11.889 -60.731 -23.316  1.00  0.00    -0.300 NA
ATOM     18  H   UNL     1      12.175 -60.963 -22.363  1.00  0.00     0.188 HD
ENDBRANCH   4  17
TORSDOF 1
ENDMDL
MODEL 6
REMARK VINA RESULT:    -8.163      5.592      8.008
REMARK INTER + INTRA:          -8.401
REMARK INTER:                  -8.401
REMARK INTRA:                   0.000
REMARK UNBOUND:                 0.000
REMARK SMILES N=c1c2c([nH]c3cc(Cl)ccc13)CCCC2
REMARK SMILES IDX 5 1 4 2 3 3 2 4 12 5 11 6 10 7 8 8 9 9 7 10 6 11 16 12 15 13
REMARK SMILES IDX 14 14 13 15 1 17
REMARK H PARENT 5 16 1 18
ROOT
ATOM      1  N   UNL     1       8.618 -59.114 -23.218  1.00  0.00    -0.358 N 
ATOM      2  C   UNL     1       9.466 -58.033 -23.112  1.00  0.00     0.020 A 
ATOM      3  C   UNL     1      10.812 -58.147 -23.095  1.00  0.00    -0.003 A 
ATOM      4  C   UNL     1      11.413 -59.522 -23.216  1.00  0.00     0.068 A 
ATOM      5  C   UNL     1      10.472 -60.679 -23.249  1.00  0.00     0.023 A 
ATOM      6  C   UNL     1      10.957 -61.993 -23.299  1.00  0.00     0.014 A 
ATOM      7  C   UNL     1      10.064 -63.063 -23.341  1.00  0.00     0.021 A 
ATOM      8  C   UNL     1       8.692 -62.816 -23.339  1.00  0.00     0.043 A 
ATOM      9  Cl  UNL     1       7.589 -64.135 -23.400  1.00  0.00    -0.084 Cl
ATOM     10  C   UNL     1       8.204 -61.509 -23.292  1.00  0.00     0.047 A 
ATOM     11  C   UNL     1       9.092 -60.430 -23.236  1.00  0.00     0.049 A 
ATOM     12  C   UNL     1      11.738 -56.970 -22.944  1.00  0.00     0.039 C 
ATOM     13  C   UNL     1      11.034 -55.679 -22.524  1.00  0.00     0.005 C 
ATOM     14  C   UNL     1       9.729 -55.500 -23.283  1.00  0.00     0.007 C 
ATOM     15  C   UNL     1       8.791 -56.678 -23.023  1.00  0.00     0.054 C 
ATOM     16  H   UNL     1       7.624 -58.957 -23.102  1.00  0.00     0.166 HD
ENDROOT
BRANCH   4  17
ATOM     17  N   UNL     1      12.688 -59.750 -23.295  1.00  0.00    -0.300 NA
ATOM     18  H   UNL     1      13.006 -60.403 -22.577  1.00  0.00     0.188 HD
ENDBRANCH   4  17
TORSDOF 1
ENDMDL
MODEL 7
REMARK VINA RESULT:    -8.091      5.763      8.249
REMARK INTER + INTRA:          -8.327
REMARK INTER:                  -8.327
REMARK INTRA:                   0.000
REMARK UNBOUND:                 0.000
REMARK SMILES N=c1c2c([nH]c3cc(Cl)ccc13)CCCC2
REMARK SMILES IDX 5 1 4 2 3 3 2 4 12 5 11 6 10 7 8 8 9 9 7 10 6 11 16 12 15 13
REMARK SMILES IDX 14 14 13 15 1 17
REMARK H PARENT 5 16 1 18
ROOT
ATOM      1  N   UNL     1      10.116 -60.027 -22.258  1.00  0.00    -0.358 N 
ATOM      2  C   UNL     1      10.191 -58.659 -22.407  1.00  0.00     0.020 A 
ATOM      3  C   UNL     1       9.224 -57.926 -23.000  1.00  0.00    -0.003 A 
ATOM      4  C   UNL     1       7.997 -58.638 -23.506  1.00  0.00     0.068 A 
ATOM      5  C   UNL     1       7.979 -60.126 -23.403  1.00  0.00     0.023 A 
ATOM      6  C   UNL     1       6.900 -60.864 -23.907  1.00  0.00     0.014 A 
ATOM      7  C   UNL     1       6.893 -62.254 -23.793  1.00  0.00     0.021 A 
ATOM      8  C   UNL     1       7.961 -62.899 -23.171  1.00  0.00     0.043 A 
ATOM      9  Cl  UNL     1       7.950 -64.613 -23.021  1.00  0.00    -0.084 Cl
ATOM     10  C   UNL     1       9.038 -62.168 -22.664  1.00  0.00     0.047 A 
ATOM     11  C   UNL     1       9.059 -60.775 -22.787  1.00  0.00     0.049 A 
ATOM     12  C   UNL     1       9.319 -56.436 -23.194  1.00  0.00     0.039 C 
ATOM     13  C   UNL     1      10.714 -55.866 -22.930  1.00  0.00     0.005 C 
ATOM     14  C   UNL     1      11.330 -56.492 -21.689  1.00  0.00     0.007 C 
ATOM     15  C   UNL     1      11.440 -58.007 -21.849  1.00  0.00     0.054 C 
ATOM     16  H   UNL     1      10.934 -60.517 -21.913  1.00  0.00     0.166 HD
ENDROOT
BRANCH   4  17
ATOM     17  N   UNL     1       6.969 -58.033 -24.017  1.00  0.00    -0.300 NA
ATOM     18  H   UNL     1       6.742 -57.174 -23.514  1.00  0.00     0.188 HD
ENDBRANCH   4  17
TORSDOF 1
ENDMDL
MODEL 8
REMARK VINA RESULT:    -8.053      7.570      9.691
REMARK INTER + INTRA:          -8.288
REMARK INTER:                  -8.288
REMARK INTRA:                   0.000
REMARK UNBOUND:                 0.000
REMARK SMILES N=c1c2c([nH]c3cc(Cl)ccc13)CCCC2
REMARK SMILES IDX 5 1 4 2 3 3 2 4 12 5 11 6 10 7 8 8 9 9 7 10 6 11 16 12 15 13
REMARK SMILES IDX 14 14 13 15 1 17
REMARK H PARENT 5 16 1 18
ROOT
ATOM      1  N   UNL     1       9.301 -61.555 -24.277  1.00  0.00    -0.358 N 
ATOM      2  C   UNL     1      10.086 -60.658 -23.586  1.00  0.00     0.020 A 
ATOM      3  C   UNL     1      10.915 -59.780 -24.193  1.00  0.00    -0.003 A 
ATOM      4  C   UNL     1      10.970 -59.773 -25.698  1.00  0.00     0.068 A 
ATOM      5  C   UNL     1      10.169 -60.807 -26.416  1.00  0.00     0.023 A 
ATOM      6  C   UNL     1      10.216 -60.903 -27.814  1.00  0.00     0.014 A 
ATOM      7  C   UNL     1       9.454 -61.868 -28.471  1.00  0.00     0.021 A 
ATOM      8  C   UNL     1       8.645 -62.728 -27.730  1.00  0.00     0.043 A 
ATOM      9  Cl  UNL     1       7.696 -63.913 -28.540  1.00  0.00    -0.084 Cl
ATOM     10  C   UNL     1       8.593 -62.635 -26.338  1.00  0.00     0.047 A 
ATOM     11  C   UNL     1       9.365 -61.679 -25.669  1.00  0.00     0.049 A 
ATOM     12  C   UNL     1      11.799 -58.824 -23.439  1.00  0.00     0.039 C 
ATOM     13  C   UNL     1      11.897 -59.121 -21.941  1.00  0.00     0.005 C 
ATOM     14  C   UNL     1      10.534 -59.478 -21.369  1.00  0.00     0.007 C 
ATOM     15  C   UNL     1       9.957 -60.703 -22.077  1.00  0.00     0.054 C 
ATOM     16  H   UNL     1       8.798 -62.258 -23.749  1.00  0.00     0.166 HD
ENDROOT
BRANCH   4  17
ATOM     17  N   UNL     1      11.663 -58.924 -26.392  1.00  0.00    -0.300 NA
ATOM     18  H   UNL     1      12.510 -58.631 -25.903  1.00  0.00     0.188 HD
ENDBRANCH   4  17
TORSDOF 1
ENDMDL
MODEL 9
REMARK VINA RESULT:    -8.041      7.876     10.124
REMARK INTER + INTRA:          -8.276
REMARK INTER:                  -8.276
REMARK INTRA:                   0.000
REMARK UNBOUND:                 0.000
REMARK SMILES N=c1c2c([nH]c3cc(Cl)ccc13)CCCC2
REMARK SMILES IDX 5 1 4 2 3 3 2 4 12 5 11 6 10 7 8 8 9 9 7 10 6 11 16 12 15 13
REMARK SMILES IDX 14 14 13 15 1 17
REMARK H PARENT 5 16 1 18
ROOT
ATOM      1  N   UNL     1      10.365 -60.226 -25.461  1.00  0.00    -0.358 N 
ATOM      2  C   UNL     1       9.754 -61.143 -26.288  1.00  0.00     0.020 A 
ATOM      3  C   UNL     1       8.950 -62.129 -25.833  1.00  0.00    -0.003 A 
ATOM      4  C   UNL     1       8.698 -62.218 -24.351  1.00  0.00     0.068 A 
ATOM      5  C   UNL     1       9.435 -61.262 -23.474  1.00  0.00     0.023 A 
ATOM      6  C   UNL     1       9.300 -61.322 -22.080  1.00  0.00     0.014 A 
ATOM      7  C   UNL     1       9.987 -60.415 -21.275  1.00  0.00     0.021 A 
ATOM      8  C   UNL     1      10.801 -59.449 -21.865  1.00  0.00     0.043 A 
ATOM      9  Cl  UNL     1      11.642 -58.322 -20.873  1.00  0.00    -0.084 Cl
ATOM     10  C   UNL     1      10.936 -59.383 -23.253  1.00  0.00     0.047 A 
ATOM     11  C   UNL     1      10.262 -60.298 -24.068  1.00  0.00     0.049 A 
ATOM     12  C   UNL     1       8.309 -63.152 -26.732  1.00  0.00     0.039 C 
ATOM     13  C   UNL     1       8.868 -63.161 -28.156  1.00  0.00     0.005 C 
ATOM     14  C   UNL     1       9.066 -61.745 -28.670  1.00  0.00     0.007 C 
ATOM     15  C   UNL     1      10.030 -60.975 -27.769  1.00  0.00     0.054 C 
ATOM     16  H   UNL     1      11.046 -59.594 -25.866  1.00  0.00     0.166 HD
ENDROOT
BRANCH   4  17
ATOM     17  N   UNL     1       7.883 -63.067 -23.805  1.00  0.00    -0.300 NA
ATOM     18  H   UNL     1       8.340 -63.629 -23.086  1.00  0.00     0.188 HD
ENDBRANCH   4  17
TORSDOF 1
ENDMDL
