MODEL 1
REMARK VINA RESULT:    -8.377      0.000      0.000
REMARK INTER + INTRA:          -9.883
REMARK INTER:                  -9.356
REMARK INTRA:                  -0.527
REMARK UNBOUND:                -0.527
REMARK SMILES Cc1ccccc1C[N@H+]1CC[C@@H](C)CC1
REMARK SMILES IDX 8 1 9 2 15 3 10 4 14 5 11 6 12 7 13 9 7 10 6 11 2 12 5 13
REMARK SMILES IDX 3 14 4 15 1 16
REMARK H PARENT 9 8
ROOT
ATOM      1  C   UNL     1      10.705 -61.525 -24.522  1.00  0.00     0.299 C 
ENDROOT
BRANCH   1   2
ATOM      2  N   UNL     1      10.469 -60.033 -24.675  1.00  0.00    -0.331 N 
ATOM      3  C   UNL     1       9.318 -59.478 -23.874  1.00  0.00     0.262 C 
ATOM      4  C   UNL     1      11.719 -59.210 -24.504  1.00  0.00     0.262 C 
ATOM      5  C   UNL     1       9.677 -59.384 -22.397  1.00  0.00     0.065 C 
ATOM      6  C   UNL     1      12.110 -59.129 -23.034  1.00  0.00     0.065 C 
ATOM      7  C   UNL     1      10.965 -58.582 -22.173  1.00  0.00    -0.003 C 
ATOM      8  H   UNL     1      10.186 -59.924 -25.656  1.00  0.00     0.348 HD
ATOM      9  C   UNL     1      11.353 -58.578 -20.696  1.00  0.00     0.008 C 
ENDBRANCH   1   2
BRANCH   1  10
ATOM     10  C   UNL     1       9.445 -62.341 -24.672  1.00  0.00     0.009 A 
ATOM     11  C   UNL     1       8.803 -62.365 -25.926  1.00  0.00     0.010 A 
ATOM     12  C   UNL     1       8.901 -63.095 -23.607  1.00  0.00    -0.042 A 
ATOM     13  C   UNL     1       7.657 -63.132 -26.130  1.00  0.00     0.001 A 
ATOM     14  C   UNL     1       7.747 -63.861 -23.834  1.00  0.00     0.004 A 
ATOM     15  C   UNL     1       7.132 -63.883 -25.085  1.00  0.00     0.000 A 
ATOM     16  C   UNL     1       9.487 -63.081 -22.221  1.00  0.00     0.045 C 
ENDBRANCH   1  10
TORSDOF 2
ENDMDL
MODEL 2
REMARK VINA RESULT:    -8.131      1.435      5.659
REMARK INTER + INTRA:          -9.608
REMARK INTER:                  -9.139
REMARK INTRA:                  -0.469
REMARK UNBOUND:                -0.527
REMARK SMILES Cc1ccccc1C[N@H+]1CC[C@@H](C)CC1
REMARK SMILES IDX 8 1 9 2 15 3 10 4 14 5 11 6 12 7 13 9 7 10 6 11 2 12 5 13
REMARK SMILES IDX 3 14 4 15 1 16
REMARK H PARENT 9 8
ROOT
ATOM      1  C   UNL     1       9.254 -60.390 -22.395  1.00  0.00     0.299 C 
ENDROOT
BRANCH   1   2
ATOM      2  N   UNL     1      10.091 -61.310 -23.265  1.00  0.00    -0.331 N 
ATOM      3  C   UNL     1       9.990 -62.778 -22.931  1.00  0.00     0.262 C 
ATOM      4  C   UNL     1       9.919 -61.058 -24.740  1.00  0.00     0.262 C 
ATOM      5  C   UNL     1       8.662 -63.355 -23.402  1.00  0.00     0.065 C 
ATOM      6  C   UNL     1       8.581 -61.603 -25.223  1.00  0.00     0.065 C 
ATOM      7  C   UNL     1       8.424 -63.093 -24.895  1.00  0.00    -0.003 C 
ATOM      8  H   UNL     1      11.060 -61.054 -23.042  1.00  0.00     0.348 HD
ATOM      9  C   UNL     1       7.048 -63.600 -25.323  1.00  0.00     0.008 C 
ENDBRANCH   1   2
BRANCH   1  10
ATOM     10  C   UNL     1       9.736 -58.960 -22.413  1.00  0.00     0.009 A 
ATOM     11  C   UNL     1      10.920 -58.640 -21.720  1.00  0.00     0.010 A 
ATOM     12  C   UNL     1       9.055 -57.941 -23.117  1.00  0.00    -0.042 A 
ATOM     13  C   UNL     1      11.431 -57.343 -21.735  1.00  0.00     0.001 A 
ATOM     14  C   UNL     1       9.586 -56.642 -23.120  1.00  0.00     0.004 A 
ATOM     15  C   UNL     1      10.766 -56.346 -22.438  1.00  0.00     0.000 A 
ATOM     16  C   UNL     1       7.754 -58.182 -23.835  1.00  0.00     0.045 C 
ENDBRANCH   1  10
TORSDOF 2
ENDMDL
MODEL 3
REMARK VINA RESULT:    -8.032      1.362      2.390
REMARK INTER + INTRA:          -9.497
REMARK INTER:                  -9.130
REMARK INTRA:                  -0.367
REMARK UNBOUND:                -0.527
REMARK SMILES Cc1ccccc1C[N@H+]1CC[C@@H](C)CC1
REMARK SMILES IDX 8 1 9 2 15 3 10 4 14 5 11 6 12 7 13 9 7 10 6 11 2 12 5 13
REMARK SMILES IDX 3 14 4 15 1 16
REMARK H PARENT 9 8
ROOT
ATOM      1  C   UNL     1       9.232 -60.800 -24.571  1.00  0.00     0.299 C 
ENDROOT
BRANCH   1   2
ATOM      2  N   UNL     1      10.450 -61.314 -23.824  1.00  0.00    -0.331 N 
ATOM      3  C   UNL     1      11.730 -60.561 -24.087  1.00  0.00     0.262 C 
ATOM      4  C   UNL     1      10.208 -61.510 -22.350  1.00  0.00     0.262 C 
ATOM      5  C   UNL     1      11.724 -59.212 -23.380  1.00  0.00     0.065 C 
ATOM      6  C   UNL     1      10.170 -60.169 -21.631  1.00  0.00     0.065 C 
ATOM      7  C   UNL     1      11.448 -59.357 -21.878  1.00  0.00    -0.003 C 
ATOM      8  H   UNL     1      10.608 -62.250 -24.216  1.00  0.00     0.348 HD
ATOM      9  C   UNL     1      11.358 -57.988 -21.208  1.00  0.00     0.008 C 
ENDBRANCH   1   2
BRANCH   1  10
ATOM     10  C   UNL     1       8.883 -61.636 -25.778  1.00  0.00     0.009 A 
ATOM     11  C   UNL     1       9.475 -61.314 -27.014  1.00  0.00     0.010 A 
ATOM     12  C   UNL     1       8.002 -62.739 -25.705  1.00  0.00    -0.042 A 
ATOM     13  C   UNL     1       9.217 -62.075 -28.153  1.00  0.00     0.001 A 
ATOM     14  C   UNL     1       7.756 -63.493 -26.863  1.00  0.00     0.004 A 
ATOM     15  C   UNL     1       8.361 -63.167 -28.076  1.00  0.00     0.000 A 
ATOM     16  C   UNL     1       7.280 -63.119 -24.439  1.00  0.00     0.045 C 
ENDBRANCH   1  10
TORSDOF 2
ENDMDL
MODEL 4
REMARK VINA RESULT:    -7.954      1.336      2.563
REMARK INTER + INTRA:          -9.411
REMARK INTER:                  -8.915
REMARK INTRA:                  -0.496
REMARK UNBOUND:                -0.527
REMARK SMILES Cc1ccccc1C[N@H+]1CC[C@@H](C)CC1
REMARK SMILES IDX 8 1 9 2 15 3 10 4 14 5 11 6 12 7 13 9 7 10 6 11 2 12 5 13
REMARK SMILES IDX 3 14 4 15 1 16
REMARK H PARENT 9 8
ROOT
ATOM      1  C   UNL     1      10.383 -61.234 -23.268  1.00  0.00     0.299 C 
ENDROOT
BRANCH   1   2
ATOM      2  N   UNL     1       9.712 -60.388 -22.201  1.00  0.00    -0.331 N 
ATOM      3  C   UNL     1      10.642 -59.789 -21.175  1.00  0.00     0.262 C 
ATOM      4  C   UNL     1       8.762 -59.362 -22.762  1.00  0.00     0.262 C 
ATOM      5  C   UNL     1      11.427 -58.625 -21.765  1.00  0.00     0.065 C 
ATOM      6  C   UNL     1       9.531 -58.203 -23.382  1.00  0.00     0.065 C 
ATOM      7  C   UNL     1      10.502 -57.567 -22.381  1.00  0.00    -0.003 C 
ATOM      8  H   UNL     1       9.134 -61.056 -21.677  1.00  0.00     0.348 HD
ATOM      9  C   UNL     1      11.315 -56.456 -23.043  1.00  0.00     0.008 C 
ENDBRANCH   1   2
BRANCH   1  10
ATOM     10  C   UNL     1       9.402 -62.027 -24.096  1.00  0.00     0.009 A 
ATOM     11  C   UNL     1       8.593 -62.983 -23.451  1.00  0.00     0.010 A 
ATOM     12  C   UNL     1       9.254 -61.829 -25.488  1.00  0.00    -0.042 A 
ATOM     13  C   UNL     1       7.645 -63.716 -24.162  1.00  0.00     0.001 A 
ATOM     14  C   UNL     1       8.293 -62.578 -26.185  1.00  0.00     0.004 A 
ATOM     15  C   UNL     1       7.492 -63.510 -25.527  1.00  0.00     0.000 A 
ATOM     16  C   UNL     1      10.116 -60.872 -26.268  1.00  0.00     0.045 C 
ENDBRANCH   1  10
TORSDOF 2
ENDMDL
MODEL 5
REMARK VINA RESULT:    -7.930      3.663      7.353
REMARK INTER + INTRA:          -9.384
REMARK INTER:                  -9.099
REMARK INTRA:                  -0.285
REMARK UNBOUND:                -0.527
REMARK SMILES Cc1ccccc1C[N@H+]1CC[C@@H](C)CC1
REMARK SMILES IDX 8 1 9 2 15 3 10 4 14 5 11 6 12 7 13 9 7 10 6 11 2 12 5 13
REMARK SMILES IDX 3 14 4 15 1 16
REMARK H PARENT 9 8
ROOT
ATOM      1  C   UNL     1      11.253 -56.578 -23.435  1.00  0.00     0.299 C 
ENDROOT
BRANCH   1   2
ATOM      2  N   UNL     1      10.441 -57.443 -22.488  1.00  0.00    -0.331 N 
ATOM      3  C   UNL     1       9.331 -58.236 -23.133  1.00  0.00     0.262 C 
ATOM      4  C   UNL     1      11.289 -58.300 -21.585  1.00  0.00     0.262 C 
ATOM      5  C   UNL     1       9.889 -59.417 -23.916  1.00  0.00     0.065 C 
ATOM      6  C   UNL     1      11.879 -59.471 -22.358  1.00  0.00     0.065 C 
ATOM      7  C   UNL     1      10.790 -60.303 -23.046  1.00  0.00    -0.003 C 
ATOM      8  H   UNL     1       9.964 -56.769 -21.878  1.00  0.00     0.348 HD
ATOM      9  C   UNL     1      11.408 -61.428 -23.874  1.00  0.00     0.008 C 
ENDBRANCH   1   2
BRANCH   1  10
ATOM     10  C   UNL     1      11.210 -55.112 -23.079  1.00  0.00     0.009 A 
ATOM     11  C   UNL     1      10.660 -54.735 -21.838  1.00  0.00     0.010 A 
ATOM     12  C   UNL     1      11.720 -54.111 -23.936  1.00  0.00    -0.042 A 
ATOM     13  C   UNL     1      10.630 -53.399 -21.443  1.00  0.00     0.001 A 
ATOM     14  C   UNL     1      11.680 -52.771 -23.520  1.00  0.00     0.004 A 
ATOM     15  C   UNL     1      11.143 -52.418 -22.282  1.00  0.00     0.000 A 
ATOM     16  C   UNL     1      12.270 -54.416 -25.304  1.00  0.00     0.045 C 
ENDBRANCH   1  10
TORSDOF 2
ENDMDL
MODEL 6
REMARK VINA RESULT:    -7.513      1.511      5.535
REMARK INTER + INTRA:          -8.918
REMARK INTER:                  -8.383
REMARK INTRA:                  -0.535
REMARK UNBOUND:                -0.527
REMARK SMILES Cc1ccccc1C[N@H+]1CC[C@@H](C)CC1
REMARK SMILES IDX 8 1 9 2 15 3 10 4 14 5 11 6 12 7 13 9 7 10 6 11 2 12 5 13
REMARK SMILES IDX 3 14 4 15 1 16
REMARK H PARENT 9 8
ROOT
ATOM      1  C   UNL     1       9.744 -62.298 -22.640  1.00  0.00     0.299 C 
ENDROOT
BRANCH   1   2
ATOM      2  N   UNL     1       8.256 -62.108 -22.868  1.00  0.00    -0.331 N 
ATOM      3  C   UNL     1       7.891 -61.081 -23.911  1.00  0.00     0.262 C 
ATOM      4  C   UNL     1       7.512 -63.402 -23.073  1.00  0.00     0.262 C 
ATOM      5  C   UNL     1       8.154 -61.612 -25.315  1.00  0.00     0.065 C 
ATOM      6  C   UNL     1       7.787 -63.963 -24.462  1.00  0.00     0.065 C 
ATOM      7  C   UNL     1       7.444 -62.949 -25.560  1.00  0.00    -0.003 C 
ATOM      8  H   UNL     1       7.913 -61.718 -21.982  1.00  0.00     0.348 HD
ATOM      9  C   UNL     1       7.794 -63.505 -26.939  1.00  0.00     0.008 C 
ENDBRANCH   1   2
BRANCH   1  10
ATOM     10  C   UNL     1      10.467 -61.006 -22.349  1.00  0.00     0.009 A 
ATOM     11  C   UNL     1      10.178 -60.327 -21.150  1.00  0.00     0.010 A 
ATOM     12  C   UNL     1      11.436 -60.468 -23.227  1.00  0.00    -0.042 A 
ATOM     13  C   UNL     1      10.844 -59.149 -20.814  1.00  0.00     0.001 A 
ATOM     14  C   UNL     1      12.096 -59.281 -22.870  1.00  0.00     0.004 A 
ATOM     15  C   UNL     1      11.805 -58.630 -21.672  1.00  0.00     0.000 A 
ATOM     16  C   UNL     1      11.765 -61.095 -24.555  1.00  0.00     0.045 C 
ENDBRANCH   1  10
TORSDOF 2
ENDMDL
MODEL 7
REMARK VINA RESULT:    -7.431      3.478      5.177
REMARK INTER + INTRA:          -8.826
REMARK INTER:                  -8.681
REMARK INTRA:                  -0.146
REMARK UNBOUND:                -0.527
REMARK SMILES Cc1ccccc1C[N@H+]1CC[C@@H](C)CC1
REMARK SMILES IDX 8 1 9 2 15 3 10 4 14 5 11 6 12 7 13 9 7 10 6 11 2 12 5 13
REMARK SMILES IDX 3 14 4 15 1 16
REMARK H PARENT 9 8
ROOT
ATOM      1  C   UNL     1       9.640 -56.785 -23.003  1.00  0.00     0.299 C 
ENDROOT
BRANCH   1   2
ATOM      2  N   UNL     1      10.999 -56.157 -22.755  1.00  0.00    -0.331 N 
ATOM      3  C   UNL     1      11.477 -55.213 -23.830  1.00  0.00     0.262 C 
ATOM      4  C   UNL     1      11.138 -55.557 -21.380  1.00  0.00     0.262 C 
ATOM      5  C   UNL     1      10.728 -53.888 -23.765  1.00  0.00     0.065 C 
ATOM      6  C   UNL     1      10.370 -54.245 -21.288  1.00  0.00     0.065 C 
ATOM      7  C   UNL     1      10.812 -53.254 -22.371  1.00  0.00    -0.003 C 
ATOM      8  H   UNL     1      11.651 -56.949 -22.789  1.00  0.00     0.348 HD
ATOM      9  C   UNL     1       9.979 -51.975 -22.306  1.00  0.00     0.008 C 
ENDBRANCH   1   2
BRANCH   1  10
ATOM     10  C   UNL     1       9.608 -58.264 -22.703  1.00  0.00     0.009 A 
ATOM     11  C   UNL     1      10.693 -58.833 -22.008  1.00  0.00     0.010 A 
ATOM     12  C   UNL     1       8.522 -59.088 -23.075  1.00  0.00    -0.042 A 
ATOM     13  C   UNL     1      10.698 -60.186 -21.672  1.00  0.00     0.001 A 
ATOM     14  C   UNL     1       8.546 -60.447 -22.727  1.00  0.00     0.004 A 
ATOM     15  C   UNL     1       9.623 -60.991 -22.028  1.00  0.00     0.000 A 
ATOM     16  C   UNL     1       7.350 -58.576 -23.870  1.00  0.00     0.045 C 
ENDBRANCH   1  10
TORSDOF 2
ENDMDL
MODEL 8
REMARK VINA RESULT:    -7.246      1.488      5.402
REMARK INTER + INTRA:          -8.620
REMARK INTER:                  -8.172
REMARK INTRA:                  -0.447
REMARK UNBOUND:                -0.527
REMARK SMILES Cc1ccccc1C[N@H+]1CC[C@@H](C)CC1
REMARK SMILES IDX 8 1 9 2 15 3 10 4 14 5 11 6 12 7 13 9 7 10 6 11 2 12 5 13
REMARK SMILES IDX 3 14 4 15 1 16
REMARK H PARENT 9 8
ROOT
ATOM      1  C   UNL     1      10.994 -59.704 -24.560  1.00  0.00     0.299 C 
ENDROOT
BRANCH   1   2
ATOM      2  N   UNL     1       9.725 -59.604 -25.386  1.00  0.00    -0.331 N 
ATOM      3  C   UNL     1       9.612 -60.597 -26.516  1.00  0.00     0.262 C 
ATOM      4  C   UNL     1       8.471 -59.560 -24.552  1.00  0.00     0.262 C 
ATOM      5  C   UNL     1       9.293 -61.990 -25.988  1.00  0.00     0.065 C 
ATOM      6  C   UNL     1       8.152 -60.939 -23.991  1.00  0.00     0.065 C 
ATOM      7  C   UNL     1       8.040 -61.990 -25.102  1.00  0.00    -0.003 C 
ATOM      8  H   UNL     1       9.795 -58.688 -25.845  1.00  0.00     0.348 HD
ATOM      9  C   UNL     1       7.793 -63.378 -24.513  1.00  0.00     0.008 C 
ENDBRANCH   1   2
BRANCH   1  10
ATOM     10  C   UNL     1      11.101 -58.629 -23.508  1.00  0.00     0.009 A 
ATOM     11  C   UNL     1      11.369 -57.308 -23.919  1.00  0.00     0.010 A 
ATOM     12  C   UNL     1      10.920 -58.896 -22.132  1.00  0.00    -0.042 A 
ATOM     13  C   UNL     1      11.441 -56.270 -22.992  1.00  0.00     0.001 A 
ATOM     14  C   UNL     1      10.996 -57.837 -21.215  1.00  0.00     0.004 A 
ATOM     15  C   UNL     1      11.250 -56.534 -21.641  1.00  0.00     0.000 A 
ATOM     16  C   UNL     1      10.688 -60.285 -21.599  1.00  0.00     0.045 C 
ENDBRANCH   1  10
TORSDOF 2
ENDMDL
MODEL 9
REMARK VINA RESULT:    -7.223      1.512      5.358
REMARK INTER + INTRA:          -8.594
REMARK INTER:                  -8.209
REMARK INTRA:                  -0.384
REMARK UNBOUND:                -0.527
REMARK SMILES Cc1ccccc1C[N@H+]1CC[C@@H](C)CC1
REMARK SMILES IDX 8 1 9 2 15 3 10 4 14 5 11 6 12 7 13 9 7 10 6 11 2 12 5 13
REMARK SMILES IDX 3 14 4 15 1 16
REMARK H PARENT 9 8
ROOT
ATOM      1  C   UNL     1      10.440 -61.054 -24.442  1.00  0.00     0.299 C 
ENDROOT
BRANCH   1   2
ATOM      2  N   UNL     1       9.189 -60.612 -25.179  1.00  0.00    -0.331 N 
ATOM      3  C   UNL     1       9.414 -60.110 -26.584  1.00  0.00     0.262 C 
ATOM      4  C   UNL     1       8.071 -61.621 -25.117  1.00  0.00     0.262 C 
ATOM      5  C   UNL     1       9.704 -61.263 -27.536  1.00  0.00     0.065 C 
ATOM      6  C   UNL     1       8.359 -62.796 -26.042  1.00  0.00     0.065 C 
ATOM      7  C   UNL     1       8.608 -62.335 -27.483  1.00  0.00    -0.003 C 
ATOM      8  H   UNL     1       8.864 -59.792 -24.654  1.00  0.00     0.348 HD
ATOM      9  C   UNL     1       8.966 -63.521 -28.377  1.00  0.00     0.008 C 
ENDBRANCH   1   2
BRANCH   1  10
ATOM     10  C   UNL     1      10.735 -60.216 -23.223  1.00  0.00     0.009 A 
ATOM     11  C   UNL     1      11.426 -59.000 -23.392  1.00  0.00     0.010 A 
ATOM     12  C   UNL     1      10.323 -60.597 -21.925  1.00  0.00    -0.042 A 
ATOM     13  C   UNL     1      11.691 -58.169 -22.304  1.00  0.00     0.001 A 
ATOM     14  C   UNL     1      10.599 -59.746 -20.844  1.00  0.00     0.004 A 
ATOM     15  C   UNL     1      11.274 -58.541 -21.032  1.00  0.00     0.000 A 
ATOM     16  C   UNL     1       9.632 -61.905 -21.645  1.00  0.00     0.045 C 
ENDBRANCH   1  10
TORSDOF 2
ENDMDL
