MODEL 1
REMARK VINA RESULT:   -10.918      0.000      0.000
REMARK INTER + INTRA:         -16.068
REMARK INTER:                 -15.385
REMARK INTRA:                  -0.683
REMARK UNBOUND:                -0.683
REMARK SMILES O=C(C[NH2+]CCCc1ccccc1)Nc1ccc2nc3n(c(=O)c2c1)CCC3
REMARK SMILES IDX 4 1 3 4 2 5 14 6 1 7 15 9 16 10 25 11 17 12 24 13 18 14
REMARK SMILES IDX 22 15 19 16 21 17 20 18 26 19 28 20 27 21 23 22 5 23 6 24
REMARK SMILES IDX 7 25 8 26 9 27 13 28 10 29 12 30 11 31
REMARK H PARENT 4 2 4 3 14 8
ROOT
ATOM      1  N   UNL     1      10.589 -58.966 -24.245  1.00  0.00    -0.338 N 
ATOM      2  H   UNL     1       9.888 -59.538 -24.741  1.00  0.00     0.346 HD
ATOM      3  H   UNL     1      10.651 -58.118 -24.832  1.00  0.00     0.346 HD
ENDROOT
BRANCH   1   4
ATOM      4  C   UNL     1       9.975 -58.531 -22.933  1.00  0.00     0.362 C 
BRANCH   4   5
ATOM      5  C   UNL     1      10.568 -57.186 -22.510  1.00  0.00     0.279 C 
ATOM      6  N   UNL     1      10.113 -56.108 -23.238  1.00  0.00    -0.321 N 
ATOM      7  O   UNL     1      11.375 -57.182 -21.582  1.00  0.00    -0.268 OA
ATOM      8  H   UNL     1       9.437 -56.270 -23.979  1.00  0.00     0.170 HD
BRANCH   6   9
ATOM      9  C   UNL     1      10.485 -54.754 -23.075  1.00  0.00     0.042 A 
ATOM     10  C   UNL     1      10.021 -53.928 -22.048  1.00  0.00     0.028 A 
ATOM     11  C   UNL     1      11.377 -54.224 -24.013  1.00  0.00     0.042 A 
ATOM     12  C   UNL     1      10.443 -52.593 -21.957  1.00  0.00     0.031 A 
ATOM     13  C   UNL     1      11.792 -52.888 -23.914  1.00  0.00     0.068 A 
ATOM     14  C   UNL     1      11.332 -52.058 -22.887  1.00  0.00     0.078 A 
ATOM     15  C   UNL     1      12.736 -52.324 -24.902  1.00  0.00     0.261 A 
ATOM     16  N   UNL     1      11.733 -50.717 -22.751  1.00  0.00    -0.234 NA
ATOM     17  N   UNL     1      13.023 -50.996 -24.714  1.00  0.00    -0.296 N 
ATOM     18  C   UNL     1      12.536 -50.263 -23.651  1.00  0.00     0.112 A 
ATOM     19  C   UNL     1      13.944 -50.226 -25.508  1.00  0.00     0.128 C 
ATOM     20  C   UNL     1      13.109 -48.879 -23.698  1.00  0.00     0.077 C 
ATOM     21  C   UNL     1      13.614 -48.789 -25.136  1.00  0.00     0.030 C 
ATOM     22  O   UNL     1      13.203 -53.024 -25.792  1.00  0.00    -0.269 OA
ENDBRANCH   6   9
ENDBRANCH   4   5
ENDBRANCH   1   4
BRANCH   1  23
ATOM     23  C   UNL     1      11.890 -59.674 -24.141  1.00  0.00     0.261 C 
BRANCH  23  24
ATOM     24  C   UNL     1      11.729 -61.145 -24.499  1.00  0.00     0.066 C 
BRANCH  24  25
ATOM     25  C   UNL     1      11.076 -61.970 -23.387  1.00  0.00     0.041 C 
BRANCH  25  26
ATOM     26  C   UNL     1       9.769 -62.560 -23.844  1.00  0.00    -0.048 A 
ATOM     27  C   UNL     1       9.229 -62.217 -25.092  1.00  0.00     0.004 A 
ATOM     28  C   UNL     1       9.059 -63.441 -23.016  1.00  0.00     0.004 A 
ATOM     29  C   UNL     1       8.007 -62.749 -25.504  1.00  0.00     0.000 A 
ATOM     30  C   UNL     1       7.837 -63.972 -23.431  1.00  0.00     0.000 A 
ATOM     31  C   UNL     1       7.311 -63.626 -24.674  1.00  0.00     0.000 A 
ENDBRANCH  25  26
ENDBRANCH  24  25
ENDBRANCH  23  24
ENDBRANCH   1  23
TORSDOF 7
ENDMDL
MODEL 2
REMARK VINA RESULT:   -10.403      2.116     10.389
REMARK INTER + INTRA:         -15.343
REMARK INTER:                 -15.028
REMARK INTRA:                  -0.315
REMARK UNBOUND:                -0.683
REMARK SMILES O=C(C[NH2+]CCCc1ccccc1)Nc1ccc2nc3n(c(=O)c2c1)CCC3
REMARK SMILES IDX 4 1 3 4 2 5 14 6 1 7 15 9 16 10 25 11 17 12 24 13 18 14
REMARK SMILES IDX 22 15 19 16 21 17 20 18 26 19 28 20 27 21 23 22 5 23 6 24
REMARK SMILES IDX 7 25 8 26 9 27 13 28 10 29 12 30 11 31
REMARK H PARENT 4 2 4 3 14 8
ROOT
ATOM      1  N   UNL     1      10.303 -51.688 -21.670  1.00  0.00    -0.338 N 
ATOM      2  H   UNL     1       9.577 -51.231 -21.097  1.00  0.00     0.346 HD
ATOM      3  H   UNL     1      10.860 -52.202 -20.968  1.00  0.00     0.346 HD
ENDROOT
BRANCH   1   4
ATOM      4  C   UNL     1       9.617 -52.736 -22.519  1.00  0.00     0.362 C 
BRANCH   4   5
ATOM      5  C   UNL     1       9.963 -54.130 -21.991  1.00  0.00     0.279 C 
ATOM      6  N   UNL     1       9.878 -55.132 -22.933  1.00  0.00    -0.321 N 
ATOM      7  O   UNL     1      10.280 -54.232 -20.808  1.00  0.00    -0.268 OA
ATOM      8  H   UNL     1       9.604 -54.891 -23.881  1.00  0.00     0.170 HD
BRANCH   6   9
ATOM      9  C   UNL     1      10.135 -56.508 -22.734  1.00  0.00     0.042 A 
ATOM     10  C   UNL     1      11.317 -57.018 -22.190  1.00  0.00     0.028 A 
ATOM     11  C   UNL     1       9.129 -57.403 -23.113  1.00  0.00     0.042 A 
ATOM     12  C   UNL     1      11.491 -58.401 -22.024  1.00  0.00     0.031 A 
ATOM     13  C   UNL     1       9.312 -58.783 -22.944  1.00  0.00     0.068 A 
ATOM     14  C   UNL     1      10.492 -59.298 -22.399  1.00  0.00     0.078 A 
ATOM     15  C   UNL     1       8.251 -59.733 -23.342  1.00  0.00     0.261 A 
ATOM     16  N   UNL     1      10.709 -60.674 -22.206  1.00  0.00    -0.234 NA
ATOM     17  N   UNL     1       8.578 -61.052 -23.164  1.00  0.00    -0.296 N 
ATOM     18  C   UNL     1       9.765 -61.464 -22.592  1.00  0.00     0.112 A 
ATOM     19  C   UNL     1       7.707 -62.166 -23.429  1.00  0.00     0.128 C 
ATOM     20  C   UNL     1       9.766 -62.957 -22.469  1.00  0.00     0.077 C 
ATOM     21  C   UNL     1       8.650 -63.359 -23.430  1.00  0.00     0.030 C 
ATOM     22  O   UNL     1       7.182 -59.327 -23.781  1.00  0.00    -0.269 OA
ENDBRANCH   6   9
ENDBRANCH   4   5
ENDBRANCH   1   4
BRANCH   1  23
ATOM     23  C   UNL     1      11.113 -50.691 -22.413  1.00  0.00     0.261 C 
BRANCH  23  24
ATOM     24  C   UNL     1      12.468 -51.274 -22.790  1.00  0.00     0.066 C 
BRANCH  24  25
ATOM     25  C   UNL     1      12.556 -51.697 -24.259  1.00  0.00     0.041 C 
BRANCH  25  26
ATOM     26  C   UNL     1      13.249 -50.648 -25.087  1.00  0.00    -0.048 A 
ATOM     27  C   UNL     1      13.207 -49.298 -24.708  1.00  0.00     0.004 A 
ATOM     28  C   UNL     1      13.923 -51.003 -26.263  1.00  0.00     0.004 A 
ATOM     29  C   UNL     1      13.832 -48.326 -25.488  1.00  0.00     0.000 A 
ATOM     30  C   UNL     1      14.547 -50.027 -27.042  1.00  0.00     0.000 A 
ATOM     31  C   UNL     1      14.502 -48.690 -26.655  1.00  0.00     0.000 A 
ENDBRANCH  25  26
ENDBRANCH  24  25
ENDBRANCH  23  24
ENDBRANCH   1  23
TORSDOF 7
ENDMDL
MODEL 3
REMARK VINA RESULT:   -10.124      1.693      2.194
REMARK INTER + INTRA:         -14.950
REMARK INTER:                 -14.521
REMARK INTRA:                  -0.429
REMARK UNBOUND:                -0.683
REMARK SMILES O=C(C[NH2+]CCCc1ccccc1)Nc1ccc2nc3n(c(=O)c2c1)CCC3
REMARK SMILES IDX 4 1 3 4 2 5 14 6 1 7 15 9 16 10 25 11 17 12 24 13 18 14
REMARK SMILES IDX 22 15 19 16 21 17 20 18 26 19 28 20 27 21 23 22 5 23 6 24
REMARK SMILES IDX 7 25 8 26 9 27 13 28 10 29 12 30 11 31
REMARK H PARENT 4 2 4 3 14 8
ROOT
ATOM      1  N   UNL     1      11.362 -57.352 -23.696  1.00  0.00    -0.338 N 
ATOM      2  H   UNL     1      10.487 -57.403 -24.239  1.00  0.00     0.346 HD
ATOM      3  H   UNL     1      12.002 -56.854 -24.336  1.00  0.00     0.346 HD
ENDROOT
BRANCH   1   4
ATOM      4  C   UNL     1      11.119 -56.421 -22.528  1.00  0.00     0.362 C 
BRANCH   4   5
ATOM      5  C   UNL     1      10.903 -54.997 -23.045  1.00  0.00     0.279 C 
ATOM      6  N   UNL     1      11.107 -54.013 -22.102  1.00  0.00    -0.321 N 
ATOM      7  O   UNL     1      10.579 -54.858 -24.222  1.00  0.00    -0.268 OA
ATOM      8  H   UNL     1      11.379 -54.285 -21.162  1.00  0.00     0.170 HD
BRANCH   6   9
ATOM      9  C   UNL     1      10.980 -52.617 -22.290  1.00  0.00     0.042 A 
ATOM     10  C   UNL     1       9.897 -51.857 -21.840  1.00  0.00     0.028 A 
ATOM     11  C   UNL     1      12.015 -51.972 -22.975  1.00  0.00     0.042 A 
ATOM     12  C   UNL     1       9.849 -50.474 -22.067  1.00  0.00     0.031 A 
ATOM     13  C   UNL     1      11.958 -50.589 -23.198  1.00  0.00     0.068 A 
ATOM     14  C   UNL     1      10.877 -49.824 -22.748  1.00  0.00     0.078 A 
ATOM     15  C   UNL     1      13.051 -49.902 -23.920  1.00  0.00     0.261 A 
ATOM     16  N   UNL     1      10.789 -48.434 -22.945  1.00  0.00    -0.234 NA
ATOM     17  N   UNL     1      12.846 -48.560 -24.107  1.00  0.00    -0.296 N 
ATOM     18  C   UNL     1      11.754 -47.885 -23.602  1.00  0.00     0.112 A 
ATOM     19  C   UNL     1      13.775 -47.659 -24.738  1.00  0.00     0.128 C 
ATOM     20  C   UNL     1      11.882 -46.425 -23.913  1.00  0.00     0.077 C 
ATOM     21  C   UNL     1      12.935 -46.425 -25.019  1.00  0.00     0.030 C 
ATOM     22  O   UNL     1      14.039 -50.522 -24.293  1.00  0.00    -0.269 OA
ENDBRANCH   6   9
ENDBRANCH   4   5
ENDBRANCH   1   4
BRANCH   1  23
ATOM     23  C   UNL     1      11.860 -58.706 -23.343  1.00  0.00     0.261 C 
BRANCH  23  24
ATOM     24  C   UNL     1      11.450 -59.720 -24.402  1.00  0.00     0.066 C 
BRANCH  24  25
ATOM     25  C   UNL     1      11.770 -61.165 -24.009  1.00  0.00     0.041 C 
BRANCH  25  26
ATOM     26  C   UNL     1      10.518 -61.998 -23.934  1.00  0.00    -0.048 A 
ATOM     27  C   UNL     1       9.588 -61.984 -24.983  1.00  0.00     0.004 A 
ATOM     28  C   UNL     1      10.252 -62.779 -22.800  1.00  0.00     0.004 A 
ATOM     29  C   UNL     1       8.418 -62.740 -24.900  1.00  0.00     0.000 A 
ATOM     30  C   UNL     1       9.081 -63.534 -22.721  1.00  0.00     0.000 A 
ATOM     31  C   UNL     1       8.165 -63.514 -23.770  1.00  0.00     0.000 A 
ENDBRANCH  25  26
ENDBRANCH  24  25
ENDBRANCH  23  24
ENDBRANCH   1  23
TORSDOF 7
ENDMDL
MODEL 4
REMARK VINA RESULT:   -10.102      1.376      2.142
REMARK INTER + INTRA:         -14.918
REMARK INTER:                 -14.799
REMARK INTRA:                  -0.118
REMARK UNBOUND:                -0.683
REMARK SMILES O=C(C[NH2+]CCCc1ccccc1)Nc1ccc2nc3n(c(=O)c2c1)CCC3
REMARK SMILES IDX 4 1 3 4 2 5 14 6 1 7 15 9 16 10 25 11 17 12 24 13 18 14
REMARK SMILES IDX 22 15 19 16 21 17 20 18 26 19 28 20 27 21 23 22 5 23 6 24
REMARK SMILES IDX 7 25 8 26 9 27 13 28 10 29 12 30 11 31
REMARK H PARENT 4 2 4 3 14 8
ROOT
ATOM      1  N   UNL     1      11.778 -58.840 -23.411  1.00  0.00    -0.338 N 
ATOM      2  H   UNL     1      12.676 -58.340 -23.318  1.00  0.00     0.346 HD
ATOM      3  H   UNL     1      11.866 -59.601 -22.718  1.00  0.00     0.346 HD
ENDROOT
BRANCH   1   4
ATOM      4  C   UNL     1      10.692 -57.920 -22.898  1.00  0.00     0.362 C 
BRANCH   4   5
ATOM      5  C   UNL     1      11.208 -56.480 -22.877  1.00  0.00     0.279 C 
ATOM      6  N   UNL     1      11.441 -55.940 -24.123  1.00  0.00    -0.321 N 
ATOM      7  O   UNL     1      11.363 -55.944 -21.781  1.00  0.00    -0.268 OA
ATOM      8  H   UNL     1      11.260 -56.510 -24.944  1.00  0.00     0.170 HD
BRANCH   6   9
ATOM      9  C   UNL     1      11.919 -54.641 -24.410  1.00  0.00     0.042 A 
ATOM     10  C   UNL     1      12.739 -54.325 -25.496  1.00  0.00     0.028 A 
ATOM     11  C   UNL     1      11.536 -53.617 -23.537  1.00  0.00     0.042 A 
ATOM     12  C   UNL     1      13.169 -53.007 -25.710  1.00  0.00     0.031 A 
ATOM     13  C   UNL     1      11.971 -52.303 -23.759  1.00  0.00     0.068 A 
ATOM     14  C   UNL     1      12.791 -51.981 -24.845  1.00  0.00     0.078 A 
ATOM     15  C   UNL     1      11.567 -51.216 -22.840  1.00  0.00     0.261 A 
ATOM     16  N   UNL     1      13.240 -50.674 -25.105  1.00  0.00    -0.234 NA
ATOM     17  N   UNL     1      12.099 -49.991 -23.148  1.00  0.00    -0.296 N 
ATOM     18  C   UNL     1      12.882 -49.766 -24.261  1.00  0.00     0.112 A 
ATOM     19  C   UNL     1      11.827 -48.767 -22.440  1.00  0.00     0.128 C 
ATOM     20  C   UNL     1      13.223 -48.310 -24.345  1.00  0.00     0.077 C 
ATOM     21  C   UNL     1      12.916 -47.827 -22.929  1.00  0.00     0.030 C 
ATOM     22  O   UNL     1      10.813 -51.440 -21.901  1.00  0.00    -0.269 OA
ENDBRANCH   6   9
ENDBRANCH   4   5
ENDBRANCH   1   4
BRANCH   1  23
ATOM     23  C   UNL     1      11.585 -59.354 -24.790  1.00  0.00     0.261 C 
BRANCH  23  24
ATOM     24  C   UNL     1      11.775 -60.864 -24.832  1.00  0.00     0.066 C 
BRANCH  24  25
ATOM     25  C   UNL     1      11.294 -61.568 -23.560  1.00  0.00     0.041 C 
BRANCH  25  26
ATOM     26  C   UNL     1      10.006 -62.309 -23.803  1.00  0.00    -0.048 A 
ATOM     27  C   UNL     1       9.309 -62.151 -25.009  1.00  0.00     0.004 A 
ATOM     28  C   UNL     1       9.472 -63.146 -22.813  1.00  0.00     0.004 A 
ATOM     29  C   UNL     1       8.105 -62.822 -25.222  1.00  0.00     0.000 A 
ATOM     30  C   UNL     1       8.266 -63.815 -23.029  1.00  0.00     0.000 A 
ATOM     31  C   UNL     1       7.583 -63.654 -24.232  1.00  0.00     0.000 A 
ENDBRANCH  25  26
ENDBRANCH  24  25
ENDBRANCH  23  24
ENDBRANCH   1  23
TORSDOF 7
ENDMDL
MODEL 5
REMARK VINA RESULT:   -10.077      2.849      4.619
REMARK INTER + INTRA:         -14.884
REMARK INTER:                 -14.781
REMARK INTRA:                  -0.103
REMARK UNBOUND:                -0.683
REMARK SMILES O=C(C[NH2+]CCCc1ccccc1)Nc1ccc2nc3n(c(=O)c2c1)CCC3
REMARK SMILES IDX 4 1 3 4 2 5 14 6 1 7 15 9 16 10 25 11 17 12 24 13 18 14
REMARK SMILES IDX 22 15 19 16 21 17 20 18 26 19 28 20 27 21 23 22 5 23 6 24
REMARK SMILES IDX 7 25 8 26 9 27 13 28 10 29 12 30 11 31
REMARK H PARENT 4 2 4 3 14 8
ROOT
ATOM      1  N   UNL     1      10.936 -55.077 -22.435  1.00  0.00    -0.338 N 
ATOM      2  H   UNL     1      10.925 -54.690 -23.391  1.00  0.00     0.346 HD
ATOM      3  H   UNL     1      11.942 -55.087 -22.202  1.00  0.00     0.346 HD
ENDROOT
BRANCH   1   4
ATOM      4  C   UNL     1      10.297 -54.052 -21.523  1.00  0.00     0.362 C 
BRANCH   4   5
ATOM      5  C   UNL     1      10.375 -52.669 -22.174  1.00  0.00     0.279 C 
ATOM      6  N   UNL     1      11.643 -52.292 -22.561  1.00  0.00    -0.321 N 
ATOM      7  O   UNL     1       9.330 -52.034 -22.294  1.00  0.00    -0.268 OA
ATOM      8  H   UNL     1      12.414 -52.933 -22.397  1.00  0.00     0.170 HD
BRANCH   6   9
ATOM      9  C   UNL     1      12.016 -51.077 -23.180  1.00  0.00     0.042 A 
ATOM     10  C   UNL     1      12.978 -50.970 -24.188  1.00  0.00     0.028 A 
ATOM     11  C   UNL     1      11.368 -49.917 -22.743  1.00  0.00     0.042 A 
ATOM     12  C   UNL     1      13.288 -49.723 -24.752  1.00  0.00     0.031 A 
ATOM     13  C   UNL     1      11.686 -48.676 -23.312  1.00  0.00     0.068 A 
ATOM     14  C   UNL     1      12.647 -48.563 -24.322  1.00  0.00     0.078 A 
ATOM     15  C   UNL     1      11.002 -47.447 -22.854  1.00  0.00     0.261 A 
ATOM     16  N   UNL     1      12.985 -47.337 -24.922  1.00  0.00    -0.234 NA
ATOM     17  N   UNL     1      11.439 -46.299 -23.462  1.00  0.00    -0.296 N 
ATOM     18  C   UNL     1      12.381 -46.291 -24.471  1.00  0.00     0.112 A 
ATOM     19  C   UNL     1      10.908 -44.982 -23.228  1.00  0.00     0.128 C 
ATOM     20  C   UNL     1      12.565 -44.890 -24.970  1.00  0.00     0.077 C 
ATOM     21  C   UNL     1      11.954 -44.065 -23.839  1.00  0.00     0.030 C 
ATOM     22  O   UNL     1      10.121 -47.501 -22.005  1.00  0.00    -0.269 OA
ENDBRANCH   6   9
ENDBRANCH   4   5
ENDBRANCH   1   4
BRANCH   1  23
ATOM     23  C   UNL     1      10.335 -56.434 -22.393  1.00  0.00     0.261 C 
BRANCH  23  24
ATOM     24  C   UNL     1      11.419 -57.502 -22.454  1.00  0.00     0.066 C 
BRANCH  24  25
ATOM     25  C   UNL     1      11.252 -58.593 -21.392  1.00  0.00     0.041 C 
BRANCH  25  26
ATOM     26  C   UNL     1      10.932 -59.922 -22.023  1.00  0.00    -0.048 A 
ATOM     27  C   UNL     1       9.959 -60.761 -21.462  1.00  0.00     0.004 A 
ATOM     28  C   UNL     1      11.622 -60.349 -23.165  1.00  0.00     0.004 A 
ATOM     29  C   UNL     1       9.680 -62.001 -22.037  1.00  0.00     0.000 A 
ATOM     30  C   UNL     1      11.340 -61.591 -23.738  1.00  0.00     0.000 A 
ATOM     31  C   UNL     1      10.371 -62.416 -23.174  1.00  0.00     0.000 A 
ENDBRANCH  25  26
ENDBRANCH  24  25
ENDBRANCH  23  24
ENDBRANCH   1  23
TORSDOF 7
ENDMDL
MODEL 6
REMARK VINA RESULT:   -10.053      1.802      2.742
REMARK INTER + INTRA:         -14.850
REMARK INTER:                 -14.239
REMARK INTRA:                  -0.611
REMARK UNBOUND:                -0.683
REMARK SMILES O=C(C[NH2+]CCCc1ccccc1)Nc1ccc2nc3n(c(=O)c2c1)CCC3
REMARK SMILES IDX 4 1 3 4 2 5 14 6 1 7 15 9 16 10 25 11 17 12 24 13 18 14
REMARK SMILES IDX 22 15 19 16 21 17 20 18 26 19 28 20 27 21 23 22 5 23 6 24
REMARK SMILES IDX 7 25 8 26 9 27 13 28 10 29 12 30 11 31
REMARK H PARENT 4 2 4 3 14 8
ROOT
ATOM      1  N   UNL     1      11.865 -61.118 -23.714  1.00  0.00    -0.338 N 
ATOM      2  H   UNL     1      12.170 -61.895 -24.321  1.00  0.00     0.346 HD
ATOM      3  H   UNL     1      12.604 -61.086 -22.993  1.00  0.00     0.346 HD
ENDROOT
BRANCH   1   4
ATOM      4  C   UNL     1      11.996 -59.840 -24.514  1.00  0.00     0.362 C 
BRANCH   4   5
ATOM      5  C   UNL     1      11.930 -58.637 -23.571  1.00  0.00     0.279 C 
ATOM      6  N   UNL     1      11.465 -57.479 -24.156  1.00  0.00    -0.321 N 
ATOM      7  O   UNL     1      12.285 -58.802 -22.405  1.00  0.00    -0.268 OA
ATOM      8  H   UNL     1      11.204 -57.498 -25.138  1.00  0.00     0.170 HD
BRANCH   6   9
ATOM      9  C   UNL     1      11.301 -56.219 -23.535  1.00  0.00     0.042 A 
ATOM     10  C   UNL     1      10.616 -56.017 -22.334  1.00  0.00     0.028 A 
ATOM     11  C   UNL     1      11.868 -55.115 -24.180  1.00  0.00     0.042 A 
ATOM     12  C   UNL     1      10.501 -54.731 -21.783  1.00  0.00     0.031 A 
ATOM     13  C   UNL     1      11.746 -53.835 -23.623  1.00  0.00     0.068 A 
ATOM     14  C   UNL     1      11.064 -53.626 -22.420  1.00  0.00     0.078 A 
ATOM     15  C   UNL     1      12.345 -52.664 -24.300  1.00  0.00     0.261 A 
ATOM     16  N   UNL     1      10.929 -52.359 -21.826  1.00  0.00    -0.234 NA
ATOM     17  N   UNL     1      12.114 -51.469 -23.671  1.00  0.00    -0.296 N 
ATOM     18  C   UNL     1      11.446 -51.366 -22.468  1.00  0.00     0.112 A 
ATOM     19  C   UNL     1      12.624 -50.193 -24.100  1.00  0.00     0.128 C 
ATOM     20  C   UNL     1      11.443 -49.937 -22.019  1.00  0.00     0.077 C 
ATOM     21  C   UNL     1      11.793 -49.196 -23.308  1.00  0.00     0.030 C 
ATOM     22  O   UNL     1      12.992 -52.802 -25.331  1.00  0.00    -0.269 OA
ENDBRANCH   6   9
ENDBRANCH   4   5
ENDBRANCH   1   4
BRANCH   1  23
ATOM     23  C   UNL     1      10.523 -61.378 -23.135  1.00  0.00     0.261 C 
BRANCH  23  24
ATOM     24  C   UNL     1       9.756 -62.378 -23.988  1.00  0.00     0.066 C 
BRANCH  24  25
ATOM     25  C   UNL     1       8.819 -61.715 -25.001  1.00  0.00     0.041 C 
BRANCH  25  26
ATOM     26  C   UNL     1       8.032 -60.601 -24.365  1.00  0.00    -0.048 A 
ATOM     27  C   UNL     1       6.915 -60.882 -23.565  1.00  0.00     0.004 A 
ATOM     28  C   UNL     1       8.388 -59.263 -24.588  1.00  0.00     0.004 A 
ATOM     29  C   UNL     1       6.175 -59.846 -22.995  1.00  0.00     0.000 A 
ATOM     30  C   UNL     1       7.645 -58.229 -24.016  1.00  0.00     0.000 A 
ATOM     31  C   UNL     1       6.540 -58.520 -23.221  1.00  0.00     0.000 A 
ENDBRANCH  25  26
ENDBRANCH  24  25
ENDBRANCH  23  24
ENDBRANCH   1  23
TORSDOF 7
ENDMDL
MODEL 7
REMARK VINA RESULT:    -9.926      1.281      1.983
REMARK INTER + INTRA:         -14.671
REMARK INTER:                 -14.148
REMARK INTRA:                  -0.523
REMARK UNBOUND:                -0.683
REMARK SMILES O=C(C[NH2+]CCCc1ccccc1)Nc1ccc2nc3n(c(=O)c2c1)CCC3
REMARK SMILES IDX 4 1 3 4 2 5 14 6 1 7 15 9 16 10 25 11 17 12 24 13 18 14
REMARK SMILES IDX 22 15 19 16 21 17 20 18 26 19 28 20 27 21 23 22 5 23 6 24
REMARK SMILES IDX 7 25 8 26 9 27 13 28 10 29 12 30 11 31
REMARK H PARENT 4 2 4 3 14 8
ROOT
ATOM      1  N   UNL     1       8.837 -59.228 -22.760  1.00  0.00    -0.338 N 
ATOM      2  H   UNL     1       8.925 -60.037 -22.126  1.00  0.00     0.346 HD
ATOM      3  H   UNL     1       8.631 -58.450 -22.113  1.00  0.00     0.346 HD
ENDROOT
BRANCH   1   4
ATOM      4  C   UNL     1      10.209 -58.952 -23.335  1.00  0.00     0.362 C 
BRANCH   4   5
ATOM      5  C   UNL     1      10.727 -57.614 -22.805  1.00  0.00     0.279 C 
ATOM      6  N   UNL     1      10.167 -56.508 -23.407  1.00  0.00    -0.321 N 
ATOM      7  O   UNL     1      11.571 -57.639 -21.912  1.00  0.00    -0.268 OA
ATOM      8  H   UNL     1       9.472 -56.647 -24.135  1.00  0.00     0.170 HD
BRANCH   6   9
ATOM      9  C   UNL     1      10.452 -55.152 -23.126  1.00  0.00     0.042 A 
ATOM     10  C   UNL     1       9.893 -54.433 -22.067  1.00  0.00     0.028 A 
ATOM     11  C   UNL     1      11.355 -54.504 -23.976  1.00  0.00     0.042 A 
ATOM     12  C   UNL     1      10.233 -53.087 -21.857  1.00  0.00     0.031 A 
ATOM     13  C   UNL     1      11.686 -53.159 -23.759  1.00  0.00     0.068 A 
ATOM     14  C   UNL     1      11.132 -52.435 -22.699  1.00  0.00     0.078 A 
ATOM     15  C   UNL     1      12.641 -52.471 -24.654  1.00  0.00     0.261 A 
ATOM     16  N   UNL     1      11.447 -51.089 -22.444  1.00  0.00    -0.234 NA
ATOM     17  N   UNL     1      12.842 -51.148 -24.354  1.00  0.00    -0.296 N 
ATOM     18  C   UNL     1      12.265 -50.525 -23.267  1.00  0.00     0.112 A 
ATOM     19  C   UNL     1      13.753 -50.271 -25.042  1.00  0.00     0.128 C 
ATOM     20  C   UNL     1      12.758 -49.113 -23.182  1.00  0.00     0.077 C 
ATOM     21  C   UNL     1      13.323 -48.887 -24.582  1.00  0.00     0.030 C 
ATOM     22  O   UNL     1      13.189 -53.075 -25.568  1.00  0.00    -0.269 OA
ENDBRANCH   6   9
ENDBRANCH   4   5
ENDBRANCH   1   4
BRANCH   1  23
ATOM     23  C   UNL     1       7.755 -59.435 -23.755  1.00  0.00     0.261 C 
BRANCH  23  24
ATOM     24  C   UNL     1       7.156 -60.828 -23.615  1.00  0.00     0.066 C 
BRANCH  24  25
ATOM     25  C   UNL     1       8.177 -61.949 -23.832  1.00  0.00     0.041 C 
BRANCH  25  26
ATOM     26  C   UNL     1       8.386 -62.217 -25.298  1.00  0.00    -0.048 A 
ATOM     27  C   UNL     1       9.281 -61.439 -26.046  1.00  0.00     0.004 A 
ATOM     28  C   UNL     1       7.667 -63.233 -25.943  1.00  0.00     0.004 A 
ATOM     29  C   UNL     1       9.456 -61.676 -27.409  1.00  0.00     0.000 A 
ATOM     30  C   UNL     1       7.844 -63.468 -27.307  1.00  0.00     0.000 A 
ATOM     31  C   UNL     1       8.737 -62.691 -28.040  1.00  0.00     0.000 A 
ENDBRANCH  25  26
ENDBRANCH  24  25
ENDBRANCH  23  24
ENDBRANCH   1  23
TORSDOF 7
ENDMDL
MODEL 8
REMARK VINA RESULT:    -9.803      2.274     11.135
REMARK INTER + INTRA:         -14.497
REMARK INTER:                 -13.995
REMARK INTRA:                  -0.503
REMARK UNBOUND:                -0.683
REMARK SMILES O=C(C[NH2+]CCCc1ccccc1)Nc1ccc2nc3n(c(=O)c2c1)CCC3
REMARK SMILES IDX 4 1 3 4 2 5 14 6 1 7 15 9 16 10 25 11 17 12 24 13 18 14
REMARK SMILES IDX 22 15 19 16 21 17 20 18 26 19 28 20 27 21 23 22 5 23 6 24
REMARK SMILES IDX 7 25 8 26 9 27 13 28 10 29 12 30 11 31
REMARK H PARENT 4 2 4 3 14 8
ROOT
ATOM      1  N   UNL     1      11.566 -52.442 -22.405  1.00  0.00    -0.338 N 
ATOM      2  H   UNL     1      11.195 -51.902 -21.608  1.00  0.00     0.346 HD
ATOM      3  H   UNL     1      12.049 -53.231 -21.943  1.00  0.00     0.346 HD
ENDROOT
BRANCH   1   4
ATOM      4  C   UNL     1      10.385 -53.037 -23.140  1.00  0.00     0.362 C 
BRANCH   4   5
ATOM      5  C   UNL     1      10.633 -54.526 -23.387  1.00  0.00     0.279 C 
ATOM      6  N   UNL     1      10.146 -55.356 -22.400  1.00  0.00    -0.321 N 
ATOM      7  O   UNL     1      11.225 -54.846 -24.417  1.00  0.00    -0.268 OA
ATOM      8  H   UNL     1       9.671 -54.941 -21.604  1.00  0.00     0.170 HD
BRANCH   6   9
ATOM      9  C   UNL     1      10.230 -56.766 -22.358  1.00  0.00     0.042 A 
ATOM     10  C   UNL     1      11.258 -57.476 -21.732  1.00  0.00     0.028 A 
ATOM     11  C   UNL     1       9.209 -57.482 -22.992  1.00  0.00     0.042 A 
ATOM     12  C   UNL     1      11.266 -58.879 -21.735  1.00  0.00     0.031 A 
ATOM     13  C   UNL     1       9.226 -58.884 -22.991  1.00  0.00     0.068 A 
ATOM     14  C   UNL     1      10.251 -59.599 -22.363  1.00  0.00     0.078 A 
ATOM     15  C   UNL     1       8.148 -59.645 -23.658  1.00  0.00     0.261 A 
ATOM     16  N   UNL     1      10.297 -61.004 -22.334  1.00  0.00    -0.234 NA
ATOM     17  N   UNL     1       8.310 -61.006 -23.619  1.00  0.00    -0.296 N 
ATOM     18  C   UNL     1       9.348 -61.623 -22.951  1.00  0.00     0.112 A 
ATOM     19  C   UNL     1       7.383 -61.968 -24.153  1.00  0.00     0.128 C 
ATOM     20  C   UNL     1       9.181 -63.109 -23.035  1.00  0.00     0.077 C 
ATOM     21  C   UNL     1       8.190 -63.255 -24.187  1.00  0.00     0.030 C 
ATOM     22  O   UNL     1       7.204 -59.065 -24.181  1.00  0.00    -0.269 OA
ENDBRANCH   6   9
ENDBRANCH   4   5
ENDBRANCH   1   4
BRANCH   1  23
ATOM     23  C   UNL     1      12.489 -51.623 -23.230  1.00  0.00     0.261 C 
BRANCH  23  24
ATOM     24  C   UNL     1      12.546 -50.193 -22.712  1.00  0.00     0.066 C 
BRANCH  24  25
ATOM     25  C   UNL     1      11.173 -49.517 -22.653  1.00  0.00     0.041 C 
BRANCH  25  26
ATOM     26  C   UNL     1      11.252 -48.084 -23.106  1.00  0.00    -0.048 A 
ATOM     27  C   UNL     1      10.530 -47.084 -22.439  1.00  0.00     0.004 A 
ATOM     28  C   UNL     1      12.028 -47.734 -24.220  1.00  0.00     0.004 A 
ATOM     29  C   UNL     1      10.589 -45.760 -22.875  1.00  0.00     0.000 A 
ATOM     30  C   UNL     1      12.085 -46.408 -24.653  1.00  0.00     0.000 A 
ATOM     31  C   UNL     1      11.366 -45.422 -23.982  1.00  0.00     0.000 A 
ENDBRANCH  25  26
ENDBRANCH  24  25
ENDBRANCH  23  24
ENDBRANCH   1  23
TORSDOF 7
ENDMDL
MODEL 9
REMARK VINA RESULT:    -9.017      4.684      9.954
REMARK INTER + INTRA:         -13.389
REMARK INTER:                 -11.420
REMARK INTRA:                  -1.969
REMARK UNBOUND:                -0.683
REMARK SMILES O=C(C[NH2+]CCCc1ccccc1)Nc1ccc2nc3n(c(=O)c2c1)CCC3
REMARK SMILES IDX 4 1 3 4 2 5 14 6 1 7 15 9 16 10 25 11 17 12 24 13 18 14
REMARK SMILES IDX 22 15 19 16 21 17 20 18 26 19 28 20 27 21 23 22 5 23 6 24
REMARK SMILES IDX 7 25 8 26 9 27 13 28 10 29 12 30 11 31
REMARK H PARENT 4 2 4 3 14 8
ROOT
ATOM      1  N   UNL     1      17.528 -48.754 -28.601  1.00  0.00    -0.338 N 
ATOM      2  H   UNL     1      17.935 -48.043 -29.228  1.00  0.00     0.346 HD
ATOM      3  H   UNL     1      17.573 -48.298 -27.675  1.00  0.00     0.346 HD
ENDROOT
BRANCH   1   4
ATOM      4  C   UNL     1      16.060 -48.876 -28.945  1.00  0.00     0.362 C 
BRANCH   4   5
ATOM      5  C   UNL     1      15.236 -48.938 -27.658  1.00  0.00     0.279 C 
ATOM      6  N   UNL     1      14.799 -50.201 -27.322  1.00  0.00    -0.321 N 
ATOM      7  O   UNL     1      15.042 -47.887 -27.051  1.00  0.00    -0.268 OA
ATOM      8  H   UNL     1      15.045 -50.980 -27.926  1.00  0.00     0.170 HD
BRANCH   6   9
ATOM      9  C   UNL     1      14.021 -50.560 -26.197  1.00  0.00     0.042 A 
ATOM     10  C   UNL     1      13.640 -49.672 -25.188  1.00  0.00     0.028 A 
ATOM     11  C   UNL     1      13.615 -51.895 -26.106  1.00  0.00     0.042 A 
ATOM     12  C   UNL     1      12.864 -50.110 -24.104  1.00  0.00     0.031 A 
ATOM     13  C   UNL     1      12.841 -52.324 -25.018  1.00  0.00     0.068 A 
ATOM     14  C   UNL     1      12.455 -51.439 -24.006  1.00  0.00     0.078 A 
ATOM     15  C   UNL     1      12.408 -53.734 -24.918  1.00  0.00     0.261 A 
ATOM     16  N   UNL     1      11.672 -51.829 -22.906  1.00  0.00    -0.234 NA
ATOM     17  N   UNL     1      11.695 -54.026 -23.784  1.00  0.00    -0.296 N 
ATOM     18  C   UNL     1      11.342 -53.075 -22.850  1.00  0.00     0.112 A 
ATOM     19  C   UNL     1      11.124 -55.310 -23.471  1.00  0.00     0.128 C 
ATOM     20  C   UNL     1      10.498 -53.711 -21.787  1.00  0.00     0.077 C 
ATOM     21  C   UNL     1      10.787 -55.195 -21.994  1.00  0.00     0.030 C 
ATOM     22  O   UNL     1      12.682 -54.536 -25.803  1.00  0.00    -0.269 OA
ENDBRANCH   6   9
ENDBRANCH   4   5
ENDBRANCH   1   4
BRANCH   1  23
ATOM     23  C   UNL     1      18.304 -50.020 -28.644  1.00  0.00     0.261 C 
BRANCH  23  24
ATOM     24  C   UNL     1      18.923 -50.315 -27.285  1.00  0.00     0.066 C 
BRANCH  24  25
ATOM     25  C   UNL     1      18.311 -49.491 -26.149  1.00  0.00     0.041 C 
BRANCH  25  26
ATOM     26  C   UNL     1      17.631 -50.377 -25.139  1.00  0.00    -0.048 A 
ATOM     27  C   UNL     1      17.469 -51.747 -25.388  1.00  0.00     0.004 A 
ATOM     28  C   UNL     1      17.126 -49.837 -23.948  1.00  0.00     0.004 A 
ATOM     29  C   UNL     1      16.819 -52.561 -24.459  1.00  0.00     0.000 A 
ATOM     30  C   UNL     1      16.477 -50.654 -23.021  1.00  0.00     0.000 A 
ATOM     31  C   UNL     1      16.323 -52.015 -23.277  1.00  0.00     0.000 A 
ENDBRANCH  25  26
ENDBRANCH  24  25
ENDBRANCH  23  24
ENDBRANCH   1  23
TORSDOF 7
ENDMDL
