MODEL 1
REMARK VINA RESULT:    -9.413      0.000      0.000
REMARK INTER + INTRA:         -14.078
REMARK INTER:                 -12.989
REMARK INTRA:                  -1.088
REMARK UNBOUND:                -1.088
REMARK SMILES COc1ccc([C@H]2C=C(c3cc(F)cc(F)c3)NN2c2ccc(S(N)(=O)=O)cc2)cc1OC
REMARK SMILES IDX 20 1 21 2 22 3 23 4 28 5 29 6 19 7 18 8 9 9 8 10 7 11 10 13
REMARK SMILES IDX 11 14 17 15 12 16 15 17 14 18 13 19 16 20 6 21 5 22 30 23
REMARK SMILES IDX 4 24 31 25 3 26 32 27 33 28 2 29 1 30 24 31 26 32 27 33
REMARK SMILES IDX 25 34
REMARK H PARENT 18 12 25 35 25 36
ROOT
ATOM      1  C   UNL     1      10.068 -59.986 -23.935  1.00  0.00     0.058 A 
ATOM      2  C   UNL     1       8.697 -60.037 -24.245  1.00  0.00     0.029 A 
ATOM      3  C   UNL     1       7.944 -61.205 -24.077  1.00  0.00     0.024 A 
ATOM      4  C   UNL     1       8.566 -62.354 -23.594  1.00  0.00     0.082 A 
ATOM      5  C   UNL     1       9.917 -62.335 -23.259  1.00  0.00     0.024 A 
ATOM      6  C   UNL     1      10.655 -61.159 -23.433  1.00  0.00     0.029 A 
ENDROOT
BRANCH   1   7
ATOM      7  N   UNL     1      10.790 -58.808 -24.124  1.00  0.00    -0.276 N 
ATOM      8  N   UNL     1      10.456 -57.569 -23.602  1.00  0.00    -0.297 N 
ATOM      9  C   UNL     1      11.452 -56.647 -23.909  1.00  0.00     0.060 C 
ATOM     10  C   UNL     1      12.383 -57.222 -24.689  1.00  0.00     0.033 C 
ATOM     11  C   UNL     1      12.036 -58.680 -24.933  1.00  0.00     0.161 C 
ATOM     12  H   UNL     1      10.234 -57.560 -22.606  1.00  0.00     0.188 HD
BRANCH   9  13
ATOM     13  C   UNL     1      11.419 -55.274 -23.399  1.00  0.00     0.005 A 
ATOM     14  C   UNL     1      11.811 -54.204 -24.219  1.00  0.00     0.049 A 
ATOM     15  C   UNL     1      10.982 -54.989 -22.099  1.00  0.00     0.049 A 
ATOM     16  C   UNL     1      11.769 -52.897 -23.739  1.00  0.00     0.126 A 
ATOM     17  C   UNL     1      10.949 -53.672 -21.641  1.00  0.00     0.126 A 
ATOM     18  C   UNL     1      11.340 -52.618 -22.451  1.00  0.00     0.078 A 
ATOM     19  F   UNL     1      12.153 -51.893 -24.538  1.00  0.00    -0.207 F 
ATOM     20  F   UNL     1      10.526 -53.422 -20.394  1.00  0.00    -0.207 F 
ENDBRANCH   9  13
BRANCH  11  21
ATOM     21  C   UNL     1      11.840 -58.970 -26.412  1.00  0.00    -0.016 A 
ATOM     22  C   UNL     1      12.392 -58.109 -27.370  1.00  0.00     0.010 A 
ATOM     23  C   UNL     1      11.088 -60.073 -26.856  1.00  0.00     0.056 A 
ATOM     24  C   UNL     1      12.218 -58.352 -28.735  1.00  0.00     0.051 A 
ATOM     25  C   UNL     1      10.910 -60.327 -28.220  1.00  0.00     0.161 A 
ATOM     26  C   UNL     1      11.482 -59.459 -29.170  1.00  0.00     0.160 A 
BRANCH  25  27
ATOM     27  O   UNL     1      10.200 -61.391 -28.724  1.00  0.00    -0.493 OA
ATOM     28  C   UNL     1       9.131 -61.897 -27.939  1.00  0.00     0.278 C 
ENDBRANCH  25  27
BRANCH  26  29
ATOM     29  O   UNL     1      11.267 -59.778 -30.488  1.00  0.00    -0.493 OA
ATOM     30  C   UNL     1      12.221 -59.331 -31.440  1.00  0.00     0.278 C 
ENDBRANCH  26  29
ENDBRANCH  11  21
ENDBRANCH   1   7
BRANCH   4  31
ATOM     31  S   UNL     1       7.619 -63.837 -23.388  1.00  0.00     0.238 S 
ATOM     32  O   UNL     1       8.247 -64.642 -22.368  1.00  0.00    -0.207 OA
ATOM     33  O   UNL     1       7.287 -64.356 -24.696  1.00  0.00    -0.207 OA
BRANCH  31  34
ATOM     34  N   UNL     1       6.179 -63.230 -22.761  1.00  0.00    -0.225 NA
ATOM     35  H   UNL     1       6.262 -62.912 -21.796  1.00  0.00     0.137 HD
ATOM     36  H   UNL     1       5.837 -62.490 -23.376  1.00  0.00     0.137 HD
ENDBRANCH  31  34
ENDBRANCH   4  31
TORSDOF 7
ENDMDL
MODEL 2
REMARK VINA RESULT:    -9.134      6.617      9.747
REMARK INTER + INTRA:         -13.693
REMARK INTER:                 -12.303
REMARK INTRA:                  -1.390
REMARK UNBOUND:                -1.088
REMARK SMILES COc1ccc([C@H]2C=C(c3cc(F)cc(F)c3)NN2c2ccc(S(N)(=O)=O)cc2)cc1OC
REMARK SMILES IDX 20 1 21 2 22 3 23 4 28 5 29 6 19 7 18 8 9 9 8 10 7 11 10 13
REMARK SMILES IDX 11 14 17 15 12 16 15 17 14 18 13 19 16 20 6 21 5 22 30 23
REMARK SMILES IDX 4 24 31 25 3 26 32 27 33 28 2 29 1 30 24 31 26 32 27 33
REMARK SMILES IDX 25 34
REMARK H PARENT 18 12 25 35 25 36
ROOT
ATOM      1  C   UNL     1      12.311 -51.443 -23.245  1.00  0.00     0.058 A 
ATOM      2  C   UNL     1      12.524 -52.361 -24.290  1.00  0.00     0.029 A 
ATOM      3  C   UNL     1      12.034 -53.671 -24.235  1.00  0.00     0.024 A 
ATOM      4  C   UNL     1      11.319 -54.085 -23.113  1.00  0.00     0.082 A 
ATOM      5  C   UNL     1      11.072 -53.198 -22.069  1.00  0.00     0.024 A 
ATOM      6  C   UNL     1      11.570 -51.892 -22.140  1.00  0.00     0.029 A 
ENDROOT
BRANCH   1   7
ATOM      7  N   UNL     1      12.822 -50.148 -23.330  1.00  0.00    -0.276 N 
ATOM      8  N   UNL     1      12.109 -49.027 -23.726  1.00  0.00    -0.297 N 
ATOM      9  C   UNL     1      12.906 -47.895 -23.594  1.00  0.00     0.060 C 
ATOM     10  C   UNL     1      14.143 -48.248 -23.208  1.00  0.00     0.033 C 
ATOM     11  C   UNL     1      14.226 -49.753 -23.022  1.00  0.00     0.161 C 
ATOM     12  H   UNL     1      11.204 -48.902 -23.271  1.00  0.00     0.188 HD
BRANCH   9  13
ATOM     13  C   UNL     1      12.384 -46.549 -23.844  1.00  0.00     0.005 A 
ATOM     14  C   UNL     1      11.227 -46.104 -23.185  1.00  0.00     0.049 A 
ATOM     15  C   UNL     1      13.026 -45.670 -24.726  1.00  0.00     0.049 A 
ATOM     16  C   UNL     1      10.736 -44.821 -23.415  1.00  0.00     0.126 A 
ATOM     17  C   UNL     1      12.516 -44.390 -24.939  1.00  0.00     0.126 A 
ATOM     18  C   UNL     1      11.371 -43.954 -24.290  1.00  0.00     0.078 A 
ATOM     19  F   UNL     1       9.628 -44.419 -22.779  1.00  0.00    -0.207 F 
ATOM     20  F   UNL     1      13.147 -43.565 -25.785  1.00  0.00    -0.207 F 
ENDBRANCH   9  13
BRANCH  11  21
ATOM     21  C   UNL     1      15.256 -50.377 -23.949  1.00  0.00    -0.016 A 
ATOM     22  C   UNL     1      16.039 -51.448 -23.500  1.00  0.00     0.010 A 
ATOM     23  C   UNL     1      15.473 -49.887 -25.251  1.00  0.00     0.056 A 
ATOM     24  C   UNL     1      16.998 -52.032 -24.333  1.00  0.00     0.051 A 
ATOM     25  C   UNL     1      16.428 -50.466 -26.093  1.00  0.00     0.161 A 
ATOM     26  C   UNL     1      17.197 -51.551 -25.631  1.00  0.00     0.160 A 
BRANCH  25  27
ATOM     27  O   UNL     1      16.682 -50.048 -27.378  1.00  0.00    -0.493 OA
ATOM     28  C   UNL     1      15.694 -49.254 -28.018  1.00  0.00     0.278 C 
ENDBRANCH  25  27
BRANCH  26  29
ATOM     29  O   UNL     1      18.110 -52.066 -26.518  1.00  0.00    -0.493 OA
ATOM     30  C   UNL     1      19.485 -51.982 -26.174  1.00  0.00     0.278 C 
ENDBRANCH  26  29
ENDBRANCH  11  21
ENDBRANCH   1   7
BRANCH   4  31
ATOM     31  S   UNL     1      10.705 -55.745 -23.035  1.00  0.00     0.238 S 
ATOM     32  O   UNL     1       9.359 -55.759 -23.554  1.00  0.00    -0.207 OA
ATOM     33  O   UNL     1      11.049 -56.301 -21.746  1.00  0.00    -0.207 OA
BRANCH  31  34
ATOM     34  N   UNL     1      11.701 -56.524 -24.146  1.00  0.00    -0.225 NA
ATOM     35  H   UNL     1      12.201 -55.880 -24.759  1.00  0.00     0.137 HD
ATOM     36  H   UNL     1      12.341 -57.139 -23.641  1.00  0.00     0.137 HD
ENDBRANCH  31  34
ENDBRANCH   4  31
TORSDOF 7
ENDMDL
MODEL 3
REMARK VINA RESULT:    -9.132      6.642      9.683
REMARK INTER + INTRA:         -13.690
REMARK INTER:                 -12.294
REMARK INTRA:                  -1.396
REMARK UNBOUND:                -1.088
REMARK SMILES COc1ccc([C@H]2C=C(c3cc(F)cc(F)c3)NN2c2ccc(S(N)(=O)=O)cc2)cc1OC
REMARK SMILES IDX 20 1 21 2 22 3 23 4 28 5 29 6 19 7 18 8 9 9 8 10 7 11 10 13
REMARK SMILES IDX 11 14 17 15 12 16 15 17 14 18 13 19 16 20 6 21 5 22 30 23
REMARK SMILES IDX 4 24 31 25 3 26 32 27 33 28 2 29 1 30 24 31 26 32 27 33
REMARK SMILES IDX 25 34
REMARK H PARENT 18 12 25 35 25 36
ROOT
ATOM      1  C   UNL     1      12.328 -51.409 -23.270  1.00  0.00     0.058 A 
ATOM      2  C   UNL     1      12.523 -52.334 -24.312  1.00  0.00     0.029 A 
ATOM      3  C   UNL     1      12.016 -53.637 -24.249  1.00  0.00     0.024 A 
ATOM      4  C   UNL     1      11.302 -54.037 -23.123  1.00  0.00     0.082 A 
ATOM      5  C   UNL     1      11.073 -53.143 -22.080  1.00  0.00     0.024 A 
ATOM      6  C   UNL     1      11.587 -51.844 -22.159  1.00  0.00     0.029 A 
ENDROOT
BRANCH   1   7
ATOM      7  N   UNL     1      12.856 -50.122 -23.362  1.00  0.00    -0.276 N 
ATOM      8  N   UNL     1      12.163 -48.997 -23.781  1.00  0.00    -0.297 N 
ATOM      9  C   UNL     1      12.971 -47.873 -23.651  1.00  0.00     0.060 C 
ATOM     10  C   UNL     1      14.199 -48.237 -23.245  1.00  0.00     0.033 C 
ATOM     11  C   UNL     1      14.260 -49.740 -23.040  1.00  0.00     0.161 C 
ATOM     12  H   UNL     1      11.253 -48.856 -23.339  1.00  0.00     0.188 HD
BRANCH   9  13
ATOM     13  C   UNL     1      12.469 -46.524 -23.923  1.00  0.00     0.005 A 
ATOM     14  C   UNL     1      13.070 -45.731 -24.914  1.00  0.00     0.049 A 
ATOM     15  C   UNL     1      11.376 -45.997 -23.224  1.00  0.00     0.049 A 
ATOM     16  C   UNL     1      12.587 -44.452 -25.181  1.00  0.00     0.126 A 
ATOM     17  C   UNL     1      10.909 -44.715 -23.510  1.00  0.00     0.126 A 
ATOM     18  C   UNL     1      11.507 -43.932 -24.486  1.00  0.00     0.078 A 
ATOM     19  F   UNL     1      13.179 -43.712 -26.127  1.00  0.00    -0.207 F 
ATOM     20  F   UNL     1       9.861 -44.231 -22.830  1.00  0.00    -0.207 F 
ENDBRANCH   9  13
BRANCH  11  21
ATOM     21  C   UNL     1      15.295 -50.387 -23.946  1.00  0.00    -0.016 A 
ATOM     22  C   UNL     1      16.075 -51.448 -23.467  1.00  0.00     0.010 A 
ATOM     23  C   UNL     1      15.520 -49.929 -25.258  1.00  0.00     0.056 A 
ATOM     24  C   UNL     1      17.037 -52.053 -24.280  1.00  0.00     0.051 A 
ATOM     25  C   UNL     1      16.479 -50.529 -26.081  1.00  0.00     0.161 A 
ATOM     26  C   UNL     1      17.245 -51.603 -25.587  1.00  0.00     0.160 A 
BRANCH  25  27
ATOM     27  O   UNL     1      16.742 -50.142 -27.373  1.00  0.00    -0.493 OA
ATOM     28  C   UNL     1      15.832 -49.241 -27.986  1.00  0.00     0.278 C 
ENDBRANCH  25  27
BRANCH  26  29
ATOM     29  O   UNL     1      18.162 -52.140 -26.457  1.00  0.00    -0.493 OA
ATOM     30  C   UNL     1      19.539 -51.977 -26.149  1.00  0.00     0.278 C 
ENDBRANCH  26  29
ENDBRANCH  11  21
ENDBRANCH   1   7
BRANCH   4  31
ATOM     31  S   UNL     1      10.665 -55.688 -23.034  1.00  0.00     0.238 S 
ATOM     32  O   UNL     1       9.336 -55.697 -23.595  1.00  0.00    -0.207 OA
ATOM     33  O   UNL     1      10.962 -56.225 -21.725  1.00  0.00    -0.207 OA
BRANCH  31  34
ATOM     34  N   UNL     1      11.687 -56.499 -24.099  1.00  0.00    -0.225 NA
ATOM     35  H   UNL     1      11.479 -56.310 -25.079  1.00  0.00     0.137 HD
ATOM     36  H   UNL     1      12.655 -56.270 -23.867  1.00  0.00     0.137 HD
ENDBRANCH  31  34
ENDBRANCH   4  31
TORSDOF 7
ENDMDL
MODEL 4
REMARK VINA RESULT:    -8.694      9.065     13.536
REMARK INTER + INTRA:         -13.086
REMARK INTER:                 -11.750
REMARK INTRA:                  -1.336
REMARK UNBOUND:                -1.088
REMARK SMILES COc1ccc([C@H]2C=C(c3cc(F)cc(F)c3)NN2c2ccc(S(N)(=O)=O)cc2)cc1OC
REMARK SMILES IDX 20 1 21 2 22 3 23 4 28 5 29 6 19 7 18 8 9 9 8 10 7 11 10 13
REMARK SMILES IDX 11 14 17 15 12 16 15 17 14 18 13 19 16 20 6 21 5 22 30 23
REMARK SMILES IDX 4 24 31 25 3 26 32 27 33 28 2 29 1 30 24 31 26 32 27 33
REMARK SMILES IDX 25 34
REMARK H PARENT 18 12 25 35 25 36
ROOT
ATOM      1  C   UNL     1      15.245 -48.869 -27.966  1.00  0.00     0.058 A 
ATOM      2  C   UNL     1      16.496 -49.262 -28.475  1.00  0.00     0.029 A 
ATOM      3  C   UNL     1      17.033 -48.694 -29.637  1.00  0.00     0.024 A 
ATOM      4  C   UNL     1      16.310 -47.716 -30.315  1.00  0.00     0.082 A 
ATOM      5  C   UNL     1      15.077 -47.288 -29.829  1.00  0.00     0.024 A 
ATOM      6  C   UNL     1      14.555 -47.867 -28.667  1.00  0.00     0.029 A 
ENDROOT
BRANCH   1   7
ATOM      7  N   UNL     1      14.736 -49.463 -26.812  1.00  0.00    -0.276 N 
ATOM      8  N   UNL     1      14.003 -50.638 -26.768  1.00  0.00    -0.297 N 
ATOM      9  C   UNL     1      13.749 -50.983 -25.445  1.00  0.00     0.060 C 
ATOM     10  C   UNL     1      14.215 -50.027 -24.625  1.00  0.00     0.033 C 
ATOM     11  C   UNL     1      14.883 -48.925 -25.429  1.00  0.00     0.161 C 
ATOM     12  H   UNL     1      14.401 -51.421 -27.288  1.00  0.00     0.188 HD
BRANCH   9  13
ATOM     13  C   UNL     1      13.077 -52.236 -25.088  1.00  0.00     0.005 A 
ATOM     14  C   UNL     1      12.270 -52.305 -23.942  1.00  0.00     0.049 A 
ATOM     15  C   UNL     1      13.205 -53.384 -25.881  1.00  0.00     0.049 A 
ATOM     16  C   UNL     1      11.623 -53.493 -23.608  1.00  0.00     0.126 A 
ATOM     17  C   UNL     1      12.546 -54.560 -25.526  1.00  0.00     0.126 A 
ATOM     18  C   UNL     1      11.753 -54.628 -24.392  1.00  0.00     0.078 A 
ATOM     19  F   UNL     1      10.861 -53.536 -22.507  1.00  0.00    -0.207 F 
ATOM     20  F   UNL     1      12.681 -55.646 -26.300  1.00  0.00    -0.207 F 
ENDBRANCH   9  13
BRANCH  11  21
ATOM     21  C   UNL     1      14.200 -47.584 -25.216  1.00  0.00    -0.016 A 
ATOM     22  C   UNL     1      14.904 -46.397 -25.462  1.00  0.00     0.010 A 
ATOM     23  C   UNL     1      12.877 -47.494 -24.745  1.00  0.00     0.056 A 
ATOM     24  C   UNL     1      14.298 -45.154 -25.266  1.00  0.00     0.051 A 
ATOM     25  C   UNL     1      12.260 -46.254 -24.548  1.00  0.00     0.161 A 
ATOM     26  C   UNL     1      12.978 -45.071 -24.813  1.00  0.00     0.160 A 
BRANCH  25  27
ATOM     27  O   UNL     1      10.970 -46.092 -24.104  1.00  0.00    -0.493 OA
ATOM     28  C   UNL     1      10.678 -46.494 -22.773  1.00  0.00     0.278 C 
ENDBRANCH  25  27
BRANCH  26  29
ATOM     29  O   UNL     1      12.302 -43.895 -24.599  1.00  0.00    -0.493 OA
ATOM     30  C   UNL     1      12.346 -42.913 -25.624  1.00  0.00     0.278 C 
ENDBRANCH  26  29
ENDBRANCH  11  21
ENDBRANCH   1   7
BRANCH   4  31
ATOM     31  S   UNL     1      16.981 -47.001 -31.790  1.00  0.00     0.238 S 
ATOM     32  O   UNL     1      16.526 -47.772 -32.921  1.00  0.00    -0.207 OA
ATOM     33  O   UNL     1      18.377 -46.702 -31.561  1.00  0.00    -0.207 OA
BRANCH  31  34
ATOM     34  N   UNL     1      16.198 -45.510 -31.826  1.00  0.00    -0.225 NA
ATOM     35  H   UNL     1      16.390 -44.975 -32.672  1.00  0.00     0.137 HD
ATOM     36  H   UNL     1      15.197 -45.660 -31.691  1.00  0.00     0.137 HD
ENDBRANCH  31  34
ENDBRANCH   4  31
TORSDOF 7
ENDMDL
MODEL 5
REMARK VINA RESULT:    -8.656      7.418     11.190
REMARK INTER + INTRA:         -13.034
REMARK INTER:                 -12.080
REMARK INTRA:                  -0.954
REMARK UNBOUND:                -1.088
REMARK SMILES COc1ccc([C@H]2C=C(c3cc(F)cc(F)c3)NN2c2ccc(S(N)(=O)=O)cc2)cc1OC
REMARK SMILES IDX 20 1 21 2 22 3 23 4 28 5 29 6 19 7 18 8 9 9 8 10 7 11 10 13
REMARK SMILES IDX 11 14 17 15 12 16 15 17 14 18 13 19 16 20 6 21 5 22 30 23
REMARK SMILES IDX 4 24 31 25 3 26 32 27 33 28 2 29 1 30 24 31 26 32 27 33
REMARK SMILES IDX 25 34
REMARK H PARENT 18 12 25 35 25 36
ROOT
ATOM      1  C   UNL     1      12.928 -51.709 -24.752  1.00  0.00     0.058 A 
ATOM      2  C   UNL     1      12.260 -51.432 -23.546  1.00  0.00     0.029 A 
ATOM      3  C   UNL     1      11.505 -52.404 -22.879  1.00  0.00     0.024 A 
ATOM      4  C   UNL     1      11.404 -53.682 -23.424  1.00  0.00     0.082 A 
ATOM      5  C   UNL     1      12.068 -53.997 -24.606  1.00  0.00     0.024 A 
ATOM      6  C   UNL     1      12.819 -53.014 -25.260  1.00  0.00     0.029 A 
ENDROOT
BRANCH   1   7
ATOM      7  N   UNL     1      13.664 -50.714 -25.395  1.00  0.00    -0.276 N 
ATOM      8  N   UNL     1      14.859 -50.906 -26.069  1.00  0.00    -0.297 N 
ATOM      9  C   UNL     1      15.256 -49.716 -26.670  1.00  0.00     0.060 C 
ATOM     10  C   UNL     1      14.405 -48.731 -26.338  1.00  0.00     0.033 C 
ATOM     11  C   UNL     1      13.296 -49.270 -25.453  1.00  0.00     0.161 C 
ATOM     12  H   UNL     1      14.866 -51.681 -26.734  1.00  0.00     0.188 HD
BRANCH   9  13
ATOM     13  C   UNL     1      16.435 -49.643 -27.536  1.00  0.00     0.005 A 
ATOM     14  C   UNL     1      17.699 -50.006 -27.045  1.00  0.00     0.049 A 
ATOM     15  C   UNL     1      16.335 -49.229 -28.871  1.00  0.00     0.049 A 
ATOM     16  C   UNL     1      18.819 -49.946 -27.871  1.00  0.00     0.126 A 
ATOM     17  C   UNL     1      17.471 -49.179 -29.678  1.00  0.00     0.126 A 
ATOM     18  C   UNL     1      18.718 -49.534 -29.190  1.00  0.00     0.078 A 
ATOM     19  F   UNL     1      20.015 -50.294 -27.379  1.00  0.00    -0.207 F 
ATOM     20  F   UNL     1      17.352 -48.782 -30.953  1.00  0.00    -0.207 F 
ENDBRANCH   9  13
BRANCH  11  21
ATOM     21  C   UNL     1      13.279 -48.586 -24.096  1.00  0.00    -0.016 A 
ATOM     22  C   UNL     1      14.422 -48.617 -23.285  1.00  0.00     0.010 A 
ATOM     23  C   UNL     1      12.129 -47.939 -23.608  1.00  0.00     0.056 A 
ATOM     24  C   UNL     1      14.426 -48.001 -22.031  1.00  0.00     0.051 A 
ATOM     25  C   UNL     1      12.123 -47.317 -22.355  1.00  0.00     0.161 A 
ATOM     26  C   UNL     1      13.284 -47.347 -21.559  1.00  0.00     0.160 A 
BRANCH  25  27
ATOM     27  O   UNL     1      11.041 -46.658 -21.822  1.00  0.00    -0.493 OA
ATOM     28  C   UNL     1      10.403 -45.681 -22.633  1.00  0.00     0.278 C 
ENDBRANCH  25  27
BRANCH  26  29
ATOM     29  O   UNL     1      13.201 -46.710 -20.345  1.00  0.00    -0.493 OA
ATOM     30  C   UNL     1      14.155 -47.056 -19.351  1.00  0.00     0.278 C 
ENDBRANCH  26  29
ENDBRANCH  11  21
ENDBRANCH   1   7
BRANCH   4  31
ATOM     31  S   UNL     1      10.443 -54.913 -22.588  1.00  0.00     0.238 S 
ATOM     32  O   UNL     1      11.311 -55.647 -21.700  1.00  0.00    -0.207 OA
ATOM     33  O   UNL     1       9.589 -55.564 -23.556  1.00  0.00    -0.207 OA
BRANCH  31  34
ATOM     34  N   UNL     1       9.420 -53.959 -21.649  1.00  0.00    -0.225 NA
ATOM     35  H   UNL     1       9.359 -52.995 -21.975  1.00  0.00     0.137 HD
ATOM     36  H   UNL     1       8.502 -54.404 -21.606  1.00  0.00     0.137 HD
ENDBRANCH  31  34
ENDBRANCH   4  31
TORSDOF 7
ENDMDL
MODEL 6
REMARK VINA RESULT:    -8.603      8.006     11.512
REMARK INTER + INTRA:         -12.960
REMARK INTER:                 -11.508
REMARK INTRA:                  -1.451
REMARK UNBOUND:                -1.088
REMARK SMILES COc1ccc([C@H]2C=C(c3cc(F)cc(F)c3)NN2c2ccc(S(N)(=O)=O)cc2)cc1OC
REMARK SMILES IDX 20 1 21 2 22 3 23 4 28 5 29 6 19 7 18 8 9 9 8 10 7 11 10 13
REMARK SMILES IDX 11 14 17 15 12 16 15 17 14 18 13 19 16 20 6 21 5 22 30 23
REMARK SMILES IDX 4 24 31 25 3 26 32 27 33 28 2 29 1 30 24 31 26 32 27 33
REMARK SMILES IDX 25 34
REMARK H PARENT 18 12 25 35 25 36
ROOT
ATOM      1  C   UNL     1      13.272 -50.883 -24.633  1.00  0.00     0.058 A 
ATOM      2  C   UNL     1      12.537 -50.293 -23.588  1.00  0.00     0.029 A 
ATOM      3  C   UNL     1      11.614 -51.023 -22.830  1.00  0.00     0.024 A 
ATOM      4  C   UNL     1      11.408 -52.370 -23.117  1.00  0.00     0.082 A 
ATOM      5  C   UNL     1      12.131 -52.992 -24.132  1.00  0.00     0.024 A 
ATOM      6  C   UNL     1      13.050 -52.248 -24.880  1.00  0.00     0.029 A 
ENDROOT
BRANCH   1   7
ATOM      7  N   UNL     1      14.176 -50.124 -25.374  1.00  0.00    -0.276 N 
ATOM      8  N   UNL     1      14.460 -50.298 -26.719  1.00  0.00    -0.297 N 
ATOM      9  C   UNL     1      15.331 -49.302 -27.147  1.00  0.00     0.060 C 
ATOM     10  C   UNL     1      15.695 -48.534 -26.107  1.00  0.00     0.033 C 
ATOM     11  C   UNL     1      15.004 -49.005 -24.840  1.00  0.00     0.161 C 
ATOM     12  H   UNL     1      13.646 -50.371 -27.331  1.00  0.00     0.188 HD
BRANCH   9  13
ATOM     13  C   UNL     1      15.728 -49.174 -28.552  1.00  0.00     0.005 A 
ATOM     14  C   UNL     1      14.845 -48.616 -29.490  1.00  0.00     0.049 A 
ATOM     15  C   UNL     1      16.992 -49.585 -28.993  1.00  0.00     0.049 A 
ATOM     16  C   UNL     1      15.225 -48.484 -30.823  1.00  0.00     0.126 A 
ATOM     17  C   UNL     1      17.351 -49.442 -30.333  1.00  0.00     0.126 A 
ATOM     18  C   UNL     1      16.476 -48.894 -31.258  1.00  0.00     0.078 A 
ATOM     19  F   UNL     1      14.365 -47.952 -31.701  1.00  0.00    -0.207 F 
ATOM     20  F   UNL     1      18.566 -49.840 -30.733  1.00  0.00    -0.207 F 
ENDBRANCH   9  13
BRANCH  11  21
ATOM     21  C   UNL     1      16.006 -49.433 -23.781  1.00  0.00    -0.016 A 
ATOM     22  C   UNL     1      16.880 -50.498 -24.038  1.00  0.00     0.010 A 
ATOM     23  C   UNL     1      16.066 -48.805 -22.522  1.00  0.00     0.056 A 
ATOM     24  C   UNL     1      17.804 -50.913 -23.075  1.00  0.00     0.051 A 
ATOM     25  C   UNL     1      16.989 -49.211 -21.553  1.00  0.00     0.161 A 
ATOM     26  C   UNL     1      17.868 -50.275 -21.833  1.00  0.00     0.160 A 
BRANCH  25  27
ATOM     27  O   UNL     1      17.111 -48.636 -20.310  1.00  0.00    -0.493 OA
ATOM     28  C   UNL     1      17.348 -47.237 -20.255  1.00  0.00     0.278 C 
ENDBRANCH  25  27
BRANCH  26  29
ATOM     29  O   UNL     1      18.747 -50.611 -20.832  1.00  0.00    -0.493 OA
ATOM     30  C   UNL     1      20.135 -50.451 -21.091  1.00  0.00     0.278 C 
ENDBRANCH  26  29
ENDBRANCH  11  21
ENDBRANCH   1   7
BRANCH   4  31
ATOM     31  S   UNL     1      10.234 -53.295 -22.166  1.00  0.00     0.238 S 
ATOM     32  O   UNL     1      10.684 -53.334 -20.796  1.00  0.00    -0.207 OA
ATOM     33  O   UNL     1       9.883 -54.487 -22.905  1.00  0.00    -0.207 OA
BRANCH  31  34
ATOM     34  N   UNL     1       8.880 -52.298 -22.244  1.00  0.00    -0.225 NA
ATOM     35  H   UNL     1       8.175 -52.628 -22.903  1.00  0.00     0.137 HD
ATOM     36  H   UNL     1       8.497 -52.187 -21.304  1.00  0.00     0.137 HD
ENDBRANCH  31  34
ENDBRANCH   4  31
TORSDOF 7
ENDMDL
MODEL 7
REMARK VINA RESULT:    -8.569      8.741     12.505
REMARK INTER + INTRA:         -12.914
REMARK INTER:                 -11.678
REMARK INTRA:                  -1.236
REMARK UNBOUND:                -1.088
REMARK SMILES COc1ccc([C@H]2C=C(c3cc(F)cc(F)c3)NN2c2ccc(S(N)(=O)=O)cc2)cc1OC
REMARK SMILES IDX 20 1 21 2 22 3 23 4 28 5 29 6 19 7 18 8 9 9 8 10 7 11 10 13
REMARK SMILES IDX 11 14 17 15 12 16 15 17 14 18 13 19 16 20 6 21 5 22 30 23
REMARK SMILES IDX 4 24 31 25 3 26 32 27 33 28 2 29 1 30 24 31 26 32 27 33
REMARK SMILES IDX 25 34
REMARK H PARENT 18 12 25 35 25 36
ROOT
ATOM      1  C   UNL     1      12.160 -48.088 -23.847  1.00  0.00     0.058 A 
ATOM      2  C   UNL     1      12.747 -47.202 -24.769  1.00  0.00     0.029 A 
ATOM      3  C   UNL     1      12.548 -45.818 -24.694  1.00  0.00     0.024 A 
ATOM      4  C   UNL     1      11.742 -45.299 -23.684  1.00  0.00     0.082 A 
ATOM      5  C   UNL     1      11.161 -46.144 -22.742  1.00  0.00     0.024 A 
ATOM      6  C   UNL     1      11.370 -47.524 -22.832  1.00  0.00     0.029 A 
ENDROOT
BRANCH   1   7
ATOM      7  N   UNL     1      12.372 -49.461 -23.957  1.00  0.00    -0.276 N 
ATOM      8  N   UNL     1      11.814 -50.429 -23.137  1.00  0.00    -0.297 N 
ATOM      9  C   UNL     1      12.163 -51.694 -23.600  1.00  0.00     0.060 C 
ATOM     10  C   UNL     1      13.002 -51.584 -24.643  1.00  0.00     0.033 C 
ATOM     11  C   UNL     1      13.247 -50.121 -24.968  1.00  0.00     0.161 C 
ATOM     12  H   UNL     1      10.806 -50.350 -22.991  1.00  0.00     0.188 HD
BRANCH   9  13
ATOM     13  C   UNL     1      11.632 -52.914 -22.987  1.00  0.00     0.005 A 
ATOM     14  C   UNL     1      11.536 -54.098 -23.735  1.00  0.00     0.049 A 
ATOM     15  C   UNL     1      11.225 -52.941 -21.647  1.00  0.00     0.049 A 
ATOM     16  C   UNL     1      11.040 -55.262 -23.151  1.00  0.00     0.126 A 
ATOM     17  C   UNL     1      10.734 -54.118 -21.084  1.00  0.00     0.126 A 
ATOM     18  C   UNL     1      10.636 -55.285 -21.826  1.00  0.00     0.078 A 
ATOM     19  F   UNL     1      10.954 -56.378 -23.885  1.00  0.00    -0.207 F 
ATOM     20  F   UNL     1      10.353 -54.121 -19.800  1.00  0.00    -0.207 F 
ENDBRANCH   9  13
BRANCH  11  21
ATOM     21  C   UNL     1      14.717 -49.757 -24.838  1.00  0.00    -0.016 A 
ATOM     22  C   UNL     1      15.439 -49.359 -25.971  1.00  0.00     0.010 A 
ATOM     23  C   UNL     1      15.392 -49.835 -23.606  1.00  0.00     0.056 A 
ATOM     24  C   UNL     1      16.793 -49.027 -25.875  1.00  0.00     0.051 A 
ATOM     25  C   UNL     1      16.747 -49.503 -23.499  1.00  0.00     0.161 A 
ATOM     26  C   UNL     1      17.455 -49.093 -24.645  1.00  0.00     0.160 A 
BRANCH  25  27
ATOM     27  O   UNL     1      17.465 -49.544 -22.327  1.00  0.00    -0.493 OA
ATOM     28  C   UNL     1      17.059 -48.679 -21.278  1.00  0.00     0.278 C 
ENDBRANCH  25  27
BRANCH  26  29
ATOM     29  O   UNL     1      18.778 -48.779 -24.458  1.00  0.00    -0.493 OA
ATOM     30  C   UNL     1      19.653 -48.918 -25.568  1.00  0.00     0.278 C 
ENDBRANCH  26  29
ENDBRANCH  11  21
ENDBRANCH   1   7
BRANCH   4  31
ATOM     31  S   UNL     1      11.480 -43.549 -23.590  1.00  0.00     0.238 S 
ATOM     32  O   UNL     1      11.536 -43.006 -24.926  1.00  0.00    -0.207 OA
ATOM     33  O   UNL     1      12.274 -43.024 -22.502  1.00  0.00    -0.207 OA
BRANCH  31  34
ATOM     34  N   UNL     1       9.883 -43.477 -23.063  1.00  0.00    -0.225 NA
ATOM     35  H   UNL     1       9.734 -43.936 -22.165  1.00  0.00     0.137 HD
ATOM     36  H   UNL     1       9.585 -42.501 -23.043  1.00  0.00     0.137 HD
ENDBRANCH  31  34
ENDBRANCH   4  31
TORSDOF 7
ENDMDL
MODEL 8
REMARK VINA RESULT:    -8.353      8.279     11.911
REMARK INTER + INTRA:         -12.615
REMARK INTER:                 -11.070
REMARK INTRA:                  -1.545
REMARK UNBOUND:                -1.088
REMARK SMILES COc1ccc([C@H]2C=C(c3cc(F)cc(F)c3)NN2c2ccc(S(N)(=O)=O)cc2)cc1OC
REMARK SMILES IDX 20 1 21 2 22 3 23 4 28 5 29 6 19 7 18 8 9 9 8 10 7 11 10 13
REMARK SMILES IDX 11 14 17 15 12 16 15 17 14 18 13 19 16 20 6 21 5 22 30 23
REMARK SMILES IDX 4 24 31 25 3 26 32 27 33 28 2 29 1 30 24 31 26 32 27 33
REMARK SMILES IDX 25 34
REMARK H PARENT 18 12 25 35 25 36
ROOT
ATOM      1  C   UNL     1      13.051 -48.948 -23.888  1.00  0.00     0.058 A 
ATOM      2  C   UNL     1      13.813 -48.571 -22.767  1.00  0.00     0.029 A 
ATOM      3  C   UNL     1      13.969 -47.230 -22.396  1.00  0.00     0.024 A 
ATOM      4  C   UNL     1      13.359 -46.236 -23.158  1.00  0.00     0.082 A 
ATOM      5  C   UNL     1      12.582 -46.574 -24.263  1.00  0.00     0.024 A 
ATOM      6  C   UNL     1      12.436 -47.919 -24.620  1.00  0.00     0.029 A 
ENDROOT
BRANCH   1   7
ATOM      7  N   UNL     1      12.925 -50.293 -24.233  1.00  0.00    -0.276 N 
ATOM      8  N   UNL     1      12.290 -51.262 -23.474  1.00  0.00    -0.297 N 
ATOM      9  C   UNL     1      12.268 -52.465 -24.172  1.00  0.00     0.060 C 
ATOM     10  C   UNL     1      12.945 -52.337 -25.325  1.00  0.00     0.033 C 
ATOM     11  C   UNL     1      13.466 -50.919 -25.473  1.00  0.00     0.161 C 
ATOM     12  H   UNL     1      11.360 -51.011 -23.133  1.00  0.00     0.188 HD
BRANCH   9  13
ATOM     13  C   UNL     1      11.570 -53.645 -23.655  1.00  0.00     0.005 A 
ATOM     14  C   UNL     1      11.962 -54.932 -24.057  1.00  0.00     0.049 A 
ATOM     15  C   UNL     1      10.514 -53.528 -22.743  1.00  0.00     0.049 A 
ATOM     16  C   UNL     1      11.305 -56.055 -23.559  1.00  0.00     0.126 A 
ATOM     17  C   UNL     1       9.873 -54.667 -22.257  1.00  0.00     0.126 A 
ATOM     18  C   UNL     1      10.259 -55.936 -22.659  1.00  0.00     0.078 A 
ATOM     19  F   UNL     1      11.694 -57.273 -23.960  1.00  0.00    -0.207 F 
ATOM     20  F   UNL     1       8.866 -54.531 -21.384  1.00  0.00    -0.207 F 
ENDBRANCH   9  13
BRANCH  11  21
ATOM     21  C   UNL     1      14.982 -50.886 -25.567  1.00  0.00    -0.016 A 
ATOM     22  C   UNL     1      15.747 -51.779 -24.804  1.00  0.00     0.010 A 
ATOM     23  C   UNL     1      15.654 -49.956 -26.382  1.00  0.00     0.056 A 
ATOM     24  C   UNL     1      17.143 -51.761 -24.869  1.00  0.00     0.051 A 
ATOM     25  C   UNL     1      17.050 -49.932 -26.456  1.00  0.00     0.161 A 
ATOM     26  C   UNL     1      17.803 -50.845 -25.693  1.00  0.00     0.160 A 
BRANCH  25  27
ATOM     27  O   UNL     1      17.769 -49.061 -27.240  1.00  0.00    -0.493 OA
ATOM     28  C   UNL     1      17.629 -49.177 -28.648  1.00  0.00     0.278 C 
ENDBRANCH  25  27
BRANCH  26  29
ATOM     29  O   UNL     1      19.167 -50.761 -25.823  1.00  0.00    -0.493 OA
ATOM     30  C   UNL     1      19.909 -50.277 -24.712  1.00  0.00     0.278 C 
ENDBRANCH  26  29
ENDBRANCH  11  21
ENDBRANCH   1   7
BRANCH   4  31
ATOM     31  S   UNL     1      13.560 -44.537 -22.698  1.00  0.00     0.238 S 
ATOM     32  O   UNL     1      14.304 -43.867 -23.737  1.00  0.00    -0.207 OA
ATOM     33  O   UNL     1      13.944 -44.481 -21.306  1.00  0.00    -0.207 OA
BRANCH  31  34
ATOM     34  N   UNL     1      11.970 -43.985 -22.753  1.00  0.00    -0.225 NA
ATOM     35  H   UNL     1      11.299 -44.715 -22.987  1.00  0.00     0.137 HD
ATOM     36  H   UNL     1      11.746 -43.534 -21.865  1.00  0.00     0.137 HD
ENDBRANCH  31  34
ENDBRANCH   4  31
TORSDOF 7
ENDMDL
MODEL 9
REMARK VINA RESULT:    -8.335      7.816     11.180
REMARK INTER + INTRA:         -12.590
REMARK INTER:                 -11.793
REMARK INTRA:                  -0.797
REMARK UNBOUND:                -1.088
REMARK SMILES COc1ccc([C@H]2C=C(c3cc(F)cc(F)c3)NN2c2ccc(S(N)(=O)=O)cc2)cc1OC
REMARK SMILES IDX 20 1 21 2 22 3 23 4 28 5 29 6 19 7 18 8 9 9 8 10 7 11 10 13
REMARK SMILES IDX 11 14 17 15 12 16 15 17 14 18 13 19 16 20 6 21 5 22 30 23
REMARK SMILES IDX 4 24 31 25 3 26 32 27 33 28 2 29 1 30 24 31 26 32 27 33
REMARK SMILES IDX 25 34
REMARK H PARENT 18 12 25 35 25 36
ROOT
ATOM      1  C   UNL     1      13.596 -51.545 -24.504  1.00  0.00     0.058 A 
ATOM      2  C   UNL     1      13.283 -51.066 -23.219  1.00  0.00     0.029 A 
ATOM      3  C   UNL     1      12.272 -51.642 -22.441  1.00  0.00     0.024 A 
ATOM      4  C   UNL     1      11.548 -52.717 -22.950  1.00  0.00     0.082 A 
ATOM      5  C   UNL     1      11.843 -53.231 -24.211  1.00  0.00     0.024 A 
ATOM      6  C   UNL     1      12.857 -52.643 -24.975  1.00  0.00     0.029 A 
ENDROOT
BRANCH   1   7
ATOM      7  N   UNL     1      14.603 -50.942 -25.256  1.00  0.00    -0.276 N 
ATOM      8  N   UNL     1      15.948 -51.273 -25.211  1.00  0.00    -0.297 N 
ATOM      9  C   UNL     1      16.644 -50.537 -26.164  1.00  0.00     0.060 C 
ATOM     10  C   UNL     1      15.814 -49.672 -26.771  1.00  0.00     0.033 C 
ATOM     11  C   UNL     1      14.405 -49.826 -26.224  1.00  0.00     0.161 C 
ATOM     12  H   UNL     1      16.154 -52.270 -25.285  1.00  0.00     0.188 HD
BRANCH   9  13
ATOM     13  C   UNL     1      18.071 -50.752 -26.416  1.00  0.00     0.005 A 
ATOM     14  C   UNL     1      18.705 -50.113 -27.492  1.00  0.00     0.049 A 
ATOM     15  C   UNL     1      18.842 -51.578 -25.587  1.00  0.00     0.049 A 
ATOM     16  C   UNL     1      20.065 -50.308 -27.726  1.00  0.00     0.126 A 
ATOM     17  C   UNL     1      20.201 -51.757 -25.840  1.00  0.00     0.126 A 
ATOM     18  C   UNL     1      20.824 -51.128 -26.907  1.00  0.00     0.078 A 
ATOM     19  F   UNL     1      20.647 -49.691 -28.762  1.00  0.00    -0.207 F 
ATOM     20  F   UNL     1      20.919 -52.551 -25.034  1.00  0.00    -0.207 F 
ENDBRANCH   9  13
BRANCH  11  21
ATOM     21  C   UNL     1      13.909 -48.539 -25.586  1.00  0.00    -0.016 A 
ATOM     22  C   UNL     1      14.667 -47.366 -25.702  1.00  0.00     0.010 A 
ATOM     23  C   UNL     1      12.711 -48.494 -24.848  1.00  0.00     0.056 A 
ATOM     24  C   UNL     1      14.232 -46.174 -25.116  1.00  0.00     0.051 A 
ATOM     25  C   UNL     1      12.266 -47.305 -24.260  1.00  0.00     0.161 A 
ATOM     26  C   UNL     1      13.034 -46.132 -24.397  1.00  0.00     0.160 A 
BRANCH  25  27
ATOM     27  O   UNL     1      11.103 -47.186 -23.538  1.00  0.00    -0.493 OA
ATOM     28  C   UNL     1      10.641 -48.335 -22.844  1.00  0.00     0.278 C 
ENDBRANCH  25  27
BRANCH  26  29
ATOM     29  O   UNL     1      12.528 -45.006 -23.796  1.00  0.00    -0.493 OA
ATOM     30  C   UNL     1      12.163 -43.918 -24.632  1.00  0.00     0.278 C 
ENDBRANCH  26  29
ENDBRANCH  11  21
ENDBRANCH   1   7
BRANCH   4  31
ATOM     31  S   UNL     1      10.262 -53.444 -21.973  1.00  0.00     0.238 S 
ATOM     32  O   UNL     1      10.667 -53.414 -20.588  1.00  0.00    -0.207 OA
ATOM     33  O   UNL     1       9.814 -54.652 -22.628  1.00  0.00    -0.207 OA
BRANCH  31  34
ATOM     34  N   UNL     1       9.016 -52.330 -22.177  1.00  0.00    -0.225 NA
ATOM     35  H   UNL     1       8.730 -52.219 -23.149  1.00  0.00     0.137 HD
ATOM     36  H   UNL     1       8.232 -52.598 -21.580  1.00  0.00     0.137 HD
ENDBRANCH  31  34
ENDBRANCH   4  31
TORSDOF 7
ENDMDL
