MODEL 1
REMARK VINA RESULT:    -9.180      0.000      0.000
REMARK INTER + INTRA:         -15.492
REMARK INTER:                 -14.547
REMARK INTRA:                  -0.945
REMARK UNBOUND:                -0.945
REMARK SMILES CCOCC[n+]1ccc(CCC(=O)[C@@H]2Cc3cc(OC)c(OC)cc3S2)cc1
REMARK SMILES IDX 6 1 7 2 8 3 9 4 27 5 28 6 5 7 4 8 3 9 2 10 1 11 10 12 11 13
REMARK SMILES IDX 12 14 13 15 14 16 15 17 26 18 16 19 25 20 17 21 24 22 18 23
REMARK SMILES IDX 21 24 19 25 20 26 22 27 23 28
REMARK H PARENT
ROOT
ATOM      1  N   UNL     1      10.197 -62.083 -22.528  1.00  0.00    -0.203 N 
ATOM      2  C   UNL     1      11.004 -61.781 -23.570  1.00  0.00     0.308 A 
ATOM      3  C   UNL     1      11.519 -60.498 -23.720  1.00  0.00     0.074 A 
ATOM      4  C   UNL     1      11.195 -59.510 -22.791  1.00  0.00    -0.036 A 
ATOM      5  C   UNL     1      10.366 -59.847 -21.721  1.00  0.00     0.074 A 
ATOM      6  C   UNL     1       9.872 -61.142 -21.611  1.00  0.00     0.308 A 
ENDROOT
BRANCH   1   7
ATOM      7  C   UNL     1       9.654 -63.455 -22.396  1.00  0.00     0.385 C 
BRANCH   7   8
ATOM      8  C   UNL     1       8.134 -63.428 -22.523  1.00  0.00     0.233 C 
BRANCH   8   9
ATOM      9  O   UNL     1       7.729 -63.783 -23.840  1.00  0.00    -0.375 OA
BRANCH   9  10
ATOM     10  C   UNL     1       7.362 -62.665 -24.649  1.00  0.00     0.157 C 
ATOM     11  C   UNL     1       8.199 -62.695 -25.913  1.00  0.00     0.035 C 
ENDBRANCH   9  10
ENDBRANCH   8   9
ENDBRANCH   7   8
ENDBRANCH   1   7
BRANCH   4  12
ATOM     12  C   UNL     1      11.738 -58.108 -22.932  1.00  0.00     0.044 C 
BRANCH  12  13
ATOM     13  C   UNL     1      10.930 -57.096 -22.127  1.00  0.00     0.081 C 
BRANCH  13  14
ATOM     14  C   UNL     1       9.905 -56.426 -23.025  1.00  0.00     0.146 C 
ATOM     15  O   UNL     1       8.915 -57.061 -23.392  1.00  0.00    -0.298 OA
BRANCH  14  16
ATOM     16  C   UNL     1      10.120 -54.965 -23.382  1.00  0.00     0.123 C 
ATOM     17  C   UNL     1      11.449 -54.703 -24.109  1.00  0.00     0.059 C 
ATOM     18  S   UNL     1      10.157 -53.929 -21.874  1.00  0.00    -0.114 SA
ATOM     19  C   UNL     1      11.852 -53.292 -23.783  1.00  0.00    -0.029 A 
ATOM     20  C   UNL     1      11.282 -52.784 -22.618  1.00  0.00     0.015 A 
ATOM     21  C   UNL     1      12.770 -52.536 -24.504  1.00  0.00     0.055 A 
ATOM     22  C   UNL     1      11.599 -51.518 -22.149  1.00  0.00     0.065 A 
ATOM     23  C   UNL     1      13.100 -51.251 -24.056  1.00  0.00     0.161 A 
ATOM     24  C   UNL     1      12.511 -50.739 -22.872  1.00  0.00     0.161 A 
BRANCH  23  25
ATOM     25  O   UNL     1      13.987 -50.415 -24.691  1.00  0.00    -0.493 OA
ATOM     26  C   UNL     1      13.895 -50.300 -26.104  1.00  0.00     0.278 C 
ENDBRANCH  23  25
BRANCH  24  27
ATOM     27  O   UNL     1      12.897 -49.470 -22.515  1.00  0.00    -0.493 OA
ATOM     28  C   UNL     1      11.938 -48.428 -22.627  1.00  0.00     0.278 C 
ENDBRANCH  24  27
ENDBRANCH  14  16
ENDBRANCH  13  14
ENDBRANCH  12  13
ENDBRANCH   4  12
TORSDOF 10
ENDMDL
MODEL 2
REMARK VINA RESULT:    -8.899      3.535      9.383
REMARK INTER + INTRA:         -15.047
REMARK INTER:                 -14.315
REMARK INTRA:                  -0.732
REMARK UNBOUND:                -0.945
REMARK SMILES CCOCC[n+]1ccc(CCC(=O)[C@@H]2Cc3cc(OC)c(OC)cc3S2)cc1
REMARK SMILES IDX 6 1 7 2 8 3 9 4 27 5 28 6 5 7 4 8 3 9 2 10 1 11 10 12 11 13
REMARK SMILES IDX 12 14 13 15 14 16 15 17 26 18 16 19 25 20 17 21 24 22 18 23
REMARK SMILES IDX 21 24 19 25 20 26 22 27 23 28
REMARK H PARENT
ROOT
ATOM      1  N   UNL     1      11.437 -52.749 -22.863  1.00  0.00    -0.203 N 
ATOM      2  C   UNL     1      11.674 -53.630 -23.862  1.00  0.00     0.308 A 
ATOM      3  C   UNL     1      11.324 -54.969 -23.724  1.00  0.00     0.074 A 
ATOM      4  C   UNL     1      10.729 -55.410 -22.542  1.00  0.00    -0.036 A 
ATOM      5  C   UNL     1      10.489 -54.481 -21.529  1.00  0.00     0.074 A 
ATOM      6  C   UNL     1      10.857 -53.153 -21.709  1.00  0.00     0.308 A 
ENDROOT
BRANCH   1   7
ATOM      7  C   UNL     1      11.828 -51.331 -23.031  1.00  0.00     0.385 C 
BRANCH   7   8
ATOM      8  C   UNL     1      13.348 -51.215 -23.110  1.00  0.00     0.233 C 
BRANCH   8   9
ATOM      9  O   UNL     1      13.736 -50.381 -24.195  1.00  0.00    -0.375 OA
BRANCH   9  10
ATOM     10  C   UNL     1      14.553 -51.039 -25.163  1.00  0.00     0.157 C 
ATOM     11  C   UNL     1      13.647 -51.689 -26.190  1.00  0.00     0.035 C 
ENDBRANCH   9  10
ENDBRANCH   8   9
ENDBRANCH   7   8
ENDBRANCH   1   7
BRANCH   4  12
ATOM     12  C   UNL     1      10.342 -56.859 -22.365  1.00  0.00     0.044 C 
BRANCH  12  13
ATOM     13  C   UNL     1      11.477 -57.688 -21.772  1.00  0.00     0.081 C 
BRANCH  13  14
ATOM     14  C   UNL     1      11.092 -59.156 -21.769  1.00  0.00     0.146 C 
ATOM     15  O   UNL     1      10.592 -59.649 -20.756  1.00  0.00    -0.298 OA
BRANCH  14  16
ATOM     16  C   UNL     1      11.287 -59.945 -23.052  1.00  0.00     0.123 C 
ATOM     17  C   UNL     1      11.815 -59.093 -24.218  1.00  0.00     0.059 C 
ATOM     18  S   UNL     1       9.700 -60.653 -23.623  1.00  0.00    -0.114 SA
ATOM     19  C   UNL     1      11.316 -59.732 -25.484  1.00  0.00    -0.029 A 
ATOM     20  C   UNL     1      10.190 -60.537 -25.319  1.00  0.00     0.015 A 
ATOM     21  C   UNL     1      11.845 -59.515 -26.752  1.00  0.00     0.055 A 
ATOM     22  C   UNL     1       9.574 -61.150 -26.399  1.00  0.00     0.065 A 
ATOM     23  C   UNL     1      11.245 -60.130 -27.858  1.00  0.00     0.161 A 
ATOM     24  C   UNL     1      10.104 -60.952 -27.681  1.00  0.00     0.161 A 
BRANCH  23  25
ATOM     25  O   UNL     1      11.687 -59.992 -29.151  1.00  0.00    -0.493 OA
ATOM     26  C   UNL     1      12.046 -58.691 -29.595  1.00  0.00     0.278 C 
ENDBRANCH  23  25
BRANCH  24  27
ATOM     27  O   UNL     1       9.589 -61.511 -28.824  1.00  0.00    -0.493 OA
ATOM     28  C   UNL     1       8.700 -62.610 -28.684  1.00  0.00     0.278 C 
ENDBRANCH  24  27
ENDBRANCH  14  16
ENDBRANCH  13  14
ENDBRANCH  12  13
ENDBRANCH   4  12
TORSDOF 10
ENDMDL
MODEL 3
REMARK VINA RESULT:    -8.850      1.773      2.614
REMARK INTER + INTRA:         -14.968
REMARK INTER:                 -14.256
REMARK INTRA:                  -0.712
REMARK UNBOUND:                -0.945
REMARK SMILES CCOCC[n+]1ccc(CCC(=O)[C@@H]2Cc3cc(OC)c(OC)cc3S2)cc1
REMARK SMILES IDX 6 1 7 2 8 3 9 4 27 5 28 6 5 7 4 8 3 9 2 10 1 11 10 12 11 13
REMARK SMILES IDX 12 14 13 15 14 16 15 17 26 18 16 19 25 20 17 21 24 22 18 23
REMARK SMILES IDX 21 24 19 25 20 26 22 27 23 28
REMARK H PARENT
ROOT
ATOM      1  N   UNL     1      11.263 -60.170 -23.319  1.00  0.00    -0.203 N 
ATOM      2  C   UNL     1      10.939 -60.012 -22.015  1.00  0.00     0.308 A 
ATOM      3  C   UNL     1      10.943 -58.749 -21.432  1.00  0.00     0.074 A 
ATOM      4  C   UNL     1      11.292 -57.635 -22.196  1.00  0.00    -0.036 A 
ATOM      5  C   UNL     1      11.616 -57.824 -23.539  1.00  0.00     0.074 A 
ATOM      6  C   UNL     1      11.601 -59.104 -24.081  1.00  0.00     0.308 A 
ENDROOT
BRANCH   1   7
ATOM      7  C   UNL     1      11.259 -61.527 -23.913  1.00  0.00     0.385 C 
BRANCH   7   8
ATOM      8  C   UNL     1      10.110 -61.655 -24.910  1.00  0.00     0.233 C 
BRANCH   8   9
ATOM      9  O   UNL     1       9.288 -62.772 -24.594  1.00  0.00    -0.375 OA
BRANCH   9  10
ATOM     10  C   UNL     1       8.477 -62.579 -23.435  1.00  0.00     0.157 C 
ATOM     11  C   UNL     1       7.770 -63.883 -23.123  1.00  0.00     0.035 C 
ENDBRANCH   9  10
ENDBRANCH   8   9
ENDBRANCH   7   8
ENDBRANCH   1   7
BRANCH   4  12
ATOM     12  C   UNL     1      11.309 -56.254 -21.586  1.00  0.00     0.044 C 
BRANCH  12  13
ATOM     13  C   UNL     1      10.323 -55.313 -22.270  1.00  0.00     0.081 C 
BRANCH  13  14
ATOM     14  C   UNL     1      10.477 -53.912 -21.707  1.00  0.00     0.146 C 
ATOM     15  O   UNL     1      10.515 -53.750 -20.486  1.00  0.00    -0.298 OA
BRANCH  14  16
ATOM     16  C   UNL     1      10.641 -52.764 -22.690  1.00  0.00     0.123 C 
ATOM     17  C   UNL     1      11.868 -52.915 -23.603  1.00  0.00     0.059 C 
ATOM     18  S   UNL     1      10.863 -51.180 -21.802  1.00  0.00    -0.114 SA
ATOM     19  C   UNL     1      12.304 -51.525 -23.976  1.00  0.00    -0.029 A 
ATOM     20  C   UNL     1      11.883 -50.532 -23.094  1.00  0.00     0.015 A 
ATOM     21  C   UNL     1      13.122 -51.206 -25.055  1.00  0.00     0.055 A 
ATOM     22  C   UNL     1      12.253 -49.207 -23.267  1.00  0.00     0.065 A 
ATOM     23  C   UNL     1      13.502 -49.873 -25.255  1.00  0.00     0.161 A 
ATOM     24  C   UNL     1      13.065 -48.868 -24.357  1.00  0.00     0.161 A 
BRANCH  23  25
ATOM     25  O   UNL     1      14.300 -49.445 -26.288  1.00  0.00    -0.493 OA
ATOM     26  C   UNL     1      15.634 -49.930 -26.343  1.00  0.00     0.278 C 
ENDBRANCH  23  25
BRANCH  24  27
ATOM     27  O   UNL     1      13.489 -47.592 -24.637  1.00  0.00    -0.493 OA
ATOM     28  C   UNL     1      12.499 -46.599 -24.867  1.00  0.00     0.278 C 
ENDBRANCH  24  27
ENDBRANCH  14  16
ENDBRANCH  13  14
ENDBRANCH  12  13
ENDBRANCH   4  12
TORSDOF 10
ENDMDL
MODEL 4
REMARK VINA RESULT:    -8.841      2.245      3.905
REMARK INTER + INTRA:         -14.955
REMARK INTER:                 -14.236
REMARK INTRA:                  -0.719
REMARK UNBOUND:                -0.945
REMARK SMILES CCOCC[n+]1ccc(CCC(=O)[C@@H]2Cc3cc(OC)c(OC)cc3S2)cc1
REMARK SMILES IDX 6 1 7 2 8 3 9 4 27 5 28 6 5 7 4 8 3 9 2 10 1 11 10 12 11 13
REMARK SMILES IDX 12 14 13 15 14 16 15 17 26 18 16 19 25 20 17 21 24 22 18 23
REMARK SMILES IDX 21 24 19 25 20 26 22 27 23 28
REMARK H PARENT
ROOT
ATOM      1  N   UNL     1      10.349 -59.162 -22.443  1.00  0.00    -0.203 N 
ATOM      2  C   UNL     1      11.333 -58.316 -22.063  1.00  0.00     0.308 A 
ATOM      3  C   UNL     1      11.213 -56.947 -22.279  1.00  0.00     0.074 A 
ATOM      4  C   UNL     1      10.070 -56.442 -22.900  1.00  0.00    -0.036 A 
ATOM      5  C   UNL     1       9.067 -57.335 -23.276  1.00  0.00     0.074 A 
ATOM      6  C   UNL     1       9.229 -58.696 -23.042  1.00  0.00     0.308 A 
ENDROOT
BRANCH   1   7
ATOM      7  C   UNL     1      10.505 -60.617 -22.209  1.00  0.00     0.385 C 
BRANCH   7   8
ATOM      8  C   UNL     1      11.129 -61.277 -23.435  1.00  0.00     0.233 C 
BRANCH   8   9
ATOM      9  O   UNL     1      10.861 -62.675 -23.448  1.00  0.00    -0.375 OA
BRANCH   9  10
ATOM     10  C   UNL     1       9.882 -63.081 -22.492  1.00  0.00     0.157 C 
ATOM     11  C   UNL     1       8.645 -63.539 -23.240  1.00  0.00     0.035 C 
ENDBRANCH   9  10
ENDBRANCH   8   9
ENDBRANCH   7   8
ENDBRANCH   1   7
BRANCH   4  12
ATOM     12  C   UNL     1       9.916 -54.962 -23.150  1.00  0.00     0.044 C 
BRANCH  12  13
ATOM     13  C   UNL     1      11.175 -54.183 -22.781  1.00  0.00     0.081 C 
BRANCH  13  14
ATOM     14  C   UNL     1      10.876 -53.238 -21.632  1.00  0.00     0.146 C 
ATOM     15  O   UNL     1      10.268 -53.657 -20.646  1.00  0.00    -0.298 OA
BRANCH  14  16
ATOM     16  C   UNL     1      11.401 -51.815 -21.727  1.00  0.00     0.123 C 
ATOM     17  C   UNL     1      10.295 -50.770 -21.941  1.00  0.00     0.059 C 
ATOM     18  S   UNL     1      12.543 -51.640 -23.145  1.00  0.00    -0.114 SA
ATOM     19  C   UNL     1      10.921 -49.621 -22.683  1.00  0.00    -0.029 A 
ATOM     20  C   UNL     1      12.076 -49.951 -23.388  1.00  0.00     0.015 A 
ATOM     21  C   UNL     1      10.394 -48.336 -22.757  1.00  0.00     0.055 A 
ATOM     22  C   UNL     1      12.738 -49.017 -24.171  1.00  0.00     0.065 A 
ATOM     23  C   UNL     1      11.050 -47.372 -23.534  1.00  0.00     0.161 A 
ATOM     24  C   UNL     1      12.228 -47.714 -24.244  1.00  0.00     0.161 A 
BRANCH  23  25
ATOM     25  O   UNL     1      10.624 -46.073 -23.673  1.00  0.00    -0.493 OA
ATOM     26  C   UNL     1      10.564 -45.265 -22.507  1.00  0.00     0.278 C 
ENDBRANCH  23  25
BRANCH  24  27
ATOM     27  O   UNL     1      12.798 -46.702 -24.976  1.00  0.00    -0.493 OA
ATOM     28  C   UNL     1      14.186 -46.456 -24.801  1.00  0.00     0.278 C 
ENDBRANCH  24  27
ENDBRANCH  14  16
ENDBRANCH  13  14
ENDBRANCH  12  13
ENDBRANCH   4  12
TORSDOF 10
ENDMDL
MODEL 5
REMARK VINA RESULT:    -8.268      1.952      3.285
REMARK INTER + INTRA:         -14.046
REMARK INTER:                 -13.377
REMARK INTRA:                  -0.670
REMARK UNBOUND:                -0.945
REMARK SMILES CCOCC[n+]1ccc(CCC(=O)[C@@H]2Cc3cc(OC)c(OC)cc3S2)cc1
REMARK SMILES IDX 6 1 7 2 8 3 9 4 27 5 28 6 5 7 4 8 3 9 2 10 1 11 10 12 11 13
REMARK SMILES IDX 12 14 13 15 14 16 15 17 26 18 16 19 25 20 17 21 24 22 18 23
REMARK SMILES IDX 21 24 19 25 20 26 22 27 23 28
REMARK H PARENT
ROOT
ATOM      1  N   UNL     1      10.197 -59.838 -22.336  1.00  0.00    -0.203 N 
ATOM      2  C   UNL     1       9.566 -58.973 -23.163  1.00  0.00     0.308 A 
ATOM      3  C   UNL     1       9.831 -57.609 -23.098  1.00  0.00     0.074 A 
ATOM      4  C   UNL     1      10.752 -57.127 -22.168  1.00  0.00    -0.036 A 
ATOM      5  C   UNL     1      11.394 -58.040 -21.331  1.00  0.00     0.074 A 
ATOM      6  C   UNL     1      11.096 -59.394 -21.429  1.00  0.00     0.308 A 
ENDROOT
BRANCH   1   7
ATOM      7  C   UNL     1       9.889 -61.284 -22.420  1.00  0.00     0.385 C 
BRANCH   7   8
ATOM      8  C   UNL     1      10.642 -61.910 -23.590  1.00  0.00     0.233 C 
BRANCH   8   9
ATOM      9  O   UNL     1       9.739 -62.330 -24.606  1.00  0.00    -0.375 OA
BRANCH   9  10
ATOM     10  C   UNL     1       9.817 -61.552 -25.801  1.00  0.00     0.157 C 
ATOM     11  C   UNL     1       8.992 -62.237 -26.872  1.00  0.00     0.035 C 
ENDBRANCH   9  10
ENDBRANCH   8   9
ENDBRANCH   7   8
ENDBRANCH   1   7
BRANCH   4  12
ATOM     12  C   UNL     1      11.055 -55.651 -22.074  1.00  0.00     0.044 C 
BRANCH  12  13
ATOM     13  C   UNL     1      10.165 -54.822 -22.994  1.00  0.00     0.081 C 
BRANCH  13  14
ATOM     14  C   UNL     1      10.273 -53.353 -22.627  1.00  0.00     0.146 C 
ATOM     15  O   UNL     1       9.325 -52.797 -22.069  1.00  0.00    -0.298 OA
BRANCH  14  16
ATOM     16  C   UNL     1      11.586 -52.644 -22.911  1.00  0.00     0.123 C 
ATOM     17  C   UNL     1      11.463 -51.112 -22.918  1.00  0.00     0.059 C 
ATOM     18  S   UNL     1      12.226 -53.106 -24.562  1.00  0.00    -0.114 SA
ATOM     19  C   UNL     1      12.531 -50.594 -23.840  1.00  0.00    -0.029 A 
ATOM     20  C   UNL     1      12.984 -51.522 -24.776  1.00  0.00     0.015 A 
ATOM     21  C   UNL     1      13.009 -49.288 -23.856  1.00  0.00     0.055 A 
ATOM     22  C   UNL     1      13.925 -51.180 -25.735  1.00  0.00     0.065 A 
ATOM     23  C   UNL     1      13.966 -48.922 -24.811  1.00  0.00     0.161 A 
ATOM     24  C   UNL     1      14.427 -49.873 -25.755  1.00  0.00     0.161 A 
BRANCH  23  25
ATOM     25  O   UNL     1      14.512 -47.665 -24.914  1.00  0.00    -0.493 OA
ATOM     26  C   UNL     1      13.654 -46.596 -25.286  1.00  0.00     0.278 C 
ENDBRANCH  23  25
BRANCH  24  27
ATOM     27  O   UNL     1      15.366 -49.419 -26.649  1.00  0.00    -0.493 OA
ATOM     28  C   UNL     1      14.999 -49.353 -28.020  1.00  0.00     0.278 C 
ENDBRANCH  24  27
ENDBRANCH  14  16
ENDBRANCH  13  14
ENDBRANCH  12  13
ENDBRANCH   4  12
TORSDOF 10
ENDMDL
MODEL 6
REMARK VINA RESULT:    -8.148      2.949     10.501
REMARK INTER + INTRA:         -13.856
REMARK INTER:                 -13.179
REMARK INTRA:                  -0.677
REMARK UNBOUND:                -0.945
REMARK SMILES CCOCC[n+]1ccc(CCC(=O)[C@@H]2Cc3cc(OC)c(OC)cc3S2)cc1
REMARK SMILES IDX 6 1 7 2 8 3 9 4 27 5 28 6 5 7 4 8 3 9 2 10 1 11 10 12 11 13
REMARK SMILES IDX 12 14 13 15 14 16 15 17 26 18 16 19 25 20 17 21 24 22 18 23
REMARK SMILES IDX 21 24 19 25 20 26 22 27 23 28
REMARK H PARENT
ROOT
ATOM      1  N   UNL     1      11.510 -52.045 -22.882  1.00  0.00    -0.203 N 
ATOM      2  C   UNL     1      10.885 -52.412 -21.741  1.00  0.00     0.308 A 
ATOM      3  C   UNL     1      10.517 -53.736 -21.528  1.00  0.00     0.074 A 
ATOM      4  C   UNL     1      10.789 -54.695 -22.505  1.00  0.00    -0.036 A 
ATOM      5  C   UNL     1      11.440 -54.292 -23.671  1.00  0.00     0.074 A 
ATOM      6  C   UNL     1      11.788 -52.957 -23.842  1.00  0.00     0.308 A 
ENDROOT
BRANCH   1   7
ATOM      7  C   UNL     1      11.883 -50.626 -23.087  1.00  0.00     0.385 C 
BRANCH   7   8
ATOM      8  C   UNL     1      13.014 -50.527 -24.108  1.00  0.00     0.233 C 
BRANCH   8   9
ATOM      9  O   UNL     1      12.913 -49.323 -24.859  1.00  0.00    -0.375 OA
BRANCH   9  10
ATOM     10  C   UNL     1      13.062 -48.140 -24.073  1.00  0.00     0.157 C 
ATOM     11  C   UNL     1      11.873 -47.238 -24.338  1.00  0.00     0.035 C 
ENDBRANCH   9  10
ENDBRANCH   8   9
ENDBRANCH   7   8
ENDBRANCH   1   7
BRANCH   4  12
ATOM     12  C   UNL     1      10.397 -56.138 -22.301  1.00  0.00     0.044 C 
BRANCH  12  13
ATOM     13  C   UNL     1      11.444 -57.101 -22.851  1.00  0.00     0.081 C 
BRANCH  13  14
ATOM     14  C   UNL     1      11.367 -58.422 -22.107  1.00  0.00     0.146 C 
ATOM     15  O   UNL     1      11.441 -58.430 -20.877  1.00  0.00    -0.298 OA
BRANCH  14  16
ATOM     16  C   UNL     1      11.138 -59.684 -22.921  1.00  0.00     0.123 C 
ATOM     17  C   UNL     1      11.004 -59.421 -24.430  1.00  0.00     0.059 C 
ATOM     18  S   UNL     1       9.586 -60.508 -22.413  1.00  0.00    -0.114 SA
ATOM     19  C   UNL     1      10.135 -60.515 -24.986  1.00  0.00    -0.029 A 
ATOM     20  C   UNL     1       9.314 -61.133 -24.046  1.00  0.00     0.015 A 
ATOM     21  C   UNL     1      10.059 -60.870 -26.329  1.00  0.00     0.055 A 
ATOM     22  C   UNL     1       8.411 -62.120 -24.411  1.00  0.00     0.065 A 
ATOM     23  C   UNL     1       9.160 -61.871 -26.721  1.00  0.00     0.161 A 
ATOM     24  C   UNL     1       8.333 -62.499 -25.757  1.00  0.00     0.161 A 
BRANCH  23  25
ATOM     25  O   UNL     1       9.006 -62.305 -28.015  1.00  0.00    -0.493 OA
ATOM     26  C   UNL     1       9.686 -61.594 -29.040  1.00  0.00     0.278 C 
ENDBRANCH  23  25
BRANCH  24  27
ATOM     27  O   UNL     1       7.487 -63.468 -26.239  1.00  0.00    -0.493 OA
ATOM     28  C   UNL     1       6.582 -64.072 -25.326  1.00  0.00     0.278 C 
ENDBRANCH  24  27
ENDBRANCH  14  16
ENDBRANCH  13  14
ENDBRANCH  12  13
ENDBRANCH   4  12
TORSDOF 10
ENDMDL
MODEL 7
REMARK VINA RESULT:    -8.054      2.160      3.052
REMARK INTER + INTRA:         -13.708
REMARK INTER:                 -12.902
REMARK INTRA:                  -0.806
REMARK UNBOUND:                -0.945
REMARK SMILES CCOCC[n+]1ccc(CCC(=O)[C@@H]2Cc3cc(OC)c(OC)cc3S2)cc1
REMARK SMILES IDX 6 1 7 2 8 3 9 4 27 5 28 6 5 7 4 8 3 9 2 10 1 11 10 12 11 13
REMARK SMILES IDX 12 14 13 15 14 16 15 17 26 18 16 19 25 20 17 21 24 22 18 23
REMARK SMILES IDX 21 24 19 25 20 26 22 27 23 28
REMARK H PARENT
ROOT
ATOM      1  N   UNL     1       9.678 -59.863 -23.292  1.00  0.00    -0.203 N 
ATOM      2  C   UNL     1       8.968 -58.731 -23.504  1.00  0.00     0.308 A 
ATOM      3  C   UNL     1       9.432 -57.506 -23.036  1.00  0.00     0.074 A 
ATOM      4  C   UNL     1      10.637 -57.444 -22.337  1.00  0.00    -0.036 A 
ATOM      5  C   UNL     1      11.353 -58.624 -22.137  1.00  0.00     0.074 A 
ATOM      6  C   UNL     1      10.851 -59.827 -22.620  1.00  0.00     0.308 A 
ENDROOT
BRANCH   1   7
ATOM      7  C   UNL     1       9.157 -61.156 -23.793  1.00  0.00     0.385 C 
BRANCH   7   8
ATOM      8  C   UNL     1      10.150 -61.774 -24.773  1.00  0.00     0.233 C 
BRANCH   8   9
ATOM      9  O   UNL     1       9.654 -61.707 -26.105  1.00  0.00    -0.375 OA
BRANCH   9  10
ATOM     10  C   UNL     1       9.963 -60.484 -26.774  1.00  0.00     0.157 C 
ATOM     11  C   UNL     1      11.395 -60.110 -26.446  1.00  0.00     0.035 C 
ENDBRANCH   9  10
ENDBRANCH   8   9
ENDBRANCH   7   8
ENDBRANCH   1   7
BRANCH   4  12
ATOM     12  C   UNL     1      11.162 -56.128 -21.815  1.00  0.00     0.044 C 
BRANCH  12  13
ATOM     13  C   UNL     1      11.000 -55.002 -22.832  1.00  0.00     0.081 C 
BRANCH  13  14
ATOM     14  C   UNL     1      10.769 -53.687 -22.110  1.00  0.00     0.146 C 
ATOM     15  O   UNL     1      10.560 -53.692 -20.895  1.00  0.00    -0.298 OA
BRANCH  14  16
ATOM     16  C   UNL     1      10.868 -52.405 -22.918  1.00  0.00     0.123 C 
ATOM     17  C   UNL     1      12.310 -52.034 -23.299  1.00  0.00     0.059 C 
ATOM     18  S   UNL     1      10.219 -50.987 -21.962  1.00  0.00    -0.114 SA
ATOM     19  C   UNL     1      12.353 -50.537 -23.433  1.00  0.00    -0.029 A 
ATOM     20  C   UNL     1      11.343 -49.868 -22.746  1.00  0.00     0.015 A 
ATOM     21  C   UNL     1      13.338 -49.823 -24.107  1.00  0.00     0.055 A 
ATOM     22  C   UNL     1      11.279 -48.483 -22.722  1.00  0.00     0.065 A 
ATOM     23  C   UNL     1      13.290 -48.423 -24.104  1.00  0.00     0.161 A 
ATOM     24  C   UNL     1      12.255 -47.749 -23.408  1.00  0.00     0.161 A 
BRANCH  23  25
ATOM     25  O   UNL     1      14.204 -47.618 -24.741  1.00  0.00    -0.493 OA
ATOM     26  C   UNL     1      14.280 -47.691 -26.157  1.00  0.00     0.278 C 
ENDBRANCH  23  25
BRANCH  24  27
ATOM     27  O   UNL     1      12.294 -46.378 -23.464  1.00  0.00    -0.493 OA
ATOM     28  C   UNL     1      11.128 -45.699 -23.908  1.00  0.00     0.278 C 
ENDBRANCH  24  27
ENDBRANCH  14  16
ENDBRANCH  13  14
ENDBRANCH  12  13
ENDBRANCH   4  12
TORSDOF 10
ENDMDL
MODEL 8
REMARK VINA RESULT:    -7.625      3.013     10.970
REMARK INTER + INTRA:         -13.027
REMARK INTER:                 -12.712
REMARK INTRA:                  -0.315
REMARK UNBOUND:                -0.945
REMARK SMILES CCOCC[n+]1ccc(CCC(=O)[C@@H]2Cc3cc(OC)c(OC)cc3S2)cc1
REMARK SMILES IDX 6 1 7 2 8 3 9 4 27 5 28 6 5 7 4 8 3 9 2 10 1 11 10 12 11 13
REMARK SMILES IDX 12 14 13 15 14 16 15 17 26 18 16 19 25 20 17 21 24 22 18 23
REMARK SMILES IDX 21 24 19 25 20 26 22 27 23 28
REMARK H PARENT
ROOT
ATOM      1  N   UNL     1      13.129 -50.197 -23.598  1.00  0.00    -0.203 N 
ATOM      2  C   UNL     1      12.367 -49.975 -22.502  1.00  0.00     0.308 A 
ATOM      3  C   UNL     1      11.497 -50.954 -22.034  1.00  0.00     0.074 A 
ATOM      4  C   UNL     1      11.404 -52.174 -22.705  1.00  0.00    -0.036 A 
ATOM      5  C   UNL     1      12.205 -52.381 -23.828  1.00  0.00     0.074 A 
ATOM      6  C   UNL     1      13.059 -51.373 -24.262  1.00  0.00     0.308 A 
ENDROOT
BRANCH   1   7
ATOM      7  C   UNL     1      14.041 -49.134 -24.080  1.00  0.00     0.385 C 
BRANCH   7   8
ATOM      8  C   UNL     1      13.234 -48.002 -24.711  1.00  0.00     0.233 C 
BRANCH   8   9
ATOM      9  O   UNL     1      13.358 -46.807 -23.950  1.00  0.00    -0.375 OA
BRANCH   9  10
ATOM     10  C   UNL     1      12.126 -46.350 -23.391  1.00  0.00     0.157 C 
ATOM     11  C   UNL     1      10.990 -46.868 -24.251  1.00  0.00     0.035 C 
ENDBRANCH   9  10
ENDBRANCH   8   9
ENDBRANCH   7   8
ENDBRANCH   1   7
BRANCH   4  12
ATOM     12  C   UNL     1      10.464 -53.252 -22.220  1.00  0.00     0.044 C 
BRANCH  12  13
ATOM     13  C   UNL     1      10.463 -54.469 -23.140  1.00  0.00     0.081 C 
BRANCH  13  14
ATOM     14  C   UNL     1      10.839 -55.710 -22.350  1.00  0.00     0.146 C 
ATOM     15  O   UNL     1      11.082 -55.611 -21.146  1.00  0.00    -0.298 OA
BRANCH  14  16
ATOM     16  C   UNL     1      10.838 -57.043 -23.078  1.00  0.00     0.123 C 
ATOM     17  C   UNL     1       9.434 -57.506 -23.501  1.00  0.00     0.059 C 
ATOM     18  S   UNL     1      11.503 -58.366 -22.004  1.00  0.00    -0.114 SA
ATOM     19  C   UNL     1       9.466 -59.009 -23.539  1.00  0.00    -0.029 A 
ATOM     20  C   UNL     1      10.471 -59.585 -22.765  1.00  0.00     0.015 A 
ATOM     21  C   UNL     1       8.549 -59.811 -24.211  1.00  0.00     0.055 A 
ATOM     22  C   UNL     1      10.596 -60.961 -22.649  1.00  0.00     0.065 A 
ATOM     23  C   UNL     1       8.660 -61.204 -24.115  1.00  0.00     0.161 A 
ATOM     24  C   UNL     1       9.689 -61.782 -23.331  1.00  0.00     0.161 A 
BRANCH  23  25
ATOM     25  O   UNL     1       7.816 -62.090 -24.740  1.00  0.00    -0.493 OA
ATOM     26  C   UNL     1       8.213 -62.609 -26.001  1.00  0.00     0.278 C 
ENDBRANCH  23  25
BRANCH  24  27
ATOM     27  O   UNL     1       9.716 -63.155 -23.300  1.00  0.00    -0.493 OA
ATOM     28  C   UNL     1       8.783 -63.818 -22.459  1.00  0.00     0.278 C 
ENDBRANCH  24  27
ENDBRANCH  14  16
ENDBRANCH  13  14
ENDBRANCH  12  13
ENDBRANCH   4  12
TORSDOF 10
ENDMDL
MODEL 9
REMARK VINA RESULT:    -7.431      2.651      5.703
REMARK INTER + INTRA:         -12.720
REMARK INTER:                 -11.877
REMARK INTRA:                  -0.843
REMARK UNBOUND:                -0.945
REMARK SMILES CCOCC[n+]1ccc(CCC(=O)[C@@H]2Cc3cc(OC)c(OC)cc3S2)cc1
REMARK SMILES IDX 6 1 7 2 8 3 9 4 27 5 28 6 5 7 4 8 3 9 2 10 1 11 10 12 11 13
REMARK SMILES IDX 12 14 13 15 14 16 15 17 26 18 16 19 25 20 17 21 24 22 18 23
REMARK SMILES IDX 21 24 19 25 20 26 22 27 23 28
REMARK H PARENT
ROOT
ATOM      1  N   UNL     1      11.353 -56.058 -23.183  1.00  0.00    -0.203 N 
ATOM      2  C   UNL     1      11.584 -55.050 -24.055  1.00  0.00     0.308 A 
ATOM      3  C   UNL     1      11.221 -53.745 -23.741  1.00  0.00     0.074 A 
ATOM      4  C   UNL     1      10.606 -53.472 -22.519  1.00  0.00    -0.036 A 
ATOM      5  C   UNL     1      10.384 -54.528 -21.635  1.00  0.00     0.074 A 
ATOM      6  C   UNL     1      10.762 -55.818 -21.990  1.00  0.00     0.308 A 
ENDROOT
BRANCH   1   7
ATOM      7  C   UNL     1      11.741 -57.441 -23.545  1.00  0.00     0.385 C 
BRANCH   7   8
ATOM      8  C   UNL     1      11.206 -58.422 -22.505  1.00  0.00     0.233 C 
BRANCH   8   9
ATOM      9  O   UNL     1      10.488 -59.479 -23.130  1.00  0.00    -0.375 OA
BRANCH   9  10
ATOM     10  C   UNL     1      10.656 -60.745 -22.491  1.00  0.00     0.157 C 
ATOM     11  C   UNL     1      11.030 -61.767 -23.546  1.00  0.00     0.035 C 
ENDBRANCH   9  10
ENDBRANCH   8   9
ENDBRANCH   7   8
ENDBRANCH   1   7
BRANCH   4  12
ATOM     12  C   UNL     1      10.198 -52.065 -22.156  1.00  0.00     0.044 C 
BRANCH  12  13
ATOM     13  C   UNL     1      11.376 -51.238 -21.653  1.00  0.00     0.081 C 
BRANCH  13  14
ATOM     14  C   UNL     1      11.502 -49.969 -22.477  1.00  0.00     0.146 C 
ATOM     15  O   UNL     1      10.532 -49.218 -22.584  1.00  0.00    -0.298 OA
BRANCH  14  16
ATOM     16  C   UNL     1      12.856 -49.651 -23.089  1.00  0.00     0.123 C 
ATOM     17  C   UNL     1      12.775 -49.238 -24.568  1.00  0.00     0.059 C 
ATOM     18  S   UNL     1      13.951 -51.115 -23.034  1.00  0.00    -0.114 SA
ATOM     19  C   UNL     1      14.082 -49.628 -25.200  1.00  0.00    -0.029 A 
ATOM     20  C   UNL     1      14.774 -50.629 -24.522  1.00  0.00     0.015 A 
ATOM     21  C   UNL     1      14.573 -49.121 -26.399  1.00  0.00     0.055 A 
ATOM     22  C   UNL     1      15.968 -51.140 -25.010  1.00  0.00     0.065 A 
ATOM     23  C   UNL     1      15.781 -49.616 -26.907  1.00  0.00     0.161 A 
ATOM     24  C   UNL     1      16.482 -50.631 -26.209  1.00  0.00     0.161 A 
BRANCH  23  25
ATOM     25  O   UNL     1      16.360 -49.185 -28.076  1.00  0.00    -0.493 OA
ATOM     26  C   UNL     1      15.503 -48.791 -29.137  1.00  0.00     0.278 C 
ENDBRANCH  23  25
BRANCH  24  27
ATOM     27  O   UNL     1      17.656 -51.050 -26.786  1.00  0.00    -0.493 OA
ATOM     28  C   UNL     1      18.315 -52.169 -26.211  1.00  0.00     0.278 C 
ENDBRANCH  24  27
ENDBRANCH  14  16
ENDBRANCH  13  14
ENDBRANCH  12  13
ENDBRANCH   4  12
TORSDOF 10
ENDMDL
