MODEL 1
REMARK VINA RESULT:   -12.096      0.000      0.000
REMARK INTER + INTRA:         -16.943
REMARK INTER:                 -16.338
REMARK INTRA:                  -0.605
REMARK UNBOUND:                -0.605
REMARK SMILES O=C1C(=NCCNc2c3c(nc4cc(Cl)ccc24)CCCC3)C=C(O)c2c(O)cccc21
REMARK SMILES IDX 5 1 4 2 3 3 24 4 23 5 26 6 27 7 32 8 2 9 29 10 31 11 30 12
REMARK SMILES IDX 1 13 25 14 28 16 6 18 7 19 8 21 9 22 18 23 10 24 22 25 17 26
REMARK SMILES IDX 12 27 11 28 19 29 21 30 16 31 13 32 20 33 14 34 15 35
REMARK H PARENT 25 15 28 17 7 20
ROOT
ATOM      1  C   UNL     1      11.639 -57.918 -22.461  1.00  0.00     0.164 C 
ENDROOT
BRANCH   1   2
ATOM      2  N   UNL     1      10.828 -56.777 -22.011  1.00  0.00    -0.279 NA
BRANCH   2   3
ATOM      3  C   UNL     1      10.954 -55.632 -22.599  1.00  0.00     0.109 C 
ATOM      4  C   UNL     1      11.829 -54.492 -24.586  1.00  0.00     0.129 C 
ATOM      5  C   UNL     1      11.419 -55.622 -24.004  1.00  0.00     0.079 C 
ATOM      6  C   UNL     1      11.904 -53.210 -23.864  1.00  0.00     0.069 A 
ATOM      7  C   UNL     1      12.560 -52.080 -24.380  1.00  0.00     0.127 A 
ATOM      8  C   UNL     1      11.284 -53.080 -22.614  1.00  0.00     0.039 A 
ATOM      9  C   UNL     1      10.657 -54.263 -21.986  1.00  0.00     0.211 C 
ATOM     10  C   UNL     1      12.528 -50.850 -23.724  1.00  0.00     0.047 A 
ATOM     11  C   UNL     1      11.253 -51.850 -21.941  1.00  0.00     0.013 A 
ATOM     12  C   UNL     1      11.867 -50.733 -22.504  1.00  0.00     0.005 A 
ATOM     13  O   UNL     1       9.924 -54.138 -21.017  1.00  0.00    -0.287 OA
BRANCH   4  14
ATOM     14  O   UNL     1      12.180 -54.502 -25.922  1.00  0.00    -0.507 OA
ATOM     15  H   UNL     1      11.574 -55.114 -26.388  1.00  0.00     0.293 HD
ENDBRANCH   4  14
BRANCH   7  16
ATOM     16  O   UNL     1      13.280 -52.128 -25.545  1.00  0.00    -0.507 OA
ATOM     17  H   UNL     1      14.227 -52.065 -25.307  1.00  0.00     0.293 HD
ENDBRANCH   7  16
ENDBRANCH   2   3
ENDBRANCH   1   2
BRANCH   1  18
ATOM     18  C   UNL     1      10.792 -59.199 -22.357  1.00  0.00     0.136 C 
BRANCH  18  19
ATOM     19  N   UNL     1      11.541 -60.328 -22.945  1.00  0.00    -0.382 N 
ATOM     20  H   UNL     1      11.678 -61.010 -22.197  1.00  0.00     0.160 HD
BRANCH  19  21
ATOM     21  C   UNL     1      10.845 -60.908 -24.045  1.00  0.00     0.049 A 
ATOM     22  C   UNL     1       9.838 -61.873 -23.837  1.00  0.00    -0.003 A 
ATOM     23  C   UNL     1      11.096 -60.428 -25.359  1.00  0.00     0.024 A 
ATOM     24  C   UNL     1       9.105 -62.291 -24.951  1.00  0.00     0.046 A 
ATOM     25  C   UNL     1       9.502 -62.388 -22.455  1.00  0.00     0.039 C 
ATOM     26  C   UNL     1      12.106 -59.485 -25.664  1.00  0.00     0.014 A 
ATOM     27  C   UNL     1      10.305 -60.938 -26.407  1.00  0.00     0.074 A 
ATOM     28  N   UNL     1       9.337 -61.841 -26.208  1.00  0.00    -0.252 NA
ATOM     29  C   UNL     1       8.012 -63.323 -24.841  1.00  0.00     0.056 C 
ATOM     30  C   UNL     1       8.605 -63.626 -22.445  1.00  0.00     0.005 C 
ATOM     31  C   UNL     1      12.314 -59.048 -26.971  1.00  0.00     0.021 A 
ATOM     32  C   UNL     1      10.526 -60.492 -27.702  1.00  0.00     0.049 A 
ATOM     33  C   UNL     1       7.458 -63.463 -23.429  1.00  0.00     0.007 C 
ATOM     34  C   UNL     1      11.517 -59.556 -27.986  1.00  0.00     0.043 A 
ATOM     35  Cl  UNL     1      11.758 -59.028 -29.607  1.00  0.00    -0.084 Cl
ENDBRANCH  19  21
ENDBRANCH  18  19
ENDBRANCH   1  18
TORSDOF 7
ENDMDL
MODEL 2
REMARK VINA RESULT:   -12.062      1.144      2.179
REMARK INTER + INTRA:         -16.897
REMARK INTER:                 -16.292
REMARK INTRA:                  -0.605
REMARK UNBOUND:                -0.605
REMARK SMILES O=C1C(=NCCNc2c3c(nc4cc(Cl)ccc24)CCCC3)C=C(O)c2c(O)cccc21
REMARK SMILES IDX 5 1 4 2 3 3 24 4 23 5 26 6 27 7 32 8 2 9 29 10 31 11 30 12
REMARK SMILES IDX 1 13 25 14 28 16 6 18 7 19 8 21 9 22 18 23 10 24 22 25 17 26
REMARK SMILES IDX 12 27 11 28 19 29 21 30 16 31 13 32 20 33 14 34 15 35
REMARK H PARENT 25 15 28 17 7 20
ROOT
ATOM      1  C   UNL     1      10.581 -58.138 -22.711  1.00  0.00     0.164 C 
ENDROOT
BRANCH   1   2
ATOM      2  N   UNL     1      10.133 -56.932 -23.425  1.00  0.00    -0.279 NA
BRANCH   2   3
ATOM      3  C   UNL     1      10.740 -55.808 -23.224  1.00  0.00     0.109 C 
ATOM      4  C   UNL     1      10.844 -53.822 -21.791  1.00  0.00     0.129 C 
ATOM      5  C   UNL     1      10.476 -55.094 -21.955  1.00  0.00     0.079 C 
ATOM      6  C   UNL     1      11.475 -53.033 -22.863  1.00  0.00     0.069 A 
ATOM      7  C   UNL     1      11.639 -51.640 -22.793  1.00  0.00     0.127 A 
ATOM      8  C   UNL     1      11.959 -53.682 -24.008  1.00  0.00     0.039 A 
ATOM      9  C   UNL     1      11.731 -55.133 -24.173  1.00  0.00     0.211 C 
ATOM     10  C   UNL     1      12.331 -50.933 -23.774  1.00  0.00     0.047 A 
ATOM     11  C   UNL     1      12.648 -52.978 -25.007  1.00  0.00     0.013 A 
ATOM     12  C   UNL     1      12.843 -51.604 -24.882  1.00  0.00     0.005 A 
ATOM     13  O   UNL     1      12.325 -55.762 -25.036  1.00  0.00    -0.287 OA
BRANCH   4  14
ATOM     14  O   UNL     1      10.655 -53.210 -20.566  1.00  0.00    -0.507 OA
ATOM     15  H   UNL     1       9.699 -53.245 -20.356  1.00  0.00     0.293 HD
ENDBRANCH   4  14
BRANCH   7  16
ATOM     16  O   UNL     1      11.116 -50.900 -21.766  1.00  0.00    -0.507 OA
ATOM     17  H   UNL     1      10.242 -51.282 -21.544  1.00  0.00     0.293 HD
ENDBRANCH   7  16
ENDBRANCH   2   3
ENDBRANCH   1   2
BRANCH   1  18
ATOM     18  C   UNL     1       9.689 -59.321 -23.128  1.00  0.00     0.136 C 
BRANCH  18  19
ATOM     19  N   UNL     1      10.543 -60.458 -23.525  1.00  0.00    -0.382 N 
ATOM     20  H   UNL     1      10.479 -61.149 -22.775  1.00  0.00     0.160 HD
BRANCH  19  21
ATOM     21  C   UNL     1      10.134 -61.016 -24.771  1.00  0.00     0.049 A 
ATOM     22  C   UNL     1       9.138 -62.014 -24.824  1.00  0.00    -0.003 A 
ATOM     23  C   UNL     1      10.659 -60.484 -25.979  1.00  0.00     0.024 A 
ATOM     24  C   UNL     1       8.689 -62.410 -26.088  1.00  0.00     0.046 A 
ATOM     25  C   UNL     1       8.515 -62.585 -23.571  1.00  0.00     0.039 C 
ATOM     26  C   UNL     1      11.681 -59.505 -26.020  1.00  0.00     0.014 A 
ATOM     27  C   UNL     1      10.143 -60.977 -27.193  1.00  0.00     0.074 A 
ATOM     28  N   UNL     1       9.185 -61.910 -27.246  1.00  0.00    -0.252 NA
ATOM     29  C   UNL     1       7.634 -63.473 -26.258  1.00  0.00     0.056 C 
ATOM     30  C   UNL     1       7.679 -63.844 -23.800  1.00  0.00     0.005 C 
ATOM     31  C   UNL     1      12.165 -59.018 -27.232  1.00  0.00     0.021 A 
ATOM     32  C   UNL     1      10.637 -60.479 -28.391  1.00  0.00     0.049 A 
ATOM     33  C   UNL     1       6.780 -63.677 -25.014  1.00  0.00     0.007 C 
ATOM     34  C   UNL     1      11.635 -59.509 -28.416  1.00  0.00     0.043 A 
ATOM     35  Cl  UNL     1      12.219 -58.919 -29.923  1.00  0.00    -0.084 Cl
ENDBRANCH  19  21
ENDBRANCH  18  19
ENDBRANCH   1  18
TORSDOF 7
ENDMDL
MODEL 3
REMARK VINA RESULT:   -11.430      1.826      3.703
REMARK INTER + INTRA:         -16.045
REMARK INTER:                 -15.849
REMARK INTRA:                  -0.196
REMARK UNBOUND:                -0.605
REMARK SMILES O=C1C(=NCCNc2c3c(nc4cc(Cl)ccc24)CCCC3)C=C(O)c2c(O)cccc21
REMARK SMILES IDX 5 1 4 2 3 3 24 4 23 5 26 6 27 7 32 8 2 9 29 10 31 11 30 12
REMARK SMILES IDX 1 13 25 14 28 16 6 18 7 19 8 21 9 22 18 23 10 24 22 25 17 26
REMARK SMILES IDX 12 27 11 28 19 29 21 30 16 31 13 32 20 33 14 34 15 35
REMARK H PARENT 25 15 28 17 7 20
ROOT
ATOM      1  C   UNL     1      10.930 -57.864 -23.238  1.00  0.00     0.164 C 
ENDROOT
BRANCH   1   2
ATOM      2  N   UNL     1      10.953 -56.706 -22.331  1.00  0.00    -0.279 NA
BRANCH   2   3
ATOM      3  C   UNL     1      11.054 -55.513 -22.821  1.00  0.00     0.109 C 
ATOM      4  C   UNL     1      11.971 -54.180 -24.663  1.00  0.00     0.129 C 
ATOM      5  C   UNL     1      11.587 -55.370 -24.194  1.00  0.00     0.079 C 
ATOM      6  C   UNL     1      11.949 -52.958 -23.841  1.00  0.00     0.069 A 
ATOM      7  C   UNL     1      12.574 -51.763 -24.231  1.00  0.00     0.127 A 
ATOM      8  C   UNL     1      11.261 -52.956 -22.620  1.00  0.00     0.039 A 
ATOM      9  C   UNL     1      10.661 -54.212 -22.120  1.00  0.00     0.211 C 
ATOM     10  C   UNL     1      12.451 -50.592 -23.484  1.00  0.00     0.047 A 
ATOM     11  C   UNL     1      11.138 -51.787 -21.855  1.00  0.00     0.013 A 
ATOM     12  C   UNL     1      11.725 -50.602 -22.296  1.00  0.00     0.005 A 
ATOM     13  O   UNL     1       9.875 -54.197 -21.185  1.00  0.00    -0.287 OA
BRANCH   4  14
ATOM     14  O   UNL     1      12.388 -54.068 -25.976  1.00  0.00    -0.507 OA
ATOM     15  H   UNL     1      12.307 -53.127 -26.238  1.00  0.00     0.293 HD
ENDBRANCH   4  14
BRANCH   7  16
ATOM     16  O   UNL     1      13.353 -51.686 -25.356  1.00  0.00    -0.507 OA
ATOM     17  H   UNL     1      13.202 -50.807 -25.759  1.00  0.00     0.293 HD
ENDBRANCH   7  16
ENDBRANCH   2   3
ENDBRANCH   1   2
BRANCH   1  18
ATOM     18  C   UNL     1      11.810 -58.977 -22.642  1.00  0.00     0.136 C 
BRANCH  18  19
ATOM     19  N   UNL     1      12.461 -59.724 -23.738  1.00  0.00    -0.382 N 
ATOM     20  H   UNL     1      13.026 -60.453 -23.300  1.00  0.00     0.160 HD
BRANCH  19  21
ATOM     21  C   UNL     1      11.506 -60.285 -24.634  1.00  0.00     0.049 A 
ATOM     22  C   UNL     1      11.498 -59.930 -25.999  1.00  0.00    -0.003 A 
ATOM     23  C   UNL     1      10.621 -61.293 -24.166  1.00  0.00     0.024 A 
ATOM     24  C   UNL     1      10.626 -60.626 -26.842  1.00  0.00     0.046 A 
ATOM     25  C   UNL     1      12.446 -58.893 -26.558  1.00  0.00     0.039 C 
ATOM     26  C   UNL     1      10.538 -61.690 -22.810  1.00  0.00     0.014 A 
ATOM     27  C   UNL     1       9.773 -61.911 -25.106  1.00  0.00     0.074 A 
ATOM     28  N   UNL     1       9.778 -61.588 -26.406  1.00  0.00    -0.252 NA
ATOM     29  C   UNL     1      10.533 -60.321 -28.315  1.00  0.00     0.056 C 
ATOM     30  C   UNL     1      12.107 -58.426 -27.973  1.00  0.00     0.005 C 
ATOM     31  C   UNL     1       9.650 -62.683 -22.402  1.00  0.00     0.021 A 
ATOM     32  C   UNL     1       8.895 -62.898 -24.682  1.00  0.00     0.049 A 
ATOM     33  C   UNL     1      11.766 -59.612 -28.861  1.00  0.00     0.007 C 
ATOM     34  C   UNL     1       8.832 -63.285 -23.346  1.00  0.00     0.043 A 
ATOM     35  Cl  UNL     1       7.729 -64.515 -22.862  1.00  0.00    -0.084 Cl
ENDBRANCH  19  21
ENDBRANCH  18  19
ENDBRANCH   1  18
TORSDOF 7
ENDMDL
MODEL 4
REMARK VINA RESULT:   -11.422      2.065      4.239
REMARK INTER + INTRA:         -16.033
REMARK INTER:                 -15.481
REMARK INTRA:                  -0.551
REMARK UNBOUND:                -0.605
REMARK SMILES O=C1C(=NCCNc2c3c(nc4cc(Cl)ccc24)CCCC3)C=C(O)c2c(O)cccc21
REMARK SMILES IDX 5 1 4 2 3 3 24 4 23 5 26 6 27 7 32 8 2 9 29 10 31 11 30 12
REMARK SMILES IDX 1 13 25 14 28 16 6 18 7 19 8 21 9 22 18 23 10 24 22 25 17 26
REMARK SMILES IDX 12 27 11 28 19 29 21 30 16 31 13 32 20 33 14 34 15 35
REMARK H PARENT 25 15 28 17 7 20
ROOT
ATOM      1  C   UNL     1      10.309 -57.870 -22.795  1.00  0.00     0.164 C 
ENDROOT
BRANCH   1   2
ATOM      2  N   UNL     1       9.879 -56.607 -23.415  1.00  0.00    -0.279 NA
BRANCH   2   3
ATOM      3  C   UNL     1      10.563 -55.529 -23.207  1.00  0.00     0.109 C 
ATOM      4  C   UNL     1      10.814 -53.569 -21.756  1.00  0.00     0.129 C 
ATOM      5  C   UNL     1      10.358 -54.812 -21.929  1.00  0.00     0.079 C 
ATOM      6  C   UNL     1      11.489 -52.815 -22.826  1.00  0.00     0.069 A 
ATOM      7  C   UNL     1      11.749 -51.437 -22.744  1.00  0.00     0.127 A 
ATOM      8  C   UNL     1      11.918 -53.483 -23.981  1.00  0.00     0.039 A 
ATOM      9  C   UNL     1      11.591 -54.914 -24.159  1.00  0.00     0.211 C 
ATOM     10  C   UNL     1      12.480 -50.769 -23.724  1.00  0.00     0.047 A 
ATOM     11  C   UNL     1      12.647 -52.819 -24.979  1.00  0.00     0.013 A 
ATOM     12  C   UNL     1      12.936 -51.462 -24.842  1.00  0.00     0.005 A 
ATOM     13  O   UNL     1      12.133 -55.574 -25.033  1.00  0.00    -0.287 OA
BRANCH   4  14
ATOM     14  O   UNL     1      10.676 -52.959 -20.524  1.00  0.00    -0.507 OA
ATOM     15  H   UNL     1      10.625 -53.661 -19.844  1.00  0.00     0.293 HD
ENDBRANCH   4  14
BRANCH   7  16
ATOM     16  O   UNL     1      11.285 -50.673 -21.705  1.00  0.00    -0.507 OA
ATOM     17  H   UNL     1      10.487 -51.114 -21.350  1.00  0.00     0.293 HD
ENDBRANCH   7  16
ENDBRANCH   2   3
ENDBRANCH   1   2
BRANCH   1  18
ATOM     18  C   UNL     1       9.452 -59.016 -23.361  1.00  0.00     0.136 C 
BRANCH  18  19
ATOM     19  N   UNL     1      10.334 -60.130 -23.766  1.00  0.00    -0.382 N 
ATOM     20  H   UNL     1      10.240 -60.853 -23.050  1.00  0.00     0.160 HD
BRANCH  19  21
ATOM     21  C   UNL     1       9.988 -60.637 -25.052  1.00  0.00     0.049 A 
ATOM     22  C   UNL     1      10.669 -60.202 -26.208  1.00  0.00    -0.003 A 
ATOM     23  C   UNL     1       9.018 -61.670 -25.155  1.00  0.00     0.024 A 
ATOM     24  C   UNL     1      10.371 -60.846 -27.413  1.00  0.00     0.046 A 
ATOM     25  C   UNL     1      11.738 -59.135 -26.149  1.00  0.00     0.039 C 
ATOM     26  C   UNL     1       8.265 -62.146 -24.055  1.00  0.00     0.014 A 
ATOM     27  C   UNL     1       8.788 -62.230 -26.427  1.00  0.00     0.074 A 
ATOM     28  N   UNL     1       9.447 -61.832 -27.522  1.00  0.00    -0.252 NA
ATOM     29  C   UNL     1      11.035 -60.455 -28.708  1.00  0.00     0.056 C 
ATOM     30  C   UNL     1      12.157 -58.585 -27.512  1.00  0.00     0.005 C 
ATOM     31  C   UNL     1       7.323 -63.160 -24.211  1.00  0.00     0.021 A 
ATOM     32  C   UNL     1       7.846 -63.240 -26.563  1.00  0.00     0.049 A 
ATOM     33  C   UNL     1      12.352 -59.717 -28.508  1.00  0.00     0.007 C 
ATOM     34  C   UNL     1       7.120 -63.705 -25.470  1.00  0.00     0.043 A 
ATOM     35  Cl  UNL     1       5.961 -64.960 -25.682  1.00  0.00    -0.084 Cl
ENDBRANCH  19  21
ENDBRANCH  18  19
ENDBRANCH   1  18
TORSDOF 7
ENDMDL
MODEL 5
REMARK VINA RESULT:   -11.305      4.647     10.262
REMARK INTER + INTRA:         -15.875
REMARK INTER:                 -15.376
REMARK INTRA:                  -0.499
REMARK UNBOUND:                -0.605
REMARK SMILES O=C1C(=NCCNc2c3c(nc4cc(Cl)ccc24)CCCC3)C=C(O)c2c(O)cccc21
REMARK SMILES IDX 5 1 4 2 3 3 24 4 23 5 26 6 27 7 32 8 2 9 29 10 31 11 30 12
REMARK SMILES IDX 1 13 25 14 28 16 6 18 7 19 8 21 9 22 18 23 10 24 22 25 17 26
REMARK SMILES IDX 12 27 11 28 19 29 21 30 16 31 13 32 20 33 14 34 15 35
REMARK H PARENT 25 15 28 17 7 20
ROOT
ATOM      1  C   UNL     1      10.451 -52.189 -21.631  1.00  0.00     0.164 C 
ENDROOT
BRANCH   1   2
ATOM      2  N   UNL     1      10.098 -53.090 -22.738  1.00  0.00    -0.279 NA
BRANCH   2   3
ATOM      3  C   UNL     1      10.760 -54.188 -22.904  1.00  0.00     0.109 C 
ATOM      4  C   UNL     1      11.859 -55.630 -24.555  1.00  0.00     0.129 C 
ATOM      5  C   UNL     1      11.396 -54.424 -24.220  1.00  0.00     0.079 C 
ATOM      6  C   UNL     1      11.718 -56.806 -23.679  1.00  0.00     0.069 A 
ATOM      7  C   UNL     1      11.972 -58.117 -24.113  1.00  0.00     0.127 A 
ATOM      8  C   UNL     1      11.335 -56.633 -22.342  1.00  0.00     0.039 A 
ATOM      9  C   UNL     1      10.970 -55.284 -21.858  1.00  0.00     0.211 C 
ATOM     10  C   UNL     1      11.931 -59.201 -23.237  1.00  0.00     0.047 A 
ATOM     11  C   UNL     1      11.281 -57.717 -21.454  1.00  0.00     0.013 A 
ATOM     12  C   UNL     1      11.591 -59.000 -21.902  1.00  0.00     0.005 A 
ATOM     13  O   UNL     1      10.850 -55.063 -20.663  1.00  0.00    -0.287 OA
BRANCH   4  14
ATOM     14  O   UNL     1      12.519 -55.796 -25.758  1.00  0.00    -0.507 OA
ATOM     15  H   UNL     1      12.092 -56.537 -26.236  1.00  0.00     0.293 HD
ENDBRANCH   4  14
BRANCH   7  16
ATOM     16  O   UNL     1      12.255 -58.405 -25.422  1.00  0.00    -0.507 OA
ATOM     17  H   UNL     1      11.955 -59.321 -25.594  1.00  0.00     0.293 HD
ENDBRANCH   7  16
ENDBRANCH   2   3
ENDBRANCH   1   2
BRANCH   1  18
ATOM     18  C   UNL     1      10.311 -50.734 -22.112  1.00  0.00     0.136 C 
BRANCH  18  19
ATOM     19  N   UNL     1      11.543 -49.990 -21.782  1.00  0.00    -0.382 N 
ATOM     20  H   UNL     1      12.221 -50.678 -21.450  1.00  0.00     0.160 HD
BRANCH  19  21
ATOM     21  C   UNL     1      12.048 -49.277 -22.908  1.00  0.00     0.049 A 
ATOM     22  C   UNL     1      12.846 -49.924 -23.875  1.00  0.00    -0.003 A 
ATOM     23  C   UNL     1      11.653 -47.928 -23.112  1.00  0.00     0.024 A 
ATOM     24  C   UNL     1      13.185 -49.198 -25.021  1.00  0.00     0.046 A 
ATOM     25  C   UNL     1      13.260 -51.371 -23.728  1.00  0.00     0.039 C 
ATOM     26  C   UNL     1      10.881 -47.192 -22.181  1.00  0.00     0.014 A 
ATOM     27  C   UNL     1      12.074 -47.293 -24.297  1.00  0.00     0.074 A 
ATOM     28  N   UNL     1      12.815 -47.911 -25.225  1.00  0.00    -0.252 NA
ATOM     29  C   UNL     1      14.039 -49.791 -26.112  1.00  0.00     0.056 C 
ATOM     30  C   UNL     1      14.349 -51.817 -24.703  1.00  0.00     0.005 C 
ATOM     31  C   UNL     1      10.523 -45.868 -22.428  1.00  0.00     0.021 A 
ATOM     32  C   UNL     1      11.707 -45.974 -24.526  1.00  0.00     0.049 A 
ATOM     33  C   UNL     1      14.050 -51.314 -26.106  1.00  0.00     0.007 C 
ATOM     34  C   UNL     1      10.939 -45.266 -23.606  1.00  0.00     0.043 A 
ATOM     35  Cl  UNL     1      10.506 -43.632 -23.929  1.00  0.00    -0.084 Cl
ENDBRANCH  19  21
ENDBRANCH  18  19
ENDBRANCH   1  18
TORSDOF 7
ENDMDL
MODEL 6
REMARK VINA RESULT:   -10.567      5.900      9.233
REMARK INTER + INTRA:         -14.878
REMARK INTER:                 -13.778
REMARK INTRA:                  -1.101
REMARK UNBOUND:                -0.605
REMARK SMILES O=C1C(=NCCNc2c3c(nc4cc(Cl)ccc24)CCCC3)C=C(O)c2c(O)cccc21
REMARK SMILES IDX 5 1 4 2 3 3 24 4 23 5 26 6 27 7 32 8 2 9 29 10 31 11 30 12
REMARK SMILES IDX 1 13 25 14 28 16 6 18 7 19 8 21 9 22 18 23 10 24 22 25 17 26
REMARK SMILES IDX 12 27 11 28 19 29 21 30 16 31 13 32 20 33 14 34 15 35
REMARK H PARENT 25 15 28 17 7 20
ROOT
ATOM      1  C   UNL     1       9.828 -48.648 -22.781  1.00  0.00     0.164 C 
ENDROOT
BRANCH   1   2
ATOM      2  N   UNL     1      10.293 -47.524 -21.954  1.00  0.00    -0.279 NA
BRANCH   2   3
ATOM      3  C   UNL     1      10.992 -46.579 -22.494  1.00  0.00     0.109 C 
ATOM      4  C   UNL     1      10.902 -44.608 -23.948  1.00  0.00     0.129 C 
ATOM      5  C   UNL     1      10.268 -45.466 -23.146  1.00  0.00     0.079 C 
ATOM      6  C   UNL     1      12.330 -44.742 -24.284  1.00  0.00     0.069 A 
ATOM      7  C   UNL     1      12.947 -44.006 -25.309  1.00  0.00     0.127 A 
ATOM      8  C   UNL     1      13.135 -45.623 -23.549  1.00  0.00     0.039 A 
ATOM      9  C   UNL     1      12.518 -46.486 -22.519  1.00  0.00     0.211 C 
ATOM     10  C   UNL     1      14.320 -44.077 -25.538  1.00  0.00     0.047 A 
ATOM     11  C   UNL     1      14.517 -45.709 -23.777  1.00  0.00     0.013 A 
ATOM     12  C   UNL     1      15.109 -44.925 -24.766  1.00  0.00     0.005 A 
ATOM     13  O   UNL     1      13.213 -47.093 -21.718  1.00  0.00    -0.287 OA
BRANCH   4  14
ATOM     14  O   UNL     1      10.213 -43.532 -24.476  1.00  0.00    -0.507 OA
ATOM     15  H   UNL     1       9.708 -43.113 -23.750  1.00  0.00     0.293 HD
ENDBRANCH   4  14
BRANCH   7  16
ATOM     16  O   UNL     1      12.232 -43.194 -26.149  1.00  0.00    -0.507 OA
ATOM     17  H   UNL     1      12.875 -42.659 -26.658  1.00  0.00     0.293 HD
ENDBRANCH   7  16
ENDBRANCH   2   3
ENDBRANCH   1   2
BRANCH   1  18
ATOM     18  C   UNL     1      10.035 -49.957 -21.999  1.00  0.00     0.136 C 
BRANCH  18  19
ATOM     19  N   UNL     1      11.481 -50.248 -21.909  1.00  0.00    -0.382 N 
ATOM     20  H   UNL     1      11.653 -50.583 -20.959  1.00  0.00     0.160 HD
BRANCH  19  21
ATOM     21  C   UNL     1      11.886 -51.214 -22.874  1.00  0.00     0.049 A 
ATOM     22  C   UNL     1      11.486 -52.562 -22.761  1.00  0.00    -0.003 A 
ATOM     23  C   UNL     1      12.612 -50.792 -24.020  1.00  0.00     0.024 A 
ATOM     24  C   UNL     1      11.803 -53.420 -23.818  1.00  0.00     0.046 A 
ATOM     25  C   UNL     1      10.676 -53.056 -21.583  1.00  0.00     0.039 C 
ATOM     26  C   UNL     1      13.081 -49.469 -24.202  1.00  0.00     0.014 A 
ATOM     27  C   UNL     1      12.892 -51.753 -25.011  1.00  0.00     0.074 A 
ATOM     28  N   UNL     1      12.496 -53.028 -24.914  1.00  0.00    -0.252 NA
ATOM     29  C   UNL     1      11.429 -54.880 -23.796  1.00  0.00     0.056 C 
ATOM     30  C   UNL     1      10.584 -54.578 -21.476  1.00  0.00     0.005 C 
ATOM     31  C   UNL     1      13.793 -49.106 -25.343  1.00  0.00     0.021 A 
ATOM     32  C   UNL     1      13.601 -51.373 -26.142  1.00  0.00     0.049 A 
ATOM     33  C   UNL     1      10.289 -55.193 -22.835  1.00  0.00     0.007 C 
ATOM     34  C   UNL     1      14.048 -50.065 -26.312  1.00  0.00     0.043 A 
ATOM     35  Cl  UNL     1      14.924 -49.636 -27.730  1.00  0.00    -0.084 Cl
ENDBRANCH  19  21
ENDBRANCH  18  19
ENDBRANCH   1  18
TORSDOF 7
ENDMDL
MODEL 7
REMARK VINA RESULT:   -10.332      5.755      9.698
REMARK INTER + INTRA:         -14.561
REMARK INTER:                 -13.627
REMARK INTRA:                  -0.934
REMARK UNBOUND:                -0.605
REMARK SMILES O=C1C(=NCCNc2c3c(nc4cc(Cl)ccc24)CCCC3)C=C(O)c2c(O)cccc21
REMARK SMILES IDX 5 1 4 2 3 3 24 4 23 5 26 6 27 7 32 8 2 9 29 10 31 11 30 12
REMARK SMILES IDX 1 13 25 14 28 16 6 18 7 19 8 21 9 22 18 23 10 24 22 25 17 26
REMARK SMILES IDX 12 27 11 28 19 29 21 30 16 31 13 32 20 33 14 34 15 35
REMARK H PARENT 25 15 28 17 7 20
ROOT
ATOM      1  C   UNL     1       9.917 -48.580 -22.749  1.00  0.00     0.164 C 
ENDROOT
BRANCH   1   2
ATOM      2  N   UNL     1      10.542 -47.542 -21.915  1.00  0.00    -0.279 NA
BRANCH   2   3
ATOM      3  C   UNL     1      11.179 -46.568 -22.479  1.00  0.00     0.109 C 
ATOM      4  C   UNL     1      10.952 -44.609 -23.936  1.00  0.00     0.129 C 
ATOM      5  C   UNL     1      10.383 -45.493 -23.112  1.00  0.00     0.079 C 
ATOM      6  C   UNL     1      12.373 -44.677 -24.315  1.00  0.00     0.069 A 
ATOM      7  C   UNL     1      12.923 -43.918 -25.360  1.00  0.00     0.127 A 
ATOM      8  C   UNL     1      13.242 -45.516 -23.602  1.00  0.00     0.039 A 
ATOM      9  C   UNL     1      12.698 -46.403 -22.552  1.00  0.00     0.211 C 
ATOM     10  C   UNL     1      14.291 -43.924 -25.631  1.00  0.00     0.047 A 
ATOM     11  C   UNL     1      14.618 -45.538 -23.872  1.00  0.00     0.013 A 
ATOM     12  C   UNL     1      15.142 -44.731 -24.881  1.00  0.00     0.005 A 
ATOM     13  O   UNL     1      13.444 -46.973 -21.770  1.00  0.00    -0.287 OA
BRANCH   4  14
ATOM     14  O   UNL     1      10.197 -43.569 -24.445  1.00  0.00    -0.507 OA
ATOM     15  H   UNL     1       9.893 -43.022 -23.693  1.00  0.00     0.293 HD
ENDBRANCH   4  14
BRANCH   7  16
ATOM     16  O   UNL     1      12.146 -43.143 -26.180  1.00  0.00    -0.507 OA
ATOM     17  H   UNL     1      12.359 -43.387 -27.104  1.00  0.00     0.293 HD
ENDBRANCH   7  16
ENDBRANCH   2   3
ENDBRANCH   1   2
BRANCH   1  18
ATOM     18  C   UNL     1       9.993 -49.925 -22.005  1.00  0.00     0.136 C 
BRANCH  18  19
ATOM     19  N   UNL     1      11.402 -50.360 -21.927  1.00  0.00    -0.382 N 
ATOM     20  H   UNL     1      11.526 -50.789 -21.008  1.00  0.00     0.160 HD
BRANCH  19  21
ATOM     21  C   UNL     1      11.730 -51.277 -22.967  1.00  0.00     0.049 A 
ATOM     22  C   UNL     1      12.538 -50.879 -24.054  1.00  0.00    -0.003 A 
ATOM     23  C   UNL     1      11.327 -52.634 -22.853  1.00  0.00     0.024 A 
ATOM     24  C   UNL     1      12.933 -51.868 -24.959  1.00  0.00     0.046 A 
ATOM     25  C   UNL     1      13.029 -49.457 -24.202  1.00  0.00     0.039 C 
ATOM     26  C   UNL     1      10.492 -53.114 -21.815  1.00  0.00     0.014 A 
ATOM     27  C   UNL     1      11.771 -53.537 -23.839  1.00  0.00     0.074 A 
ATOM     28  N   UNL     1      12.552 -53.165 -24.860  1.00  0.00    -0.252 NA
ATOM     29  C   UNL     1      13.789 -51.551 -26.158  1.00  0.00     0.056 C 
ATOM     30  C   UNL     1      13.636 -49.140 -25.568  1.00  0.00     0.005 C 
ATOM     31  C   UNL     1      10.122 -54.456 -21.750  1.00  0.00     0.021 A 
ATOM     32  C   UNL     1      11.393 -54.869 -23.757  1.00  0.00     0.049 A 
ATOM     33  C   UNL     1      14.573 -50.253 -26.010  1.00  0.00     0.007 C 
ATOM     34  C   UNL     1      10.579 -55.330 -22.725  1.00  0.00     0.043 A 
ATOM     35  Cl  UNL     1      10.134 -56.991 -22.661  1.00  0.00    -0.084 Cl
ENDBRANCH  19  21
ENDBRANCH  18  19
ENDBRANCH   1  18
TORSDOF 7
ENDMDL
MODEL 8
REMARK VINA RESULT:   -10.104      6.386     10.381
REMARK INTER + INTRA:         -14.252
REMARK INTER:                 -13.758
REMARK INTRA:                  -0.494
REMARK UNBOUND:                -0.605
REMARK SMILES O=C1C(=NCCNc2c3c(nc4cc(Cl)ccc24)CCCC3)C=C(O)c2c(O)cccc21
REMARK SMILES IDX 5 1 4 2 3 3 24 4 23 5 26 6 27 7 32 8 2 9 29 10 31 11 30 12
REMARK SMILES IDX 1 13 25 14 28 16 6 18 7 19 8 21 9 22 18 23 10 24 22 25 17 26
REMARK SMILES IDX 12 27 11 28 19 29 21 30 16 31 13 32 20 33 14 34 15 35
REMARK H PARENT 25 15 28 17 7 20
ROOT
ATOM      1  C   UNL     1      11.051 -47.388 -22.376  1.00  0.00     0.164 C 
ENDROOT
BRANCH   1   2
ATOM      2  N   UNL     1      10.919 -46.713 -23.676  1.00  0.00    -0.279 NA
BRANCH   2   3
ATOM      3  C   UNL     1      11.200 -45.454 -23.773  1.00  0.00     0.109 C 
ATOM      4  C   UNL     1      10.393 -43.186 -23.310  1.00  0.00     0.129 C 
ATOM      5  C   UNL     1      10.338 -44.494 -23.048  1.00  0.00     0.079 C 
ATOM      6  C   UNL     1      11.256 -42.622 -24.362  1.00  0.00     0.069 A 
ATOM      7  C   UNL     1      11.145 -41.297 -24.815  1.00  0.00     0.127 A 
ATOM      8  C   UNL     1      12.256 -43.418 -24.939  1.00  0.00     0.039 A 
ATOM      9  C   UNL     1      12.359 -44.844 -24.563  1.00  0.00     0.211 C 
ATOM     10  C   UNL     1      12.041 -40.759 -25.737  1.00  0.00     0.047 A 
ATOM     11  C   UNL     1      13.157 -42.890 -25.875  1.00  0.00     0.013 A 
ATOM     12  C   UNL     1      13.054 -41.555 -26.264  1.00  0.00     0.005 A 
ATOM     13  O   UNL     1      13.342 -45.500 -24.872  1.00  0.00    -0.287 OA
BRANCH   4  14
ATOM     14  O   UNL     1       9.634 -42.308 -22.559  1.00  0.00    -0.507 OA
ATOM     15  H   UNL     1       8.851 -42.057 -23.091  1.00  0.00     0.293 HD
ENDBRANCH   4  14
BRANCH   7  16
ATOM     16  O   UNL     1      10.141 -40.468 -24.388  1.00  0.00    -0.507 OA
ATOM     17  H   UNL     1       9.687 -40.123 -25.184  1.00  0.00     0.293 HD
ENDBRANCH   7  16
ENDBRANCH   2   3
ENDBRANCH   1   2
BRANCH   1  18
ATOM     18  C   UNL     1      10.675 -48.871 -22.549  1.00  0.00     0.136 C 
BRANCH  18  19
ATOM     19  N   UNL     1      11.777 -49.715 -22.043  1.00  0.00    -0.382 N 
ATOM     20  H   UNL     1      11.466 -50.099 -21.149  1.00  0.00     0.160 HD
BRANCH  19  21
ATOM     21  C   UNL     1      12.108 -50.755 -22.958  1.00  0.00     0.049 A 
ATOM     22  C   UNL     1      11.638 -52.071 -22.760  1.00  0.00    -0.003 A 
ATOM     23  C   UNL     1      12.831 -50.439 -24.140  1.00  0.00     0.024 A 
ATOM     24  C   UNL     1      11.886 -53.003 -23.771  1.00  0.00     0.046 A 
ATOM     25  C   UNL     1      10.830 -52.452 -21.540  1.00  0.00     0.039 C 
ATOM     26  C   UNL     1      13.366 -49.156 -24.407  1.00  0.00     0.014 A 
ATOM     27  C   UNL     1      13.036 -51.469 -25.079  1.00  0.00     0.074 A 
ATOM     28  N   UNL     1      12.575 -52.713 -24.901  1.00  0.00    -0.252 NA
ATOM     29  C   UNL     1      11.434 -54.437 -23.657  1.00  0.00     0.056 C 
ATOM     30  C   UNL     1      10.658 -53.958 -21.344  1.00  0.00     0.005 C 
ATOM     31  C   UNL     1      14.071 -48.899 -25.581  1.00  0.00     0.021 A 
ATOM     32  C   UNL     1      13.740 -51.194 -26.243  1.00  0.00     0.049 A 
ATOM     33  C   UNL     1      10.300 -54.632 -22.659  1.00  0.00     0.007 C 
ATOM     34  C   UNL     1      14.252 -49.924 -26.497  1.00  0.00     0.043 A 
ATOM     35  Cl  UNL     1      15.120 -49.625 -27.953  1.00  0.00    -0.084 Cl
ENDBRANCH  19  21
ENDBRANCH  18  19
ENDBRANCH   1  18
TORSDOF 7
ENDMDL
MODEL 9
REMARK VINA RESULT:    -9.961      6.022     10.168
REMARK INTER + INTRA:         -14.060
REMARK INTER:                 -12.726
REMARK INTRA:                  -1.334
REMARK UNBOUND:                -0.605
REMARK SMILES O=C1C(=NCCNc2c3c(nc4cc(Cl)ccc24)CCCC3)C=C(O)c2c(O)cccc21
REMARK SMILES IDX 5 1 4 2 3 3 24 4 23 5 26 6 27 7 32 8 2 9 29 10 31 11 30 12
REMARK SMILES IDX 1 13 25 14 28 16 6 18 7 19 8 21 9 22 18 23 10 24 22 25 17 26
REMARK SMILES IDX 12 27 11 28 19 29 21 30 16 31 13 32 20 33 14 34 15 35
REMARK H PARENT 25 15 28 17 7 20
ROOT
ATOM      1  C   UNL     1      13.098 -48.178 -22.817  1.00  0.00     0.164 C 
ENDROOT
BRANCH   1   2
ATOM      2  N   UNL     1      12.031 -49.011 -23.393  1.00  0.00    -0.279 NA
BRANCH   2   3
ATOM      3  C   UNL     1      12.171 -50.296 -23.425  1.00  0.00     0.109 C 
ATOM      4  C   UNL     1      12.787 -52.205 -24.835  1.00  0.00     0.129 C 
ATOM      5  C   UNL     1      12.844 -50.891 -24.601  1.00  0.00     0.079 C 
ATOM      6  C   UNL     1      12.014 -53.129 -23.988  1.00  0.00     0.069 A 
ATOM      7  C   UNL     1      11.741 -54.457 -24.356  1.00  0.00     0.127 A 
ATOM      8  C   UNL     1      11.535 -52.694 -22.744  1.00  0.00     0.039 A 
ATOM      9  C   UNL     1      11.716 -51.282 -22.348  1.00  0.00     0.211 C 
ATOM     10  C   UNL     1      11.097 -55.340 -23.491  1.00  0.00     0.047 A 
ATOM     11  C   UNL     1      10.876 -53.572 -21.870  1.00  0.00     0.013 A 
ATOM     12  C   UNL     1      10.669 -54.899 -22.242  1.00  0.00     0.005 A 
ATOM     13  O   UNL     1      11.514 -50.927 -21.196  1.00  0.00    -0.287 OA
BRANCH   4  14
ATOM     14  O   UNL     1      13.493 -52.739 -25.896  1.00  0.00    -0.507 OA
ATOM     15  H   UNL     1      12.873 -53.278 -26.429  1.00  0.00     0.293 HD
ENDBRANCH   4  14
BRANCH   7  16
ATOM     16  O   UNL     1      12.078 -54.951 -25.589  1.00  0.00    -0.507 OA
ATOM     17  H   UNL     1      11.676 -55.840 -25.669  1.00  0.00     0.293 HD
ENDBRANCH   7  16
ENDBRANCH   2   3
ENDBRANCH   1   2
BRANCH   1  18
ATOM     18  C   UNL     1      13.648 -47.249 -23.915  1.00  0.00     0.136 C 
BRANCH  18  19
ATOM     19  N   UNL     1      15.120 -47.360 -23.955  1.00  0.00    -0.382 N 
ATOM     20  H   UNL     1      15.426 -47.543 -22.998  1.00  0.00     0.160 HD
BRANCH  19  21
ATOM     21  C   UNL     1      15.547 -48.395 -24.836  1.00  0.00     0.049 A 
ATOM     22  C   UNL     1      16.047 -49.614 -24.332  1.00  0.00    -0.003 A 
ATOM     23  C   UNL     1      15.367 -48.236 -26.237  1.00  0.00     0.024 A 
ATOM     24  C   UNL     1      16.314 -50.632 -25.252  1.00  0.00     0.046 A 
ATOM     25  C   UNL     1      16.220 -49.851 -22.849  1.00  0.00     0.039 C 
ATOM     26  C   UNL     1      14.902 -47.039 -26.832  1.00  0.00     0.014 A 
ATOM     27  C   UNL     1      15.690 -49.327 -27.068  1.00  0.00     0.074 A 
ATOM     28  N   UNL     1      16.146 -50.490 -26.590  1.00  0.00    -0.252 NA
ATOM     29  C   UNL     1      16.856 -51.970 -24.821  1.00  0.00     0.056 C 
ATOM     30  C   UNL     1      17.036 -51.096 -22.500  1.00  0.00     0.005 C 
ATOM     31  C   UNL     1      14.746 -46.933 -28.212  1.00  0.00     0.021 A 
ATOM     32  C   UNL     1      15.527 -49.203 -28.441  1.00  0.00     0.049 A 
ATOM     33  C   UNL     1      16.600 -52.278 -23.352  1.00  0.00     0.007 C 
ATOM     34  C   UNL     1      15.059 -48.023 -29.012  1.00  0.00     0.043 A 
ATOM     35  Cl  UNL     1      14.872 -47.912 -30.719  1.00  0.00    -0.084 Cl
ENDBRANCH  19  21
ENDBRANCH  18  19
ENDBRANCH   1  18
TORSDOF 7
ENDMDL
