MODEL 1
REMARK VINA RESULT:   -10.888      0.000      0.000
REMARK INTER + INTRA:         -16.437
REMARK INTER:                 -15.343
REMARK INTRA:                  -1.094
REMARK UNBOUND:                -1.094
REMARK SMILES C=C(O)c1c[n+](Cc2ccccc2C)ccc1CC1=C(O)c2ccc(OC)cc2CC1
REMARK SMILES IDX 4 1 5 2 6 3 15 4 16 5 17 6 2 7 1 8 3 9 18 11 19 12 20 13
REMARK SMILES IDX 31 14 22 15 30 16 23 17 29 18 24 19 28 20 25 21 21 22 26 24
REMARK SMILES IDX 27 25 7 26 8 27 9 28 13 29 10 30 12 31 11 32 14 33
REMARK H PARENT 3 10 21 23
ROOT
ATOM      1  C   UNL     1      11.397 -52.680 -23.117  1.00  0.00     0.083 A 
ATOM      2  C   UNL     1      12.265 -52.047 -24.010  1.00  0.00     0.320 A 
ATOM      3  N   UNL     1      12.785 -52.697 -25.076  1.00  0.00    -0.200 N 
ATOM      4  C   UNL     1      12.498 -54.001 -25.286  1.00  0.00     0.308 A 
ATOM      5  C   UNL     1      11.629 -54.680 -24.439  1.00  0.00     0.075 A 
ATOM      6  C   UNL     1      11.048 -54.023 -23.345  1.00  0.00    -0.021 A 
ENDROOT
BRANCH   1   7
ATOM      7  C   UNL     1      10.872 -51.854 -22.025  1.00  0.00     0.121 C 
ATOM      8  C   UNL     1       9.642 -51.331 -22.019  1.00  0.00     0.059 C 
BRANCH   7   9
ATOM      9  O   UNL     1      11.737 -51.717 -20.966  1.00  0.00    -0.508 OA
ATOM     10  H   UNL     1      11.288 -51.194 -20.274  1.00  0.00     0.293 HD
ENDBRANCH   7   9
ENDBRANCH   1   7
BRANCH   6  11
ATOM     11  C   UNL     1      10.042 -54.782 -22.492  1.00  0.00     0.071 C 
BRANCH  11  12
ATOM     12  C   UNL     1      10.273 -56.276 -22.457  1.00  0.00    -0.023 C 
ATOM     13  C   UNL     1       9.474 -57.153 -23.095  1.00  0.00     0.122 C 
ATOM     14  C   UNL     1      11.441 -56.773 -21.632  1.00  0.00     0.040 C 
ATOM     15  C   UNL     1       9.774 -58.599 -23.090  1.00  0.00     0.020 A 
ATOM     16  C   UNL     1      11.224 -58.187 -21.077  1.00  0.00     0.041 C 
ATOM     17  C   UNL     1       9.247 -59.474 -24.048  1.00  0.00     0.016 A 
ATOM     18  C   UNL     1      10.643 -59.118 -22.111  1.00  0.00    -0.033 A 
ATOM     19  C   UNL     1       9.547 -60.838 -24.005  1.00  0.00     0.047 A 
ATOM     20  C   UNL     1      10.925 -60.493 -22.064  1.00  0.00     0.050 A 
ATOM     21  C   UNL     1      10.379 -61.357 -23.011  1.00  0.00     0.119 A 
BRANCH  13  22
ATOM     22  O   UNL     1       8.350 -56.731 -23.771  1.00  0.00    -0.507 OA
ATOM     23  H   UNL     1       7.575 -56.996 -23.242  1.00  0.00     0.293 HD
ENDBRANCH  13  22
BRANCH  21  24
ATOM     24  O   UNL     1      10.580 -62.707 -23.084  1.00  0.00    -0.497 OA
ATOM     25  C   UNL     1       9.518 -63.544 -22.641  1.00  0.00     0.278 C 
ENDBRANCH  21  24
ENDBRANCH  11  12
ENDBRANCH   6  11
BRANCH   3  26
ATOM     26  C   UNL     1      13.697 -51.975 -25.999  1.00  0.00     0.393 C 
BRANCH  26  27
ATOM     27  C   UNL     1      15.046 -51.701 -25.375  1.00  0.00     0.020 A 
ATOM     28  C   UNL     1      15.949 -52.775 -25.239  1.00  0.00     0.010 A 
ATOM     29  C   UNL     1      15.434 -50.418 -24.927  1.00  0.00    -0.042 A 
ATOM     30  C   UNL     1      17.219 -52.580 -24.700  1.00  0.00     0.001 A 
ATOM     31  C   UNL     1      16.724 -50.242 -24.399  1.00  0.00     0.004 A 
ATOM     32  C   UNL     1      17.608 -51.313 -24.284  1.00  0.00     0.000 A 
ATOM     33  C   UNL     1      14.538 -49.212 -25.018  1.00  0.00     0.045 C 
ENDBRANCH  26  27
ENDBRANCH   3  26
TORSDOF 8
ENDMDL
MODEL 2
REMARK VINA RESULT:   -10.802      2.541      9.650
REMARK INTER + INTRA:         -16.317
REMARK INTER:                 -16.298
REMARK INTRA:                  -0.018
REMARK UNBOUND:                -1.094
REMARK SMILES C=C(O)c1c[n+](Cc2ccccc2C)ccc1CC1=C(O)c2ccc(OC)cc2CC1
REMARK SMILES IDX 4 1 5 2 6 3 15 4 16 5 17 6 2 7 1 8 3 9 18 11 19 12 20 13
REMARK SMILES IDX 31 14 22 15 30 16 23 17 29 18 24 19 28 20 25 21 21 22 26 24
REMARK SMILES IDX 27 25 7 26 8 27 9 28 13 29 10 30 12 31 11 32 14 33
REMARK H PARENT 3 10 21 23
ROOT
ATOM      1  C   UNL     1       8.942 -58.589 -23.297  1.00  0.00     0.083 A 
ATOM      2  C   UNL     1       9.294 -59.912 -23.579  1.00  0.00     0.320 A 
ATOM      3  N   UNL     1      10.551 -60.369 -23.378  1.00  0.00    -0.200 N 
ATOM      4  C   UNL     1      11.515 -59.538 -22.924  1.00  0.00     0.308 A 
ATOM      5  C   UNL     1      11.220 -58.216 -22.613  1.00  0.00     0.075 A 
ATOM      6  C   UNL     1       9.918 -57.721 -22.779  1.00  0.00    -0.021 A 
ENDROOT
BRANCH   1   7
ATOM      7  C   UNL     1       7.538 -58.230 -23.522  1.00  0.00     0.121 C 
ATOM      8  C   UNL     1       6.552 -58.532 -22.672  1.00  0.00     0.059 C 
BRANCH   7   9
ATOM      9  O   UNL     1       7.329 -57.488 -24.660  1.00  0.00    -0.508 OA
ATOM     10  H   UNL     1       7.199 -58.107 -25.405  1.00  0.00     0.293 HD
ENDBRANCH   7   9
ENDBRANCH   1   7
BRANCH   6  11
ATOM     11  C   UNL     1       9.624 -56.291 -22.350  1.00  0.00     0.071 C 
BRANCH  11  12
ATOM     12  C   UNL     1      10.534 -55.262 -22.982  1.00  0.00    -0.023 C 
ATOM     13  C   UNL     1      10.461 -53.949 -22.693  1.00  0.00     0.122 C 
ATOM     14  C   UNL     1      11.536 -55.761 -24.001  1.00  0.00     0.040 C 
ATOM     15  C   UNL     1      11.414 -52.986 -23.282  1.00  0.00     0.020 A 
ATOM     16  C   UNL     1      11.899 -54.705 -25.053  1.00  0.00     0.041 C 
ATOM     17  C   UNL     1      11.648 -51.727 -22.715  1.00  0.00     0.016 A 
ATOM     18  C   UNL     1      12.136 -53.350 -24.434  1.00  0.00    -0.033 A 
ATOM     19  C   UNL     1      12.552 -50.839 -23.307  1.00  0.00     0.047 A 
ATOM     20  C   UNL     1      13.028 -52.445 -25.033  1.00  0.00     0.050 A 
ATOM     21  C   UNL     1      13.239 -51.188 -24.470  1.00  0.00     0.119 A 
BRANCH  13  22
ATOM     22  O   UNL     1       9.493 -53.459 -21.843  1.00  0.00    -0.507 OA
ATOM     23  H   UNL     1       8.756 -54.097 -21.840  1.00  0.00     0.293 HD
ENDBRANCH  13  22
BRANCH  21  24
ATOM     24  O   UNL     1      14.082 -50.222 -24.943  1.00  0.00    -0.497 OA
ATOM     25  C   UNL     1      14.469 -50.313 -26.309  1.00  0.00     0.278 C 
ENDBRANCH  21  24
ENDBRANCH  11  12
ENDBRANCH   6  11
BRANCH   3  26
ATOM     26  C   UNL     1      10.871 -61.786 -23.687  1.00  0.00     0.393 C 
BRANCH  26  27
ATOM     27  C   UNL     1       9.630 -62.636 -23.835  1.00  0.00     0.020 A 
ATOM     28  C   UNL     1       9.189 -63.374 -22.718  1.00  0.00     0.010 A 
ATOM     29  C   UNL     1       8.899 -62.717 -25.042  1.00  0.00    -0.042 A 
ATOM     30  C   UNL     1       8.035 -64.152 -22.783  1.00  0.00     0.001 A 
ATOM     31  C   UNL     1       7.731 -63.497 -25.081  1.00  0.00     0.004 A 
ATOM     32  C   UNL     1       7.304 -64.210 -23.963  1.00  0.00     0.000 A 
ATOM     33  C   UNL     1       9.295 -61.976 -26.291  1.00  0.00     0.045 C 
ENDBRANCH  26  27
ENDBRANCH   3  26
TORSDOF 8
ENDMDL
MODEL 3
REMARK VINA RESULT:   -10.416      0.811      1.637
REMARK INTER + INTRA:         -15.773
REMARK INTER:                 -15.261
REMARK INTRA:                  -0.512
REMARK UNBOUND:                -1.094
REMARK SMILES C=C(O)c1c[n+](Cc2ccccc2C)ccc1CC1=C(O)c2ccc(OC)cc2CC1
REMARK SMILES IDX 4 1 5 2 6 3 15 4 16 5 17 6 2 7 1 8 3 9 18 11 19 12 20 13
REMARK SMILES IDX 31 14 22 15 30 16 23 17 29 18 24 19 28 20 25 21 21 22 26 24
REMARK SMILES IDX 27 25 7 26 8 27 9 28 13 29 10 30 12 31 11 32 14 33
REMARK H PARENT 3 10 21 23
ROOT
ATOM      1  C   UNL     1      11.432 -53.023 -23.136  1.00  0.00     0.083 A 
ATOM      2  C   UNL     1      12.424 -52.391 -23.892  1.00  0.00     0.320 A 
ATOM      3  N   UNL     1      12.953 -52.970 -24.993  1.00  0.00    -0.200 N 
ATOM      4  C   UNL     1      12.553 -54.203 -25.374  1.00  0.00     0.308 A 
ATOM      5  C   UNL     1      11.560 -54.874 -24.670  1.00  0.00     0.075 A 
ATOM      6  C   UNL     1      10.969 -54.285 -23.543  1.00  0.00    -0.021 A 
ENDROOT
BRANCH   1   7
ATOM      7  C   UNL     1      10.914 -52.272 -21.987  1.00  0.00     0.121 C 
ATOM      8  C   UNL     1      10.605 -50.972 -22.033  1.00  0.00     0.059 C 
BRANCH   7   9
ATOM      9  O   UNL     1      10.706 -53.041 -20.868  1.00  0.00    -0.508 OA
ATOM     10  H   UNL     1      10.655 -53.975 -21.148  1.00  0.00     0.293 HD
ENDBRANCH   7   9
ENDBRANCH   1   7
BRANCH   6  11
ATOM     11  C   UNL     1       9.830 -55.022 -22.852  1.00  0.00     0.071 C 
BRANCH  11  12
ATOM     12  C   UNL     1      10.070 -56.506 -22.690  1.00  0.00    -0.023 C 
ATOM     13  C   UNL     1       9.229 -57.438 -23.180  1.00  0.00     0.122 C 
ATOM     14  C   UNL     1      11.299 -56.925 -21.912  1.00  0.00     0.040 C 
ATOM     15  C   UNL     1       9.535 -58.878 -23.058  1.00  0.00     0.020 A 
ATOM     16  C   UNL     1      11.131 -58.279 -21.208  1.00  0.00     0.041 C 
ATOM     17  C   UNL     1       8.941 -59.839 -23.885  1.00  0.00     0.016 A 
ATOM     18  C   UNL     1      10.477 -59.302 -22.102  1.00  0.00    -0.033 A 
ATOM     19  C   UNL     1       9.250 -61.194 -23.734  1.00  0.00     0.047 A 
ATOM     20  C   UNL     1      10.768 -60.668 -21.944  1.00  0.00     0.050 A 
ATOM     21  C   UNL     1      10.156 -61.617 -22.760  1.00  0.00     0.119 A 
BRANCH  13  22
ATOM     22  O   UNL     1       8.056 -57.080 -23.806  1.00  0.00    -0.507 OA
ATOM     23  H   UNL     1       8.170 -56.173 -24.146  1.00  0.00     0.293 HD
ENDBRANCH  13  22
BRANCH  21  24
ATOM     24  O   UNL     1      10.356 -62.968 -22.718  1.00  0.00    -0.497 OA
ATOM     25  C   UNL     1       9.198 -63.793 -22.688  1.00  0.00     0.278 C 
ENDBRANCH  21  24
ENDBRANCH  11  12
ENDBRANCH   6  11
BRANCH   3  26
ATOM     26  C   UNL     1      13.999 -52.252 -25.764  1.00  0.00     0.393 C 
BRANCH  26  27
ATOM     27  C   UNL     1      14.316 -50.896 -25.178  1.00  0.00     0.020 A 
ATOM     28  C   UNL     1      13.544 -49.792 -25.591  1.00  0.00     0.010 A 
ATOM     29  C   UNL     1      15.351 -50.694 -24.236  1.00  0.00    -0.042 A 
ATOM     30  C   UNL     1      13.768 -48.522 -25.064  1.00  0.00     0.001 A 
ATOM     31  C   UNL     1      15.550 -49.408 -23.707  1.00  0.00     0.004 A 
ATOM     32  C   UNL     1      14.767 -48.331 -24.118  1.00  0.00     0.000 A 
ATOM     33  C   UNL     1      16.236 -51.805 -23.741  1.00  0.00     0.045 C 
ENDBRANCH  26  27
ENDBRANCH   3  26
TORSDOF 8
ENDMDL
MODEL 4
REMARK VINA RESULT:   -10.263      2.595      5.262
REMARK INTER + INTRA:         -15.558
REMARK INTER:                 -15.443
REMARK INTRA:                  -0.114
REMARK UNBOUND:                -1.094
REMARK SMILES C=C(O)c1c[n+](Cc2ccccc2C)ccc1CC1=C(O)c2ccc(OC)cc2CC1
REMARK SMILES IDX 4 1 5 2 6 3 15 4 16 5 17 6 2 7 1 8 3 9 18 11 19 12 20 13
REMARK SMILES IDX 31 14 22 15 30 16 23 17 29 18 24 19 28 20 25 21 21 22 26 24
REMARK SMILES IDX 27 25 7 26 8 27 9 28 13 29 10 30 12 31 11 32 14 33
REMARK H PARENT 3 10 21 23
ROOT
ATOM      1  C   UNL     1       9.156 -57.616 -22.888  1.00  0.00     0.083 A 
ATOM      2  C   UNL     1       9.231 -56.226 -23.007  1.00  0.00     0.320 A 
ATOM      3  N   UNL     1      10.317 -55.536 -22.592  1.00  0.00    -0.200 N 
ATOM      4  C   UNL     1      11.356 -56.180 -22.016  1.00  0.00     0.308 A 
ATOM      5  C   UNL     1      11.345 -57.564 -21.884  1.00  0.00     0.075 A 
ATOM      6  C   UNL     1      10.246 -58.310 -22.335  1.00  0.00    -0.021 A 
ENDROOT
BRANCH   1   7
ATOM      7  C   UNL     1       7.941 -58.248 -23.411  1.00  0.00     0.121 C 
ATOM      8  C   UNL     1       6.962 -58.722 -22.635  1.00  0.00     0.059 C 
BRANCH   7   9
ATOM      9  O   UNL     1       7.861 -58.251 -24.783  1.00  0.00    -0.508 OA
ATOM     10  H   UNL     1       8.146 -59.129 -25.101  1.00  0.00     0.293 HD
ENDBRANCH   7   9
ENDBRANCH   1   7
BRANCH   6  11
ATOM     11  C   UNL     1      10.313 -59.828 -22.243  1.00  0.00     0.071 C 
BRANCH  11  12
ATOM     12  C   UNL     1       9.918 -60.537 -23.518  1.00  0.00    -0.023 C 
ATOM     13  C   UNL     1       9.137 -61.634 -23.530  1.00  0.00     0.122 C 
ATOM     14  C   UNL     1      10.468 -59.982 -24.814  1.00  0.00     0.040 C 
ATOM     15  C   UNL     1       8.719 -62.257 -24.803  1.00  0.00     0.020 A 
ATOM     16  C   UNL     1      10.632 -61.050 -25.903  1.00  0.00     0.041 C 
ATOM     17  C   UNL     1       7.609 -63.106 -24.890  1.00  0.00     0.016 A 
ATOM     18  C   UNL     1       9.439 -61.968 -25.979  1.00  0.00    -0.033 A 
ATOM     19  C   UNL     1       7.250 -63.684 -26.111  1.00  0.00     0.047 A 
ATOM     20  C   UNL     1       9.082 -62.567 -27.199  1.00  0.00     0.050 A 
ATOM     21  C   UNL     1       7.987 -63.426 -27.268  1.00  0.00     0.119 A 
BRANCH  13  22
ATOM     22  O   UNL     1       8.704 -62.214 -22.358  1.00  0.00    -0.507 OA
ATOM     23  H   UNL     1       9.476 -62.637 -21.939  1.00  0.00     0.293 HD
ENDBRANCH  13  22
BRANCH  21  24
ATOM     24  O   UNL     1       7.529 -64.063 -28.388  1.00  0.00    -0.497 OA
ATOM     25  C   UNL     1       8.304 -63.925 -29.573  1.00  0.00     0.278 C 
ENDBRANCH  21  24
ENDBRANCH  11  12
ENDBRANCH   6  11
BRANCH   3  26
ATOM     26  C   UNL     1      10.348 -54.059 -22.749  1.00  0.00     0.393 C 
BRANCH  26  27
ATOM     27  C   UNL     1      11.411 -53.608 -23.724  1.00  0.00     0.020 A 
ATOM     28  C   UNL     1      11.754 -54.471 -24.784  1.00  0.00     0.010 A 
ATOM     29  C   UNL     1      12.068 -52.361 -23.615  1.00  0.00    -0.042 A 
ATOM     30  C   UNL     1      12.705 -54.099 -25.733  1.00  0.00     0.001 A 
ATOM     31  C   UNL     1      13.012 -52.001 -24.591  1.00  0.00     0.004 A 
ATOM     32  C   UNL     1      13.330 -52.862 -25.639  1.00  0.00     0.000 A 
ATOM     33  C   UNL     1      11.779 -51.376 -22.514  1.00  0.00     0.045 C 
ENDBRANCH  26  27
ENDBRANCH   3  26
TORSDOF 8
ENDMDL
MODEL 5
REMARK VINA RESULT:   -10.251      2.813      9.137
REMARK INTER + INTRA:         -15.541
REMARK INTER:                 -14.848
REMARK INTRA:                  -0.693
REMARK UNBOUND:                -1.094
REMARK SMILES C=C(O)c1c[n+](Cc2ccccc2C)ccc1CC1=C(O)c2ccc(OC)cc2CC1
REMARK SMILES IDX 4 1 5 2 6 3 15 4 16 5 17 6 2 7 1 8 3 9 18 11 19 12 20 13
REMARK SMILES IDX 31 14 22 15 30 16 23 17 29 18 24 19 28 20 25 21 21 22 26 24
REMARK SMILES IDX 27 25 7 26 8 27 9 28 13 29 10 30 12 31 11 32 14 33
REMARK H PARENT 3 10 21 23
ROOT
ATOM      1  C   UNL     1      10.208 -58.600 -22.511  1.00  0.00     0.083 A 
ATOM      2  C   UNL     1       9.764 -59.773 -23.129  1.00  0.00     0.320 A 
ATOM      3  N   UNL     1       8.676 -59.784 -23.931  1.00  0.00    -0.200 N 
ATOM      4  C   UNL     1       7.964 -58.653 -24.132  1.00  0.00     0.308 A 
ATOM      5  C   UNL     1       8.366 -57.453 -23.556  1.00  0.00     0.075 A 
ATOM      6  C   UNL     1       9.509 -57.403 -22.746  1.00  0.00    -0.021 A 
ENDROOT
BRANCH   1   7
ATOM      7  C   UNL     1      11.422 -58.714 -21.697  1.00  0.00     0.121 C 
ATOM      8  C   UNL     1      11.452 -58.492 -20.379  1.00  0.00     0.059 C 
BRANCH   7   9
ATOM      9  O   UNL     1      12.525 -59.139 -22.399  1.00  0.00    -0.508 OA
ATOM     10  H   UNL     1      13.137 -59.567 -21.770  1.00  0.00     0.293 HD
ENDBRANCH   7   9
ENDBRANCH   1   7
BRANCH   6  11
ATOM     11  C   UNL     1       9.956 -56.053 -22.203  1.00  0.00     0.071 C 
BRANCH  11  12
ATOM     12  C   UNL     1      10.869 -55.289 -23.135  1.00  0.00    -0.023 C 
ATOM     13  C   UNL     1      10.871 -53.945 -23.214  1.00  0.00     0.122 C 
ATOM     14  C   UNL     1      11.784 -56.104 -24.024  1.00  0.00     0.040 C 
ATOM     15  C   UNL     1      11.826 -53.235 -24.089  1.00  0.00     0.020 A 
ATOM     16  C   UNL     1      12.127 -55.396 -25.341  1.00  0.00     0.041 C 
ATOM     17  C   UNL     1      12.150 -51.886 -23.901  1.00  0.00     0.016 A 
ATOM     18  C   UNL     1      12.460 -53.941 -25.130  1.00  0.00    -0.033 A 
ATOM     19  C   UNL     1      13.053 -51.247 -24.755  1.00  0.00     0.047 A 
ATOM     20  C   UNL     1      13.353 -53.286 -25.995  1.00  0.00     0.050 A 
ATOM     21  C   UNL     1      13.652 -51.937 -25.810  1.00  0.00     0.119 A 
BRANCH  13  22
ATOM     22  O   UNL     1       9.980 -53.187 -22.486  1.00  0.00    -0.507 OA
ATOM     23  H   UNL     1      10.257 -52.256 -22.562  1.00  0.00     0.293 HD
ENDBRANCH  13  22
BRANCH  21  24
ATOM     24  O   UNL     1      14.506 -51.187 -26.569  1.00  0.00    -0.497 OA
ATOM     25  C   UNL     1      14.431 -49.774 -26.422  1.00  0.00     0.278 C 
ENDBRANCH  21  24
ENDBRANCH  11  12
ENDBRANCH   6  11
BRANCH   3  26
ATOM     26  C   UNL     1       8.252 -61.057 -24.568  1.00  0.00     0.393 C 
BRANCH  26  27
ATOM     27  C   UNL     1       8.858 -61.242 -25.940  1.00  0.00     0.020 A 
ATOM     28  C   UNL     1       9.774 -60.275 -26.401  1.00  0.00     0.010 A 
ATOM     29  C   UNL     1       8.543 -62.340 -26.773  1.00  0.00    -0.042 A 
ATOM     30  C   UNL     1      10.390 -60.406 -27.644  1.00  0.00     0.001 A 
ATOM     31  C   UNL     1       9.185 -62.458 -28.016  1.00  0.00     0.004 A 
ATOM     32  C   UNL     1      10.099 -61.500 -28.450  1.00  0.00     0.000 A 
ATOM     33  C   UNL     1       7.569 -63.416 -26.375  1.00  0.00     0.045 C 
ENDBRANCH  26  27
ENDBRANCH   3  26
TORSDOF 8
ENDMDL
MODEL 6
REMARK VINA RESULT:    -9.995      2.623      9.723
REMARK INTER + INTRA:         -15.180
REMARK INTER:                 -14.716
REMARK INTRA:                  -0.465
REMARK UNBOUND:                -1.094
REMARK SMILES C=C(O)c1c[n+](Cc2ccccc2C)ccc1CC1=C(O)c2ccc(OC)cc2CC1
REMARK SMILES IDX 4 1 5 2 6 3 15 4 16 5 17 6 2 7 1 8 3 9 18 11 19 12 20 13
REMARK SMILES IDX 31 14 22 15 30 16 23 17 29 18 24 19 28 20 25 21 21 22 26 24
REMARK SMILES IDX 27 25 7 26 8 27 9 28 13 29 10 30 12 31 11 32 14 33
REMARK H PARENT 3 10 21 23
ROOT
ATOM      1  C   UNL     1      10.554 -58.982 -22.992  1.00  0.00     0.083 A 
ATOM      2  C   UNL     1      10.606 -60.079 -23.856  1.00  0.00     0.320 A 
ATOM      3  N   UNL     1       9.704 -60.241 -24.851  1.00  0.00    -0.200 N 
ATOM      4  C   UNL     1       8.701 -59.350 -25.015  1.00  0.00     0.308 A 
ATOM      5  C   UNL     1       8.607 -58.232 -24.196  1.00  0.00     0.075 A 
ATOM      6  C   UNL     1       9.547 -58.019 -23.176  1.00  0.00    -0.021 A 
ENDROOT
BRANCH   1   7
ATOM      7  C   UNL     1      11.613 -58.902 -21.980  1.00  0.00     0.121 C 
ATOM      8  C   UNL     1      11.395 -58.550 -20.710  1.00  0.00     0.059 C 
BRANCH   7   9
ATOM      9  O   UNL     1      12.849 -59.290 -22.437  1.00  0.00    -0.508 OA
ATOM     10  H   UNL     1      12.720 -59.815 -23.250  1.00  0.00     0.293 HD
ENDBRANCH   7   9
ENDBRANCH   1   7
BRANCH   6  11
ATOM     11  C   UNL     1       9.452 -56.740 -22.356  1.00  0.00     0.071 C 
BRANCH  11  12
ATOM     12  C   UNL     1      10.322 -55.616 -22.871  1.00  0.00    -0.023 C 
ATOM     13  C   UNL     1      10.163 -54.336 -22.485  1.00  0.00     0.122 C 
ATOM     14  C   UNL     1      11.384 -55.977 -23.888  1.00  0.00     0.040 C 
ATOM     15  C   UNL     1      11.078 -53.278 -22.961  1.00  0.00     0.020 A 
ATOM     16  C   UNL     1      11.721 -54.821 -24.840  1.00  0.00     0.041 C 
ATOM     17  C   UNL     1      11.221 -52.057 -22.290  1.00  0.00     0.016 A 
ATOM     18  C   UNL     1      11.858 -53.509 -24.110  1.00  0.00    -0.033 A 
ATOM     19  C   UNL     1      12.090 -51.077 -22.776  1.00  0.00     0.047 A 
ATOM     20  C   UNL     1      12.716 -52.512 -24.602  1.00  0.00     0.050 A 
ATOM     21  C   UNL     1      12.836 -51.294 -23.937  1.00  0.00     0.119 A 
BRANCH  13  22
ATOM     22  O   UNL     1       9.141 -53.969 -21.637  1.00  0.00    -0.507 OA
ATOM     23  H   UNL     1       8.314 -54.337 -21.998  1.00  0.00     0.293 HD
ENDBRANCH  13  22
BRANCH  21  24
ATOM     24  O   UNL     1      13.637 -50.248 -24.301  1.00  0.00    -0.497 OA
ATOM     25  C   UNL     1      14.258 -50.325 -25.579  1.00  0.00     0.278 C 
ENDBRANCH  21  24
ENDBRANCH  11  12
ENDBRANCH   6  11
BRANCH   3  26
ATOM     26  C   UNL     1       9.808 -61.422 -25.746  1.00  0.00     0.393 C 
BRANCH  26  27
ATOM     27  C   UNL     1       8.775 -62.478 -25.425  1.00  0.00     0.020 A 
ATOM     28  C   UNL     1       8.589 -62.843 -24.077  1.00  0.00     0.010 A 
ATOM     29  C   UNL     1       7.994 -63.108 -26.421  1.00  0.00    -0.042 A 
ATOM     30  C   UNL     1       7.631 -63.788 -23.716  1.00  0.00     0.001 A 
ATOM     31  C   UNL     1       7.025 -64.048 -26.032  1.00  0.00     0.004 A 
ATOM     32  C   UNL     1       6.846 -64.387 -24.692  1.00  0.00     0.000 A 
ATOM     33  C   UNL     1       8.126 -62.795 -27.887  1.00  0.00     0.045 C 
ENDBRANCH  26  27
ENDBRANCH   3  26
TORSDOF 8
ENDMDL
MODEL 7
REMARK VINA RESULT:    -9.781      2.402      4.821
REMARK INTER + INTRA:         -14.878
REMARK INTER:                 -14.646
REMARK INTRA:                  -0.233
REMARK UNBOUND:                -1.094
REMARK SMILES C=C(O)c1c[n+](Cc2ccccc2C)ccc1CC1=C(O)c2ccc(OC)cc2CC1
REMARK SMILES IDX 4 1 5 2 6 3 15 4 16 5 17 6 2 7 1 8 3 9 18 11 19 12 20 13
REMARK SMILES IDX 31 14 22 15 30 16 23 17 29 18 24 19 28 20 25 21 21 22 26 24
REMARK SMILES IDX 27 25 7 26 8 27 9 28 13 29 10 30 12 31 11 32 14 33
REMARK H PARENT 3 10 21 23
ROOT
ATOM      1  C   UNL     1      11.339 -57.473 -22.762  1.00  0.00     0.083 A 
ATOM      2  C   UNL     1      10.922 -56.149 -22.598  1.00  0.00     0.320 A 
ATOM      3  N   UNL     1      11.182 -55.203 -23.528  1.00  0.00    -0.200 N 
ATOM      4  C   UNL     1      11.889 -55.513 -24.638  1.00  0.00     0.308 A 
ATOM      5  C   UNL     1      12.318 -56.816 -24.863  1.00  0.00     0.075 A 
ATOM      6  C   UNL     1      12.034 -57.826 -23.932  1.00  0.00    -0.021 A 
ENDROOT
BRANCH   1   7
ATOM      7  C   UNL     1      10.960 -58.410 -21.699  1.00  0.00     0.121 C 
ATOM      8  C   UNL     1      11.575 -58.470 -20.514  1.00  0.00     0.059 C 
BRANCH   7   9
ATOM      9  O   UNL     1       9.865 -59.182 -22.003  1.00  0.00    -0.508 OA
ATOM     10  H   UNL     1       9.986 -59.538 -22.904  1.00  0.00     0.293 HD
ENDBRANCH   7   9
ENDBRANCH   1   7
BRANCH   6  11
ATOM     11  C   UNL     1      12.454 -59.252 -24.258  1.00  0.00     0.071 C 
BRANCH  11  12
ATOM     12  C   UNL     1      11.348 -60.095 -24.853  1.00  0.00    -0.023 C 
ATOM     13  C   UNL     1      10.844 -61.179 -24.233  1.00  0.00     0.122 C 
ATOM     14  C   UNL     1      10.833 -59.692 -26.218  1.00  0.00     0.040 C 
ATOM     15  C   UNL     1       9.718 -61.936 -24.819  1.00  0.00     0.020 A 
ATOM     16  C   UNL     1      10.288 -60.876 -27.028  1.00  0.00     0.041 C 
ATOM     17  C   UNL     1       8.906 -62.779 -24.050  1.00  0.00     0.016 A 
ATOM     18  C   UNL     1       9.427 -61.786 -26.188  1.00  0.00    -0.033 A 
ATOM     19  C   UNL     1       7.855 -63.485 -24.642  1.00  0.00     0.047 A 
ATOM     20  C   UNL     1       8.381 -62.513 -26.779  1.00  0.00     0.050 A 
ATOM     21  C   UNL     1       7.591 -63.364 -26.007  1.00  0.00     0.119 A 
BRANCH  13  22
ATOM     22  O   UNL     1      11.364 -61.622 -23.036  1.00  0.00    -0.507 OA
ATOM     23  H   UNL     1      10.734 -62.267 -22.665  1.00  0.00     0.293 HD
ENDBRANCH  13  22
BRANCH  21  24
ATOM     24  O   UNL     1       6.541 -64.117 -26.453  1.00  0.00    -0.497 OA
ATOM     25  C   UNL     1       5.942 -65.008 -25.519  1.00  0.00     0.278 C 
ENDBRANCH  21  24
ENDBRANCH  11  12
ENDBRANCH   6  11
BRANCH   3  26
ATOM     26  C   UNL     1      10.710 -53.813 -23.308  1.00  0.00     0.393 C 
BRANCH  26  27
ATOM     27  C   UNL     1      11.780 -52.788 -23.605  1.00  0.00     0.020 A 
ATOM     28  C   UNL     1      12.521 -52.924 -24.797  1.00  0.00     0.010 A 
ATOM     29  C   UNL     1      12.065 -51.707 -22.740  1.00  0.00    -0.042 A 
ATOM     30  C   UNL     1      13.501 -51.994 -25.141  1.00  0.00     0.001 A 
ATOM     31  C   UNL     1      13.047 -50.775 -23.114  1.00  0.00     0.004 A 
ATOM     32  C   UNL     1      13.760 -50.918 -24.303  1.00  0.00     0.000 A 
ATOM     33  C   UNL     1      11.337 -51.484 -21.442  1.00  0.00     0.045 C 
ENDBRANCH  26  27
ENDBRANCH   3  26
TORSDOF 8
ENDMDL
MODEL 8
REMARK VINA RESULT:    -9.433      2.768      9.774
REMARK INTER + INTRA:         -14.388
REMARK INTER:                 -14.711
REMARK INTRA:                   0.323
REMARK UNBOUND:                -1.094
REMARK SMILES C=C(O)c1c[n+](Cc2ccccc2C)ccc1CC1=C(O)c2ccc(OC)cc2CC1
REMARK SMILES IDX 4 1 5 2 6 3 15 4 16 5 17 6 2 7 1 8 3 9 18 11 19 12 20 13
REMARK SMILES IDX 31 14 22 15 30 16 23 17 29 18 24 19 28 20 25 21 21 22 26 24
REMARK SMILES IDX 27 25 7 26 8 27 9 28 13 29 10 30 12 31 11 32 14 33
REMARK H PARENT 3 10 21 23
ROOT
ATOM      1  C   UNL     1      12.037 -58.868 -25.017  1.00  0.00     0.083 A 
ATOM      2  C   UNL     1      11.520 -59.715 -24.032  1.00  0.00     0.320 A 
ATOM      3  N   UNL     1      11.122 -59.243 -22.829  1.00  0.00    -0.200 N 
ATOM      4  C   UNL     1      11.246 -57.930 -22.536  1.00  0.00     0.308 A 
ATOM      5  C   UNL     1      11.739 -57.037 -23.480  1.00  0.00     0.075 A 
ATOM      6  C   UNL     1      12.129 -57.492 -24.749  1.00  0.00    -0.021 A 
ENDROOT
BRANCH   1   7
ATOM      7  C   UNL     1      12.396 -59.498 -26.291  1.00  0.00     0.121 C 
ATOM      8  C   UNL     1      11.696 -59.336 -27.419  1.00  0.00     0.059 C 
BRANCH   7   9
ATOM      9  O   UNL     1      13.563 -60.222 -26.245  1.00  0.00    -0.508 OA
ATOM     10  H   UNL     1      14.306 -59.607 -26.398  1.00  0.00     0.293 HD
ENDBRANCH   7   9
ENDBRANCH   1   7
BRANCH   6  11
ATOM     11  C   UNL     1      12.588 -56.468 -25.777  1.00  0.00     0.071 C 
BRANCH  11  12
ATOM     12  C   UNL     1      12.495 -55.036 -25.300  1.00  0.00    -0.023 C 
ATOM     13  C   UNL     1      13.411 -54.101 -25.617  1.00  0.00     0.122 C 
ATOM     14  C   UNL     1      11.326 -54.682 -24.405  1.00  0.00     0.040 C 
ATOM     15  C   UNL     1      13.247 -52.698 -25.185  1.00  0.00     0.020 A 
ATOM     16  C   UNL     1      11.636 -53.529 -23.442  1.00  0.00     0.041 C 
ATOM     17  C   UNL     1      13.916 -51.641 -25.815  1.00  0.00     0.016 A 
ATOM     18  C   UNL     1      12.368 -52.402 -24.126  1.00  0.00    -0.033 A 
ATOM     19  C   UNL     1      13.741 -50.326 -25.373  1.00  0.00     0.047 A 
ATOM     20  C   UNL     1      12.212 -51.081 -23.676  1.00  0.00     0.050 A 
ATOM     21  C   UNL     1      12.898 -50.039 -24.299  1.00  0.00     0.119 A 
BRANCH  13  22
ATOM     22  O   UNL     1      14.534 -54.423 -26.348  1.00  0.00    -0.507 OA
ATOM     23  H   UNL     1      14.265 -55.068 -27.028  1.00  0.00     0.293 HD
ENDBRANCH  13  22
BRANCH  21  24
ATOM     24  O   UNL     1      12.829 -48.715 -23.968  1.00  0.00    -0.497 OA
ATOM     25  C   UNL     1      14.056 -48.054 -23.685  1.00  0.00     0.278 C 
ENDBRANCH  21  24
ENDBRANCH  11  12
ENDBRANCH   6  11
BRANCH   3  26
ATOM     26  C   UNL     1      10.573 -60.185 -21.820  1.00  0.00     0.393 C 
BRANCH  26  27
ATOM     27  C   UNL     1       9.586 -61.159 -22.422  1.00  0.00     0.020 A 
ATOM     28  C   UNL     1       9.925 -62.526 -22.443  1.00  0.00     0.010 A 
ATOM     29  C   UNL     1       8.343 -60.752 -22.960  1.00  0.00    -0.042 A 
ATOM     30  C   UNL     1       9.043 -63.476 -22.956  1.00  0.00     0.001 A 
ATOM     31  C   UNL     1       7.465 -61.728 -23.459  1.00  0.00     0.004 A 
ATOM     32  C   UNL     1       7.812 -63.077 -23.460  1.00  0.00     0.000 A 
ATOM     33  C   UNL     1       7.896 -59.315 -22.993  1.00  0.00     0.045 C 
ENDBRANCH  26  27
ENDBRANCH   3  26
TORSDOF 8
ENDMDL
MODEL 9
REMARK VINA RESULT:    -9.105      3.114      6.348
REMARK INTER + INTRA:         -13.926
REMARK INTER:                 -12.847
REMARK INTRA:                  -1.079
REMARK UNBOUND:                -1.094
REMARK SMILES C=C(O)c1c[n+](Cc2ccccc2C)ccc1CC1=C(O)c2ccc(OC)cc2CC1
REMARK SMILES IDX 4 1 5 2 6 3 15 4 16 5 17 6 2 7 1 8 3 9 18 11 19 12 20 13
REMARK SMILES IDX 31 14 22 15 30 16 23 17 29 18 24 19 28 20 25 21 21 22 26 24
REMARK SMILES IDX 27 25 7 26 8 27 9 28 13 29 10 30 12 31 11 32 14 33
REMARK H PARENT 3 10 21 23
ROOT
ATOM      1  C   UNL     1      15.208 -48.977 -24.215  1.00  0.00     0.083 A 
ATOM      2  C   UNL     1      15.931 -48.357 -25.238  1.00  0.00     0.320 A 
ATOM      3  N   UNL     1      15.349 -47.478 -26.085  1.00  0.00    -0.200 N 
ATOM      4  C   UNL     1      14.031 -47.199 -25.980  1.00  0.00     0.308 A 
ATOM      5  C   UNL     1      13.264 -47.775 -24.974  1.00  0.00     0.075 A 
ATOM      6  C   UNL     1      13.846 -48.665 -24.060  1.00  0.00    -0.021 A 
ENDROOT
BRANCH   1   7
ATOM      7  C   UNL     1      15.964 -49.880 -23.341  1.00  0.00     0.121 C 
ATOM      8  C   UNL     1      16.428 -51.071 -23.733  1.00  0.00     0.059 C 
BRANCH   7   9
ATOM      9  O   UNL     1      16.217 -49.363 -22.093  1.00  0.00    -0.508 OA
ATOM     10  H   UNL     1      15.656 -48.573 -21.974  1.00  0.00     0.293 HD
ENDBRANCH   7   9
ENDBRANCH   1   7
BRANCH   6  11
ATOM     11  C   UNL     1      12.987 -49.208 -22.927  1.00  0.00     0.071 C 
BRANCH  11  12
ATOM     12  C   UNL     1      12.456 -50.602 -23.174  1.00  0.00    -0.023 C 
ATOM     13  C   UNL     1      11.852 -51.332 -22.218  1.00  0.00     0.122 C 
ATOM     14  C   UNL     1      12.657 -51.180 -24.559  1.00  0.00     0.040 C 
ATOM     15  C   UNL     1      11.287 -52.664 -22.519  1.00  0.00     0.020 A 
ATOM     16  C   UNL     1      12.755 -52.711 -24.561  1.00  0.00     0.041 C 
ATOM     17  C   UNL     1      10.315 -53.263 -21.709  1.00  0.00     0.016 A 
ATOM     18  C   UNL     1      11.714 -53.346 -23.675  1.00  0.00    -0.033 A 
ATOM     19  C   UNL     1       9.810 -54.528 -22.023  1.00  0.00     0.047 A 
ATOM     20  C   UNL     1      11.215 -54.625 -23.973  1.00  0.00     0.050 A 
ATOM     21  C   UNL     1      10.261 -55.219 -23.148  1.00  0.00     0.119 A 
BRANCH  13  22
ATOM     22  O   UNL     1      11.746 -50.865 -20.926  1.00  0.00    -0.507 OA
ATOM     23  H   UNL     1      12.602 -50.465 -20.688  1.00  0.00     0.293 HD
ENDBRANCH  13  22
BRANCH  21  24
ATOM     24  O   UNL     1       9.689 -56.447 -23.328  1.00  0.00    -0.497 OA
ATOM     25  C   UNL     1      10.394 -57.570 -22.813  1.00  0.00     0.278 C 
ENDBRANCH  21  24
ENDBRANCH  11  12
ENDBRANCH   6  11
BRANCH   3  26
ATOM     26  C   UNL     1      16.165 -46.841 -27.150  1.00  0.00     0.393 C 
BRANCH  26  27
ATOM     27  C   UNL     1      15.775 -47.314 -28.532  1.00  0.00     0.020 A 
ATOM     28  C   UNL     1      14.810 -46.573 -29.243  1.00  0.00     0.010 A 
ATOM     29  C   UNL     1      16.338 -48.462 -29.133  1.00  0.00    -0.042 A 
ATOM     30  C   UNL     1      14.431 -46.941 -30.533  1.00  0.00     0.001 A 
ATOM     31  C   UNL     1      15.951 -48.806 -30.439  1.00  0.00     0.004 A 
ATOM     32  C   UNL     1      15.005 -48.055 -31.132  1.00  0.00     0.000 A 
ATOM     33  C   UNL     1      17.366 -49.324 -28.451  1.00  0.00     0.045 C 
ENDBRANCH  26  27
ENDBRANCH   3  26
TORSDOF 8
ENDMDL
