MODEL 1
REMARK VINA RESULT:   -12.104      0.000      0.000
REMARK INTER + INTRA:         -16.982
REMARK INTER:                 -16.350
REMARK INTRA:                  -0.632
REMARK UNBOUND:                -0.632
REMARK SMILES COc1cc2c(cc1OC)C(=O)/C(=C/c1cc[n+](Cc3cccc(F)c3)cc1)C2
REMARK SMILES IDX 15 1 16 2 17 3 18 4 27 5 28 6 14 7 13 8 3 9 4 10 8 11 5 12
REMARK SMILES IDX 7 13 6 14 29 15 11 16 12 17 2 18 1 19 9 20 10 21 19 22 20 23
REMARK SMILES IDX 21 24 26 25 22 26 24 27 23 28 25 29
REMARK H PARENT
ROOT
ATOM      1  C   UNL     1      10.485 -57.281 -23.019  1.00  0.00    -0.013 A 
ATOM      2  C   UNL     1       9.331 -57.983 -23.358  1.00  0.00     0.079 A 
ATOM      3  C   UNL     1       9.438 -59.217 -23.991  1.00  0.00     0.309 A 
ATOM      4  N   UNL     1      10.651 -59.747 -24.270  1.00  0.00    -0.201 N 
ATOM      5  C   UNL     1      11.784 -59.082 -23.941  1.00  0.00     0.309 A 
ATOM      6  C   UNL     1      11.724 -57.845 -23.308  1.00  0.00     0.079 A 
ENDROOT
BRANCH   1   7
ATOM      7  C   UNL     1      10.365 -56.004 -22.316  1.00  0.00     0.016 C 
BRANCH   7   8
ATOM      8  C   UNL     1      10.922 -54.851 -22.713  1.00  0.00     0.005 C 
ATOM      9  C   UNL     1      12.804 -50.824 -24.277  1.00  0.00     0.161 A 
ATOM     10  C   UNL     1      12.648 -52.176 -24.636  1.00  0.00     0.055 A 
ATOM     11  C   UNL     1      12.305 -50.343 -23.037  1.00  0.00     0.161 A 
ATOM     12  C   UNL     1      11.972 -53.028 -23.784  1.00  0.00    -0.028 A 
ATOM     13  C   UNL     1      11.614 -51.219 -22.188  1.00  0.00     0.063 A 
ATOM     14  C   UNL     1      11.467 -52.537 -22.586  1.00  0.00     0.030 A 
ATOM     15  C   UNL     1      11.688 -54.487 -23.960  1.00  0.00     0.076 C 
ATOM     16  C   UNL     1      10.797 -53.622 -21.866  1.00  0.00     0.189 C 
ATOM     17  O   UNL     1      10.242 -53.539 -20.789  1.00  0.00    -0.289 OA
BRANCH   9  18
ATOM     18  O   UNL     1      13.502 -50.115 -25.223  1.00  0.00    -0.493 OA
ATOM     19  C   UNL     1      13.956 -50.824 -26.370  1.00  0.00     0.278 C 
ENDBRANCH   9  18
BRANCH  11  20
ATOM     20  O   UNL     1      12.548 -49.033 -22.720  1.00  0.00    -0.493 OA
ATOM     21  C   UNL     1      11.459 -48.118 -22.753  1.00  0.00     0.278 C 
ENDBRANCH  11  20
ENDBRANCH   7   8
ENDBRANCH   1   7
BRANCH   4  22
ATOM     22  C   UNL     1      10.746 -61.067 -24.947  1.00  0.00     0.393 C 
BRANCH  22  23
ATOM     23  C   UNL     1       9.788 -62.061 -24.343  1.00  0.00     0.020 A 
ATOM     24  C   UNL     1      10.045 -62.622 -23.080  1.00  0.00     0.010 A 
ATOM     25  C   UNL     1       8.632 -62.455 -25.032  1.00  0.00     0.049 A 
ATOM     26  C   UNL     1       9.157 -63.542 -22.515  1.00  0.00     0.004 A 
ATOM     27  C   UNL     1       7.756 -63.373 -24.457  1.00  0.00     0.123 A 
ATOM     28  C   UNL     1       8.007 -63.916 -23.205  1.00  0.00     0.039 A 
ATOM     29  F   UNL     1       6.654 -63.731 -25.127  1.00  0.00    -0.207 F 
ENDBRANCH  22  23
ENDBRANCH   4  22
TORSDOF 6
ENDMDL
MODEL 2
REMARK VINA RESULT:   -11.375      1.262      1.567
REMARK INTER + INTRA:         -15.996
REMARK INTER:                 -15.437
REMARK INTRA:                  -0.560
REMARK UNBOUND:                -0.632
REMARK SMILES COc1cc2c(cc1OC)C(=O)/C(=C/c1cc[n+](Cc3cccc(F)c3)cc1)C2
REMARK SMILES IDX 15 1 16 2 17 3 18 4 27 5 28 6 14 7 13 8 3 9 4 10 8 11 5 12
REMARK SMILES IDX 7 13 6 14 29 15 11 16 12 17 2 18 1 19 9 20 10 21 19 22 20 23
REMARK SMILES IDX 21 24 26 25 22 26 24 27 23 28 25 29
REMARK H PARENT
ROOT
ATOM      1  C   UNL     1      10.148 -57.147 -22.740  1.00  0.00    -0.013 A 
ATOM      2  C   UNL     1       9.093 -57.959 -23.149  1.00  0.00     0.079 A 
ATOM      3  C   UNL     1       9.302 -59.324 -23.319  1.00  0.00     0.309 A 
ATOM      4  N   UNL     1      10.515 -59.872 -23.080  1.00  0.00    -0.201 N 
ATOM      5  C   UNL     1      11.551 -59.099 -22.676  1.00  0.00     0.309 A 
ATOM      6  C   UNL     1      11.388 -57.730 -22.495  1.00  0.00     0.079 A 
ENDROOT
BRANCH   1   7
ATOM      7  C   UNL     1       9.910 -55.721 -22.523  1.00  0.00     0.016 C 
BRANCH   7   8
ATOM      8  C   UNL     1      10.674 -54.731 -23.006  1.00  0.00     0.005 C 
ATOM      9  C   UNL     1      13.280 -51.277 -24.872  1.00  0.00     0.161 A 
ATOM     10  C   UNL     1      12.883 -52.605 -25.114  1.00  0.00     0.055 A 
ATOM     11  C   UNL     1      12.866 -50.600 -23.695  1.00  0.00     0.161 A 
ATOM     12  C   UNL     1      12.053 -53.236 -24.208  1.00  0.00    -0.028 A 
ATOM     13  C   UNL     1      12.017 -51.252 -22.790  1.00  0.00     0.063 A 
ATOM     14  C   UNL     1      11.634 -52.553 -23.072  1.00  0.00     0.030 A 
ATOM     15  C   UNL     1      11.507 -54.630 -24.260  1.00  0.00     0.076 C 
ATOM     16  C   UNL     1      10.769 -53.426 -22.277  1.00  0.00     0.189 C 
ATOM     17  O   UNL     1      10.227 -53.143 -21.228  1.00  0.00    -0.289 OA
BRANCH   9  18
ATOM     18  O   UNL     1      14.107 -50.798 -25.859  1.00  0.00    -0.493 OA
ATOM     19  C   UNL     1      15.510 -50.893 -25.642  1.00  0.00     0.278 C 
ENDBRANCH   9  18
BRANCH  11  20
ATOM     20  O   UNL     1      13.342 -49.332 -23.489  1.00  0.00    -0.493 OA
ATOM     21  C   UNL     1      12.958 -48.652 -22.301  1.00  0.00     0.278 C 
ENDBRANCH  11  20
ENDBRANCH   7   8
ENDBRANCH   1   7
BRANCH   4  22
ATOM     22  C   UNL     1      10.719 -61.332 -23.268  1.00  0.00     0.393 C 
BRANCH  22  23
ATOM     23  C   UNL     1       9.798 -61.881 -24.326  1.00  0.00     0.020 A 
ATOM     24  C   UNL     1       8.724 -62.716 -23.973  1.00  0.00     0.010 A 
ATOM     25  C   UNL     1      10.001 -61.582 -25.682  1.00  0.00     0.049 A 
ATOM     26  C   UNL     1       7.865 -63.225 -24.952  1.00  0.00     0.004 A 
ATOM     27  C   UNL     1       9.137 -62.096 -26.647  1.00  0.00     0.123 A 
ATOM     28  C   UNL     1       8.072 -62.911 -26.294  1.00  0.00     0.039 A 
ATOM     29  F   UNL     1       9.343 -61.792 -27.933  1.00  0.00    -0.207 F 
ENDBRANCH  22  23
ENDBRANCH   4  22
TORSDOF 6
ENDMDL
MODEL 3
REMARK VINA RESULT:   -10.749      1.327      2.383
REMARK INTER + INTRA:         -15.151
REMARK INTER:                 -15.202
REMARK INTRA:                   0.051
REMARK UNBOUND:                -0.632
REMARK SMILES COc1cc2c(cc1OC)C(=O)/C(=C/c1cc[n+](Cc3cccc(F)c3)cc1)C2
REMARK SMILES IDX 15 1 16 2 17 3 18 4 27 5 28 6 14 7 13 8 3 9 4 10 8 11 5 12
REMARK SMILES IDX 7 13 6 14 29 15 11 16 12 17 2 18 1 19 9 20 10 21 19 22 20 23
REMARK SMILES IDX 21 24 26 25 22 26 24 27 23 28 25 29
REMARK H PARENT
ROOT
ATOM      1  C   UNL     1      10.193 -56.877 -22.673  1.00  0.00    -0.013 A 
ATOM      2  C   UNL     1      11.403 -57.342 -22.164  1.00  0.00     0.079 A 
ATOM      3  C   UNL     1      11.823 -58.634 -22.462  1.00  0.00     0.309 A 
ATOM      4  N   UNL     1      11.076 -59.438 -23.252  1.00  0.00    -0.201 N 
ATOM      5  C   UNL     1       9.899 -59.001 -23.761  1.00  0.00     0.309 A 
ATOM      6  C   UNL     1       9.439 -57.718 -23.488  1.00  0.00     0.079 A 
ENDROOT
BRANCH   1   7
ATOM      7  C   UNL     1       9.778 -55.504 -22.390  1.00  0.00     0.016 C 
BRANCH   7   8
ATOM      8  C   UNL     1      10.471 -54.406 -22.720  1.00  0.00     0.005 C 
ATOM      9  C   UNL     1      12.967 -50.532 -23.705  1.00  0.00     0.161 A 
ATOM     10  C   UNL     1      12.050 -51.037 -22.766  1.00  0.00     0.055 A 
ATOM     11  C   UNL     1      13.369 -51.317 -24.819  1.00  0.00     0.161 A 
ATOM     12  C   UNL     1      11.567 -52.323 -22.917  1.00  0.00    -0.028 A 
ATOM     13  C   UNL     1      12.877 -52.622 -24.953  1.00  0.00     0.063 A 
ATOM     14  C   UNL     1      11.990 -53.089 -23.997  1.00  0.00     0.030 A 
ATOM     15  C   UNL     1      10.597 -53.061 -22.048  1.00  0.00     0.076 C 
ATOM     16  C   UNL     1      11.345 -54.402 -23.937  1.00  0.00     0.189 C 
ATOM     17  O   UNL     1      11.495 -55.316 -24.722  1.00  0.00    -0.289 OA
BRANCH   9  18
ATOM     18  O   UNL     1      13.343 -49.242 -23.418  1.00  0.00    -0.493 OA
ATOM     19  C   UNL     1      14.568 -49.057 -22.719  1.00  0.00     0.278 C 
ENDBRANCH   9  18
BRANCH  11  20
ATOM     20  O   UNL     1      14.214 -50.740 -25.731  1.00  0.00    -0.493 OA
ATOM     21  C   UNL     1      15.601 -51.044 -25.650  1.00  0.00     0.278 C 
ENDBRANCH  11  20
ENDBRANCH   7   8
ENDBRANCH   1   7
BRANCH   4  22
ATOM     22  C   UNL     1      11.541 -60.816 -23.560  1.00  0.00     0.393 C 
BRANCH  22  23
ATOM     23  C   UNL     1      10.381 -61.771 -23.675  1.00  0.00     0.020 A 
ATOM     24  C   UNL     1       9.991 -62.554 -22.575  1.00  0.00     0.010 A 
ATOM     25  C   UNL     1       9.677 -61.907 -24.881  1.00  0.00     0.049 A 
ATOM     26  C   UNL     1       8.913 -63.439 -22.676  1.00  0.00     0.004 A 
ATOM     27  C   UNL     1       8.605 -62.792 -24.968  1.00  0.00     0.123 A 
ATOM     28  C   UNL     1       8.216 -63.556 -23.877  1.00  0.00     0.039 A 
ATOM     29  F   UNL     1       7.943 -62.901 -26.125  1.00  0.00    -0.207 F 
ENDBRANCH  22  23
ENDBRANCH   4  22
TORSDOF 6
ENDMDL
MODEL 4
REMARK VINA RESULT:   -10.562      2.552      3.934
REMARK INTER + INTRA:         -14.898
REMARK INTER:                 -14.366
REMARK INTRA:                  -0.532
REMARK UNBOUND:                -0.632
REMARK SMILES COc1cc2c(cc1OC)C(=O)/C(=C/c1cc[n+](Cc3cccc(F)c3)cc1)C2
REMARK SMILES IDX 15 1 16 2 17 3 18 4 27 5 28 6 14 7 13 8 3 9 4 10 8 11 5 12
REMARK SMILES IDX 7 13 6 14 29 15 11 16 12 17 2 18 1 19 9 20 10 21 19 22 20 23
REMARK SMILES IDX 21 24 26 25 22 26 24 27 23 28 25 29
REMARK H PARENT
ROOT
ATOM      1  C   UNL     1      10.652 -53.593 -22.229  1.00  0.00    -0.013 A 
ATOM      2  C   UNL     1      10.979 -53.843 -23.559  1.00  0.00     0.079 A 
ATOM      3  C   UNL     1      11.346 -55.128 -23.947  1.00  0.00     0.309 A 
ATOM      4  N   UNL     1      11.377 -56.138 -23.048  1.00  0.00    -0.201 N 
ATOM      5  C   UNL     1      11.056 -55.914 -21.751  1.00  0.00     0.309 A 
ATOM      6  C   UNL     1      10.684 -54.646 -21.319  1.00  0.00     0.079 A 
ENDROOT
BRANCH   1   7
ATOM      7  C   UNL     1      10.227 -52.250 -21.838  1.00  0.00     0.016 C 
BRANCH   7   8
ATOM      8  C   UNL     1      10.745 -51.108 -22.313  1.00  0.00     0.005 C 
ATOM      9  C   UNL     1      12.612 -47.187 -24.142  1.00  0.00     0.161 A 
ATOM     10  C   UNL     1      12.887 -48.556 -23.969  1.00  0.00     0.055 A 
ATOM     11  C   UNL     1      11.416 -46.618 -23.629  1.00  0.00     0.161 A 
ATOM     12  C   UNL     1      11.963 -49.353 -23.321  1.00  0.00    -0.028 A 
ATOM     13  C   UNL     1      10.486 -47.443 -22.981  1.00  0.00     0.063 A 
ATOM     14  C   UNL     1      10.785 -48.788 -22.846  1.00  0.00     0.030 A 
ATOM     15  C   UNL     1      12.042 -50.820 -23.028  1.00  0.00     0.076 C 
ATOM     16  C   UNL     1       9.977 -49.828 -22.206  1.00  0.00     0.189 C 
ATOM     17  O   UNL     1       8.887 -49.679 -21.691  1.00  0.00    -0.289 OA
BRANCH   9  18
ATOM     18  O   UNL     1      13.629 -46.535 -24.796  1.00  0.00    -0.493 OA
ATOM     19  C   UNL     1      14.917 -47.137 -24.769  1.00  0.00     0.278 C 
ENDBRANCH   9  18
BRANCH  11  20
ATOM     20  O   UNL     1      11.241 -45.267 -23.775  1.00  0.00    -0.493 OA
ATOM     21  C   UNL     1      10.914 -44.502 -22.622  1.00  0.00     0.278 C 
ENDBRANCH  11  20
ENDBRANCH   7   8
ENDBRANCH   1   7
BRANCH   4  22
ATOM     22  C   UNL     1      11.771 -57.504 -23.480  1.00  0.00     0.393 C 
BRANCH  22  23
ATOM     23  C   UNL     1      10.818 -58.542 -22.948  1.00  0.00     0.020 A 
ATOM     24  C   UNL     1      11.231 -59.450 -21.958  1.00  0.00     0.010 A 
ATOM     25  C   UNL     1       9.506 -58.632 -23.438  1.00  0.00     0.049 A 
ATOM     26  C   UNL     1      10.348 -60.412 -21.459  1.00  0.00     0.004 A 
ATOM     27  C   UNL     1       8.637 -59.596 -22.932  1.00  0.00     0.123 A 
ATOM     28  C   UNL     1       9.045 -60.483 -21.947  1.00  0.00     0.039 A 
ATOM     29  F   UNL     1       7.388 -59.660 -23.407  1.00  0.00    -0.207 F 
ENDBRANCH  22  23
ENDBRANCH   4  22
TORSDOF 6
ENDMDL
MODEL 5
REMARK VINA RESULT:   -10.264      4.494     10.086
REMARK INTER + INTRA:         -14.496
REMARK INTER:                 -13.706
REMARK INTRA:                  -0.790
REMARK UNBOUND:                -0.632
REMARK SMILES COc1cc2c(cc1OC)C(=O)/C(=C/c1cc[n+](Cc3cccc(F)c3)cc1)C2
REMARK SMILES IDX 15 1 16 2 17 3 18 4 27 5 28 6 14 7 13 8 3 9 4 10 8 11 5 12
REMARK SMILES IDX 7 13 6 14 29 15 11 16 12 17 2 18 1 19 9 20 10 21 19 22 20 23
REMARK SMILES IDX 21 24 26 25 22 26 24 27 23 28 25 29
REMARK H PARENT
ROOT
ATOM      1  C   UNL     1      10.768 -54.466 -23.002  1.00  0.00    -0.013 A 
ATOM      2  C   UNL     1      11.435 -54.877 -24.153  1.00  0.00     0.079 A 
ATOM      3  C   UNL     1      12.246 -53.978 -24.837  1.00  0.00     0.309 A 
ATOM      4  N   UNL     1      12.403 -52.712 -24.389  1.00  0.00    -0.201 N 
ATOM      5  C   UNL     1      11.767 -52.295 -23.267  1.00  0.00     0.309 A 
ATOM      6  C   UNL     1      10.945 -53.160 -22.553  1.00  0.00     0.079 A 
ENDROOT
BRANCH   1   7
ATOM      7  C   UNL     1       9.951 -55.429 -22.265  1.00  0.00     0.016 C 
BRANCH   7   8
ATOM      8  C   UNL     1       9.704 -56.688 -22.656  1.00  0.00     0.005 C 
ATOM      9  C   UNL     1       8.814 -61.048 -24.204  1.00  0.00     0.161 A 
ATOM     10  C   UNL     1       8.319 -59.733 -24.283  1.00  0.00     0.055 A 
ATOM     11  C   UNL     1       9.949 -61.348 -23.406  1.00  0.00     0.161 A 
ATOM     12  C   UNL     1       8.973 -58.725 -23.602  1.00  0.00    -0.028 A 
ATOM     13  C   UNL     1      10.606 -60.312 -22.727  1.00  0.00     0.063 A 
ATOM     14  C   UNL     1      10.099 -59.028 -22.845  1.00  0.00     0.030 A 
ATOM     15  C   UNL     1       8.632 -57.268 -23.544  1.00  0.00     0.076 C 
ATOM     16  C   UNL     1      10.608 -57.802 -22.227  1.00  0.00     0.189 C 
ATOM     17  O   UNL     1      11.581 -57.708 -21.507  1.00  0.00    -0.289 OA
BRANCH   9  18
ATOM     18  O   UNL     1       8.051 -61.932 -24.928  1.00  0.00    -0.493 OA
ATOM     19  C   UNL     1       6.881 -62.449 -24.307  1.00  0.00     0.278 C 
ENDBRANCH   9  18
BRANCH  11  20
ATOM     20  O   UNL     1      10.338 -62.659 -23.320  1.00  0.00    -0.493 OA
ATOM     21  C   UNL     1       9.702 -63.489 -22.356  1.00  0.00     0.278 C 
ENDBRANCH  11  20
ENDBRANCH   7   8
ENDBRANCH   1   7
BRANCH   4  22
ATOM     22  C   UNL     1      13.273 -51.763 -25.132  1.00  0.00     0.393 C 
BRANCH  22  23
ATOM     23  C   UNL     1      14.667 -51.739 -24.562  1.00  0.00     0.020 A 
ATOM     24  C   UNL     1      14.929 -51.083 -23.347  1.00  0.00     0.010 A 
ATOM     25  C   UNL     1      15.731 -52.358 -25.235  1.00  0.00     0.049 A 
ATOM     26  C   UNL     1      16.221 -51.061 -22.812  1.00  0.00     0.004 A 
ATOM     27  C   UNL     1      17.013 -52.329 -24.691  1.00  0.00     0.123 A 
ATOM     28  C   UNL     1      17.266 -51.689 -23.486  1.00  0.00     0.039 A 
ATOM     29  F   UNL     1      18.012 -52.932 -25.345  1.00  0.00    -0.207 F 
ENDBRANCH  22  23
ENDBRANCH   4  22
TORSDOF 6
ENDMDL
MODEL 6
REMARK VINA RESULT:   -10.215      1.665      2.359
REMARK INTER + INTRA:         -14.430
REMARK INTER:                 -13.966
REMARK INTRA:                  -0.464
REMARK UNBOUND:                -0.632
REMARK SMILES COc1cc2c(cc1OC)C(=O)/C(=C/c1cc[n+](Cc3cccc(F)c3)cc1)C2
REMARK SMILES IDX 15 1 16 2 17 3 18 4 27 5 28 6 14 7 13 8 3 9 4 10 8 11 5 12
REMARK SMILES IDX 7 13 6 14 29 15 11 16 12 17 2 18 1 19 9 20 10 21 19 22 20 23
REMARK SMILES IDX 21 24 26 25 22 26 24 27 23 28 25 29
REMARK H PARENT
ROOT
ATOM      1  C   UNL     1      10.816 -55.724 -22.714  1.00  0.00    -0.013 A 
ATOM      2  C   UNL     1      10.838 -56.706 -21.728  1.00  0.00     0.079 A 
ATOM      3  C   UNL     1      11.376 -57.957 -22.014  1.00  0.00     0.309 A 
ATOM      4  N   UNL     1      11.890 -58.223 -23.236  1.00  0.00    -0.201 N 
ATOM      5  C   UNL     1      11.884 -57.278 -24.206  1.00  0.00     0.309 A 
ATOM      6  C   UNL     1      11.354 -56.015 -23.965  1.00  0.00     0.079 A 
ENDROOT
BRANCH   1   7
ATOM      7  C   UNL     1      10.287 -54.399 -22.393  1.00  0.00     0.016 C 
BRANCH   7   8
ATOM      8  C   UNL     1      10.907 -53.239 -22.650  1.00  0.00     0.005 C 
ATOM      9  C   UNL     1      13.121 -49.221 -23.726  1.00  0.00     0.161 A 
ATOM     10  C   UNL     1      13.274 -50.617 -23.817  1.00  0.00     0.055 A 
ATOM     11  C   UNL     1      11.977 -48.657 -23.102  1.00  0.00     0.161 A 
ATOM     12  C   UNL     1      12.280 -51.438 -23.322  1.00  0.00    -0.028 A 
ATOM     13  C   UNL     1      10.974 -49.505 -22.612  1.00  0.00     0.063 A 
ATOM     14  C   UNL     1      11.153 -50.872 -22.736  1.00  0.00     0.030 A 
ATOM     15  C   UNL     1      12.227 -52.935 -23.312  1.00  0.00     0.076 C 
ATOM     16  C   UNL     1      10.253 -51.939 -22.295  1.00  0.00     0.189 C 
ATOM     17  O   UNL     1       9.178 -51.795 -21.749  1.00  0.00    -0.289 OA
BRANCH   9  18
ATOM     18  O   UNL     1      14.196 -48.549 -24.256  1.00  0.00    -0.493 OA
ATOM     19  C   UNL     1      15.397 -49.285 -24.452  1.00  0.00     0.278 C 
ENDBRANCH   9  18
BRANCH  11  20
ATOM     20  O   UNL     1      11.923 -47.293 -22.988  1.00  0.00    -0.493 OA
ATOM     21  C   UNL     1      10.751 -46.709 -22.432  1.00  0.00     0.278 C 
ENDBRANCH  11  20
ENDBRANCH   7   8
ENDBRANCH   1   7
BRANCH   4  22
ATOM     22  C   UNL     1      12.461 -59.565 -23.524  1.00  0.00     0.393 C 
BRANCH  22  23
ATOM     23  C   UNL     1      11.408 -60.506 -24.049  1.00  0.00     0.020 A 
ATOM     24  C   UNL     1      10.809 -60.280 -25.301  1.00  0.00     0.010 A 
ATOM     25  C   UNL     1      10.995 -61.616 -23.297  1.00  0.00     0.049 A 
ATOM     26  C   UNL     1       9.834 -61.153 -25.793  1.00  0.00     0.004 A 
ATOM     27  C   UNL     1      10.023 -62.477 -23.799  1.00  0.00     0.123 A 
ATOM     28  C   UNL     1       9.442 -62.257 -25.039  1.00  0.00     0.039 A 
ATOM     29  F   UNL     1       9.649 -63.534 -23.069  1.00  0.00    -0.207 F 
ENDBRANCH  22  23
ENDBRANCH   4  22
TORSDOF 6
ENDMDL
MODEL 7
REMARK VINA RESULT:    -9.780      1.718      2.539
REMARK INTER + INTRA:         -13.842
REMARK INTER:                 -13.259
REMARK INTRA:                  -0.583
REMARK UNBOUND:                -0.632
REMARK SMILES COc1cc2c(cc1OC)C(=O)/C(=C/c1cc[n+](Cc3cccc(F)c3)cc1)C2
REMARK SMILES IDX 15 1 16 2 17 3 18 4 27 5 28 6 14 7 13 8 3 9 4 10 8 11 5 12
REMARK SMILES IDX 7 13 6 14 29 15 11 16 12 17 2 18 1 19 9 20 10 21 19 22 20 23
REMARK SMILES IDX 21 24 26 25 22 26 24 27 23 28 25 29
REMARK H PARENT
ROOT
ATOM      1  C   UNL     1       9.956 -57.840 -22.552  1.00  0.00    -0.013 A 
ATOM      2  C   UNL     1      10.582 -59.080 -22.455  1.00  0.00     0.079 A 
ATOM      3  C   UNL     1      10.061 -60.169 -23.145  1.00  0.00     0.309 A 
ATOM      4  N   UNL     1       8.961 -60.034 -23.919  1.00  0.00    -0.201 N 
ATOM      5  C   UNL     1       8.342 -58.834 -24.030  1.00  0.00     0.309 A 
ATOM      6  C   UNL     1       8.827 -57.718 -23.357  1.00  0.00     0.079 A 
ENDROOT
BRANCH   1   7
ATOM      7  C   UNL     1      10.533 -56.690 -21.856  1.00  0.00     0.016 C 
BRANCH   7   8
ATOM      8  C   UNL     1      11.009 -55.588 -22.453  1.00  0.00     0.005 C 
ATOM      9  C   UNL     1      12.605 -51.773 -24.712  1.00  0.00     0.161 A 
ATOM     10  C   UNL     1      12.533 -53.173 -24.838  1.00  0.00     0.055 A 
ATOM     11  C   UNL     1      12.093 -51.122 -23.559  1.00  0.00     0.161 A 
ATOM     12  C   UNL     1      11.925 -53.909 -23.840  1.00  0.00    -0.028 A 
ATOM     13  C   UNL     1      11.472 -51.884 -22.559  1.00  0.00     0.063 A 
ATOM     14  C   UNL     1      11.404 -53.256 -22.728  1.00  0.00     0.030 A 
ATOM     15  C   UNL     1      11.733 -55.392 -23.762  1.00  0.00     0.076 C 
ATOM     16  C   UNL     1      10.816 -54.244 -21.821  1.00  0.00     0.189 C 
ATOM     17  O   UNL     1      10.272 -54.015 -20.761  1.00  0.00    -0.289 OA
BRANCH   9  18
ATOM     18  O   UNL     1      13.243 -51.191 -25.781  1.00  0.00    -0.493 OA
ATOM     19  C   UNL     1      14.616 -51.507 -25.975  1.00  0.00     0.278 C 
ENDBRANCH   9  18
BRANCH  11  20
ATOM     20  O   UNL     1      12.254 -49.764 -23.471  1.00  0.00    -0.493 OA
ATOM     21  C   UNL     1      11.273 -49.013 -22.767  1.00  0.00     0.278 C 
ENDBRANCH  11  20
ENDBRANCH   7   8
ENDBRANCH   1   7
BRANCH   4  22
ATOM     22  C   UNL     1       8.418 -61.209 -24.649  1.00  0.00     0.393 C 
BRANCH  22  23
ATOM     23  C   UNL     1       8.999 -61.306 -26.036  1.00  0.00     0.020 A 
ATOM     24  C   UNL     1       9.952 -60.372 -26.477  1.00  0.00     0.010 A 
ATOM     25  C   UNL     1       8.593 -62.320 -26.917  1.00  0.00     0.049 A 
ATOM     26  C   UNL     1      10.497 -60.461 -27.761  1.00  0.00     0.004 A 
ATOM     27  C   UNL     1       9.144 -62.397 -28.194  1.00  0.00     0.123 A 
ATOM     28  C   UNL     1      10.092 -61.479 -28.622  1.00  0.00     0.039 A 
ATOM     29  F   UNL     1       8.749 -63.375 -29.016  1.00  0.00    -0.207 F 
ENDBRANCH  22  23
ENDBRANCH   4  22
TORSDOF 6
ENDMDL
MODEL 8
REMARK VINA RESULT:    -9.593      2.568      4.273
REMARK INTER + INTRA:         -13.590
REMARK INTER:                 -13.253
REMARK INTRA:                  -0.337
REMARK UNBOUND:                -0.632
REMARK SMILES COc1cc2c(cc1OC)C(=O)/C(=C/c1cc[n+](Cc3cccc(F)c3)cc1)C2
REMARK SMILES IDX 15 1 16 2 17 3 18 4 27 5 28 6 14 7 13 8 3 9 4 10 8 11 5 12
REMARK SMILES IDX 7 13 6 14 29 15 11 16 12 17 2 18 1 19 9 20 10 21 19 22 20 23
REMARK SMILES IDX 21 24 26 25 22 26 24 27 23 28 25 29
REMARK H PARENT
ROOT
ATOM      1  C   UNL     1      10.363 -53.441 -22.157  1.00  0.00    -0.013 A 
ATOM      2  C   UNL     1      10.677 -54.422 -21.220  1.00  0.00     0.079 A 
ATOM      3  C   UNL     1      11.090 -55.678 -21.652  1.00  0.00     0.309 A 
ATOM      4  N   UNL     1      11.202 -55.952 -22.972  1.00  0.00    -0.201 N 
ATOM      5  C   UNL     1      10.907 -55.008 -23.897  1.00  0.00     0.309 A 
ATOM      6  C   UNL     1      10.489 -53.739 -23.511  1.00  0.00     0.079 A 
ENDROOT
BRANCH   1   7
ATOM      7  C   UNL     1       9.970 -52.110 -21.695  1.00  0.00     0.016 C 
BRANCH   7   8
ATOM      8  C   UNL     1      10.462 -50.955 -22.165  1.00  0.00     0.005 C 
ATOM      9  C   UNL     1      12.105 -46.805 -23.676  1.00  0.00     0.161 A 
ATOM     10  C   UNL     1      10.918 -47.423 -23.242  1.00  0.00     0.055 A 
ATOM     11  C   UNL     1      13.311 -47.547 -23.779  1.00  0.00     0.161 A 
ATOM     12  C   UNL     1      10.944 -48.757 -22.881  1.00  0.00    -0.028 A 
ATOM     13  C   UNL     1      13.322 -48.897 -23.402  1.00  0.00     0.063 A 
ATOM     14  C   UNL     1      12.138 -49.464 -22.963  1.00  0.00     0.030 A 
ATOM     15  C   UNL     1       9.816 -49.612 -22.393  1.00  0.00     0.076 C 
ATOM     16  C   UNL     1      11.910 -50.844 -22.529  1.00  0.00     0.189 C 
ATOM     17  O   UNL     1      12.740 -51.728 -22.472  1.00  0.00    -0.289 OA
BRANCH   9  18
ATOM     18  O   UNL     1      11.910 -45.485 -24.002  1.00  0.00    -0.493 OA
ATOM     19  C   UNL     1      11.744 -44.563 -22.932  1.00  0.00     0.278 C 
ENDBRANCH   9  18
BRANCH  11  20
ATOM     20  O   UNL     1      14.415 -46.900 -24.272  1.00  0.00    -0.493 OA
ATOM     21  C   UNL     1      15.591 -46.872 -23.472  1.00  0.00     0.278 C 
ENDBRANCH  11  20
ENDBRANCH   7   8
ENDBRANCH   1   7
BRANCH   4  22
ATOM     22  C   UNL     1      11.644 -57.300 -23.415  1.00  0.00     0.393 C 
BRANCH  22  23
ATOM     23  C   UNL     1      10.719 -58.374 -22.905  1.00  0.00     0.020 A 
ATOM     24  C   UNL     1      11.171 -59.316 -21.965  1.00  0.00     0.010 A 
ATOM     25  C   UNL     1       9.397 -58.463 -23.364  1.00  0.00     0.049 A 
ATOM     26  C   UNL     1      10.315 -60.312 -21.486  1.00  0.00     0.004 A 
ATOM     27  C   UNL     1       8.554 -59.460 -22.879  1.00  0.00     0.123 A 
ATOM     28  C   UNL     1       9.000 -60.382 -21.943  1.00  0.00     0.039 A 
ATOM     29  F   UNL     1       7.295 -59.523 -23.324  1.00  0.00    -0.207 F 
ENDBRANCH  22  23
ENDBRANCH   4  22
TORSDOF 6
ENDMDL
MODEL 9
REMARK VINA RESULT:    -9.372      2.284      3.770
REMARK INTER + INTRA:         -13.291
REMARK INTER:                 -12.468
REMARK INTRA:                  -0.823
REMARK UNBOUND:                -0.632
REMARK SMILES COc1cc2c(cc1OC)C(=O)/C(=C/c1cc[n+](Cc3cccc(F)c3)cc1)C2
REMARK SMILES IDX 15 1 16 2 17 3 18 4 27 5 28 6 14 7 13 8 3 9 4 10 8 11 5 12
REMARK SMILES IDX 7 13 6 14 29 15 11 16 12 17 2 18 1 19 9 20 10 21 19 22 20 23
REMARK SMILES IDX 21 24 26 25 22 26 24 27 23 28 25 29
REMARK H PARENT
ROOT
ATOM      1  C   UNL     1      11.175 -55.066 -23.355  1.00  0.00    -0.013 A 
ATOM      2  C   UNL     1      10.939 -55.211 -21.991  1.00  0.00     0.079 A 
ATOM      3  C   UNL     1      11.037 -56.469 -21.405  1.00  0.00     0.309 A 
ATOM      4  N   UNL     1      11.370 -57.550 -22.146  1.00  0.00    -0.201 N 
ATOM      5  C   UNL     1      11.609 -57.428 -23.473  1.00  0.00     0.309 A 
ATOM      6  C   UNL     1      11.522 -56.190 -24.100  1.00  0.00     0.079 A 
ENDROOT
BRANCH   1   7
ATOM      7  C   UNL     1      11.112 -53.734 -23.955  1.00  0.00     0.016 C 
BRANCH   7   8
ATOM      8  C   UNL     1      12.118 -52.849 -23.975  1.00  0.00     0.005 C 
ATOM      9  C   UNL     1      15.684 -49.771 -23.861  1.00  0.00     0.161 A 
ATOM     10  C   UNL     1      14.514 -50.120 -23.164  1.00  0.00     0.055 A 
ATOM     11  C   UNL     1      16.057 -50.464 -25.044  1.00  0.00     0.161 A 
ATOM     12  C   UNL     1      13.743 -51.172 -23.622  1.00  0.00    -0.028 A 
ATOM     13  C   UNL     1      15.268 -51.533 -25.490  1.00  0.00     0.063 A 
ATOM     14  C   UNL     1      14.134 -51.858 -24.766  1.00  0.00     0.030 A 
ATOM     15  C   UNL     1      12.473 -51.715 -23.045  1.00  0.00     0.076 C 
ATOM     16  C   UNL     1      13.165 -52.920 -25.044  1.00  0.00     0.189 C 
ATOM     17  O   UNL     1      13.205 -53.710 -25.965  1.00  0.00    -0.289 OA
BRANCH   9  18
ATOM     18  O   UNL     1      16.331 -48.705 -23.284  1.00  0.00    -0.493 OA
ATOM     19  C   UNL     1      15.672 -48.041 -22.212  1.00  0.00     0.278 C 
ENDBRANCH   9  18
BRANCH  11  20
ATOM     20  O   UNL     1      17.172 -50.030 -25.711  1.00  0.00    -0.493 OA
ATOM     21  C   UNL     1      17.008 -49.482 -27.013  1.00  0.00     0.278 C 
ENDBRANCH  11  20
ENDBRANCH   7   8
ENDBRANCH   1   7
BRANCH   4  22
ATOM     22  C   UNL     1      11.470 -58.887 -21.504  1.00  0.00     0.393 C 
BRANCH  22  23
ATOM     23  C   UNL     1      10.768 -59.940 -22.322  1.00  0.00     0.020 A 
ATOM     24  C   UNL     1      11.502 -60.811 -23.145  1.00  0.00     0.010 A 
ATOM     25  C   UNL     1       9.371 -60.064 -22.289  1.00  0.00     0.049 A 
ATOM     26  C   UNL     1      10.855 -61.791 -23.903  1.00  0.00     0.004 A 
ATOM     27  C   UNL     1       8.739 -61.045 -23.049  1.00  0.00     0.123 A 
ATOM     28  C   UNL     1       9.468 -61.910 -23.852  1.00  0.00     0.039 A 
ATOM     29  F   UNL     1       7.406 -61.151 -22.998  1.00  0.00    -0.207 F 
ENDBRANCH  22  23
ENDBRANCH   4  22
TORSDOF 6
ENDMDL
