MODEL 1
REMARK VINA RESULT:   -10.908      0.000      0.000
REMARK INTER + INTRA:         -16.945
REMARK INTER:                 -16.328
REMARK INTRA:                  -0.617
REMARK UNBOUND:                -0.617
REMARK SMILES COc1cc2c(cc1OC)S[C@@H](C(O)=CCc1cc[n+](Cc3ccccc3)cc1)C2
REMARK SMILES IDX 15 1 13 2 14 3 12 5 30 6 11 7 5 8 6 9 4 10 7 11 3 12 8 13
REMARK SMILES IDX 2 14 1 15 9 16 10 17 16 18 17 19 18 20 29 21 19 22 28 23
REMARK SMILES IDX 20 24 21 25 22 26 23 27 27 28 24 29 26 30 25 31
REMARK H PARENT 14 4
ROOT
ATOM      1  C   UNL     1      10.889 -55.285 -22.514  1.00  0.00     0.020 C 
ENDROOT
BRANCH   1   2
ATOM      2  C   UNL     1      10.649 -53.993 -22.231  1.00  0.00     0.102 C 
BRANCH   2   3
ATOM      3  O   UNL     1       9.438 -53.663 -21.632  1.00  0.00    -0.511 OA
ATOM      4  H   UNL     1       8.780 -54.333 -21.911  1.00  0.00     0.293 HD
ENDBRANCH   2   3
BRANCH   2   5
ATOM      5  C   UNL     1      11.593 -52.834 -22.505  1.00  0.00     0.121 C 
ATOM      6  C   UNL     1      12.106 -52.638 -23.947  1.00  0.00     0.059 C 
ATOM      7  S   UNL     1      10.773 -51.248 -22.066  1.00  0.00    -0.114 SA
ATOM      8  C   UNL     1      12.441 -51.180 -24.100  1.00  0.00    -0.029 A 
ATOM      9  C   UNL     1      11.775 -50.341 -23.208  1.00  0.00     0.015 A 
ATOM     10  C   UNL     1      13.268 -50.646 -25.083  1.00  0.00     0.055 A 
ATOM     11  C   UNL     1      11.921 -48.964 -23.263  1.00  0.00     0.065 A 
ATOM     12  C   UNL     1      13.439 -49.257 -25.151  1.00  0.00     0.161 A 
ATOM     13  C   UNL     1      12.760 -48.411 -24.238  1.00  0.00     0.161 A 
BRANCH  12  14
ATOM     14  O   UNL     1      14.227 -48.622 -26.080  1.00  0.00    -0.493 OA
ATOM     15  C   UNL     1      14.854 -49.421 -27.073  1.00  0.00     0.278 C 
ENDBRANCH  12  14
BRANCH  13  16
ATOM     16  O   UNL     1      12.982 -47.065 -24.393  1.00  0.00    -0.493 OA
ATOM     17  C   UNL     1      11.877 -46.188 -24.221  1.00  0.00     0.278 C 
ENDBRANCH  13  16
ENDBRANCH   2   5
ENDBRANCH   1   2
BRANCH   1  18
ATOM     18  C   UNL     1      11.181 -56.346 -21.490  1.00  0.00     0.067 C 
BRANCH  18  19
ATOM     19  C   UNL     1      11.222 -57.726 -22.106  1.00  0.00    -0.032 A 
ATOM     20  C   UNL     1      11.652 -57.893 -23.422  1.00  0.00     0.075 A 
ATOM     21  C   UNL     1      10.875 -58.859 -21.371  1.00  0.00     0.075 A 
ATOM     22  C   UNL     1      11.717 -59.166 -23.975  1.00  0.00     0.308 A 
ATOM     23  C   UNL     1      10.954 -60.115 -21.965  1.00  0.00     0.308 A 
ATOM     24  N   UNL     1      11.365 -60.250 -23.248  1.00  0.00    -0.201 N 
BRANCH  24  25
ATOM     25  C   UNL     1      11.453 -61.604 -23.850  1.00  0.00     0.393 C 
BRANCH  25  26
ATOM     26  C   UNL     1      10.125 -62.313 -23.797  1.00  0.00     0.017 A 
ATOM     27  C   UNL     1       9.813 -63.179 -22.737  1.00  0.00     0.010 A 
ATOM     28  C   UNL     1       9.172 -62.106 -24.807  1.00  0.00     0.010 A 
ATOM     29  C   UNL     1       8.582 -63.835 -22.700  1.00  0.00     0.001 A 
ATOM     30  C   UNL     1       7.942 -62.764 -24.765  1.00  0.00     0.001 A 
ATOM     31  C   UNL     1       7.649 -63.630 -23.713  1.00  0.00     0.000 A 
ENDBRANCH  25  26
ENDBRANCH  24  25
ENDBRANCH  18  19
ENDBRANCH   1  18
TORSDOF 9
ENDMDL
MODEL 2
REMARK VINA RESULT:   -10.756      1.085      2.071
REMARK INTER + INTRA:         -16.718
REMARK INTER:                 -16.154
REMARK INTRA:                  -0.564
REMARK UNBOUND:                -0.617
REMARK SMILES COc1cc2c(cc1OC)S[C@@H](C(O)=CCc1cc[n+](Cc3ccccc3)cc1)C2
REMARK SMILES IDX 15 1 13 2 14 3 12 5 30 6 11 7 5 8 6 9 4 10 7 11 3 12 8 13
REMARK SMILES IDX 2 14 1 15 9 16 10 17 16 18 17 19 18 20 29 21 19 22 28 23
REMARK SMILES IDX 20 24 21 25 22 26 23 27 27 28 24 29 26 30 25 31
REMARK H PARENT 14 4
ROOT
ATOM      1  C   UNL     1      10.562 -55.384 -22.331  1.00  0.00     0.020 C 
ENDROOT
BRANCH   1   2
ATOM      2  C   UNL     1      10.596 -54.054 -22.141  1.00  0.00     0.102 C 
BRANCH   2   3
ATOM      3  O   UNL     1      10.294 -53.561 -20.876  1.00  0.00    -0.511 OA
ATOM      4  H   UNL     1       9.973 -54.313 -20.336  1.00  0.00     0.293 HD
ENDBRANCH   2   3
BRANCH   2   5
ATOM      5  C   UNL     1      10.943 -53.014 -23.194  1.00  0.00     0.121 C 
ATOM      6  C   UNL     1      11.597 -51.697 -22.728  1.00  0.00     0.059 C 
ATOM      7  S   UNL     1      12.118 -53.732 -24.412  1.00  0.00    -0.114 SA
ATOM      8  C   UNL     1      12.394 -51.167 -23.888  1.00  0.00    -0.029 A 
ATOM      9  C   UNL     1      12.769 -52.137 -24.817  1.00  0.00     0.015 A 
ATOM     10  C   UNL     1      12.823 -49.852 -24.034  1.00  0.00     0.055 A 
ATOM     11  C   UNL     1      13.565 -51.824 -25.908  1.00  0.00     0.065 A 
ATOM     12  C   UNL     1      13.619 -49.511 -25.135  1.00  0.00     0.161 A 
ATOM     13  C   UNL     1      13.994 -50.503 -26.076  1.00  0.00     0.161 A 
BRANCH  12  14
ATOM     14  O   UNL     1      14.101 -48.247 -25.376  1.00  0.00    -0.493 OA
ATOM     15  C   UNL     1      13.319 -47.146 -24.935  1.00  0.00     0.278 C 
ENDBRANCH  12  14
BRANCH  13  16
ATOM     16  O   UNL     1      14.785 -50.073 -27.113  1.00  0.00    -0.493 OA
ATOM     17  C   UNL     1      16.194 -50.093 -26.923  1.00  0.00     0.278 C 
ENDBRANCH  13  16
ENDBRANCH   2   5
ENDBRANCH   1   2
BRANCH   1  18
ATOM     18  C   UNL     1      11.274 -56.391 -21.470  1.00  0.00     0.067 C 
BRANCH  18  19
ATOM     19  C   UNL     1      11.281 -57.765 -22.100  1.00  0.00    -0.032 A 
ATOM     20  C   UNL     1      11.741 -57.934 -23.407  1.00  0.00     0.075 A 
ATOM     21  C   UNL     1      10.873 -58.892 -21.388  1.00  0.00     0.075 A 
ATOM     22  C   UNL     1      11.775 -59.203 -23.972  1.00  0.00     0.308 A 
ATOM     23  C   UNL     1      10.922 -60.143 -21.994  1.00  0.00     0.308 A 
ATOM     24  N   UNL     1      11.363 -60.280 -23.267  1.00  0.00    -0.201 N 
BRANCH  24  25
ATOM     25  C   UNL     1      11.418 -61.630 -23.882  1.00  0.00     0.393 C 
BRANCH  25  26
ATOM     26  C   UNL     1      10.054 -62.270 -23.917  1.00  0.00     0.017 A 
ATOM     27  C   UNL     1       9.666 -63.193 -22.934  1.00  0.00     0.010 A 
ATOM     28  C   UNL     1       9.145 -61.939 -24.934  1.00  0.00     0.010 A 
ATOM     29  C   UNL     1       8.403 -63.785 -22.979  1.00  0.00     0.001 A 
ATOM     30  C   UNL     1       7.883 -62.533 -24.975  1.00  0.00     0.001 A 
ATOM     31  C   UNL     1       7.513 -63.456 -23.999  1.00  0.00     0.000 A 
ENDBRANCH  25  26
ENDBRANCH  24  25
ENDBRANCH  18  19
ENDBRANCH   1  18
TORSDOF 9
ENDMDL
MODEL 3
REMARK VINA RESULT:   -10.601      0.709      1.423
REMARK INTER + INTRA:         -16.485
REMARK INTER:                 -15.877
REMARK INTRA:                  -0.608
REMARK UNBOUND:                -0.617
REMARK SMILES COc1cc2c(cc1OC)S[C@@H](C(O)=CCc1cc[n+](Cc3ccccc3)cc1)C2
REMARK SMILES IDX 15 1 13 2 14 3 12 5 30 6 11 7 5 8 6 9 4 10 7 11 3 12 8 13
REMARK SMILES IDX 2 14 1 15 9 16 10 17 16 18 17 19 18 20 29 21 19 22 28 23
REMARK SMILES IDX 20 24 21 25 22 26 23 27 27 28 24 29 26 30 25 31
REMARK H PARENT 14 4
ROOT
ATOM      1  C   UNL     1      10.999 -54.821 -22.685  1.00  0.00     0.020 C 
ENDROOT
BRANCH   1   2
ATOM      2  C   UNL     1      10.726 -53.529 -22.433  1.00  0.00     0.102 C 
BRANCH   2   3
ATOM      3  O   UNL     1       9.452 -53.200 -21.982  1.00  0.00    -0.511 OA
ATOM      4  H   UNL     1       8.874 -53.976 -22.142  1.00  0.00     0.293 HD
ENDBRANCH   2   3
BRANCH   2   5
ATOM      5  C   UNL     1      11.694 -52.369 -22.593  1.00  0.00     0.121 C 
ATOM      6  C   UNL     1      12.433 -52.219 -23.940  1.00  0.00     0.059 C 
ATOM      7  S   UNL     1      10.803 -50.779 -22.353  1.00  0.00    -0.114 SA
ATOM      8  C   UNL     1      12.779 -50.763 -24.091  1.00  0.00    -0.029 A 
ATOM      9  C   UNL     1      11.972 -49.901 -23.351  1.00  0.00     0.015 A 
ATOM     10  C   UNL     1      13.752 -50.254 -24.946  1.00  0.00     0.055 A 
ATOM     11  C   UNL     1      12.116 -48.525 -23.433  1.00  0.00     0.065 A 
ATOM     12  C   UNL     1      13.922 -48.866 -25.038  1.00  0.00     0.161 A 
ATOM     13  C   UNL     1      13.098 -47.997 -24.279  1.00  0.00     0.161 A 
BRANCH  12  14
ATOM     14  O   UNL     1      14.846 -48.256 -25.850  1.00  0.00    -0.493 OA
ATOM     15  C   UNL     1      14.677 -48.378 -27.255  1.00  0.00     0.278 C 
ENDBRANCH  12  14
BRANCH  13  16
ATOM     16  O   UNL     1      13.334 -46.654 -24.446  1.00  0.00    -0.493 OA
ATOM     17  C   UNL     1      13.812 -45.922 -23.325  1.00  0.00     0.278 C 
ENDBRANCH  13  16
ENDBRANCH   2   5
ENDBRANCH   1   2
BRANCH   1  18
ATOM     18  C   UNL     1      11.031 -55.908 -21.647  1.00  0.00     0.067 C 
BRANCH  18  19
ATOM     19  C   UNL     1      11.284 -57.266 -22.261  1.00  0.00    -0.032 A 
ATOM     20  C   UNL     1      11.106 -58.422 -21.501  1.00  0.00     0.075 A 
ATOM     21  C   UNL     1      11.657 -57.400 -23.597  1.00  0.00     0.075 A 
ATOM     22  C   UNL     1      11.310 -59.670 -22.077  1.00  0.00     0.308 A 
ATOM     23  C   UNL     1      11.852 -58.669 -24.133  1.00  0.00     0.308 A 
ATOM     24  N   UNL     1      11.682 -59.776 -23.372  1.00  0.00    -0.201 N 
BRANCH  24  25
ATOM     25  C   UNL     1      11.884 -61.117 -23.975  1.00  0.00     0.393 C 
BRANCH  25  26
ATOM     26  C   UNL     1      10.627 -61.944 -23.901  1.00  0.00     0.017 A 
ATOM     27  C   UNL     1       9.672 -61.900 -24.930  1.00  0.00     0.010 A 
ATOM     28  C   UNL     1      10.398 -62.785 -22.800  1.00  0.00     0.010 A 
ATOM     29  C   UNL     1       8.509 -62.666 -24.848  1.00  0.00     0.001 A 
ATOM     30  C   UNL     1       9.234 -63.549 -22.723  1.00  0.00     0.001 A 
ATOM     31  C   UNL     1       8.289 -63.488 -23.745  1.00  0.00     0.000 A 
ENDBRANCH  25  26
ENDBRANCH  24  25
ENDBRANCH  18  19
ENDBRANCH   1  18
TORSDOF 9
ENDMDL
MODEL 4
REMARK VINA RESULT:   -10.326      1.634      2.609
REMARK INTER + INTRA:         -16.073
REMARK INTER:                 -15.387
REMARK INTRA:                  -0.687
REMARK UNBOUND:                -0.617
REMARK SMILES COc1cc2c(cc1OC)S[C@@H](C(O)=CCc1cc[n+](Cc3ccccc3)cc1)C2
REMARK SMILES IDX 15 1 13 2 14 3 12 5 30 6 11 7 5 8 6 9 4 10 7 11 3 12 8 13
REMARK SMILES IDX 2 14 1 15 9 16 10 17 16 18 17 19 18 20 29 21 19 22 28 23
REMARK SMILES IDX 20 24 21 25 22 26 23 27 27 28 24 29 26 30 25 31
REMARK H PARENT 14 4
ROOT
ATOM      1  C   UNL     1      10.696 -56.094 -22.742  1.00  0.00     0.020 C 
ENDROOT
BRANCH   1   2
ATOM      2  C   UNL     1      11.331 -55.422 -23.718  1.00  0.00     0.102 C 
BRANCH   2   3
ATOM      3  O   UNL     1      12.115 -56.143 -24.613  1.00  0.00    -0.511 OA
ATOM      4  H   UNL     1      12.253 -57.035 -24.230  1.00  0.00     0.293 HD
ENDBRANCH   2   3
BRANCH   2   5
ATOM      5  C   UNL     1      11.272 -53.921 -23.946  1.00  0.00     0.121 C 
ATOM      6  C   UNL     1      11.417 -52.993 -22.721  1.00  0.00     0.059 C 
ATOM      7  S   UNL     1      12.615 -53.414 -25.095  1.00  0.00    -0.114 SA
ATOM      8  C   UNL     1      11.960 -51.684 -23.224  1.00  0.00    -0.029 A 
ATOM      9  C   UNL     1      12.649 -51.774 -24.432  1.00  0.00     0.015 A 
ATOM     10  C   UNL     1      11.889 -50.472 -22.544  1.00  0.00     0.055 A 
ATOM     11  C   UNL     1      13.270 -50.670 -24.996  1.00  0.00     0.065 A 
ATOM     12  C   UNL     1      12.500 -49.340 -23.100  1.00  0.00     0.161 A 
ATOM     13  C   UNL     1      13.196 -49.441 -24.331  1.00  0.00     0.161 A 
BRANCH  12  14
ATOM     14  O   UNL     1      12.495 -48.097 -22.516  1.00  0.00    -0.493 OA
ATOM     15  C   UNL     1      13.393 -47.867 -21.440  1.00  0.00     0.278 C 
ENDBRANCH  12  14
BRANCH  13  16
ATOM     16  O   UNL     1      13.771 -48.280 -24.787  1.00  0.00    -0.493 OA
ATOM     17  C   UNL     1      15.188 -48.180 -24.739  1.00  0.00     0.278 C 
ENDBRANCH  13  16
ENDBRANCH   2   5
ENDBRANCH   1   2
BRANCH   1  18
ATOM     18  C   UNL     1      11.374 -56.965 -21.721  1.00  0.00     0.067 C 
BRANCH  18  19
ATOM     19  C   UNL     1      11.269 -58.431 -22.072  1.00  0.00    -0.032 A 
ATOM     20  C   UNL     1      10.439 -59.271 -21.329  1.00  0.00     0.075 A 
ATOM     21  C   UNL     1      11.958 -58.969 -23.158  1.00  0.00     0.075 A 
ATOM     22  C   UNL     1      10.321 -60.612 -21.673  1.00  0.00     0.308 A 
ATOM     23  C   UNL     1      11.812 -60.318 -23.465  1.00  0.00     0.308 A 
ATOM     24  N   UNL     1      11.007 -61.114 -22.724  1.00  0.00    -0.201 N 
BRANCH  24  25
ATOM     25  C   UNL     1      10.860 -62.547 -23.085  1.00  0.00     0.393 C 
BRANCH  25  26
ATOM     26  C   UNL     1       9.535 -62.810 -23.751  1.00  0.00     0.017 A 
ATOM     27  C   UNL     1       9.259 -62.305 -25.031  1.00  0.00     0.010 A 
ATOM     28  C   UNL     1       8.556 -63.577 -23.099  1.00  0.00     0.010 A 
ATOM     29  C   UNL     1       8.026 -62.549 -25.637  1.00  0.00     0.001 A 
ATOM     30  C   UNL     1       7.325 -63.819 -23.708  1.00  0.00     0.001 A 
ATOM     31  C   UNL     1       7.059 -63.304 -24.976  1.00  0.00     0.000 A 
ENDBRANCH  25  26
ENDBRANCH  24  25
ENDBRANCH  18  19
ENDBRANCH   1  18
TORSDOF 9
ENDMDL
MODEL 5
REMARK VINA RESULT:    -9.500      4.293     11.187
REMARK INTER + INTRA:         -14.838
REMARK INTER:                 -13.988
REMARK INTRA:                  -0.850
REMARK UNBOUND:                -0.617
REMARK SMILES COc1cc2c(cc1OC)S[C@@H](C(O)=CCc1cc[n+](Cc3ccccc3)cc1)C2
REMARK SMILES IDX 15 1 13 2 14 3 12 5 30 6 11 7 5 8 6 9 4 10 7 11 3 12 8 13
REMARK SMILES IDX 2 14 1 15 9 16 10 17 16 18 17 19 18 20 29 21 19 22 28 23
REMARK SMILES IDX 20 24 21 25 22 26 23 27 27 28 24 29 26 30 25 31
REMARK H PARENT 14 4
ROOT
ATOM      1  C   UNL     1      11.016 -56.750 -22.093  1.00  0.00     0.020 C 
ENDROOT
BRANCH   1   2
ATOM      2  C   UNL     1      11.078 -58.036 -22.480  1.00  0.00     0.102 C 
BRANCH   2   3
ATOM      3  O   UNL     1      12.065 -58.844 -21.925  1.00  0.00    -0.511 OA
ATOM      4  H   UNL     1      11.884 -59.764 -22.206  1.00  0.00     0.293 HD
ENDBRANCH   2   3
BRANCH   2   5
ATOM      5  C   UNL     1      10.156 -58.708 -23.483  1.00  0.00     0.121 C 
ATOM      6  C   UNL     1      10.791 -59.597 -24.574  1.00  0.00     0.059 C 
ATOM      7  S   UNL     1       8.970 -59.801 -22.601  1.00  0.00    -0.114 SA
ATOM      8  C   UNL     1       9.749 -60.599 -24.985  1.00  0.00    -0.029 A 
ATOM      9  C   UNL     1       8.766 -60.833 -24.025  1.00  0.00     0.015 A 
ATOM     10  C   UNL     1       9.759 -61.327 -26.171  1.00  0.00     0.055 A 
ATOM     11  C   UNL     1       7.772 -61.779 -24.221  1.00  0.00     0.065 A 
ATOM     12  C   UNL     1       8.759 -62.282 -26.395  1.00  0.00     0.161 A 
ATOM     13  C   UNL     1       7.762 -62.511 -25.414  1.00  0.00     0.161 A 
BRANCH  12  14
ATOM     14  O   UNL     1       8.674 -63.058 -27.525  1.00  0.00    -0.493 OA
ATOM     15  C   UNL     1       8.854 -62.420 -28.781  1.00  0.00     0.278 C 
ENDBRANCH  12  14
BRANCH  13  16
ATOM     16  O   UNL     1       6.832 -63.475 -25.721  1.00  0.00    -0.493 OA
ATOM     17  C   UNL     1       6.841 -64.670 -24.953  1.00  0.00     0.278 C 
ENDBRANCH  13  16
ENDBRANCH   2   5
ENDBRANCH   1   2
BRANCH   1  18
ATOM     18  C   UNL     1      10.158 -55.701 -22.745  1.00  0.00     0.067 C 
BRANCH  18  19
ATOM     19  C   UNL     1      10.977 -54.530 -23.238  1.00  0.00    -0.032 A 
ATOM     20  C   UNL     1      11.727 -54.644 -24.409  1.00  0.00     0.075 A 
ATOM     21  C   UNL     1      10.974 -53.308 -22.568  1.00  0.00     0.075 A 
ATOM     22  C   UNL     1      12.455 -53.557 -24.876  1.00  0.00     0.308 A 
ATOM     23  C   UNL     1      11.719 -52.246 -23.070  1.00  0.00     0.308 A 
ATOM     24  N   UNL     1      12.446 -52.385 -24.204  1.00  0.00    -0.201 N 
BRANCH  24  25
ATOM     25  C   UNL     1      13.219 -51.229 -24.724  1.00  0.00     0.393 C 
BRANCH  25  26
ATOM     26  C   UNL     1      14.692 -51.389 -24.449  1.00  0.00     0.017 A 
ATOM     27  C   UNL     1      15.581 -51.750 -25.473  1.00  0.00     0.010 A 
ATOM     28  C   UNL     1      15.198 -51.168 -23.158  1.00  0.00     0.010 A 
ATOM     29  C   UNL     1      16.942 -51.901 -25.207  1.00  0.00     0.001 A 
ATOM     30  C   UNL     1      16.560 -51.319 -22.897  1.00  0.00     0.001 A 
ATOM     31  C   UNL     1      17.431 -51.688 -23.920  1.00  0.00     0.000 A 
ENDBRANCH  25  26
ENDBRANCH  24  25
ENDBRANCH  18  19
ENDBRANCH   1  18
TORSDOF 9
ENDMDL
MODEL 6
REMARK VINA RESULT:    -9.431      1.710      2.254
REMARK INTER + INTRA:         -14.734
REMARK INTER:                 -13.985
REMARK INTRA:                  -0.749
REMARK UNBOUND:                -0.617
REMARK SMILES COc1cc2c(cc1OC)S[C@@H](C(O)=CCc1cc[n+](Cc3ccccc3)cc1)C2
REMARK SMILES IDX 15 1 13 2 14 3 12 5 30 6 11 7 5 8 6 9 4 10 7 11 3 12 8 13
REMARK SMILES IDX 2 14 1 15 9 16 10 17 16 18 17 19 18 20 29 21 19 22 28 23
REMARK SMILES IDX 20 24 21 25 22 26 23 27 27 28 24 29 26 30 25 31
REMARK H PARENT 14 4
ROOT
ATOM      1  C   UNL     1      11.010 -54.193 -22.259  1.00  0.00     0.020 C 
ENDROOT
BRANCH   1   2
ATOM      2  C   UNL     1      11.599 -53.452 -23.213  1.00  0.00     0.102 C 
BRANCH   2   3
ATOM      3  O   UNL     1      11.731 -53.998 -24.485  1.00  0.00    -0.511 OA
ATOM      4  H   UNL     1      12.521 -53.592 -24.898  1.00  0.00     0.293 HD
ENDBRANCH   2   3
BRANCH   2   5
ATOM      5  C   UNL     1      12.144 -52.044 -23.034  1.00  0.00     0.121 C 
ATOM      6  C   UNL     1      12.687 -51.312 -24.279  1.00  0.00     0.059 C 
ATOM      7  S   UNL     1      10.827 -50.949 -22.367  1.00  0.00    -0.114 SA
ATOM      8  C   UNL     1      12.552 -49.837 -24.014  1.00  0.00    -0.029 A 
ATOM      9  C   UNL     1      11.581 -49.510 -23.069  1.00  0.00     0.015 A 
ATOM     10  C   UNL     1      13.245 -48.834 -24.684  1.00  0.00     0.055 A 
ATOM     11  C   UNL     1      11.284 -48.191 -22.762  1.00  0.00     0.065 A 
ATOM     12  C   UNL     1      12.969 -47.495 -24.384  1.00  0.00     0.161 A 
ATOM     13  C   UNL     1      11.982 -47.171 -23.419  1.00  0.00     0.161 A 
BRANCH  12  14
ATOM     14  O   UNL     1      13.590 -46.426 -24.984  1.00  0.00    -0.493 OA
ATOM     15  C   UNL     1      14.346 -46.676 -26.160  1.00  0.00     0.278 C 
ENDBRANCH  12  14
BRANCH  13  16
ATOM     16  O   UNL     1      11.776 -45.831 -23.202  1.00  0.00    -0.493 OA
ATOM     17  C   UNL     1      11.815 -45.364 -21.860  1.00  0.00     0.278 C 
ENDBRANCH  13  16
ENDBRANCH   2   5
ENDBRANCH   1   2
BRANCH   1  18
ATOM     18  C   UNL     1       9.731 -54.963 -22.440  1.00  0.00     0.067 C 
BRANCH  18  19
ATOM     19  C   UNL     1       9.989 -56.427 -22.714  1.00  0.00    -0.032 A 
ATOM     20  C   UNL     1      11.274 -56.950 -22.570  1.00  0.00     0.075 A 
ATOM     21  C   UNL     1       8.956 -57.291 -23.073  1.00  0.00     0.075 A 
ATOM     22  C   UNL     1      11.502 -58.303 -22.793  1.00  0.00     0.308 A 
ATOM     23  C   UNL     1       9.229 -58.638 -23.289  1.00  0.00     0.308 A 
ATOM     24  N   UNL     1      10.487 -59.120 -23.152  1.00  0.00    -0.201 N 
BRANCH  24  25
ATOM     25  C   UNL     1      10.746 -60.565 -23.374  1.00  0.00     0.393 C 
BRANCH  25  26
ATOM     26  C   UNL     1      10.208 -61.018 -24.707  1.00  0.00     0.017 A 
ATOM     27  C   UNL     1       9.209 -62.001 -24.785  1.00  0.00     0.010 A 
ATOM     28  C   UNL     1      10.694 -60.450 -25.895  1.00  0.00     0.010 A 
ATOM     29  C   UNL     1       8.722 -62.417 -26.024  1.00  0.00     0.001 A 
ATOM     30  C   UNL     1      10.204 -60.868 -27.132  1.00  0.00     0.001 A 
ATOM     31  C   UNL     1       9.220 -61.853 -27.197  1.00  0.00     0.000 A 
ENDBRANCH  25  26
ENDBRANCH  24  25
ENDBRANCH  18  19
ENDBRANCH   1  18
TORSDOF 9
ENDMDL
MODEL 7
REMARK VINA RESULT:    -9.372      2.556      4.152
REMARK INTER + INTRA:         -14.646
REMARK INTER:                 -13.939
REMARK INTRA:                  -0.707
REMARK UNBOUND:                -0.617
REMARK SMILES COc1cc2c(cc1OC)S[C@@H](C(O)=CCc1cc[n+](Cc3ccccc3)cc1)C2
REMARK SMILES IDX 15 1 13 2 14 3 12 5 30 6 11 7 5 8 6 9 4 10 7 11 3 12 8 13
REMARK SMILES IDX 2 14 1 15 9 16 10 17 16 18 17 19 18 20 29 21 19 22 28 23
REMARK SMILES IDX 20 24 21 25 22 26 23 27 27 28 24 29 26 30 25 31
REMARK H PARENT 14 4
ROOT
ATOM      1  C   UNL     1      10.997 -51.089 -22.377  1.00  0.00     0.020 C 
ENDROOT
BRANCH   1   2
ATOM      2  C   UNL     1      10.695 -49.779 -22.358  1.00  0.00     0.102 C 
BRANCH   2   3
ATOM      3  O   UNL     1       9.409 -49.405 -21.983  1.00  0.00    -0.511 OA
ATOM      4  H   UNL     1       9.209 -48.555 -22.427  1.00  0.00     0.293 HD
ENDBRANCH   2   3
BRANCH   2   5
ATOM      5  C   UNL     1      11.641 -48.644 -22.712  1.00  0.00     0.121 C 
ATOM      6  C   UNL     1      12.268 -48.633 -24.122  1.00  0.00     0.059 C 
ATOM      7  S   UNL     1      10.764 -47.035 -22.563  1.00  0.00    -0.114 SA
ATOM      8  C   UNL     1      12.594 -47.201 -24.447  1.00  0.00    -0.029 A 
ATOM      9  C   UNL     1      11.845 -46.266 -23.734  1.00  0.00     0.015 A 
ATOM     10  C   UNL     1      13.492 -46.784 -25.424  1.00  0.00     0.055 A 
ATOM     11  C   UNL     1      11.974 -44.906 -23.966  1.00  0.00     0.065 A 
ATOM     12  C   UNL     1      13.647 -45.413 -25.669  1.00  0.00     0.161 A 
ATOM     13  C   UNL     1      12.883 -44.470 -24.937  1.00  0.00     0.161 A 
BRANCH  12  14
ATOM     14  O   UNL     1      14.501 -44.891 -26.610  1.00  0.00    -0.493 OA
ATOM     15  C   UNL     1      14.990 -45.763 -27.618  1.00  0.00     0.278 C 
ENDBRANCH  12  14
BRANCH  13  16
ATOM     16  O   UNL     1      13.098 -43.151 -25.258  1.00  0.00    -0.493 OA
ATOM     17  C   UNL     1      11.994 -42.402 -25.749  1.00  0.00     0.278 C 
ENDBRANCH  13  16
ENDBRANCH   2   5
ENDBRANCH   1   2
BRANCH   1  18
ATOM     18  C   UNL     1      10.142 -52.174 -21.782  1.00  0.00     0.067 C 
BRANCH  18  19
ATOM     19  C   UNL     1      10.597 -53.549 -22.213  1.00  0.00    -0.032 A 
ATOM     20  C   UNL     1      10.685 -54.583 -21.280  1.00  0.00     0.075 A 
ATOM     21  C   UNL     1      10.899 -53.829 -23.545  1.00  0.00     0.075 A 
ATOM     22  C   UNL     1      11.074 -55.853 -21.686  1.00  0.00     0.308 A 
ATOM     23  C   UNL     1      11.286 -55.116 -23.907  1.00  0.00     0.308 A 
ATOM     24  N   UNL     1      11.372 -56.100 -22.981  1.00  0.00    -0.201 N 
BRANCH  24  25
ATOM     25  C   UNL     1      11.775 -57.466 -23.399  1.00  0.00     0.393 C 
BRANCH  25  26
ATOM     26  C   UNL     1      10.784 -58.497 -22.925  1.00  0.00     0.017 A 
ATOM     27  C   UNL     1      11.153 -59.474 -21.987  1.00  0.00     0.010 A 
ATOM     28  C   UNL     1       9.466 -58.486 -23.410  1.00  0.00     0.010 A 
ATOM     29  C   UNL     1      10.229 -60.428 -21.559  1.00  0.00     0.001 A 
ATOM     30  C   UNL     1       8.546 -59.442 -22.978  1.00  0.00     0.001 A 
ATOM     31  C   UNL     1       8.928 -60.413 -22.055  1.00  0.00     0.000 A 
ENDBRANCH  25  26
ENDBRANCH  24  25
ENDBRANCH  18  19
ENDBRANCH   1  18
TORSDOF 9
ENDMDL
MODEL 8
REMARK VINA RESULT:    -9.226      2.503      4.048
REMARK INTER + INTRA:         -14.427
REMARK INTER:                 -13.523
REMARK INTRA:                  -0.904
REMARK UNBOUND:                -0.617
REMARK SMILES COc1cc2c(cc1OC)S[C@@H](C(O)=CCc1cc[n+](Cc3ccccc3)cc1)C2
REMARK SMILES IDX 15 1 13 2 14 3 12 5 30 6 11 7 5 8 6 9 4 10 7 11 3 12 8 13
REMARK SMILES IDX 2 14 1 15 9 16 10 17 16 18 17 19 18 20 29 21 19 22 28 23
REMARK SMILES IDX 20 24 21 25 22 26 23 27 27 28 24 29 26 30 25 31
REMARK H PARENT 14 4
ROOT
ATOM      1  C   UNL     1      11.436 -51.302 -21.653  1.00  0.00     0.020 C 
ENDROOT
BRANCH   1   2
ATOM      2  C   UNL     1      11.680 -50.093 -22.187  1.00  0.00     0.102 C 
BRANCH   2   3
ATOM      3  O   UNL     1      10.730 -49.092 -22.016  1.00  0.00    -0.511 OA
ATOM      4  H   UNL     1      11.205 -48.281 -21.738  1.00  0.00     0.293 HD
ENDBRANCH   2   3
BRANCH   2   5
ATOM      5  C   UNL     1      12.921 -49.705 -22.975  1.00  0.00     0.121 C 
ATOM      6  C   UNL     1      13.615 -50.793 -23.821  1.00  0.00     0.059 C 
ATOM      7  S   UNL     1      12.509 -48.362 -24.161  1.00  0.00    -0.114 SA
ATOM      8  C   UNL     1      14.338 -50.087 -24.935  1.00  0.00    -0.029 A 
ATOM      9  C   UNL     1      13.830 -48.827 -25.243  1.00  0.00     0.015 A 
ATOM     10  C   UNL     1      15.376 -50.629 -25.688  1.00  0.00     0.055 A 
ATOM     11  C   UNL     1      14.340 -48.075 -26.290  1.00  0.00     0.065 A 
ATOM     12  C   UNL     1      15.914 -49.883 -26.745  1.00  0.00     0.161 A 
ATOM     13  C   UNL     1      15.392 -48.601 -27.049  1.00  0.00     0.161 A 
BRANCH  12  14
ATOM     14  O   UNL     1      16.935 -50.320 -27.554  1.00  0.00    -0.493 OA
ATOM     15  C   UNL     1      18.197 -50.569 -26.951  1.00  0.00     0.278 C 
ENDBRANCH  12  14
BRANCH  13  16
ATOM     16  O   UNL     1      15.978 -47.954 -28.109  1.00  0.00    -0.493 OA
ATOM     17  C   UNL     1      15.189 -47.741 -29.272  1.00  0.00     0.278 C 
ENDBRANCH  13  16
ENDBRANCH   2   5
ENDBRANCH   1   2
BRANCH   1  18
ATOM     18  C   UNL     1      10.262 -52.173 -22.006  1.00  0.00     0.067 C 
BRANCH  18  19
ATOM     19  C   UNL     1      10.694 -53.564 -22.407  1.00  0.00    -0.032 A 
ATOM     20  C   UNL     1      10.660 -54.604 -21.477  1.00  0.00     0.075 A 
ATOM     21  C   UNL     1      11.094 -53.852 -23.711  1.00  0.00     0.075 A 
ATOM     22  C   UNL     1      11.029 -55.888 -21.857  1.00  0.00     0.308 A 
ATOM     23  C   UNL     1      11.457 -55.152 -24.048  1.00  0.00     0.308 A 
ATOM     24  N   UNL     1      11.424 -56.142 -23.124  1.00  0.00    -0.201 N 
BRANCH  24  25
ATOM     25  C   UNL     1      11.803 -57.523 -23.517  1.00  0.00     0.393 C 
BRANCH  25  26
ATOM     26  C   UNL     1      10.844 -58.536 -22.949  1.00  0.00     0.017 A 
ATOM     27  C   UNL     1      11.234 -59.395 -21.910  1.00  0.00     0.010 A 
ATOM     28  C   UNL     1       9.535 -58.627 -23.448  1.00  0.00     0.010 A 
ATOM     29  C   UNL     1      10.340 -60.333 -21.394  1.00  0.00     0.001 A 
ATOM     30  C   UNL     1       8.643 -59.566 -22.929  1.00  0.00     0.001 A 
ATOM     31  C   UNL     1       9.046 -60.420 -21.905  1.00  0.00     0.000 A 
ENDBRANCH  25  26
ENDBRANCH  24  25
ENDBRANCH  18  19
ENDBRANCH   1  18
TORSDOF 9
ENDMDL
MODEL 9
REMARK VINA RESULT:    -9.110      2.505      4.334
REMARK INTER + INTRA:         -14.253
REMARK INTER:                 -13.368
REMARK INTRA:                  -0.885
REMARK UNBOUND:                -0.617
REMARK SMILES COc1cc2c(cc1OC)S[C@@H](C(O)=CCc1cc[n+](Cc3ccccc3)cc1)C2
REMARK SMILES IDX 15 1 13 2 14 3 12 5 30 6 11 7 5 8 6 9 4 10 7 11 3 12 8 13
REMARK SMILES IDX 2 14 1 15 9 16 10 17 16 18 17 19 18 20 29 21 19 22 28 23
REMARK SMILES IDX 20 24 21 25 22 26 23 27 27 28 24 29 26 30 25 31
REMARK H PARENT 14 4
ROOT
ATOM      1  C   UNL     1      11.441 -51.361 -21.706  1.00  0.00     0.020 C 
ENDROOT
BRANCH   1   2
ATOM      2  C   UNL     1      12.032 -50.346 -22.359  1.00  0.00     0.102 C 
BRANCH   2   3
ATOM      3  O   UNL     1      12.082 -49.103 -21.738  1.00  0.00    -0.511 OA
ATOM      4  H   UNL     1      13.026 -48.857 -21.649  1.00  0.00     0.293 HD
ENDBRANCH   2   3
BRANCH   2   5
ATOM      5  C   UNL     1      12.668 -50.427 -23.738  1.00  0.00     0.121 C 
ATOM      6  C   UNL     1      12.945 -49.107 -24.489  1.00  0.00     0.059 C 
ATOM      7  S   UNL     1      14.299 -51.267 -23.621  1.00  0.00    -0.114 SA
ATOM      8  C   UNL     1      14.084 -49.372 -25.435  1.00  0.00    -0.029 A 
ATOM      9  C   UNL     1      14.896 -50.444 -25.070  1.00  0.00     0.015 A 
ATOM     10  C   UNL     1      14.402 -48.595 -26.545  1.00  0.00     0.055 A 
ATOM     11  C   UNL     1      16.028 -50.776 -25.798  1.00  0.00     0.065 A 
ATOM     12  C   UNL     1      15.536 -48.917 -27.301  1.00  0.00     0.161 A 
ATOM     13  C   UNL     1      16.354 -50.012 -26.925  1.00  0.00     0.161 A 
BRANCH  12  14
ATOM     14  O   UNL     1      15.945 -48.220 -28.412  1.00  0.00    -0.493 OA
ATOM     15  C   UNL     1      15.287 -48.489 -29.642  1.00  0.00     0.278 C 
ENDBRANCH  12  14
BRANCH  13  16
ATOM     16  O   UNL     1      17.449 -50.241 -27.723  1.00  0.00    -0.493 OA
ATOM     17  C   UNL     1      18.692 -50.497 -27.083  1.00  0.00     0.278 C 
ENDBRANCH  13  16
ENDBRANCH   2   5
ENDBRANCH   1   2
BRANCH   1  18
ATOM     18  C   UNL     1      10.270 -52.149 -22.228  1.00  0.00     0.067 C 
BRANCH  18  19
ATOM     19  C   UNL     1      10.640 -53.587 -22.509  1.00  0.00    -0.032 A 
ATOM     20  C   UNL     1      10.954 -53.987 -23.809  1.00  0.00     0.075 A 
ATOM     21  C   UNL     1      10.716 -54.531 -21.486  1.00  0.00     0.075 A 
ATOM     22  C   UNL     1      11.323 -55.304 -24.059  1.00  0.00     0.308 A 
ATOM     23  C   UNL     1      11.088 -55.838 -21.783  1.00  0.00     0.308 A 
ATOM     24  N   UNL     1      11.379 -56.204 -23.054  1.00  0.00    -0.201 N 
BRANCH  24  25
ATOM     25  C   UNL     1      11.787 -57.603 -23.337  1.00  0.00     0.393 C 
BRANCH  25  26
ATOM     26  C   UNL     1      10.764 -58.585 -22.829  1.00  0.00     0.017 A 
ATOM     27  C   UNL     1       9.482 -58.649 -23.399  1.00  0.00     0.010 A 
ATOM     28  C   UNL     1      11.084 -59.461 -21.780  1.00  0.00     0.010 A 
ATOM     29  C   UNL     1       8.539 -59.558 -22.917  1.00  0.00     0.001 A 
ATOM     30  C   UNL     1      10.138 -60.369 -21.302  1.00  0.00     0.001 A 
ATOM     31  C   UNL     1       8.866 -60.415 -21.869  1.00  0.00     0.000 A 
ENDBRANCH  25  26
ENDBRANCH  24  25
ENDBRANCH  18  19
ENDBRANCH   1  18
TORSDOF 9
ENDMDL
