MODEL 1
REMARK VINA RESULT:    -9.705      0.000      0.000
REMARK INTER + INTRA:         -10.642
REMARK INTER:                 -10.556
REMARK INTRA:                  -0.087
REMARK UNBOUND:                -0.087
REMARK SMILES CCC1=C[C@@H]2Cc3[nH]c4cc(Cl)ccc4c(=N)c3[C@H](C1)C2
REMARK SMILES IDX 8 1 7 2 18 3 16 4 15 5 14 6 13 7 11 8 12 9 10 10 9 11 19 12
REMARK SMILES IDX 20 13 3 14 4 15 5 16 6 17 21 18 17 20 2 22 1 23
REMARK H PARENT 8 19 17 21
ROOT
ATOM      1  N   UNL     1      11.048 -57.265 -22.081  1.00  0.00    -0.358 N 
ATOM      2  C   UNL     1      11.396 -58.379 -22.814  1.00  0.00     0.021 A 
ATOM      3  C   UNL     1      11.922 -58.307 -24.054  1.00  0.00     0.000 A 
ATOM      4  C   UNL     1      12.126 -56.955 -24.676  1.00  0.00     0.068 A 
ATOM      5  C   UNL     1      11.660 -55.762 -23.899  1.00  0.00     0.023 A 
ATOM      6  C   UNL     1      11.744 -54.457 -24.411  1.00  0.00     0.014 A 
ATOM      7  C   UNL     1      11.305 -53.373 -23.645  1.00  0.00     0.021 A 
ATOM      8  C   UNL     1      10.787 -53.587 -22.371  1.00  0.00     0.043 A 
ATOM      9  Cl  UNL     1      10.257 -52.249 -21.429  1.00  0.00    -0.084 Cl
ATOM     10  C   UNL     1      10.694 -54.878 -21.855  1.00  0.00     0.047 A 
ATOM     11  C   UNL     1      11.114 -55.974 -22.619  1.00  0.00     0.049 A 
ATOM     12  C   UNL     1      12.337 -59.531 -24.854  1.00  0.00     0.028 C 
ATOM     13  C   UNL     1      11.237 -59.932 -25.862  1.00  0.00     0.039 C 
ATOM     14  C   UNL     1      10.070 -60.695 -25.244  1.00  0.00    -0.074 C 
ATOM     15  C   UNL     1      10.130 -61.129 -23.969  1.00  0.00    -0.024 C 
ATOM     16  C   UNL     1      11.343 -60.936 -23.079  1.00  0.00     0.018 C 
ATOM     17  C   UNL     1      11.146 -59.724 -22.146  1.00  0.00     0.062 C 
ATOM     18  C   UNL     1      12.603 -60.717 -23.918  1.00  0.00     0.017 C 
ATOM     19  H   UNL     1      10.515 -57.408 -21.232  1.00  0.00     0.166 HD
ENDROOT
BRANCH   4  20
ATOM     20  N   UNL     1      12.686 -56.880 -25.847  1.00  0.00    -0.300 NA
ATOM     21  H   UNL     1      12.925 -57.789 -26.236  1.00  0.00     0.188 HD
ENDBRANCH   4  20
BRANCH  14  22
ATOM     22  C   UNL     1       8.891 -60.888 -26.176  1.00  0.00     0.027 C 
ATOM     23  C   UNL     1       9.066 -61.880 -27.321  1.00  0.00     0.008 C 
ENDBRANCH  14  22
TORSDOF 2
ENDMDL
MODEL 2
REMARK VINA RESULT:    -9.412      1.554      2.067
REMARK INTER + INTRA:         -10.324
REMARK INTER:                 -10.242
REMARK INTRA:                  -0.082
REMARK UNBOUND:                -0.087
REMARK SMILES CCC1=C[C@@H]2Cc3[nH]c4cc(Cl)ccc4c(=N)c3[C@H](C1)C2
REMARK SMILES IDX 8 1 7 2 18 3 16 4 15 5 14 6 13 7 11 8 12 9 10 10 9 11 19 12
REMARK SMILES IDX 20 13 3 14 4 15 5 16 6 17 21 18 17 20 2 22 1 23
REMARK H PARENT 8 19 17 21
ROOT
ATOM      1  N   UNL     1       9.006 -58.251 -22.726  1.00  0.00    -0.358 N 
ATOM      2  C   UNL     1       9.403 -59.527 -23.063  1.00  0.00     0.021 A 
ATOM      3  C   UNL     1      10.612 -59.803 -23.595  1.00  0.00     0.000 A 
ATOM      4  C   UNL     1      11.567 -58.672 -23.848  1.00  0.00     0.068 A 
ATOM      5  C   UNL     1      11.083 -57.284 -23.557  1.00  0.00     0.023 A 
ATOM      6  C   UNL     1      11.868 -56.149 -23.815  1.00  0.00     0.014 A 
ATOM      7  C   UNL     1      11.378 -54.874 -23.518  1.00  0.00     0.021 A 
ATOM      8  C   UNL     1      10.110 -54.730 -22.963  1.00  0.00     0.043 A 
ATOM      9  Cl  UNL     1       9.516 -53.159 -22.590  1.00  0.00    -0.084 Cl
ATOM     10  C   UNL     1       9.320 -55.848 -22.706  1.00  0.00     0.047 A 
ATOM     11  C   UNL     1       9.792 -57.130 -23.015  1.00  0.00     0.049 A 
ATOM     12  C   UNL     1      11.067 -61.212 -23.938  1.00  0.00     0.028 C 
ATOM     13  C   UNL     1      10.870 -61.506 -25.443  1.00  0.00     0.039 C 
ATOM     14  C   UNL     1       9.435 -61.843 -25.831  1.00  0.00    -0.074 C 
ATOM     15  C   UNL     1       8.496 -62.048 -24.885  1.00  0.00    -0.024 C 
ATOM     16  C   UNL     1       8.787 -62.001 -23.398  1.00  0.00     0.018 C 
ATOM     17  C   UNL     1       8.389 -60.633 -22.808  1.00  0.00     0.062 C 
ATOM     18  C   UNL     1      10.273 -62.244 -23.127  1.00  0.00     0.017 C 
ATOM     19  H   UNL     1       8.033 -58.109 -22.485  1.00  0.00     0.166 HD
ENDROOT
BRANCH   4  20
ATOM     20  N   UNL     1      12.753 -58.941 -24.306  1.00  0.00    -0.300 NA
ATOM     21  H   UNL     1      13.111 -59.840 -23.990  1.00  0.00     0.188 HD
ENDBRANCH   4  20
BRANCH  14  22
ATOM     22  C   UNL     1       9.194 -61.905 -27.326  1.00  0.00     0.027 C 
ATOM     23  C   UNL     1       8.298 -63.027 -27.839  1.00  0.00     0.008 C 
ENDBRANCH  14  22
TORSDOF 2
ENDMDL
MODEL 3
REMARK VINA RESULT:    -8.836      4.678      9.196
REMARK INTER + INTRA:          -9.697
REMARK INTER:                  -9.602
REMARK INTRA:                  -0.095
REMARK UNBOUND:                -0.087
REMARK SMILES CCC1=C[C@@H]2Cc3[nH]c4cc(Cl)ccc4c(=N)c3[C@H](C1)C2
REMARK SMILES IDX 8 1 7 2 18 3 16 4 15 5 14 6 13 7 11 8 12 9 10 10 9 11 19 12
REMARK SMILES IDX 20 13 3 14 4 15 5 16 6 17 21 18 17 20 2 22 1 23
REMARK H PARENT 8 19 17 21
ROOT
ATOM      1  N   UNL     1      12.517 -52.631 -24.460  1.00  0.00    -0.358 N 
ATOM      2  C   UNL     1      13.083 -51.403 -24.196  1.00  0.00     0.021 A 
ATOM      3  C   UNL     1      12.889 -50.738 -23.038  1.00  0.00     0.000 A 
ATOM      4  C   UNL     1      12.005 -51.352 -21.991  1.00  0.00     0.068 A 
ATOM      5  C   UNL     1      11.329 -52.645 -22.332  1.00  0.00     0.023 A 
ATOM      6  C   UNL     1      10.433 -53.274 -21.453  1.00  0.00     0.014 A 
ATOM      7  C   UNL     1       9.832 -54.485 -21.811  1.00  0.00     0.021 A 
ATOM      8  C   UNL     1      10.127 -55.070 -23.040  1.00  0.00     0.043 A 
ATOM      9  Cl  UNL     1       9.393 -56.564 -23.471  1.00  0.00    -0.084 Cl
ATOM     10  C   UNL     1      11.011 -54.452 -23.922  1.00  0.00     0.047 A 
ATOM     11  C   UNL     1      11.605 -53.230 -23.583  1.00  0.00     0.049 A 
ATOM     12  C   UNL     1      13.538 -49.398 -22.729  1.00  0.00     0.028 C 
ATOM     13  C   UNL     1      12.560 -48.234 -23.006  1.00  0.00     0.039 C 
ATOM     14  C   UNL     1      12.429 -47.864 -24.479  1.00  0.00    -0.074 C 
ATOM     15  C   UNL     1      13.257 -48.399 -25.400  1.00  0.00    -0.024 C 
ATOM     16  C   UNL     1      14.382 -49.355 -25.053  1.00  0.00     0.018 C 
ATOM     17  C   UNL     1      13.951 -50.815 -25.300  1.00  0.00     0.062 C 
ATOM     18  C   UNL     1      14.794 -49.201 -23.588  1.00  0.00     0.017 C 
ATOM     19  H   UNL     1      12.580 -52.985 -25.407  1.00  0.00     0.166 HD
ENDROOT
BRANCH   4  20
ATOM     20  N   UNL     1      11.863 -50.742 -20.852  1.00  0.00    -0.300 NA
ATOM     21  H   UNL     1      10.982 -50.956 -20.390  1.00  0.00     0.188 HD
ENDBRANCH   4  20
BRANCH  14  22
ATOM     22  C   UNL     1      11.310 -46.887 -24.777  1.00  0.00     0.027 C 
ATOM     23  C   UNL     1      11.053 -45.791 -23.749  1.00  0.00     0.008 C 
ENDBRANCH  14  22
TORSDOF 2
ENDMDL
MODEL 4
REMARK VINA RESULT:    -8.075      5.521     10.435
REMARK INTER + INTRA:          -8.870
REMARK INTER:                  -8.786
REMARK INTRA:                  -0.084
REMARK UNBOUND:                -0.087
REMARK SMILES CCC1=C[C@@H]2Cc3[nH]c4cc(Cl)ccc4c(=N)c3[C@H](C1)C2
REMARK SMILES IDX 8 1 7 2 18 3 16 4 15 5 14 6 13 7 11 8 12 9 10 10 9 11 19 12
REMARK SMILES IDX 20 13 3 14 4 15 5 16 6 17 21 18 17 20 2 22 1 23
REMARK H PARENT 8 19 17 21
ROOT
ATOM      1  N   UNL     1      13.972 -50.622 -24.970  1.00  0.00    -0.358 N 
ATOM      2  C   UNL     1      13.918 -49.509 -24.160  1.00  0.00     0.021 A 
ATOM      3  C   UNL     1      13.203 -49.467 -23.016  1.00  0.00     0.000 A 
ATOM      4  C   UNL     1      12.415 -50.679 -22.610  1.00  0.00     0.068 A 
ATOM      5  C   UNL     1      12.417 -51.848 -23.549  1.00  0.00     0.023 A 
ATOM      6  C   UNL     1      11.665 -53.007 -23.300  1.00  0.00     0.014 A 
ATOM      7  C   UNL     1      11.704 -54.076 -24.200  1.00  0.00     0.021 A 
ATOM      8  C   UNL     1      12.493 -53.991 -25.344  1.00  0.00     0.043 A 
ATOM      9  Cl  UNL     1      12.547 -55.313 -26.443  1.00  0.00    -0.084 Cl
ATOM     10  C   UNL     1      13.240 -52.844 -25.604  1.00  0.00     0.047 A 
ATOM     11  C   UNL     1      13.195 -51.759 -24.719  1.00  0.00     0.049 A 
ATOM     12  C   UNL     1      13.166 -48.252 -22.102  1.00  0.00     0.028 C 
ATOM     13  C   UNL     1      11.902 -47.403 -22.363  1.00  0.00     0.039 C 
ATOM     14  C   UNL     1      11.991 -46.509 -23.595  1.00  0.00    -0.074 C 
ATOM     15  C   UNL     1      13.158 -46.360 -24.254  1.00  0.00    -0.024 C 
ATOM     16  C   UNL     1      14.452 -47.017 -23.815  1.00  0.00     0.018 C 
ATOM     17  C   UNL     1      14.715 -48.300 -24.630  1.00  0.00     0.062 C 
ATOM     18  C   UNL     1      14.404 -47.375 -22.328  1.00  0.00     0.017 C 
ATOM     19  H   UNL     1      14.397 -50.519 -25.884  1.00  0.00     0.166 HD
ENDROOT
BRANCH   4  20
ATOM     20  N   UNL     1      11.772 -50.662 -21.481  1.00  0.00    -0.300 NA
ATOM     21  H   UNL     1      12.321 -50.284 -20.712  1.00  0.00     0.188 HD
ENDBRANCH   4  20
BRANCH  14  22
ATOM     22  C   UNL     1      10.682 -45.853 -23.983  1.00  0.00     0.027 C 
ATOM     23  C   UNL     1      10.443 -44.432 -23.485  1.00  0.00     0.008 C 
ENDBRANCH  14  22
TORSDOF 2
ENDMDL
MODEL 5
REMARK VINA RESULT:    -8.043      6.891     11.738
REMARK INTER + INTRA:          -8.835
REMARK INTER:                  -8.724
REMARK INTRA:                  -0.111
REMARK UNBOUND:                -0.087
REMARK SMILES CCC1=C[C@@H]2Cc3[nH]c4cc(Cl)ccc4c(=N)c3[C@H](C1)C2
REMARK SMILES IDX 8 1 7 2 18 3 16 4 15 5 14 6 13 7 11 8 12 9 10 10 9 11 19 12
REMARK SMILES IDX 20 13 3 14 4 15 5 16 6 17 21 18 17 20 2 22 1 23
REMARK H PARENT 8 19 17 21
ROOT
ATOM      1  N   UNL     1      10.420 -48.485 -22.316  1.00  0.00    -0.358 N 
ATOM      2  C   UNL     1      10.942 -47.322 -22.836  1.00  0.00     0.021 A 
ATOM      3  C   UNL     1      11.960 -47.305 -23.722  1.00  0.00     0.000 A 
ATOM      4  C   UNL     1      12.565 -48.610 -24.152  1.00  0.00     0.068 A 
ATOM      5  C   UNL     1      12.042 -49.858 -23.508  1.00  0.00     0.023 A 
ATOM      6  C   UNL     1      12.578 -51.125 -23.788  1.00  0.00     0.014 A 
ATOM      7  C   UNL     1      12.052 -52.262 -23.170  1.00  0.00     0.021 A 
ATOM      8  C   UNL     1      10.991 -52.139 -22.276  1.00  0.00     0.043 A 
ATOM      9  Cl  UNL     1      10.340 -53.543 -21.526  1.00  0.00    -0.084 Cl
ATOM     10  C   UNL     1      10.454 -50.887 -21.987  1.00  0.00     0.047 A 
ATOM     11  C   UNL     1      10.985 -49.737 -22.586  1.00  0.00     0.049 A 
ATOM     12  C   UNL     1      12.518 -46.026 -24.325  1.00  0.00     0.028 C 
ATOM     13  C   UNL     1      13.792 -45.573 -23.577  1.00  0.00     0.039 C 
ATOM     14  C   UNL     1      13.524 -44.867 -22.253  1.00  0.00    -0.074 C 
ATOM     15  C   UNL     1      12.270 -44.517 -21.901  1.00  0.00    -0.024 C 
ATOM     16  C   UNL     1      11.061 -44.753 -22.785  1.00  0.00     0.018 C 
ATOM     17  C   UNL     1      10.307 -46.026 -22.349  1.00  0.00     0.062 C 
ATOM     18  C   UNL     1      11.478 -44.901 -24.249  1.00  0.00     0.017 C 
ATOM     19  H   UNL     1       9.771 -48.405 -21.541  1.00  0.00     0.166 HD
ENDROOT
BRANCH   4  20
ATOM     20  N   UNL     1      13.507 -48.601 -25.049  1.00  0.00    -0.300 NA
ATOM     21  H   UNL     1      14.004 -49.486 -25.117  1.00  0.00     0.188 HD
ENDBRANCH   4  20
BRANCH  14  22
ATOM     22  C   UNL     1      14.763 -44.629 -21.414  1.00  0.00     0.027 C 
ATOM     23  C   UNL     1      15.210 -45.763 -20.498  1.00  0.00     0.008 C 
ENDBRANCH  14  22
TORSDOF 2
ENDMDL
MODEL 6
REMARK VINA RESULT:    -7.981      4.863      9.479
REMARK INTER + INTRA:          -8.767
REMARK INTER:                  -8.657
REMARK INTRA:                  -0.111
REMARK UNBOUND:                -0.087
REMARK SMILES CCC1=C[C@@H]2Cc3[nH]c4cc(Cl)ccc4c(=N)c3[C@H](C1)C2
REMARK SMILES IDX 8 1 7 2 18 3 16 4 15 5 14 6 13 7 11 8 12 9 10 10 9 11 19 12
REMARK SMILES IDX 20 13 3 14 4 15 5 16 6 17 21 18 17 20 2 22 1 23
REMARK H PARENT 8 19 17 21
ROOT
ATOM      1  N   UNL     1      11.716 -50.961 -22.933  1.00  0.00    -0.358 N 
ATOM      2  C   UNL     1      12.417 -49.924 -23.509  1.00  0.00     0.021 A 
ATOM      3  C   UNL     1      13.134 -50.064 -24.645  1.00  0.00     0.000 A 
ATOM      4  C   UNL     1      13.185 -51.410 -25.307  1.00  0.00     0.068 A 
ATOM      5  C   UNL     1      12.488 -52.544 -24.618  1.00  0.00     0.023 A 
ATOM      6  C   UNL     1      12.526 -53.857 -25.114  1.00  0.00     0.014 A 
ATOM      7  C   UNL     1      11.853 -54.881 -24.441  1.00  0.00     0.021 A 
ATOM      8  C   UNL     1      11.142 -54.598 -23.278  1.00  0.00     0.043 A 
ATOM      9  Cl  UNL     1      10.307 -55.860 -22.460  1.00  0.00    -0.084 Cl
ATOM     10  C   UNL     1      11.102 -53.300 -22.774  1.00  0.00     0.047 A 
ATOM     11  C   UNL     1      11.787 -52.268 -23.428  1.00  0.00     0.049 A 
ATOM     12  C   UNL     1      13.882 -48.915 -25.302  1.00  0.00     0.028 C 
ATOM     13  C   UNL     1      15.379 -48.942 -24.921  1.00  0.00     0.039 C 
ATOM     14  C   UNL     1      15.682 -48.384 -23.534  1.00  0.00    -0.074 C 
ATOM     15  C   UNL     1      14.725 -47.756 -22.822  1.00  0.00    -0.024 C 
ATOM     16  C   UNL     1      13.319 -47.522 -23.339  1.00  0.00     0.018 C 
ATOM     17  C   UNL     1      12.351 -48.587 -22.785  1.00  0.00     0.062 C 
ATOM     18  C   UNL     1      13.287 -47.570 -24.868  1.00  0.00     0.017 C 
ATOM     19  H   UNL     1      11.340 -50.816 -22.004  1.00  0.00     0.166 HD
ENDROOT
BRANCH   4  20
ATOM     20  N   UNL     1      13.826 -51.534 -26.431  1.00  0.00    -0.300 NA
ATOM     21  H   UNL     1      13.261 -51.944 -27.171  1.00  0.00     0.188 HD
ENDBRANCH   4  20
BRANCH  14  22
ATOM     22  C   UNL     1      17.104 -48.617 -23.068  1.00  0.00     0.027 C 
ATOM     23  C   UNL     1      17.391 -49.926 -22.342  1.00  0.00     0.008 C 
ENDBRANCH  14  22
TORSDOF 2
ENDMDL
MODEL 7
REMARK VINA RESULT:    -7.837      7.759     10.004
REMARK INTER + INTRA:          -8.611
REMARK INTER:                  -8.502
REMARK INTRA:                  -0.109
REMARK UNBOUND:                -0.087
REMARK SMILES CCC1=C[C@@H]2Cc3[nH]c4cc(Cl)ccc4c(=N)c3[C@H](C1)C2
REMARK SMILES IDX 8 1 7 2 18 3 16 4 15 5 14 6 13 7 11 8 12 9 10 10 9 11 19 12
REMARK SMILES IDX 20 13 3 14 4 15 5 16 6 17 21 18 17 20 2 22 1 23
REMARK H PARENT 8 19 17 21
ROOT
ATOM      1  N   UNL     1      12.969 -47.505 -25.219  1.00  0.00    -0.358 N 
ATOM      2  C   UNL     1      13.208 -48.860 -25.151  1.00  0.00     0.021 A 
ATOM      3  C   UNL     1      12.669 -49.655 -24.202  1.00  0.00     0.000 A 
ATOM      4  C   UNL     1      11.778 -49.037 -23.163  1.00  0.00     0.068 A 
ATOM      5  C   UNL     1      11.601 -47.550 -23.202  1.00  0.00     0.023 A 
ATOM      6  C   UNL     1      10.843 -46.862 -22.242  1.00  0.00     0.014 A 
ATOM      7  C   UNL     1      10.699 -45.474 -22.324  1.00  0.00     0.021 A 
ATOM      8  C   UNL     1      11.307 -44.773 -23.362  1.00  0.00     0.043 A 
ATOM      9  Cl  UNL     1      11.118 -43.066 -23.465  1.00  0.00    -0.084 Cl
ATOM     10  C   UNL     1      12.065 -45.444 -24.318  1.00  0.00     0.047 A 
ATOM     11  C   UNL     1      12.232 -46.833 -24.237  1.00  0.00     0.049 A 
ATOM     12  C   UNL     1      12.903 -51.155 -24.143  1.00  0.00     0.028 C 
ATOM     13  C   UNL     1      14.011 -51.501 -23.123  1.00  0.00     0.039 C 
ATOM     14  C   UNL     1      15.428 -51.271 -23.636  1.00  0.00    -0.074 C 
ATOM     15  C   UNL     1      15.651 -50.979 -24.934  1.00  0.00    -0.024 C 
ATOM     16  C   UNL     1      14.547 -50.897 -25.971  1.00  0.00     0.018 C 
ATOM     17  C   UNL     1      14.137 -49.430 -26.214  1.00  0.00     0.062 C 
ATOM     18  C   UNL     1      13.318 -51.688 -25.520  1.00  0.00     0.017 C 
ATOM     19  H   UNL     1      13.536 -46.959 -25.857  1.00  0.00     0.166 HD
ENDROOT
BRANCH   4  20
ATOM     20  N   UNL     1      11.210 -49.808 -22.284  1.00  0.00    -0.300 NA
ATOM     21  H   UNL     1      11.432 -49.553 -21.324  1.00  0.00     0.188 HD
ENDBRANCH   4  20
BRANCH  14  22
ATOM     22  C   UNL     1      16.501 -51.388 -22.573  1.00  0.00     0.027 C 
ATOM     23  C   UNL     1      17.126 -50.091 -22.073  1.00  0.00     0.008 C 
ENDBRANCH  14  22
TORSDOF 2
ENDMDL
MODEL 8
REMARK VINA RESULT:    -7.327      6.054      8.947
REMARK INTER + INTRA:          -8.057
REMARK INTER:                  -7.976
REMARK INTRA:                  -0.081
REMARK UNBOUND:                -0.087
REMARK SMILES CCC1=C[C@@H]2Cc3[nH]c4cc(Cl)ccc4c(=N)c3[C@H](C1)C2
REMARK SMILES IDX 8 1 7 2 18 3 16 4 15 5 14 6 13 7 11 8 12 9 10 10 9 11 19 12
REMARK SMILES IDX 20 13 3 14 4 15 5 16 6 17 21 18 17 20 2 22 1 23
REMARK H PARENT 8 19 17 21
ROOT
ATOM      1  N   UNL     1      16.900 -51.412 -23.361  1.00  0.00    -0.358 N 
ATOM      2  C   UNL     1      15.724 -51.297 -24.069  1.00  0.00     0.021 A 
ATOM      3  C   UNL     1      14.847 -50.290 -23.876  1.00  0.00     0.000 A 
ATOM      4  C   UNL     1      15.153 -49.253 -22.834  1.00  0.00     0.068 A 
ATOM      5  C   UNL     1      16.393 -49.445 -22.015  1.00  0.00     0.023 A 
ATOM      6  C   UNL     1      16.743 -48.572 -20.972  1.00  0.00     0.014 A 
ATOM      7  C   UNL     1      17.915 -48.786 -20.240  1.00  0.00     0.021 A 
ATOM      8  C   UNL     1      18.739 -49.865 -20.549  1.00  0.00     0.043 A 
ATOM      9  Cl  UNL     1      20.185 -50.118 -19.653  1.00  0.00    -0.084 Cl
ATOM     10  C   UNL     1      18.400 -50.740 -21.578  1.00  0.00     0.047 A 
ATOM     11  C   UNL     1      17.219 -50.547 -22.307  1.00  0.00     0.049 A 
ATOM     12  C   UNL     1      13.563 -50.140 -24.677  1.00  0.00     0.028 C 
ATOM     13  C   UNL     1      12.355 -50.704 -23.895  1.00  0.00     0.039 C 
ATOM     14  C   UNL     1      12.238 -52.223 -23.936  1.00  0.00    -0.074 C 
ATOM     15  C   UNL     1      13.024 -52.953 -24.754  1.00  0.00    -0.024 C 
ATOM     16  C   UNL     1      14.035 -52.339 -25.703  1.00  0.00     0.018 C 
ATOM     17  C   UNL     1      15.451 -52.387 -25.096  1.00  0.00     0.062 C 
ATOM     18  C   UNL     1      13.676 -50.885 -26.013  1.00  0.00     0.017 C 
ATOM     19  H   UNL     1      17.421 -52.276 -23.451  1.00  0.00     0.166 HD
ENDROOT
BRANCH   4  20
ATOM     20  N   UNL     1      14.339 -48.251 -22.686  1.00  0.00    -0.300 NA
ATOM     21  H   UNL     1      14.183 -48.001 -21.712  1.00  0.00     0.188 HD
ENDBRANCH   4  20
BRANCH  14  22
ATOM     22  C   UNL     1      11.199 -52.791 -22.991  1.00  0.00     0.027 C 
ATOM     23  C   UNL     1      10.830 -54.260 -23.167  1.00  0.00     0.008 C 
ENDBRANCH  14  22
TORSDOF 2
ENDMDL
MODEL 9
REMARK VINA RESULT:    -7.104      6.744     10.029
REMARK INTER + INTRA:          -7.814
REMARK INTER:                  -7.733
REMARK INTRA:                  -0.081
REMARK UNBOUND:                -0.087
REMARK SMILES CCC1=C[C@@H]2Cc3[nH]c4cc(Cl)ccc4c(=N)c3[C@H](C1)C2
REMARK SMILES IDX 8 1 7 2 18 3 16 4 15 5 14 6 13 7 11 8 12 9 10 10 9 11 19 12
REMARK SMILES IDX 20 13 3 14 4 15 5 16 6 17 21 18 17 20 2 22 1 23
REMARK H PARENT 8 19 17 21
ROOT
ATOM      1  N   UNL     1      15.971 -49.071 -21.986  1.00  0.00    -0.358 N 
ATOM      2  C   UNL     1      14.847 -49.353 -22.731  1.00  0.00     0.021 A 
ATOM      3  C   UNL     1      13.683 -48.686 -22.586  1.00  0.00     0.000 A 
ATOM      4  C   UNL     1      13.598 -47.595 -21.558  1.00  0.00     0.068 A 
ATOM      5  C   UNL     1      14.803 -47.363 -20.698  1.00  0.00     0.023 A 
ATOM      6  C   UNL     1      14.812 -46.413 -19.665  1.00  0.00     0.014 A 
ATOM      7  C   UNL     1      15.963 -46.225 -18.894  1.00  0.00     0.021 A 
ATOM      8  C   UNL     1      17.104 -46.979 -19.155  1.00  0.00     0.043 A 
ATOM      9  Cl  UNL     1      18.521 -46.737 -18.210  1.00  0.00    -0.084 Cl
ATOM     10  C   UNL     1      17.106 -47.928 -20.174  1.00  0.00     0.047 A 
ATOM     11  C   UNL     1      15.953 -48.138 -20.942  1.00  0.00     0.049 A 
ATOM     12  C   UNL     1      12.450 -48.971 -23.429  1.00  0.00     0.028 C 
ATOM     13  C   UNL     1      11.465 -49.890 -22.672  1.00  0.00     0.039 C 
ATOM     14  C   UNL     1      11.850 -51.365 -22.683  1.00  0.00    -0.074 C 
ATOM     15  C   UNL     1      12.860 -51.807 -23.461  1.00  0.00    -0.024 C 
ATOM     16  C   UNL     1      13.648 -50.907 -24.393  1.00  0.00     0.018 C 
ATOM     17  C   UNL     1      14.981 -50.483 -23.742  1.00  0.00     0.062 C 
ATOM     18  C   UNL     1      12.847 -49.652 -24.745  1.00  0.00     0.017 C 
ATOM     19  H   UNL     1      16.748 -49.719 -22.042  1.00  0.00     0.166 HD
ENDROOT
BRANCH   4  20
ATOM     20  N   UNL     1      12.497 -46.911 -21.456  1.00  0.00    -0.300 NA
ATOM     21  H   UNL     1      12.650 -45.906 -21.433  1.00  0.00     0.188 HD
ENDBRANCH   4  20
BRANCH  14  22
ATOM     22  C   UNL     1      11.021 -52.231 -21.758  1.00  0.00     0.027 C 
ATOM     23  C   UNL     1      10.911 -53.711 -22.105  1.00  0.00     0.008 C 
ENDBRANCH  14  22
TORSDOF 2
ENDMDL
