MODEL 1
REMARK VINA RESULT:   -11.767      0.000      0.000
REMARK INTER + INTRA:         -16.413
REMARK INTER:                 -15.894
REMARK INTRA:                  -0.519
REMARK UNBOUND:                -0.519
REMARK SMILES COc1cc2onc(CC[C@H]3CC[N@H+](Cc4ccccc4)CC3)c2cc1C
REMARK SMILES IDX 10 1 11 2 13 3 14 4 12 5 22 6 23 7 15 9 16 10 17 11 21 12
REMARK SMILES IDX 18 13 20 14 19 15 9 16 8 17 7 18 24 19 6 20 25 21 5 22 26 23
REMARK SMILES IDX 4 24 3 25 27 26 2 27 1 28
REMARK H PARENT 14 8
ROOT
ATOM      1  C   UNL     1      11.001 -56.142 -21.917  1.00  0.00     0.010 C 
ENDROOT
BRANCH   1   2
ATOM      2  C   UNL     1      11.521 -57.562 -22.254  1.00  0.00     0.000 C 
ATOM      3  C   UNL     1      12.162 -59.208 -24.093  1.00  0.00     0.262 C 
ATOM      4  N   UNL     1      11.106 -60.131 -23.546  1.00  0.00    -0.331 N 
ATOM      5  C   UNL     1      11.776 -57.776 -23.755  1.00  0.00     0.065 C 
ATOM      6  C   UNL     1      11.063 -60.067 -22.044  1.00  0.00     0.262 C 
ATOM      7  C   UNL     1      10.648 -58.664 -21.624  1.00  0.00     0.065 C 
ATOM      8  H   UNL     1      10.200 -59.769 -23.880  1.00  0.00     0.348 HD
BRANCH   4   9
ATOM      9  C   UNL     1      11.183 -61.538 -24.094  1.00  0.00     0.299 C 
BRANCH   9  10
ATOM     10  C   UNL     1       9.904 -62.331 -24.043  1.00  0.00     0.006 A 
ATOM     11  C   UNL     1       9.590 -63.112 -22.919  1.00  0.00     0.009 A 
ATOM     12  C   UNL     1       9.006 -62.310 -25.122  1.00  0.00     0.009 A 
ATOM     13  C   UNL     1       8.415 -63.863 -22.884  1.00  0.00     0.001 A 
ATOM     14  C   UNL     1       7.832 -63.062 -25.083  1.00  0.00     0.001 A 
ATOM     15  C   UNL     1       7.538 -63.840 -23.965  1.00  0.00     0.000 A 
ENDBRANCH   9  10
ENDBRANCH   4   9
ENDBRANCH   1   2
BRANCH   1  16
ATOM     16  C   UNL     1      10.792 -55.146 -23.071  1.00  0.00     0.061 C 
BRANCH  16  17
ATOM     17  C   UNL     1      10.975 -53.714 -22.703  1.00  0.00     0.091 A 
ATOM     18  N   UNL     1      10.421 -53.226 -21.581  1.00  0.00    -0.084 NA
ATOM     19  C   UNL     1      11.701 -52.714 -23.401  1.00  0.00     0.045 A 
ATOM     20  O   UNL     1      10.772 -51.885 -21.543  1.00  0.00    -0.356 OA
ATOM     21  C   UNL     1      12.469 -52.624 -24.571  1.00  0.00     0.021 A 
ATOM     22  C   UNL     1      11.533 -51.581 -22.629  1.00  0.00     0.170 A 
ATOM     23  C   UNL     1      13.041 -51.380 -24.913  1.00  0.00    -0.008 A 
ATOM     24  C   UNL     1      12.072 -50.331 -22.925  1.00  0.00     0.097 A 
ATOM     25  C   UNL     1      12.837 -50.246 -24.097  1.00  0.00     0.125 A 
ATOM     26  C   UNL     1      13.864 -51.273 -26.171  1.00  0.00     0.048 C 
BRANCH  25  27
ATOM     27  O   UNL     1      13.444 -49.095 -24.535  1.00  0.00    -0.496 OA
ATOM     28  C   UNL     1      12.655 -47.913 -24.595  1.00  0.00     0.278 C 
ENDBRANCH  25  27
ENDBRANCH  16  17
ENDBRANCH   1  16
TORSDOF 6
ENDMDL
MODEL 2
REMARK VINA RESULT:   -11.118      1.671      2.265
REMARK INTER + INTRA:         -15.537
REMARK INTER:                 -14.999
REMARK INTRA:                  -0.538
REMARK UNBOUND:                -0.519
REMARK SMILES COc1cc2onc(CC[C@H]3CC[N@H+](Cc4ccccc4)CC3)c2cc1C
REMARK SMILES IDX 10 1 11 2 13 3 14 4 12 5 22 6 23 7 15 9 16 10 17 11 21 12
REMARK SMILES IDX 18 13 20 14 19 15 9 16 8 17 7 18 24 19 6 20 25 21 5 22 26 23
REMARK SMILES IDX 4 24 3 25 27 26 2 27 1 28
REMARK H PARENT 14 8
ROOT
ATOM      1  C   UNL     1      10.858 -55.884 -22.268  1.00  0.00     0.010 C 
ENDROOT
BRANCH   1   2
ATOM      2  C   UNL     1      10.731 -57.391 -22.609  1.00  0.00     0.000 C 
ATOM      3  C   UNL     1      11.677 -59.358 -23.926  1.00  0.00     0.262 C 
ATOM      4  N   UNL     1      10.331 -59.477 -24.591  1.00  0.00    -0.331 N 
ATOM      5  C   UNL     1      11.876 -57.914 -23.490  1.00  0.00     0.065 C 
ATOM      6  C   UNL     1       9.224 -59.193 -23.614  1.00  0.00     0.262 C 
ATOM      7  C   UNL     1       9.334 -57.746 -23.154  1.00  0.00     0.065 C 
ATOM      8  H   UNL     1      10.291 -58.734 -25.304  1.00  0.00     0.348 HD
BRANCH   4   9
ATOM      9  C   UNL     1      10.146 -60.763 -25.366  1.00  0.00     0.299 C 
BRANCH   9  10
ATOM     10  C   UNL     1       9.443 -61.873 -24.632  1.00  0.00     0.006 A 
ATOM     11  C   UNL     1       8.191 -62.337 -25.067  1.00  0.00     0.009 A 
ATOM     12  C   UNL     1      10.023 -62.459 -23.496  1.00  0.00     0.009 A 
ATOM     13  C   UNL     1       7.531 -63.352 -24.372  1.00  0.00     0.001 A 
ATOM     14  C   UNL     1       9.359 -63.474 -22.805  1.00  0.00     0.001 A 
ATOM     15  C   UNL     1       8.113 -63.918 -23.241  1.00  0.00     0.000 A 
ENDBRANCH   9  10
ENDBRANCH   4   9
ENDBRANCH   1   2
BRANCH   1  16
ATOM     16  C   UNL     1      10.320 -54.858 -23.280  1.00  0.00     0.061 C 
BRANCH  16  17
ATOM     17  C   UNL     1      11.359 -54.214 -24.132  1.00  0.00     0.091 A 
ATOM     18  N   UNL     1      11.868 -54.868 -25.189  1.00  0.00    -0.084 NA
ATOM     19  C   UNL     1      11.932 -52.924 -23.995  1.00  0.00     0.045 A 
ATOM     20  O   UNL     1      12.797 -54.006 -25.750  1.00  0.00    -0.356 OA
ATOM     21  C   UNL     1      11.802 -51.824 -23.135  1.00  0.00     0.021 A 
ATOM     22  C   UNL     1      12.836 -52.848 -25.037  1.00  0.00     0.170 A 
ATOM     23  C   UNL     1      12.599 -50.683 -23.368  1.00  0.00    -0.008 A 
ATOM     24  C   UNL     1      13.648 -51.749 -25.306  1.00  0.00     0.097 A 
ATOM     25  C   UNL     1      13.516 -50.653 -24.442  1.00  0.00     0.125 A 
ATOM     26  C   UNL     1      12.469 -49.497 -22.446  1.00  0.00     0.048 C 
BRANCH  25  27
ATOM     27  O   UNL     1      14.233 -49.488 -24.564  1.00  0.00    -0.496 OA
ATOM     28  C   UNL     1      13.947 -48.651 -25.678  1.00  0.00     0.278 C 
ENDBRANCH  25  27
ENDBRANCH  16  17
ENDBRANCH   1  16
TORSDOF 6
ENDMDL
MODEL 3
REMARK VINA RESULT:   -10.910      4.127      8.750
REMARK INTER + INTRA:         -15.256
REMARK INTER:                 -13.920
REMARK INTRA:                  -1.336
REMARK UNBOUND:                -0.519
REMARK SMILES COc1cc2onc(CC[C@H]3CC[N@H+](Cc4ccccc4)CC3)c2cc1C
REMARK SMILES IDX 10 1 11 2 13 3 14 4 12 5 22 6 23 7 15 9 16 10 17 11 21 12
REMARK SMILES IDX 18 13 20 14 19 15 9 16 8 17 7 18 24 19 6 20 25 21 5 22 26 23
REMARK SMILES IDX 4 24 3 25 27 26 2 27 1 28
REMARK H PARENT 14 8
ROOT
ATOM      1  C   UNL     1       7.204 -61.547 -23.791  1.00  0.00     0.010 C 
ENDROOT
BRANCH   1   2
ATOM      2  C   UNL     1       8.007 -60.520 -22.954  1.00  0.00     0.000 C 
ATOM      3  C   UNL     1       9.060 -58.199 -22.881  1.00  0.00     0.262 C 
ATOM      4  N   UNL     1      10.380 -58.877 -22.626  1.00  0.00    -0.331 N 
ATOM      5  C   UNL     1       8.164 -59.157 -23.649  1.00  0.00     0.065 C 
ATOM      6  C   UNL     1      10.206 -60.072 -21.731  1.00  0.00     0.262 C 
ATOM      7  C   UNL     1       9.342 -61.100 -22.448  1.00  0.00     0.065 C 
ATOM      8  H   UNL     1      10.704 -59.237 -23.536  1.00  0.00     0.348 HD
BRANCH   4   9
ATOM      9  C   UNL     1      11.473 -57.932 -22.176  1.00  0.00     0.299 C 
BRANCH   9  10
ATOM     10  C   UNL     1      11.305 -56.494 -22.588  1.00  0.00     0.006 A 
ATOM     11  C   UNL     1      10.822 -55.541 -21.678  1.00  0.00     0.009 A 
ATOM     12  C   UNL     1      11.624 -56.082 -23.892  1.00  0.00     0.009 A 
ATOM     13  C   UNL     1      10.646 -54.213 -22.068  1.00  0.00     0.001 A 
ATOM     14  C   UNL     1      11.447 -54.753 -24.278  1.00  0.00     0.001 A 
ATOM     15  C   UNL     1      10.957 -53.820 -23.368  1.00  0.00     0.000 A 
ENDBRANCH   9  10
ENDBRANCH   4   9
ENDBRANCH   1   2
BRANCH   1  16
ATOM     16  C   UNL     1       7.963 -62.723 -24.429  1.00  0.00     0.061 C 
BRANCH  16  17
ATOM     17  C   UNL     1       8.343 -62.525 -25.856  1.00  0.00     0.091 A 
ATOM     18  N   UNL     1       7.687 -63.178 -26.829  1.00  0.00    -0.084 NA
ATOM     19  C   UNL     1       9.359 -61.688 -26.385  1.00  0.00     0.045 A 
ATOM     20  O   UNL     1       8.285 -62.780 -28.015  1.00  0.00    -0.356 OA
ATOM     21  C   UNL     1      10.321 -60.794 -25.892  1.00  0.00     0.021 A 
ATOM     22  C   UNL     1       9.282 -61.893 -27.749  1.00  0.00     0.170 A 
ATOM     23  C   UNL     1      11.171 -60.140 -26.807  1.00  0.00    -0.008 A 
ATOM     24  C   UNL     1      10.101 -61.277 -28.693  1.00  0.00     0.097 A 
ATOM     25  C   UNL     1      11.062 -60.386 -28.194  1.00  0.00     0.125 A 
ATOM     26  C   UNL     1      12.210 -59.180 -26.286  1.00  0.00     0.048 C 
BRANCH  25  27
ATOM     27  O   UNL     1      11.944 -59.689 -28.981  1.00  0.00    -0.496 OA
ATOM     28  C   UNL     1      11.676 -59.625 -30.377  1.00  0.00     0.278 C 
ENDBRANCH  25  27
ENDBRANCH  16  17
ENDBRANCH   1  16
TORSDOF 6
ENDMDL
MODEL 4
REMARK VINA RESULT:   -10.586      2.105      2.986
REMARK INTER + INTRA:         -14.818
REMARK INTER:                 -13.977
REMARK INTRA:                  -0.841
REMARK UNBOUND:                -0.519
REMARK SMILES COc1cc2onc(CC[C@H]3CC[N@H+](Cc4ccccc4)CC3)c2cc1C
REMARK SMILES IDX 10 1 11 2 13 3 14 4 12 5 22 6 23 7 15 9 16 10 17 11 21 12
REMARK SMILES IDX 18 13 20 14 19 15 9 16 8 17 7 18 24 19 6 20 25 21 5 22 26 23
REMARK SMILES IDX 4 24 3 25 27 26 2 27 1 28
REMARK H PARENT 14 8
ROOT
ATOM      1  C   UNL     1      11.162 -56.442 -21.821  1.00  0.00     0.010 C 
ENDROOT
BRANCH   1   2
ATOM      2  C   UNL     1      10.692 -57.909 -21.986  1.00  0.00     0.000 C 
ATOM      3  C   UNL     1      11.267 -60.240 -22.847  1.00  0.00     0.262 C 
ATOM      4  N   UNL     1      10.050 -60.144 -23.728  1.00  0.00    -0.331 N 
ATOM      5  C   UNL     1      11.775 -58.833 -22.568  1.00  0.00     0.065 C 
ATOM      6  C   UNL     1       8.926 -59.442 -23.017  1.00  0.00     0.262 C 
ATOM      7  C   UNL     1       9.346 -58.007 -22.731  1.00  0.00     0.065 C 
ATOM      8  H   UNL     1      10.312 -59.544 -24.524  1.00  0.00     0.348 HD
BRANCH   4   9
ATOM      9  C   UNL     1       9.647 -61.460 -24.355  1.00  0.00     0.299 C 
BRANCH   9  10
ATOM     10  C   UNL     1       9.651 -61.496 -25.860  1.00  0.00     0.006 A 
ATOM     11  C   UNL     1      10.493 -60.645 -26.594  1.00  0.00     0.009 A 
ATOM     12  C   UNL     1       8.808 -62.377 -26.556  1.00  0.00     0.009 A 
ATOM     13  C   UNL     1      10.478 -60.665 -27.990  1.00  0.00     0.001 A 
ATOM     14  C   UNL     1       8.797 -62.393 -27.952  1.00  0.00     0.001 A 
ATOM     15  C   UNL     1       9.630 -61.536 -28.667  1.00  0.00     0.000 A 
ENDBRANCH   9  10
ENDBRANCH   4   9
ENDBRANCH   1   2
BRANCH   1  16
ATOM     16  C   UNL     1      10.547 -55.369 -22.736  1.00  0.00     0.061 C 
BRANCH  16  17
ATOM     17  C   UNL     1      11.450 -54.867 -23.809  1.00  0.00     0.091 A 
ATOM     18  N   UNL     1      11.926 -55.708 -24.743  1.00  0.00    -0.084 NA
ATOM     19  C   UNL     1      11.916 -53.544 -24.018  1.00  0.00     0.045 A 
ATOM     20  O   UNL     1      12.725 -54.935 -25.570  1.00  0.00    -0.356 OA
ATOM     21  C   UNL     1      11.761 -52.288 -23.412  1.00  0.00     0.021 A 
ATOM     22  C   UNL     1      12.720 -53.646 -25.136  1.00  0.00     0.170 A 
ATOM     23  C   UNL     1      12.432 -51.179 -23.968  1.00  0.00    -0.008 A 
ATOM     24  C   UNL     1      13.407 -52.584 -25.720  1.00  0.00     0.097 A 
ATOM     25  C   UNL     1      13.250 -51.331 -25.109  1.00  0.00     0.125 A 
ATOM     26  C   UNL     1      12.274 -49.826 -23.321  1.00  0.00     0.048 C 
BRANCH  25  27
ATOM     27  O   UNL     1      13.849 -50.179 -25.556  1.00  0.00    -0.496 OA
ATOM     28  C   UNL     1      14.361 -50.173 -26.883  1.00  0.00     0.278 C 
ENDBRANCH  25  27
ENDBRANCH  16  17
ENDBRANCH   1  16
TORSDOF 6
ENDMDL
MODEL 5
REMARK VINA RESULT:   -10.373      2.918     10.875
REMARK INTER + INTRA:         -14.531
REMARK INTER:                 -14.103
REMARK INTRA:                  -0.427
REMARK UNBOUND:                -0.519
REMARK SMILES COc1cc2onc(CC[C@H]3CC[N@H+](Cc4ccccc4)CC3)c2cc1C
REMARK SMILES IDX 10 1 11 2 13 3 14 4 12 5 22 6 23 7 15 9 16 10 17 11 21 12
REMARK SMILES IDX 18 13 20 14 19 15 9 16 8 17 7 18 24 19 6 20 25 21 5 22 26 23
REMARK SMILES IDX 4 24 3 25 27 26 2 27 1 28
REMARK H PARENT 14 8
ROOT
ATOM      1  C   UNL     1       9.981 -54.073 -22.582  1.00  0.00     0.010 C 
ENDROOT
BRANCH   1   2
ATOM      2  C   UNL     1      10.501 -52.659 -22.944  1.00  0.00     0.000 C 
ATOM      3  C   UNL     1      12.544 -51.185 -23.339  1.00  0.00     0.262 C 
ATOM      4  N   UNL     1      12.046 -50.308 -22.221  1.00  0.00    -0.331 N 
ATOM      5  C   UNL     1      12.029 -52.598 -23.112  1.00  0.00     0.065 C 
ATOM      6  C   UNL     1      10.547 -50.200 -22.250  1.00  0.00     0.262 C 
ATOM      7  C   UNL     1       9.951 -51.577 -21.995  1.00  0.00     0.065 C 
ATOM      8  H   UNL     1      12.289 -50.788 -21.343  1.00  0.00     0.348 HD
BRANCH   4   9
ATOM      9  C   UNL     1      12.752 -48.972 -22.135  1.00  0.00     0.299 C 
BRANCH   9  10
ATOM     10  C   UNL     1      12.008 -47.801 -22.717  1.00  0.00     0.006 A 
ATOM     11  C   UNL     1      12.026 -47.556 -24.100  1.00  0.00     0.009 A 
ATOM     12  C   UNL     1      11.287 -46.928 -21.887  1.00  0.00     0.009 A 
ATOM     13  C   UNL     1      11.353 -46.456 -24.634  1.00  0.00     0.001 A 
ATOM     14  C   UNL     1      10.615 -45.829 -22.426  1.00  0.00     0.001 A 
ATOM     15  C   UNL     1      10.651 -45.593 -23.798  1.00  0.00     0.000 A 
ENDBRANCH   9  10
ENDBRANCH   4   9
ENDBRANCH   1   2
BRANCH   1  16
ATOM     16  C   UNL     1      10.976 -55.095 -22.008  1.00  0.00     0.061 C 
BRANCH  16  17
ATOM     17  C   UNL     1      11.336 -56.207 -22.932  1.00  0.00     0.091 A 
ATOM     18  N   UNL     1      11.926 -55.945 -24.110  1.00  0.00    -0.084 NA
ATOM     19  C   UNL     1      11.144 -57.600 -22.746  1.00  0.00     0.045 A 
ATOM     20  O   UNL     1      12.114 -57.178 -24.716  1.00  0.00    -0.356 OA
ATOM     21  C   UNL     1      10.616 -58.446 -21.759  1.00  0.00     0.021 A 
ATOM     22  C   UNL     1      11.645 -58.163 -23.903  1.00  0.00     0.170 A 
ATOM     23  C   UNL     1      10.621 -59.839 -21.987  1.00  0.00    -0.008 A 
ATOM     24  C   UNL     1      11.668 -59.529 -24.177  1.00  0.00     0.097 A 
ATOM     25  C   UNL     1      11.138 -60.370 -23.189  1.00  0.00     0.125 A 
ATOM     26  C   UNL     1      10.053 -60.755 -20.933  1.00  0.00     0.048 C 
BRANCH  25  27
ATOM     27  O   UNL     1      11.086 -61.738 -23.291  1.00  0.00    -0.496 OA
ATOM     28  C   UNL     1      10.086 -62.300 -24.133  1.00  0.00     0.278 C 
ENDBRANCH  25  27
ENDBRANCH  16  17
ENDBRANCH   1  16
TORSDOF 6
ENDMDL
MODEL 6
REMARK VINA RESULT:   -10.061      2.786      3.833
REMARK INTER + INTRA:         -14.109
REMARK INTER:                 -13.642
REMARK INTRA:                  -0.467
REMARK UNBOUND:                -0.519
REMARK SMILES COc1cc2onc(CC[C@H]3CC[N@H+](Cc4ccccc4)CC3)c2cc1C
REMARK SMILES IDX 10 1 11 2 13 3 14 4 12 5 22 6 23 7 15 9 16 10 17 11 21 12
REMARK SMILES IDX 18 13 20 14 19 15 9 16 8 17 7 18 24 19 6 20 25 21 5 22 26 23
REMARK SMILES IDX 4 24 3 25 27 26 2 27 1 28
REMARK H PARENT 14 8
ROOT
ATOM      1  C   UNL     1      10.817 -56.845 -22.062  1.00  0.00     0.010 C 
ENDROOT
BRANCH   1   2
ATOM      2  C   UNL     1      11.091 -58.069 -22.972  1.00  0.00     0.000 C 
ATOM      3  C   UNL     1      12.236 -58.937 -25.078  1.00  0.00     0.262 C 
ATOM      4  N   UNL     1      10.874 -59.345 -25.572  1.00  0.00    -0.331 N 
ATOM      5  C   UNL     1      12.072 -57.770 -24.117  1.00  0.00     0.065 C 
ATOM      6  C   UNL     1      10.027 -59.867 -24.444  1.00  0.00     0.262 C 
ATOM      7  C   UNL     1       9.788 -58.740 -23.449  1.00  0.00     0.065 C 
ATOM      8  H   UNL     1      10.415 -58.486 -25.909  1.00  0.00     0.348 HD
BRANCH   4   9
ATOM      9  C   UNL     1      10.912 -60.258 -26.778  1.00  0.00     0.299 C 
BRANCH   9  10
ATOM     10  C   UNL     1      11.389 -59.629 -28.060  1.00  0.00     0.006 A 
ATOM     11  C   UNL     1      11.858 -58.306 -28.076  1.00  0.00     0.009 A 
ATOM     12  C   UNL     1      11.368 -60.353 -29.263  1.00  0.00     0.009 A 
ATOM     13  C   UNL     1      12.279 -57.718 -29.270  1.00  0.00     0.001 A 
ATOM     14  C   UNL     1      11.791 -59.761 -30.454  1.00  0.00     0.001 A 
ATOM     15  C   UNL     1      12.244 -58.444 -30.457  1.00  0.00     0.000 A 
ENDBRANCH   9  10
ENDBRANCH   4   9
ENDBRANCH   1   2
BRANCH   1  16
ATOM     16  C   UNL     1       9.943 -55.705 -22.613  1.00  0.00     0.061 C 
BRANCH  16  17
ATOM     17  C   UNL     1      10.388 -54.335 -22.236  1.00  0.00     0.091 A 
ATOM     18  N   UNL     1       9.991 -53.789 -21.074  1.00  0.00    -0.084 NA
ATOM     19  C   UNL     1      11.232 -53.455 -22.960  1.00  0.00     0.045 A 
ATOM     20  O   UNL     1      10.567 -52.529 -21.037  1.00  0.00    -0.356 OA
ATOM     21  C   UNL     1      11.936 -53.466 -24.174  1.00  0.00     0.021 A 
ATOM     22  C   UNL     1      11.305 -52.330 -22.162  1.00  0.00     0.170 A 
ATOM     23  C   UNL     1      12.691 -52.329 -24.531  1.00  0.00    -0.008 A 
ATOM     24  C   UNL     1      12.031 -51.182 -22.471  1.00  0.00     0.097 A 
ATOM     25  C   UNL     1      12.730 -51.197 -23.686  1.00  0.00     0.125 A 
ATOM     26  C   UNL     1      13.447 -52.330 -25.835  1.00  0.00     0.048 C 
BRANCH  25  27
ATOM     27  O   UNL     1      13.499 -50.155 -24.143  1.00  0.00    -0.496 OA
ATOM     28  C   UNL     1      14.379 -49.528 -23.217  1.00  0.00     0.278 C 
ENDBRANCH  25  27
ENDBRANCH  16  17
ENDBRANCH   1  16
TORSDOF 6
ENDMDL
MODEL 7
REMARK VINA RESULT:   -10.003      1.839      2.727
REMARK INTER + INTRA:         -14.030
REMARK INTER:                 -13.424
REMARK INTRA:                  -0.607
REMARK UNBOUND:                -0.519
REMARK SMILES COc1cc2onc(CC[C@H]3CC[N@H+](Cc4ccccc4)CC3)c2cc1C
REMARK SMILES IDX 10 1 11 2 13 3 14 4 12 5 22 6 23 7 15 9 16 10 17 11 21 12
REMARK SMILES IDX 18 13 20 14 19 15 9 16 8 17 7 18 24 19 6 20 25 21 5 22 26 23
REMARK SMILES IDX 4 24 3 25 27 26 2 27 1 28
REMARK H PARENT 14 8
ROOT
ATOM      1  C   UNL     1      10.573 -57.863 -21.945  1.00  0.00     0.010 C 
ENDROOT
BRANCH   1   2
ATOM      2  C   UNL     1       9.997 -59.279 -22.200  1.00  0.00     0.000 C 
ATOM      3  C   UNL     1      10.347 -61.545 -23.316  1.00  0.00     0.262 C 
ATOM      4  N   UNL     1       9.070 -61.296 -24.074  1.00  0.00    -0.331 N 
ATOM      5  C   UNL     1      10.966 -60.203 -22.957  1.00  0.00     0.065 C 
ATOM      6  C   UNL     1       8.057 -60.603 -23.205  1.00  0.00     0.262 C 
ATOM      7  C   UNL     1       8.591 -59.228 -22.829  1.00  0.00     0.065 C 
ATOM      8  H   UNL     1       9.303 -60.639 -24.833  1.00  0.00     0.348 HD
BRANCH   4   9
ATOM      9  C   UNL     1       8.532 -62.521 -24.780  1.00  0.00     0.299 C 
BRANCH   9  10
ATOM     10  C   UNL     1       8.672 -62.526 -26.279  1.00  0.00     0.006 A 
ATOM     11  C   UNL     1       7.957 -63.447 -27.061  1.00  0.00     0.009 A 
ATOM     12  C   UNL     1       9.526 -61.615 -26.920  1.00  0.00     0.009 A 
ATOM     13  C   UNL     1       8.105 -63.464 -28.449  1.00  0.00     0.001 A 
ATOM     14  C   UNL     1       9.671 -61.635 -28.308  1.00  0.00     0.001 A 
ATOM     15  C   UNL     1       8.963 -62.561 -29.071  1.00  0.00     0.000 A 
ENDBRANCH   9  10
ENDBRANCH   4   9
ENDBRANCH   1   2
BRANCH   1  16
ATOM     16  C   UNL     1      10.550 -56.845 -23.098  1.00  0.00     0.061 C 
BRANCH  16  17
ATOM     17  C   UNL     1      10.630 -55.418 -22.676  1.00  0.00     0.091 A 
ATOM     18  N   UNL     1      10.023 -55.010 -21.549  1.00  0.00    -0.084 NA
ATOM     19  C   UNL     1      11.301 -54.348 -23.321  1.00  0.00     0.045 A 
ATOM     20  O   UNL     1      10.284 -53.652 -21.456  1.00  0.00    -0.356 OA
ATOM     21  C   UNL     1      12.084 -54.165 -24.471  1.00  0.00     0.021 A 
ATOM     22  C   UNL     1      11.044 -53.258 -22.513  1.00  0.00     0.170 A 
ATOM     23  C   UNL     1      12.578 -52.875 -24.756  1.00  0.00    -0.008 A 
ATOM     24  C   UNL     1      11.504 -51.965 -22.753  1.00  0.00     0.097 A 
ATOM     25  C   UNL     1      12.284 -51.787 -23.905  1.00  0.00     0.125 A 
ATOM     26  C   UNL     1      13.417 -52.667 -25.992  1.00  0.00     0.048 C 
BRANCH  25  27
ATOM     27  O   UNL     1      12.822 -50.584 -24.289  1.00  0.00    -0.496 OA
ATOM     28  C   UNL     1      12.506 -49.439 -23.505  1.00  0.00     0.278 C 
ENDBRANCH  25  27
ENDBRANCH  16  17
ENDBRANCH   1  16
TORSDOF 6
ENDMDL
MODEL 8
REMARK VINA RESULT:    -9.453      2.503      4.295
REMARK INTER + INTRA:         -13.288
REMARK INTER:                 -12.627
REMARK INTRA:                  -0.661
REMARK UNBOUND:                -0.519
REMARK SMILES COc1cc2onc(CC[C@H]3CC[N@H+](Cc4ccccc4)CC3)c2cc1C
REMARK SMILES IDX 10 1 11 2 13 3 14 4 12 5 22 6 23 7 15 9 16 10 17 11 21 12
REMARK SMILES IDX 18 13 20 14 19 15 9 16 8 17 7 18 24 19 6 20 25 21 5 22 26 23
REMARK SMILES IDX 4 24 3 25 27 26 2 27 1 28
REMARK H PARENT 14 8
ROOT
ATOM      1  C   UNL     1      10.827 -52.264 -22.755  1.00  0.00     0.010 C 
ENDROOT
BRANCH   1   2
ATOM      2  C   UNL     1      11.310 -53.737 -22.748  1.00  0.00     0.000 C 
ATOM      3  C   UNL     1      11.591 -55.886 -24.091  1.00  0.00     0.262 C 
ATOM      4  N   UNL     1      10.713 -56.561 -23.071  1.00  0.00    -0.331 N 
ATOM      5  C   UNL     1      11.239 -54.407 -24.130  1.00  0.00     0.065 C 
ATOM      6  C   UNL     1      10.998 -56.041 -21.690  1.00  0.00     0.262 C 
ATOM      7  C   UNL     1      10.636 -54.564 -21.637  1.00  0.00     0.065 C 
ATOM      8  H   UNL     1       9.745 -56.288 -23.293  1.00  0.00     0.348 HD
BRANCH   4   9
ATOM      9  C   UNL     1      10.718 -58.071 -23.168  1.00  0.00     0.299 C 
BRANCH   9  10
ATOM     10  C   UNL     1       9.364 -58.727 -23.225  1.00  0.00     0.006 A 
ATOM     11  C   UNL     1       9.235 -60.117 -23.074  1.00  0.00     0.009 A 
ATOM     12  C   UNL     1       8.207 -57.961 -23.438  1.00  0.00     0.009 A 
ATOM     13  C   UNL     1       7.981 -60.725 -23.150  1.00  0.00     0.001 A 
ATOM     14  C   UNL     1       6.955 -58.573 -23.513  1.00  0.00     0.001 A 
ATOM     15  C   UNL     1       6.843 -59.954 -23.371  1.00  0.00     0.000 A 
ENDBRANCH   9  10
ENDBRANCH   4   9
ENDBRANCH   1   2
BRANCH   1  16
ATOM     16  C   UNL     1      11.762 -51.185 -22.184  1.00  0.00     0.061 C 
BRANCH  16  17
ATOM     17  C   UNL     1      12.286 -50.215 -23.186  1.00  0.00     0.091 A 
ATOM     18  N   UNL     1      13.147 -50.620 -24.135  1.00  0.00    -0.084 NA
ATOM     19  C   UNL     1      11.993 -48.832 -23.307  1.00  0.00     0.045 A 
ATOM     20  O   UNL     1      13.436 -49.490 -24.883  1.00  0.00    -0.356 OA
ATOM     21  C   UNL     1      11.194 -47.886 -22.650  1.00  0.00     0.021 A 
ATOM     22  C   UNL     1      12.750 -48.425 -24.388  1.00  0.00     0.170 A 
ATOM     23  C   UNL     1      11.193 -46.555 -23.119  1.00  0.00    -0.008 A 
ATOM     24  C   UNL     1      12.788 -47.125 -24.887  1.00  0.00     0.097 A 
ATOM     25  C   UNL     1      11.989 -46.182 -24.224  1.00  0.00     0.125 A 
ATOM     26  C   UNL     1      10.340 -45.530 -22.416  1.00  0.00     0.048 C 
BRANCH  25  27
ATOM     27  O   UNL     1      11.902 -44.860 -24.585  1.00  0.00    -0.496 OA
ATOM     28  C   UNL     1      13.116 -44.126 -24.702  1.00  0.00     0.278 C 
ENDBRANCH  25  27
ENDBRANCH  16  17
ENDBRANCH   1  16
TORSDOF 6
ENDMDL
MODEL 9
REMARK VINA RESULT:    -9.429      3.214      6.073
REMARK INTER + INTRA:         -13.256
REMARK INTER:                 -12.357
REMARK INTRA:                  -0.899
REMARK UNBOUND:                -0.519
REMARK SMILES COc1cc2onc(CC[C@H]3CC[N@H+](Cc4ccccc4)CC3)c2cc1C
REMARK SMILES IDX 10 1 11 2 13 3 14 4 12 5 22 6 23 7 15 9 16 10 17 11 21 12
REMARK SMILES IDX 18 13 20 14 19 15 9 16 8 17 7 18 24 19 6 20 25 21 5 22 26 23
REMARK SMILES IDX 4 24 3 25 27 26 2 27 1 28
REMARK H PARENT 14 8
ROOT
ATOM      1  C   UNL     1      14.069 -51.674 -25.293  1.00  0.00     0.010 C 
ENDROOT
BRANCH   1   2
ATOM      2  C   UNL     1      12.727 -52.215 -24.740  1.00  0.00     0.000 C 
ATOM      3  C   UNL     1      11.225 -52.483 -22.696  1.00  0.00     0.262 C 
ATOM      4  N   UNL     1      11.306 -53.971 -22.912  1.00  0.00    -0.331 N 
ATOM      5  C   UNL     1      12.480 -51.841 -23.269  1.00  0.00     0.065 C 
ATOM      6  C   UNL     1      11.296 -54.302 -24.379  1.00  0.00     0.262 C 
ATOM      7  C   UNL     1      12.547 -53.720 -25.022  1.00  0.00     0.065 C 
ATOM      8  H   UNL     1      12.224 -54.269 -22.551  1.00  0.00     0.348 HD
BRANCH   4   9
ATOM      9  C   UNL     1      10.301 -54.760 -22.102  1.00  0.00     0.299 C 
BRANCH   9  10
ATOM     10  C   UNL     1      10.355 -56.255 -22.269  1.00  0.00     0.006 A 
ATOM     11  C   UNL     1       9.404 -56.922 -23.056  1.00  0.00     0.009 A 
ATOM     12  C   UNL     1      11.356 -57.008 -21.634  1.00  0.00     0.009 A 
ATOM     13  C   UNL     1       9.443 -58.311 -23.190  1.00  0.00     0.001 A 
ATOM     14  C   UNL     1      11.392 -58.397 -21.772  1.00  0.00     0.001 A 
ATOM     15  C   UNL     1      10.435 -59.047 -22.548  1.00  0.00     0.000 A 
ENDBRANCH   9  10
ENDBRANCH   4   9
ENDBRANCH   1   2
BRANCH   1  16
ATOM     16  C   UNL     1      14.037 -50.769 -26.536  1.00  0.00     0.061 C 
BRANCH  16  17
ATOM     17  C   UNL     1      14.323 -49.331 -26.272  1.00  0.00     0.091 A 
ATOM     18  N   UNL     1      15.369 -48.729 -26.862  1.00  0.00    -0.084 NA
ATOM     19  C   UNL     1      13.607 -48.432 -25.440  1.00  0.00     0.045 A 
ATOM     20  O   UNL     1      15.354 -47.421 -26.404  1.00  0.00    -0.356 OA
ATOM     21  C   UNL     1      12.473 -48.469 -24.616  1.00  0.00     0.021 A 
ATOM     22  C   UNL     1      14.305 -47.245 -25.556  1.00  0.00     0.170 A 
ATOM     23  C   UNL     1      12.089 -47.293 -23.938  1.00  0.00    -0.008 A 
ATOM     24  C   UNL     1      13.970 -46.060 -24.904  1.00  0.00     0.097 A 
ATOM     25  C   UNL     1      12.837 -46.103 -24.079  1.00  0.00     0.125 A 
ATOM     26  C   UNL     1      10.874 -47.325 -23.046  1.00  0.00     0.048 C 
BRANCH  25  27
ATOM     27  O   UNL     1      12.362 -45.028 -23.370  1.00  0.00    -0.496 OA
ATOM     28  C   UNL     1      11.916 -43.896 -24.106  1.00  0.00     0.278 C 
ENDBRANCH  25  27
ENDBRANCH  16  17
ENDBRANCH   1  16
TORSDOF 6
ENDMDL
