MODEL 1
REMARK VINA RESULT:   -12.276      0.000      0.000
REMARK INTER + INTRA:         -16.847
REMARK INTER:                 -16.223
REMARK INTRA:                  -0.625
REMARK UNBOUND:                -0.625
REMARK SMILES Oc1cc2cc3o[nH]c(CC[C@H]4CC[N@H+](Cc5ccccc5)CC4)c3cc2n1
REMARK SMILES IDX 10 1 9 2 8 3 7 4 6 5 25 6 5 7 26 8 4 9 27 10 3 11 28 12 2 13
REMARK SMILES IDX 1 15 11 17 12 18 24 19 13 20 23 21 14 22 15 23 16 25 17 26
REMARK SMILES IDX 18 27 22 28 19 29 21 30 20 31
REMARK H PARENT 8 14 1 16 15 24
ROOT
ATOM      1  C   UNL     1      10.573 -55.389 -22.760  1.00  0.00     0.058 C 
ENDROOT
BRANCH   1   2
ATOM      2  C   UNL     1      10.872 -53.938 -22.557  1.00  0.00     0.060 A 
ATOM      3  N   UNL     1      10.381 -53.240 -21.455  1.00  0.00    -0.226 N 
ATOM      4  O   UNL     1      10.874 -51.908 -21.448  1.00  0.00    -0.382 OA
ATOM      5  C   UNL     1      11.563 -51.822 -22.642  1.00  0.00     0.164 A 
ATOM      6  C   UNL     1      11.566 -53.104 -23.338  1.00  0.00     0.044 A 
ATOM      7  C   UNL     1      12.189 -50.743 -23.147  1.00  0.00     0.061 A 
ATOM      8  C   UNL     1      12.255 -53.302 -24.599  1.00  0.00     0.043 A 
ATOM      9  C   UNL     1      12.866 -50.935 -24.419  1.00  0.00     0.009 A 
ATOM     10  C   UNL     1      12.880 -52.231 -25.110  1.00  0.00     0.075 A 
ATOM     11  C   UNL     1      13.553 -50.041 -25.137  1.00  0.00     0.078 A 
ATOM     12  N   UNL     1      13.597 -52.121 -26.271  1.00  0.00    -0.214 NA
ATOM     13  C   UNL     1      13.953 -50.878 -26.248  1.00  0.00     0.211 A 
ATOM     14  H   UNL     1      10.523 -53.707 -20.563  1.00  0.00     0.208 HD
BRANCH  13  15
ATOM     15  O   UNL     1      14.682 -50.318 -27.206  1.00  0.00    -0.493 OA
ATOM     16  H   UNL     1      14.823 -49.388 -26.967  1.00  0.00     0.295 HD
ENDBRANCH  13  15
ENDBRANCH   1   2
BRANCH   1  17
ATOM     17  C   UNL     1      11.189 -56.262 -21.661  1.00  0.00     0.010 C 
BRANCH  17  18
ATOM     18  C   UNL     1      11.571 -57.676 -22.145  1.00  0.00     0.000 C 
ATOM     19  C   UNL     1      10.643 -58.717 -21.500  1.00  0.00     0.065 C 
ATOM     20  C   UNL     1      11.520 -57.810 -23.674  1.00  0.00     0.065 C 
ATOM     21  C   UNL     1      10.952 -60.132 -21.968  1.00  0.00     0.262 C 
ATOM     22  C   UNL     1      11.821 -59.231 -24.133  1.00  0.00     0.262 C 
ATOM     23  N   UNL     1      10.870 -60.195 -23.474  1.00  0.00    -0.331 N 
ATOM     24  H   UNL     1       9.914 -59.923 -23.735  1.00  0.00     0.348 HD
BRANCH  23  25
ATOM     25  C   UNL     1      11.057 -61.603 -24.008  1.00  0.00     0.299 C 
BRANCH  25  26
ATOM     26  C   UNL     1       9.763 -62.358 -24.142  1.00  0.00     0.006 A 
ATOM     27  C   UNL     1       8.976 -62.222 -25.298  1.00  0.00     0.009 A 
ATOM     28  C   UNL     1       9.315 -63.194 -23.108  1.00  0.00     0.009 A 
ATOM     29  C   UNL     1       7.763 -62.904 -25.410  1.00  0.00     0.001 A 
ATOM     30  C   UNL     1       8.101 -63.872 -23.225  1.00  0.00     0.001 A 
ATOM     31  C   UNL     1       7.325 -63.725 -24.373  1.00  0.00     0.000 A 
ENDBRANCH  25  26
ENDBRANCH  23  25
ENDBRANCH  17  18
ENDBRANCH   1  17
TORSDOF 6
ENDMDL
MODEL 2
REMARK VINA RESULT:   -12.060      1.601      2.460
REMARK INTER + INTRA:         -16.563
REMARK INTER:                 -15.976
REMARK INTRA:                  -0.587
REMARK UNBOUND:                -0.625
REMARK SMILES Oc1cc2cc3o[nH]c(CC[C@H]4CC[N@H+](Cc5ccccc5)CC4)c3cc2n1
REMARK SMILES IDX 10 1 9 2 8 3 7 4 6 5 25 6 5 7 26 8 4 9 27 10 3 11 28 12 2 13
REMARK SMILES IDX 1 15 11 17 12 18 24 19 13 20 23 21 14 22 15 23 16 25 17 26
REMARK SMILES IDX 18 27 22 28 19 29 21 30 20 31
REMARK H PARENT 8 14 1 16 15 24
ROOT
ATOM      1  C   UNL     1      10.520 -55.733 -23.265  1.00  0.00     0.058 C 
ENDROOT
BRANCH   1   2
ATOM      2  C   UNL     1      11.386 -54.770 -24.011  1.00  0.00     0.060 A 
ATOM      3  N   UNL     1      12.107 -55.159 -25.139  1.00  0.00    -0.226 N 
ATOM      4  O   UNL     1      12.778 -54.047 -25.711  1.00  0.00    -0.382 OA
ATOM      5  C   UNL     1      12.525 -53.030 -24.810  1.00  0.00     0.164 A 
ATOM      6  C   UNL     1      11.642 -53.485 -23.742  1.00  0.00     0.044 A 
ATOM      7  C   UNL     1      12.978 -51.764 -24.861  1.00  0.00     0.061 A 
ATOM      8  C   UNL     1      11.184 -52.605 -22.685  1.00  0.00     0.043 A 
ATOM      9  C   UNL     1      12.534 -50.884 -23.792  1.00  0.00     0.009 A 
ATOM     10  C   UNL     1      11.633 -51.341 -22.727  1.00  0.00     0.075 A 
ATOM     11  C   UNL     1      12.833 -49.596 -23.599  1.00  0.00     0.078 A 
ATOM     12  N   UNL     1      11.375 -50.304 -21.871  1.00  0.00    -0.214 NA
ATOM     13  C   UNL     1      12.068 -49.347 -22.395  1.00  0.00     0.211 A 
ATOM     14  H   UNL     1      11.565 -55.676 -25.827  1.00  0.00     0.208 HD
BRANCH  13  15
ATOM     15  O   UNL     1      12.117 -48.125 -21.879  1.00  0.00    -0.493 OA
ATOM     16  H   UNL     1      11.934 -48.195 -20.928  1.00  0.00     0.295 HD
ENDBRANCH  13  15
ENDBRANCH   1   2
BRANCH   1  17
ATOM     17  C   UNL     1      11.240 -56.330 -22.050  1.00  0.00     0.010 C 
BRANCH  17  18
ATOM     18  C   UNL     1      11.527 -57.839 -22.189  1.00  0.00     0.000 C 
ATOM     19  C   UNL     1      10.305 -58.648 -21.727  1.00  0.00     0.065 C 
ATOM     20  C   UNL     1      11.903 -58.239 -23.623  1.00  0.00     0.065 C 
ATOM     21  C   UNL     1      10.519 -60.148 -21.873  1.00  0.00     0.262 C 
ATOM     22  C   UNL     1      12.105 -59.742 -23.762  1.00  0.00     0.262 C 
ATOM     23  N   UNL     1      10.870 -60.470 -23.305  1.00  0.00    -0.331 N 
ATOM     24  H   UNL     1      10.083 -60.154 -23.886  1.00  0.00     0.348 HD
BRANCH  23  25
ATOM     25  C   UNL     1      10.988 -61.963 -23.553  1.00  0.00     0.299 C 
BRANCH  25  26
ATOM     26  C   UNL     1       9.677 -62.605 -23.911  1.00  0.00     0.006 A 
ATOM     27  C   UNL     1       9.069 -62.339 -25.149  1.00  0.00     0.009 A 
ATOM     28  C   UNL     1       9.034 -63.466 -23.008  1.00  0.00     0.009 A 
ATOM     29  C   UNL     1       7.839 -62.916 -25.470  1.00  0.00     0.001 A 
ATOM     30  C   UNL     1       7.804 -64.040 -23.335  1.00  0.00     0.001 A 
ATOM     31  C   UNL     1       7.207 -63.763 -24.563  1.00  0.00     0.000 A 
ENDBRANCH  25  26
ENDBRANCH  23  25
ENDBRANCH  17  18
ENDBRANCH   1  17
TORSDOF 6
ENDMDL
MODEL 3
REMARK VINA RESULT:   -11.814      3.733      9.288
REMARK INTER + INTRA:         -16.238
REMARK INTER:                 -15.424
REMARK INTRA:                  -0.814
REMARK UNBOUND:                -0.625
REMARK SMILES Oc1cc2cc3o[nH]c(CC[C@H]4CC[N@H+](Cc5ccccc5)CC4)c3cc2n1
REMARK SMILES IDX 10 1 9 2 8 3 7 4 6 5 25 6 5 7 26 8 4 9 27 10 3 11 28 12 2 13
REMARK SMILES IDX 1 15 11 17 12 18 24 19 13 20 23 21 14 22 15 23 16 25 17 26
REMARK SMILES IDX 18 27 22 28 19 29 21 30 20 31
REMARK H PARENT 8 14 1 16 15 24
ROOT
ATOM      1  C   UNL     1      11.726 -60.396 -23.021  1.00  0.00     0.058 C 
ENDROOT
BRANCH   1   2
ATOM      2  C   UNL     1      11.598 -60.136 -24.487  1.00  0.00     0.060 A 
ATOM      3  N   UNL     1      12.319 -59.120 -25.113  1.00  0.00    -0.226 N 
ATOM      4  O   UNL     1      12.088 -59.134 -26.514  1.00  0.00    -0.382 OA
ATOM      5  C   UNL     1      11.117 -60.107 -26.662  1.00  0.00     0.164 A 
ATOM      6  C   UNL     1      10.814 -60.742 -25.385  1.00  0.00     0.044 A 
ATOM      7  C   UNL     1      10.509 -60.484 -27.801  1.00  0.00     0.061 A 
ATOM      8  C   UNL     1       9.858 -61.826 -25.264  1.00  0.00     0.043 A 
ATOM      9  C   UNL     1       9.537 -61.559 -27.680  1.00  0.00     0.009 A 
ATOM     10  C   UNL     1       9.245 -62.207 -26.395  1.00  0.00     0.075 A 
ATOM     11  C   UNL     1       8.794 -62.118 -28.639  1.00  0.00     0.078 A 
ATOM     12  N   UNL     1       8.306 -63.186 -26.581  1.00  0.00    -0.214 NA
ATOM     13  C   UNL     1       8.080 -63.101 -27.851  1.00  0.00     0.211 A 
ATOM     14  H   UNL     1      13.311 -59.107 -24.888  1.00  0.00     0.208 HD
BRANCH  13  15
ATOM     15  O   UNL     1       7.212 -63.881 -28.484  1.00  0.00    -0.493 OA
ATOM     16  H   UNL     1       7.716 -64.560 -28.962  1.00  0.00     0.295 HD
ENDBRANCH  13  15
ENDBRANCH   1   2
BRANCH   1  17
ATOM     17  C   UNL     1      10.407 -60.155 -22.278  1.00  0.00     0.010 C 
BRANCH  17  18
ATOM     18  C   UNL     1      10.095 -58.661 -22.056  1.00  0.00     0.000 C 
ATOM     19  C   UNL     1      11.398 -57.887 -21.806  1.00  0.00     0.065 C 
ATOM     20  C   UNL     1       9.335 -58.034 -23.234  1.00  0.00     0.065 C 
ATOM     21  C   UNL     1      11.155 -56.396 -21.612  1.00  0.00     0.262 C 
ATOM     22  C   UNL     1       9.105 -56.541 -23.037  1.00  0.00     0.262 C 
ATOM     23  N   UNL     1      10.421 -55.845 -22.811  1.00  0.00    -0.331 N 
ATOM     24  H   UNL     1      11.014 -56.016 -23.632  1.00  0.00     0.348 HD
BRANCH  23  25
ATOM     25  C   UNL     1      10.241 -54.340 -22.740  1.00  0.00     0.299 C 
BRANCH  25  26
ATOM     26  C   UNL     1      11.267 -53.587 -23.541  1.00  0.00     0.006 A 
ATOM     27  C   UNL     1      11.864 -54.177 -24.667  1.00  0.00     0.009 A 
ATOM     28  C   UNL     1      11.655 -52.292 -23.165  1.00  0.00     0.009 A 
ATOM     29  C   UNL     1      12.834 -53.487 -25.394  1.00  0.00     0.001 A 
ATOM     30  C   UNL     1      12.627 -51.607 -23.896  1.00  0.00     0.001 A 
ATOM     31  C   UNL     1      13.217 -52.204 -25.007  1.00  0.00     0.000 A 
ENDBRANCH  25  26
ENDBRANCH  23  25
ENDBRANCH  17  18
ENDBRANCH   1  17
TORSDOF 6
ENDMDL
MODEL 4
REMARK VINA RESULT:   -11.328      3.494     10.865
REMARK INTER + INTRA:         -15.596
REMARK INTER:                 -15.037
REMARK INTRA:                  -0.559
REMARK UNBOUND:                -0.625
REMARK SMILES Oc1cc2cc3o[nH]c(CC[C@H]4CC[N@H+](Cc5ccccc5)CC4)c3cc2n1
REMARK SMILES IDX 10 1 9 2 8 3 7 4 6 5 25 6 5 7 26 8 4 9 27 10 3 11 28 12 2 13
REMARK SMILES IDX 1 15 11 17 12 18 24 19 13 20 23 21 14 22 15 23 16 25 17 26
REMARK SMILES IDX 18 27 22 28 19 29 21 30 20 31
REMARK H PARENT 8 14 1 16 15 24
ROOT
ATOM      1  C   UNL     1      10.811 -55.840 -22.212  1.00  0.00     0.058 C 
ENDROOT
BRANCH   1   2
ATOM      2  C   UNL     1      11.231 -56.918 -23.158  1.00  0.00     0.060 A 
ATOM      3  N   UNL     1      11.927 -56.628 -24.331  1.00  0.00    -0.226 N 
ATOM      4  O   UNL     1      12.282 -57.824 -25.009  1.00  0.00    -0.382 OA
ATOM      5  C   UNL     1      11.663 -58.806 -24.258  1.00  0.00     0.164 A 
ATOM      6  C   UNL     1      11.006 -58.234 -23.088  1.00  0.00     0.044 A 
ATOM      7  C   UNL     1      11.647 -60.129 -24.501  1.00  0.00     0.061 A 
ATOM      8  C   UNL     1      10.315 -59.050 -22.109  1.00  0.00     0.043 A 
ATOM      9  C   UNL     1      10.939 -60.948 -23.530  1.00  0.00     0.009 A 
ATOM     10  C   UNL     1      10.292 -60.371 -22.345  1.00  0.00     0.075 A 
ATOM     11  C   UNL     1      10.767 -62.273 -23.530  1.00  0.00     0.078 A 
ATOM     12  N   UNL     1       9.718 -61.370 -21.606  1.00  0.00    -0.214 NA
ATOM     13  C   UNL     1      10.006 -62.418 -22.307  1.00  0.00     0.211 A 
ATOM     14  H   UNL     1      12.723 -56.007 -24.206  1.00  0.00     0.208 HD
BRANCH  13  15
ATOM     15  O   UNL     1       9.634 -63.644 -21.958  1.00  0.00    -0.493 OA
ATOM     16  H   UNL     1       9.015 -63.971 -22.631  1.00  0.00     0.295 HD
ENDBRANCH  13  15
ENDBRANCH   1   2
BRANCH   1  17
ATOM     17  C   UNL     1      10.424 -54.550 -22.945  1.00  0.00     0.010 C 
BRANCH  17  18
ATOM     18  C   UNL     1      11.308 -53.343 -22.569  1.00  0.00     0.000 C 
ATOM     19  C   UNL     1      12.001 -52.792 -23.824  1.00  0.00     0.065 C 
ATOM     20  C   UNL     1      10.516 -52.224 -21.878  1.00  0.00     0.065 C 
ATOM     21  C   UNL     1      12.864 -51.576 -23.519  1.00  0.00     0.262 C 
ATOM     22  C   UNL     1      11.385 -51.007 -21.585  1.00  0.00     0.262 C 
ATOM     23  N   UNL     1      12.021 -50.513 -22.857  1.00  0.00    -0.331 N 
ATOM     24  H   UNL     1      11.268 -50.273 -23.514  1.00  0.00     0.348 HD
BRANCH  23  25
ATOM     25  C   UNL     1      12.788 -49.225 -22.622  1.00  0.00     0.299 C 
BRANCH  25  26
ATOM     26  C   UNL     1      12.013 -47.998 -23.017  1.00  0.00     0.006 A 
ATOM     27  C   UNL     1      12.043 -47.534 -24.343  1.00  0.00     0.009 A 
ATOM     28  C   UNL     1      11.263 -47.291 -22.065  1.00  0.00     0.009 A 
ATOM     29  C   UNL     1      11.343 -46.381 -24.702  1.00  0.00     0.001 A 
ATOM     30  C   UNL     1      10.566 -46.139 -22.430  1.00  0.00     0.001 A 
ATOM     31  C   UNL     1      10.608 -45.683 -23.746  1.00  0.00     0.000 A 
ENDBRANCH  25  26
ENDBRANCH  23  25
ENDBRANCH  17  18
ENDBRANCH   1  17
TORSDOF 6
ENDMDL
MODEL 5
REMARK VINA RESULT:   -11.226      3.438      9.489
REMARK INTER + INTRA:         -15.460
REMARK INTER:                 -15.078
REMARK INTRA:                  -0.383
REMARK UNBOUND:                -0.625
REMARK SMILES Oc1cc2cc3o[nH]c(CC[C@H]4CC[N@H+](Cc5ccccc5)CC4)c3cc2n1
REMARK SMILES IDX 10 1 9 2 8 3 7 4 6 5 25 6 5 7 26 8 4 9 27 10 3 11 28 12 2 13
REMARK SMILES IDX 1 15 11 17 12 18 24 19 13 20 23 21 14 22 15 23 16 25 17 26
REMARK SMILES IDX 18 27 22 28 19 29 21 30 20 31
REMARK H PARENT 8 14 1 16 15 24
ROOT
ATOM      1  C   UNL     1      11.862 -59.018 -22.536  1.00  0.00     0.058 C 
ENDROOT
BRANCH   1   2
ATOM      2  C   UNL     1      10.931 -60.139 -22.869  1.00  0.00     0.060 A 
ATOM      3  N   UNL     1      10.367 -60.937 -21.877  1.00  0.00    -0.226 N 
ATOM      4  O   UNL     1       9.457 -61.869 -22.443  1.00  0.00    -0.382 OA
ATOM      5  C   UNL     1       9.608 -61.669 -23.802  1.00  0.00     0.164 A 
ATOM      6  C   UNL     1      10.532 -60.573 -24.070  1.00  0.00     0.044 A 
ATOM      7  C   UNL     1       8.999 -62.339 -24.797  1.00  0.00     0.061 A 
ATOM      8  C   UNL     1      10.839 -60.126 -25.415  1.00  0.00     0.043 A 
ATOM      9  C   UNL     1       9.318 -61.904 -26.148  1.00  0.00     0.009 A 
ATOM     10  C   UNL     1      10.237 -60.791 -26.413  1.00  0.00     0.075 A 
ATOM     11  C   UNL     1       8.864 -62.392 -27.305  1.00  0.00     0.078 A 
ATOM     12  N   UNL     1      10.339 -60.596 -27.765  1.00  0.00    -0.214 NA
ATOM     13  C   UNL     1       9.556 -61.515 -28.226  1.00  0.00     0.211 A 
ATOM     14  H   UNL     1       9.954 -60.420 -21.104  1.00  0.00     0.208 HD
BRANCH  13  15
ATOM     15  O   UNL     1       9.347 -61.701 -29.524  1.00  0.00    -0.493 OA
ATOM     16  H   UNL     1      10.208 -61.860 -29.945  1.00  0.00     0.295 HD
ENDBRANCH  13  15
ENDBRANCH   1   2
BRANCH   1  17
ATOM     17  C   UNL     1      11.318 -58.135 -21.407  1.00  0.00     0.010 C 
BRANCH  17  18
ATOM     18  C   UNL     1      10.824 -56.757 -21.892  1.00  0.00     0.000 C 
ATOM     19  C   UNL     1      11.177 -55.681 -20.853  1.00  0.00     0.065 C 
ATOM     20  C   UNL     1      11.404 -56.369 -23.259  1.00  0.00     0.065 C 
ATOM     21  C   UNL     1      10.741 -54.290 -21.294  1.00  0.00     0.262 C 
ATOM     22  C   UNL     1      10.972 -54.973 -23.688  1.00  0.00     0.262 C 
ATOM     23  N   UNL     1      11.358 -53.970 -22.634  1.00  0.00    -0.331 N 
ATOM     24  H   UNL     1      12.378 -54.014 -22.514  1.00  0.00     0.348 HD
BRANCH  23  25
ATOM     25  C   UNL     1      11.059 -52.553 -23.087  1.00  0.00     0.299 C 
BRANCH  25  26
ATOM     26  C   UNL     1      12.151 -51.965 -23.937  1.00  0.00     0.006 A 
ATOM     27  C   UNL     1      12.505 -50.612 -23.805  1.00  0.00     0.009 A 
ATOM     28  C   UNL     1      12.821 -52.753 -24.885  1.00  0.00     0.009 A 
ATOM     29  C   UNL     1      13.501 -50.060 -24.612  1.00  0.00     0.001 A 
ATOM     30  C   UNL     1      13.816 -52.197 -25.690  1.00  0.00     0.001 A 
ATOM     31  C   UNL     1      14.154 -50.852 -25.555  1.00  0.00     0.000 A 
ENDBRANCH  25  26
ENDBRANCH  23  25
ENDBRANCH  17  18
ENDBRANCH   1  17
TORSDOF 6
ENDMDL
MODEL 6
REMARK VINA RESULT:   -11.054      3.279     10.049
REMARK INTER + INTRA:         -15.233
REMARK INTER:                 -14.860
REMARK INTRA:                  -0.373
REMARK UNBOUND:                -0.625
REMARK SMILES Oc1cc2cc3o[nH]c(CC[C@H]4CC[N@H+](Cc5ccccc5)CC4)c3cc2n1
REMARK SMILES IDX 10 1 9 2 8 3 7 4 6 5 25 6 5 7 26 8 4 9 27 10 3 11 28 12 2 13
REMARK SMILES IDX 1 15 11 17 12 18 24 19 13 20 23 21 14 22 15 23 16 25 17 26
REMARK SMILES IDX 18 27 22 28 19 29 21 30 20 31
REMARK H PARENT 8 14 1 16 15 24
ROOT
ATOM      1  C   UNL     1      11.139 -57.298 -22.489  1.00  0.00     0.058 C 
ENDROOT
BRANCH   1   2
ATOM      2  C   UNL     1      11.294 -58.408 -23.479  1.00  0.00     0.060 A 
ATOM      3  N   UNL     1      12.447 -58.542 -24.249  1.00  0.00    -0.226 N 
ATOM      4  O   UNL     1      12.382 -59.717 -25.045  1.00  0.00    -0.382 OA
ATOM      5  C   UNL     1      11.105 -60.189 -24.803  1.00  0.00     0.164 A 
ATOM      6  C   UNL     1      10.422 -59.366 -23.811  1.00  0.00     0.044 A 
ATOM      7  C   UNL     1      10.517 -61.266 -25.354  1.00  0.00     0.061 A 
ATOM      8  C   UNL     1       9.082 -59.665 -23.344  1.00  0.00     0.043 A 
ATOM      9  C   UNL     1       9.166 -61.558 -24.900  1.00  0.00     0.009 A 
ATOM     10  C   UNL     1       8.487 -60.736 -23.890  1.00  0.00     0.075 A 
ATOM     11  C   UNL     1       8.359 -62.552 -25.281  1.00  0.00     0.078 A 
ATOM     12  N   UNL     1       7.240 -61.248 -23.649  1.00  0.00    -0.214 NA
ATOM     13  C   UNL     1       7.209 -62.262 -24.451  1.00  0.00     0.211 A 
ATOM     14  H   UNL     1      13.315 -58.483 -23.722  1.00  0.00     0.208 HD
BRANCH  13  15
ATOM     15  O   UNL     1       6.160 -63.069 -24.554  1.00  0.00    -0.493 OA
ATOM     16  H   UNL     1       5.377 -62.519 -24.723  1.00  0.00     0.295 HD
ENDBRANCH  13  15
ENDBRANCH   1   2
BRANCH   1  17
ATOM     17  C   UNL     1       9.870 -56.476 -22.740  1.00  0.00     0.010 C 
BRANCH  17  18
ATOM     18  C   UNL     1      10.156 -55.007 -23.112  1.00  0.00     0.000 C 
ATOM     19  C   UNL     1      10.201 -54.146 -21.841  1.00  0.00     0.065 C 
ATOM     20  C   UNL     1      11.464 -54.841 -23.899  1.00  0.00     0.065 C 
ATOM     21  C   UNL     1      10.514 -52.687 -22.144  1.00  0.00     0.262 C 
ATOM     22  C   UNL     1      11.775 -53.378 -24.189  1.00  0.00     0.262 C 
ATOM     23  N   UNL     1      11.816 -52.598 -22.902  1.00  0.00    -0.331 N 
ATOM     24  H   UNL     1      12.542 -53.012 -22.304  1.00  0.00     0.348 HD
BRANCH  23  25
ATOM     25  C   UNL     1      12.251 -51.164 -23.143  1.00  0.00     0.299 C 
BRANCH  25  26
ATOM     26  C   UNL     1      13.447 -51.056 -24.048  1.00  0.00     0.006 A 
ATOM     27  C   UNL     1      14.728 -51.385 -23.576  1.00  0.00     0.009 A 
ATOM     28  C   UNL     1      13.303 -50.610 -25.371  1.00  0.00     0.009 A 
ATOM     29  C   UNL     1      15.841 -51.261 -24.410  1.00  0.00     0.001 A 
ATOM     30  C   UNL     1      14.419 -50.487 -26.199  1.00  0.00     0.001 A 
ATOM     31  C   UNL     1      15.686 -50.809 -25.719  1.00  0.00     0.000 A 
ENDBRANCH  25  26
ENDBRANCH  23  25
ENDBRANCH  17  18
ENDBRANCH   1  17
TORSDOF 6
ENDMDL
MODEL 7
REMARK VINA RESULT:   -10.943      2.657      4.540
REMARK INTER + INTRA:         -15.086
REMARK INTER:                 -14.215
REMARK INTRA:                  -0.871
REMARK UNBOUND:                -0.625
REMARK SMILES Oc1cc2cc3o[nH]c(CC[C@H]4CC[N@H+](Cc5ccccc5)CC4)c3cc2n1
REMARK SMILES IDX 10 1 9 2 8 3 7 4 6 5 25 6 5 7 26 8 4 9 27 10 3 11 28 12 2 13
REMARK SMILES IDX 1 15 11 17 12 18 24 19 13 20 23 21 14 22 15 23 16 25 17 26
REMARK SMILES IDX 18 27 22 28 19 29 21 30 20 31
REMARK H PARENT 8 14 1 16 15 24
ROOT
ATOM      1  C   UNL     1      11.705 -59.177 -21.637  1.00  0.00     0.058 C 
ENDROOT
BRANCH   1   2
ATOM      2  C   UNL     1      11.774 -58.133 -22.704  1.00  0.00     0.060 A 
ATOM      3  N   UNL     1      12.210 -58.436 -23.993  1.00  0.00    -0.226 N 
ATOM      4  O   UNL     1      12.102 -57.298 -24.836  1.00  0.00    -0.382 OA
ATOM      5  C   UNL     1      11.708 -56.299 -23.967  1.00  0.00     0.164 A 
ATOM      6  C   UNL     1      11.496 -56.827 -22.624  1.00  0.00     0.044 A 
ATOM      7  C   UNL     1      11.507 -55.000 -24.255  1.00  0.00     0.061 A 
ATOM      8  C   UNL     1      11.039 -55.998 -21.526  1.00  0.00     0.043 A 
ATOM      9  C   UNL     1      11.065 -54.162 -23.152  1.00  0.00     0.009 A 
ATOM     10  C   UNL     1      10.838 -54.701 -21.805  1.00  0.00     0.075 A 
ATOM     11  C   UNL     1      10.799 -52.854 -23.159  1.00  0.00     0.078 A 
ATOM     12  N   UNL     1      10.417 -53.695 -20.977  1.00  0.00    -0.214 NA
ATOM     13  C   UNL     1      10.412 -52.678 -21.775  1.00  0.00     0.211 A 
ATOM     14  H   UNL     1      11.776 -59.259 -24.402  1.00  0.00     0.208 HD
BRANCH  13  15
ATOM     15  O   UNL     1      10.063 -51.457 -21.386  1.00  0.00    -0.493 OA
ATOM     16  H   UNL     1      10.821 -51.063 -20.924  1.00  0.00     0.295 HD
ENDBRANCH  13  15
ENDBRANCH   1   2
BRANCH   1  17
ATOM     17  C   UNL     1      10.284 -59.340 -21.084  1.00  0.00     0.010 C 
BRANCH  17  18
ATOM     18  C   UNL     1       9.496 -60.486 -21.753  1.00  0.00     0.000 C 
ATOM     19  C   UNL     1       8.409 -59.905 -22.670  1.00  0.00     0.065 C 
ATOM     20  C   UNL     1      10.399 -61.436 -22.552  1.00  0.00     0.065 C 
ATOM     21  C   UNL     1       7.618 -60.992 -23.385  1.00  0.00     0.262 C 
ATOM     22  C   UNL     1       9.598 -62.514 -23.272  1.00  0.00     0.262 C 
ATOM     23  N   UNL     1       8.563 -61.877 -24.160  1.00  0.00    -0.331 N 
ATOM     24  H   UNL     1       9.053 -61.276 -24.835  1.00  0.00     0.348 HD
BRANCH  23  25
ATOM     25  C   UNL     1       7.836 -62.918 -24.990  1.00  0.00     0.299 C 
BRANCH  25  26
ATOM     26  C   UNL     1       8.210 -62.877 -26.446  1.00  0.00     0.006 A 
ATOM     27  C   UNL     1       7.647 -63.790 -27.352  1.00  0.00     0.009 A 
ATOM     28  C   UNL     1       9.140 -61.937 -26.917  1.00  0.00     0.009 A 
ATOM     29  C   UNL     1       8.014 -63.767 -28.699  1.00  0.00     0.001 A 
ATOM     30  C   UNL     1       9.504 -61.919 -28.264  1.00  0.00     0.001 A 
ATOM     31  C   UNL     1       8.944 -62.834 -29.153  1.00  0.00     0.000 A 
ENDBRANCH  25  26
ENDBRANCH  23  25
ENDBRANCH  17  18
ENDBRANCH   1  17
TORSDOF 6
ENDMDL
MODEL 8
REMARK VINA RESULT:   -10.565      3.915      9.456
REMARK INTER + INTRA:         -14.587
REMARK INTER:                 -15.239
REMARK INTRA:                   0.652
REMARK UNBOUND:                -0.625
REMARK SMILES Oc1cc2cc3o[nH]c(CC[C@H]4CC[N@H+](Cc5ccccc5)CC4)c3cc2n1
REMARK SMILES IDX 10 1 9 2 8 3 7 4 6 5 25 6 5 7 26 8 4 9 27 10 3 11 28 12 2 13
REMARK SMILES IDX 1 15 11 17 12 18 24 19 13 20 23 21 14 22 15 23 16 25 17 26
REMARK SMILES IDX 18 27 22 28 19 29 21 30 20 31
REMARK H PARENT 8 14 1 16 15 24
ROOT
ATOM      1  C   UNL     1       9.803 -61.006 -22.008  1.00  0.00     0.058 C 
ENDROOT
BRANCH   1   2
ATOM      2  C   UNL     1       9.038 -61.953 -22.875  1.00  0.00     0.060 A 
ATOM      3  N   UNL     1       8.237 -62.955 -22.331  1.00  0.00    -0.226 N 
ATOM      4  O   UNL     1       7.554 -63.661 -23.357  1.00  0.00    -0.382 OA
ATOM      5  C   UNL     1       8.079 -63.118 -24.514  1.00  0.00     0.164 A 
ATOM      6  C   UNL     1       9.010 -62.038 -24.210  1.00  0.00     0.044 A 
ATOM      7  C   UNL     1       7.799 -63.473 -25.781  1.00  0.00     0.061 A 
ATOM      8  C   UNL     1       9.674 -61.269 -25.245  1.00  0.00     0.043 A 
ATOM      9  C   UNL     1       8.476 -62.716 -26.822  1.00  0.00     0.009 A 
ATOM     10  C   UNL     1       9.401 -61.618 -26.512  1.00  0.00     0.075 A 
ATOM     11  C   UNL     1       8.385 -62.860 -28.146  1.00  0.00     0.078 A 
ATOM     12  N   UNL     1       9.878 -61.081 -27.677  1.00  0.00    -0.214 NA
ATOM     13  C   UNL     1       9.285 -61.807 -28.567  1.00  0.00     0.211 A 
ATOM     14  H   UNL     1       7.607 -62.640 -21.598  1.00  0.00     0.208 HD
BRANCH  13  15
ATOM     15  O   UNL     1       9.460 -61.636 -29.872  1.00  0.00    -0.493 OA
ATOM     16  H   UNL     1      10.403 -61.462 -30.026  1.00  0.00     0.295 HD
ENDBRANCH  13  15
ENDBRANCH   1   2
BRANCH   1  17
ATOM     17  C   UNL     1      11.009 -60.404 -22.740  1.00  0.00     0.010 C 
BRANCH  17  18
ATOM     18  C   UNL     1      10.844 -58.903 -23.056  1.00  0.00     0.000 C 
ATOM     19  C   UNL     1       9.354 -58.530 -23.057  1.00  0.00     0.065 C 
ATOM     20  C   UNL     1      11.604 -58.005 -22.070  1.00  0.00     0.065 C 
ATOM     21  C   UNL     1       9.131 -57.050 -23.332  1.00  0.00     0.262 C 
ATOM     22  C   UNL     1      11.368 -56.525 -22.346  1.00  0.00     0.262 C 
ATOM     23  N   UNL     1       9.892 -56.229 -22.320  1.00  0.00    -0.331 N 
ATOM     24  H   UNL     1       9.534 -56.487 -21.392  1.00  0.00     0.348 HD
BRANCH  23  25
ATOM     25  C   UNL     1       9.628 -54.741 -22.462  1.00  0.00     0.299 C 
BRANCH  25  26
ATOM     26  C   UNL     1      10.734 -54.013 -23.176  1.00  0.00     0.006 A 
ATOM     27  C   UNL     1      11.211 -52.787 -22.686  1.00  0.00     0.009 A 
ATOM     28  C   UNL     1      11.292 -54.540 -24.351  1.00  0.00     0.009 A 
ATOM     29  C   UNL     1      12.220 -52.100 -23.363  1.00  0.00     0.001 A 
ATOM     30  C   UNL     1      12.300 -53.848 -25.025  1.00  0.00     0.001 A 
ATOM     31  C   UNL     1      12.761 -52.629 -24.533  1.00  0.00     0.000 A 
ENDBRANCH  25  26
ENDBRANCH  23  25
ENDBRANCH  17  18
ENDBRANCH   1  17
TORSDOF 6
ENDMDL
MODEL 9
REMARK VINA RESULT:   -10.529      1.713      2.798
REMARK INTER + INTRA:         -14.539
REMARK INTER:                 -13.656
REMARK INTRA:                  -0.883
REMARK UNBOUND:                -0.625
REMARK SMILES Oc1cc2cc3o[nH]c(CC[C@H]4CC[N@H+](Cc5ccccc5)CC4)c3cc2n1
REMARK SMILES IDX 10 1 9 2 8 3 7 4 6 5 25 6 5 7 26 8 4 9 27 10 3 11 28 12 2 13
REMARK SMILES IDX 1 15 11 17 12 18 24 19 13 20 23 21 14 22 15 23 16 25 17 26
REMARK SMILES IDX 18 27 22 28 19 29 21 30 20 31
REMARK H PARENT 8 14 1 16 15 24
ROOT
ATOM      1  C   UNL     1      10.941 -52.516 -21.515  1.00  0.00     0.058 C 
ENDROOT
BRANCH   1   2
ATOM      2  C   UNL     1      11.117 -51.173 -22.147  1.00  0.00     0.060 A 
ATOM      3  N   UNL     1      10.335 -50.083 -21.772  1.00  0.00    -0.226 N 
ATOM      4  O   UNL     1      10.753 -48.910 -22.455  1.00  0.00    -0.382 OA
ATOM      5  C   UNL     1      11.717 -49.381 -23.326  1.00  0.00     0.164 A 
ATOM      6  C   UNL     1      11.949 -50.807 -23.128  1.00  0.00     0.044 A 
ATOM      7  C   UNL     1      12.402 -48.674 -24.243  1.00  0.00     0.061 A 
ATOM      8  C   UNL     1      12.941 -51.545 -23.885  1.00  0.00     0.043 A 
ATOM      9  C   UNL     1      13.386 -49.415 -25.016  1.00  0.00     0.009 A 
ATOM     10  C   UNL     1      13.628 -50.848 -24.803  1.00  0.00     0.075 A 
ATOM     11  C   UNL     1      14.192 -48.966 -25.982  1.00  0.00     0.078 A 
ATOM     12  N   UNL     1      14.609 -51.276 -25.657  1.00  0.00    -0.214 NA
ATOM     13  C   UNL     1      14.894 -50.192 -26.300  1.00  0.00     0.211 A 
ATOM     14  H   UNL     1      10.268 -49.938 -20.767  1.00  0.00     0.208 HD
BRANCH  13  15
ATOM     15  O   UNL     1      15.816 -50.140 -27.255  1.00  0.00    -0.493 OA
ATOM     16  H   UNL     1      16.564 -49.620 -26.918  1.00  0.00     0.295 HD
ENDBRANCH  13  15
ENDBRANCH   1   2
BRANCH   1  17
ATOM     17  C   UNL     1      10.255 -53.510 -22.460  1.00  0.00     0.010 C 
BRANCH  17  18
ATOM     18  C   UNL     1      11.146 -54.713 -22.834  1.00  0.00     0.000 C 
ATOM     19  C   UNL     1      10.562 -56.001 -22.236  1.00  0.00     0.065 C 
ATOM     20  C   UNL     1      11.315 -54.874 -24.351  1.00  0.00     0.065 C 
ATOM     21  C   UNL     1      11.384 -57.230 -22.600  1.00  0.00     0.262 C 
ATOM     22  C   UNL     1      12.129 -56.110 -24.708  1.00  0.00     0.262 C 
ATOM     23  N   UNL     1      11.495 -57.334 -24.102  1.00  0.00    -0.331 N 
ATOM     24  H   UNL     1      10.539 -57.410 -24.471  1.00  0.00     0.348 HD
BRANCH  23  25
ATOM     25  C   UNL     1      12.208 -58.598 -24.545  1.00  0.00     0.299 C 
BRANCH  25  26
ATOM     26  C   UNL     1      11.335 -59.821 -24.475  1.00  0.00     0.006 A 
ATOM     27  C   UNL     1      11.652 -60.872 -23.598  1.00  0.00     0.009 A 
ATOM     28  C   UNL     1      10.203 -59.937 -25.296  1.00  0.00     0.009 A 
ATOM     29  C   UNL     1      10.855 -62.017 -23.552  1.00  0.00     0.001 A 
ATOM     30  C   UNL     1       9.411 -61.085 -25.246  1.00  0.00     0.001 A 
ATOM     31  C   UNL     1       9.738 -62.124 -24.377  1.00  0.00     0.000 A 
ENDBRANCH  25  26
ENDBRANCH  23  25
ENDBRANCH  17  18
ENDBRANCH   1  17
TORSDOF 6
ENDMDL
