MODEL 1
REMARK VINA RESULT:   -13.178      0.000      0.000
REMARK INTER + INTRA:         -19.158
REMARK INTER:                 -18.186
REMARK INTRA:                  -0.972
REMARK UNBOUND:                -0.972
REMARK SMILES O=C1C(NCCCN=c2c3c([nH]c4cc(Cl)ccc24)CCCC3)=CC(=O)c2c(O)cccc21
REMARK SMILES IDX 6 1 7 2 8 3 9 4 12 5 11 6 13 7 10 8 20 9 14 10 19 11 23 12
REMARK SMILES IDX 21 13 15 14 18 15 22 16 17 17 16 19 5 20 4 21 3 23 24 24
REMARK SMILES IDX 2 25 25 26 33 27 27 28 32 29 28 30 31 31 30 32 1 33 26 34
REMARK SMILES IDX 29 35
REMARK H PARENT 12 18 4 22 29 36
ROOT
ATOM      1  C   UNL     1      10.863 -58.852 -21.993  1.00  0.00     0.045 C 
ENDROOT
BRANCH   1   2
ATOM      2  C   UNL     1      12.087 -59.327 -22.780  1.00  0.00     0.144 C 
BRANCH   2   3
ATOM      3  N   UNL     1      11.868 -60.698 -23.194  1.00  0.00    -0.284 NA
BRANCH   3   4
ATOM      4  C   UNL     1      11.212 -61.077 -24.241  1.00  0.00     0.072 A 
ATOM      5  N   UNL     1       9.131 -61.364 -26.118  1.00  0.00    -0.358 N 
ATOM      6  C   UNL     1       9.067 -62.057 -24.926  1.00  0.00     0.021 A 
ATOM      7  C   UNL     1      10.351 -60.831 -26.566  1.00  0.00     0.049 A 
ATOM      8  C   UNL     1      10.039 -61.990 -23.994  1.00  0.00    -0.003 A 
ATOM      9  C   UNL     1       7.827 -62.896 -24.705  1.00  0.00     0.054 C 
ATOM     10  C   UNL     1      10.481 -60.412 -27.896  1.00  0.00     0.047 A 
ATOM     11  C   UNL     1      11.437 -60.695 -25.676  1.00  0.00     0.024 A 
ATOM     12  C   UNL     1      10.000 -62.735 -22.686  1.00  0.00     0.039 C 
ATOM     13  C   UNL     1       7.629 -63.343 -23.254  1.00  0.00     0.007 C 
ATOM     14  C   UNL     1      11.705 -59.939 -28.362  1.00  0.00     0.043 A 
ATOM     15  C   UNL     1      12.674 -60.270 -26.176  1.00  0.00     0.014 A 
ATOM     16  C   UNL     1       8.939 -63.836 -22.655  1.00  0.00     0.005 C 
ATOM     17  C   UNL     1      12.806 -59.885 -27.515  1.00  0.00     0.021 A 
ATOM     18  H   UNL     1       8.454 -61.622 -26.828  1.00  0.00     0.166 HD
ATOM     19  Cl  UNL     1      11.864 -59.451 -30.003  1.00  0.00    -0.084 Cl
ENDBRANCH   3   4
ENDBRANCH   2   3
ENDBRANCH   1   2
BRANCH   1  20
ATOM     20  C   UNL     1       9.995 -57.848 -22.753  1.00  0.00     0.115 C 
BRANCH  20  21
ATOM     21  N   UNL     1      10.794 -56.883 -23.494  1.00  0.00    -0.382 N 
ATOM     22  H   UNL     1      10.791 -57.034 -24.508  1.00  0.00     0.160 HD
BRANCH  21  23
ATOM     23  C   UNL     1      10.993 -55.543 -23.184  1.00  0.00     0.087 C 
ATOM     24  C   UNL     1      10.620 -54.933 -22.056  1.00  0.00     0.082 C 
ATOM     25  C   UNL     1      11.692 -54.738 -24.241  1.00  0.00     0.209 C 
ATOM     26  C   UNL     1      10.860 -53.504 -21.771  1.00  0.00     0.192 C 
ATOM     27  C   UNL     1      12.024 -53.328 -23.957  1.00  0.00     0.039 A 
ATOM     28  C   UNL     1      11.630 -52.718 -22.764  1.00  0.00     0.075 A 
ATOM     29  C   UNL     1      12.746 -52.608 -24.923  1.00  0.00     0.013 A 
ATOM     30  C   UNL     1      11.977 -51.373 -22.552  1.00  0.00     0.127 A 
ATOM     31  C   UNL     1      13.080 -51.275 -24.701  1.00  0.00     0.005 A 
ATOM     32  C   UNL     1      12.697 -50.657 -23.514  1.00  0.00     0.047 A 
ATOM     33  O   UNL     1      11.970 -55.246 -25.326  1.00  0.00    -0.287 OA
ATOM     34  O   UNL     1      10.407 -53.041 -20.732  1.00  0.00    -0.289 OA
BRANCH  30  35
ATOM     35  O   UNL     1      11.625 -50.732 -21.398  1.00  0.00    -0.507 OA
ATOM     36  H   UNL     1      11.412 -51.373 -20.701  1.00  0.00     0.293 HD
ENDBRANCH  30  35
ENDBRANCH  21  23
ENDBRANCH  20  21
ENDBRANCH   1  20
TORSDOF 7
ENDMDL
MODEL 2
REMARK VINA RESULT:   -12.284      1.088      2.021
REMARK INTER + INTRA:         -17.924
REMARK INTER:                 -17.330
REMARK INTRA:                  -0.594
REMARK UNBOUND:                -0.972
REMARK SMILES O=C1C(NCCCN=c2c3c([nH]c4cc(Cl)ccc24)CCCC3)=CC(=O)c2c(O)cccc21
REMARK SMILES IDX 6 1 7 2 8 3 9 4 12 5 11 6 13 7 10 8 20 9 14 10 19 11 23 12
REMARK SMILES IDX 21 13 15 14 18 15 22 16 17 17 16 19 5 20 4 21 3 23 24 24
REMARK SMILES IDX 2 25 25 26 33 27 27 28 32 29 28 30 31 31 30 32 1 33 26 34
REMARK SMILES IDX 29 35
REMARK H PARENT 12 18 4 22 29 36
ROOT
ATOM      1  C   UNL     1      11.394 -58.198 -22.087  1.00  0.00     0.045 C 
ENDROOT
BRANCH   1   2
ATOM      2  C   UNL     1      10.698 -59.559 -22.020  1.00  0.00     0.144 C 
BRANCH   2   3
ATOM      3  N   UNL     1      11.373 -60.470 -22.922  1.00  0.00    -0.284 NA
BRANCH   3   4
ATOM      4  C   UNL     1      10.875 -60.972 -24.004  1.00  0.00     0.072 A 
ATOM      5  N   UNL     1       9.035 -61.611 -26.039  1.00  0.00    -0.358 N 
ATOM      6  C   UNL     1       8.955 -62.265 -24.826  1.00  0.00     0.021 A 
ATOM      7  C   UNL     1      10.207 -60.927 -26.403  1.00  0.00     0.049 A 
ATOM      8  C   UNL     1       9.819 -62.032 -23.818  1.00  0.00    -0.003 A 
ATOM      9  C   UNL     1       7.826 -63.262 -24.675  1.00  0.00     0.054 C 
ATOM     10  C   UNL     1      10.400 -60.539 -27.735  1.00  0.00     0.047 A 
ATOM     11  C   UNL     1      11.177 -60.610 -25.430  1.00  0.00     0.024 A 
ATOM     12  C   UNL     1       9.761 -62.730 -22.485  1.00  0.00     0.039 C 
ATOM     13  C   UNL     1       7.559 -63.683 -23.228  1.00  0.00     0.007 C 
ATOM     14  C   UNL     1      11.586 -59.915 -28.114  1.00  0.00     0.043 A 
ATOM     15  C   UNL     1      12.385 -60.034 -25.840  1.00  0.00     0.014 A 
ATOM     16  C   UNL     1       8.862 -63.967 -22.496  1.00  0.00     0.005 C 
ATOM     17  C   UNL     1      12.587 -59.679 -27.178  1.00  0.00     0.021 A 
ATOM     18  H   UNL     1       8.467 -61.984 -26.792  1.00  0.00     0.166 HD
ATOM     19  Cl  UNL     1      11.828 -59.465 -29.756  1.00  0.00    -0.084 Cl
ENDBRANCH   3   4
ENDBRANCH   2   3
ENDBRANCH   1   2
BRANCH   1  20
ATOM     20  C   UNL     1      11.319 -57.536 -23.464  1.00  0.00     0.115 C 
BRANCH  20  21
ATOM     21  N   UNL     1      10.649 -56.245 -23.416  1.00  0.00    -0.382 N 
ATOM     22  H   UNL     1       9.896 -56.194 -22.722  1.00  0.00     0.160 HD
BRANCH  21  23
ATOM     23  C   UNL     1      11.217 -54.996 -23.636  1.00  0.00     0.087 C 
ATOM     24  C   UNL     1      11.948 -54.639 -24.695  1.00  0.00     0.082 C 
ATOM     25  C   UNL     1      10.967 -53.980 -22.559  1.00  0.00     0.209 C 
ATOM     26  C   UNL     1      12.527 -53.294 -24.885  1.00  0.00     0.192 C 
ATOM     27  C   UNL     1      11.457 -52.602 -22.754  1.00  0.00     0.039 A 
ATOM     28  C   UNL     1      12.211 -52.254 -23.877  1.00  0.00     0.075 A 
ATOM     29  C   UNL     1      11.150 -51.642 -21.775  1.00  0.00     0.013 A 
ATOM     30  C   UNL     1      12.649 -50.925 -24.007  1.00  0.00     0.127 A 
ATOM     31  C   UNL     1      11.593 -50.330 -21.916  1.00  0.00     0.005 A 
ATOM     32  C   UNL     1      12.342 -49.970 -23.033  1.00  0.00     0.047 A 
ATOM     33  O   UNL     1      10.375 -54.299 -21.530  1.00  0.00    -0.287 OA
ATOM     34  O   UNL     1      13.239 -53.108 -25.864  1.00  0.00    -0.289 OA
BRANCH  30  35
ATOM     35  O   UNL     1      13.380 -50.531 -25.091  1.00  0.00    -0.507 OA
ATOM     36  H   UNL     1      14.028 -49.853 -24.841  1.00  0.00     0.293 HD
ENDBRANCH  30  35
ENDBRANCH  21  23
ENDBRANCH  20  21
ENDBRANCH   1  20
TORSDOF 7
ENDMDL
MODEL 3
REMARK VINA RESULT:   -11.638      1.835      3.821
REMARK INTER + INTRA:         -17.032
REMARK INTER:                 -16.719
REMARK INTRA:                  -0.314
REMARK UNBOUND:                -0.972
REMARK SMILES O=C1C(NCCCN=c2c3c([nH]c4cc(Cl)ccc24)CCCC3)=CC(=O)c2c(O)cccc21
REMARK SMILES IDX 6 1 7 2 8 3 9 4 12 5 11 6 13 7 10 8 20 9 14 10 19 11 23 12
REMARK SMILES IDX 21 13 15 14 18 15 22 16 17 17 16 19 5 20 4 21 3 23 24 24
REMARK SMILES IDX 2 25 25 26 33 27 27 28 32 29 28 30 31 31 30 32 1 33 26 34
REMARK SMILES IDX 29 35
REMARK H PARENT 12 18 4 22 29 36
ROOT
ATOM      1  C   UNL     1      11.595 -58.795 -22.878  1.00  0.00     0.045 C 
ENDROOT
BRANCH   1   2
ATOM      2  C   UNL     1      11.735 -60.182 -23.510  1.00  0.00     0.144 C 
BRANCH   2   3
ATOM      3  N   UNL     1      11.941 -60.024 -24.935  1.00  0.00    -0.284 NA
BRANCH   3   4
ATOM      4  C   UNL     1      11.103 -60.353 -25.861  1.00  0.00     0.072 A 
ATOM      5  N   UNL     1      10.041 -61.510 -28.201  1.00  0.00    -0.358 N 
ATOM      6  C   UNL     1      10.839 -60.389 -28.303  1.00  0.00     0.021 A 
ATOM      7  C   UNL     1       9.454 -61.855 -26.972  1.00  0.00     0.049 A 
ATOM      8  C   UNL     1      11.358 -59.766 -27.226  1.00  0.00    -0.003 A 
ATOM      9  C   UNL     1      11.121 -59.893 -29.705  1.00  0.00     0.054 C 
ATOM     10  C   UNL     1       8.413 -62.792 -26.937  1.00  0.00     0.047 A 
ATOM     11  C   UNL     1       9.925 -61.282 -25.773  1.00  0.00     0.024 A 
ATOM     12  C   UNL     1      12.229 -58.540 -27.305  1.00  0.00     0.039 C 
ATOM     13  C   UNL     1      12.279 -58.895 -29.791  1.00  0.00     0.007 C 
ATOM     14  C   UNL     1       7.786 -63.093 -25.731  1.00  0.00     0.043 A 
ATOM     15  C   UNL     1       9.247 -61.555 -24.579  1.00  0.00     0.014 A 
ATOM     16  C   UNL     1      12.190 -57.864 -28.675  1.00  0.00     0.005 C 
ATOM     17  C   UNL     1       8.185 -62.465 -24.556  1.00  0.00     0.021 A 
ATOM     18  H   UNL     1       9.548 -61.793 -29.041  1.00  0.00     0.166 HD
ATOM     19  Cl  UNL     1       6.491 -64.224 -25.699  1.00  0.00    -0.084 Cl
ENDBRANCH   3   4
ENDBRANCH   2   3
ENDBRANCH   1   2
BRANCH   1  20
ATOM     20  C   UNL     1      11.945 -57.649 -23.828  1.00  0.00     0.115 C 
BRANCH  20  21
ATOM     21  N   UNL     1      10.944 -56.593 -23.806  1.00  0.00    -0.382 N 
ATOM     22  H   UNL     1       9.996 -56.924 -23.602  1.00  0.00     0.160 HD
BRANCH  21  23
ATOM     23  C   UNL     1      11.120 -55.279 -23.388  1.00  0.00     0.087 C 
ATOM     24  C   UNL     1      10.768 -54.776 -22.202  1.00  0.00     0.082 C 
ATOM     25  C   UNL     1      11.766 -54.369 -24.392  1.00  0.00     0.209 C 
ATOM     26  C   UNL     1      10.981 -53.370 -21.803  1.00  0.00     0.192 C 
ATOM     27  C   UNL     1      12.072 -52.980 -23.999  1.00  0.00     0.039 A 
ATOM     28  C   UNL     1      11.701 -52.483 -22.748  1.00  0.00     0.075 A 
ATOM     29  C   UNL     1      12.746 -52.161 -24.921  1.00  0.00     0.013 A 
ATOM     30  C   UNL     1      12.021 -51.152 -22.432  1.00  0.00     0.127 A 
ATOM     31  C   UNL     1      13.055 -50.843 -24.595  1.00  0.00     0.005 A 
ATOM     32  C   UNL     1      12.693 -50.338 -23.350  1.00  0.00     0.047 A 
ATOM     33  O   UNL     1      12.021 -54.775 -25.525  1.00  0.00    -0.287 OA
ATOM     34  O   UNL     1      10.550 -53.009 -20.715  1.00  0.00    -0.289 OA
BRANCH  30  35
ATOM     35  O   UNL     1      11.690 -50.621 -21.218  1.00  0.00    -0.507 OA
ATOM     36  H   UNL     1      12.409 -50.751 -20.578  1.00  0.00     0.293 HD
ENDBRANCH  30  35
ENDBRANCH  21  23
ENDBRANCH  20  21
ENDBRANCH   1  20
TORSDOF 7
ENDMDL
MODEL 4
REMARK VINA RESULT:   -10.871      2.119      4.349
REMARK INTER + INTRA:         -15.974
REMARK INTER:                 -15.593
REMARK INTRA:                  -0.381
REMARK UNBOUND:                -0.972
REMARK SMILES O=C1C(NCCCN=c2c3c([nH]c4cc(Cl)ccc24)CCCC3)=CC(=O)c2c(O)cccc21
REMARK SMILES IDX 6 1 7 2 8 3 9 4 12 5 11 6 13 7 10 8 20 9 14 10 19 11 23 12
REMARK SMILES IDX 21 13 15 14 18 15 22 16 17 17 16 19 5 20 4 21 3 23 24 24
REMARK SMILES IDX 2 25 25 26 33 27 27 28 32 29 28 30 31 31 30 32 1 33 26 34
REMARK SMILES IDX 29 35
REMARK H PARENT 12 18 4 22 29 36
ROOT
ATOM      1  C   UNL     1      10.851 -58.798 -22.905  1.00  0.00     0.045 C 
ENDROOT
BRANCH   1   2
ATOM      2  C   UNL     1      11.797 -59.652 -23.754  1.00  0.00     0.144 C 
BRANCH   2   3
ATOM      3  N   UNL     1      11.693 -59.224 -25.134  1.00  0.00    -0.284 NA
BRANCH   3   4
ATOM      4  C   UNL     1      10.986 -59.796 -26.052  1.00  0.00     0.072 A 
ATOM      5  N   UNL     1      10.276 -61.443 -28.225  1.00  0.00    -0.358 N 
ATOM      6  C   UNL     1      10.975 -60.276 -28.461  1.00  0.00     0.021 A 
ATOM      7  C   UNL     1       9.602 -61.633 -27.007  1.00  0.00     0.049 A 
ATOM      8  C   UNL     1      11.323 -59.426 -27.475  1.00  0.00    -0.003 A 
ATOM      9  C   UNL     1      11.351 -60.000 -29.901  1.00  0.00     0.054 C 
ATOM     10  C   UNL     1       8.652 -62.657 -26.890  1.00  0.00     0.047 A 
ATOM     11  C   UNL     1       9.896 -60.816 -25.896  1.00  0.00     0.024 A 
ATOM     12  C   UNL     1      12.082 -58.146 -27.700  1.00  0.00     0.039 C 
ATOM     13  C   UNL     1      12.415 -58.913 -30.069  1.00  0.00     0.007 C 
ATOM     14  C   UNL     1       7.937 -62.813 -25.706  1.00  0.00     0.043 A 
ATOM     15  C   UNL     1       9.128 -60.952 -24.733  1.00  0.00     0.014 A 
ATOM     16  C   UNL     1      12.120 -57.722 -29.169  1.00  0.00     0.005 C 
ATOM     17  C   UNL     1       8.157 -61.954 -24.634  1.00  0.00     0.021 A 
ATOM     18  H   UNL     1       9.898 -61.916 -29.039  1.00  0.00     0.166 HD
ATOM     19  Cl  UNL     1       6.754 -64.054 -25.579  1.00  0.00    -0.084 Cl
ENDBRANCH   3   4
ENDBRANCH   2   3
ENDBRANCH   1   2
BRANCH   1  20
ATOM     20  C   UNL     1      11.411 -57.417 -22.563  1.00  0.00     0.115 C 
BRANCH  20  21
ATOM     21  N   UNL     1      10.794 -56.363 -23.354  1.00  0.00    -0.382 N 
ATOM     22  H   UNL     1       9.772 -56.335 -23.283  1.00  0.00     0.160 HD
BRANCH  21  23
ATOM     23  C   UNL     1      11.314 -55.104 -23.628  1.00  0.00     0.087 C 
ATOM     24  C   UNL     1      12.025 -54.763 -24.706  1.00  0.00     0.082 C 
ATOM     25  C   UNL     1      11.035 -54.056 -22.589  1.00  0.00     0.209 C 
ATOM     26  C   UNL     1      12.553 -53.407 -24.953  1.00  0.00     0.192 C 
ATOM     27  C   UNL     1      11.474 -52.670 -22.842  1.00  0.00     0.039 A 
ATOM     28  C   UNL     1      12.207 -52.340 -23.984  1.00  0.00     0.075 A 
ATOM     29  C   UNL     1      11.139 -51.685 -21.899  1.00  0.00     0.013 A 
ATOM     30  C   UNL     1      12.595 -51.002 -24.169  1.00  0.00     0.127 A 
ATOM     31  C   UNL     1      11.532 -50.364 -22.094  1.00  0.00     0.005 A 
ATOM     32  C   UNL     1      12.260 -50.022 -23.230  1.00  0.00     0.047 A 
ATOM     33  O   UNL     1      10.462 -54.356 -21.543  1.00  0.00    -0.287 OA
ATOM     34  O   UNL     1      13.251 -53.233 -25.944  1.00  0.00    -0.289 OA
BRANCH  30  35
ATOM     35  O   UNL     1      13.304 -50.625 -25.273  1.00  0.00    -0.507 OA
ATOM     36  H   UNL     1      13.808 -51.373 -25.631  1.00  0.00     0.293 HD
ENDBRANCH  30  35
ENDBRANCH  21  23
ENDBRANCH  20  21
ENDBRANCH   1  20
TORSDOF 7
ENDMDL
MODEL 5
REMARK VINA RESULT:   -10.843      3.659     10.170
REMARK INTER + INTRA:         -15.936
REMARK INTER:                 -15.350
REMARK INTRA:                  -0.586
REMARK UNBOUND:                -0.972
REMARK SMILES O=C1C(NCCCN=c2c3c([nH]c4cc(Cl)ccc24)CCCC3)=CC(=O)c2c(O)cccc21
REMARK SMILES IDX 6 1 7 2 8 3 9 4 12 5 11 6 13 7 10 8 20 9 14 10 19 11 23 12
REMARK SMILES IDX 21 13 15 14 18 15 22 16 17 17 16 19 5 20 4 21 3 23 24 24
REMARK SMILES IDX 2 25 25 26 33 27 27 28 32 29 28 30 31 31 30 32 1 33 26 34
REMARK SMILES IDX 29 35
REMARK H PARENT 12 18 4 22 29 36
ROOT
ATOM      1  C   UNL     1      10.947 -54.148 -23.120  1.00  0.00     0.045 C 
ENDROOT
BRANCH   1   2
ATOM      2  C   UNL     1      11.016 -52.864 -22.290  1.00  0.00     0.144 C 
BRANCH   2   3
ATOM      3  N   UNL     1      11.109 -51.734 -23.192  1.00  0.00    -0.284 NA
BRANCH   3   4
ATOM      4  C   UNL     1      12.172 -51.037 -23.424  1.00  0.00     0.072 A 
ATOM      5  N   UNL     1      14.521 -49.542 -22.993  1.00  0.00    -0.358 N 
ATOM      6  C   UNL     1      13.294 -48.951 -22.773  1.00  0.00     0.021 A 
ATOM      7  C   UNL     1      14.619 -50.713 -23.764  1.00  0.00     0.049 A 
ATOM      8  C   UNL     1      12.129 -49.595 -22.986  1.00  0.00    -0.003 A 
ATOM      9  C   UNL     1      13.318 -47.527 -22.260  1.00  0.00     0.054 C 
ATOM     10  C   UNL     1      15.868 -51.129 -24.242  1.00  0.00     0.047 A 
ATOM     11  C   UNL     1      13.469 -51.482 -24.038  1.00  0.00     0.024 A 
ATOM     12  C   UNL     1      10.775 -48.978 -22.758  1.00  0.00     0.039 C 
ATOM     13  C   UNL     1      11.980 -47.048 -21.693  1.00  0.00     0.007 C 
ATOM     14  C   UNL     1      15.964 -52.254 -25.057  1.00  0.00     0.043 A 
ATOM     15  C   UNL     1      13.576 -52.577 -24.903  1.00  0.00     0.014 A 
ATOM     16  C   UNL     1      10.828 -47.458 -22.600  1.00  0.00     0.005 C 
ATOM     17  C   UNL     1      14.822 -52.968 -25.406  1.00  0.00     0.021 A 
ATOM     18  H   UNL     1      15.327 -48.927 -22.988  1.00  0.00     0.166 HD
ATOM     19  Cl  UNL     1      17.497 -52.743 -25.662  1.00  0.00    -0.084 Cl
ENDBRANCH   3   4
ENDBRANCH   2   3
ENDBRANCH   1   2
BRANCH   1  20
ATOM     20  C   UNL     1      10.078 -55.240 -22.493  1.00  0.00     0.115 C 
BRANCH  20  21
ATOM     21  N   UNL     1      10.570 -56.575 -22.798  1.00  0.00    -0.382 N 
ATOM     22  H   UNL     1      11.468 -56.797 -22.357  1.00  0.00     0.160 HD
BRANCH  21  23
ATOM     23  C   UNL     1       9.812 -57.721 -23.006  1.00  0.00     0.087 C 
ATOM     24  C   UNL     1       8.522 -57.761 -23.348  1.00  0.00     0.082 C 
ATOM     25  C   UNL     1      10.546 -59.017 -22.815  1.00  0.00     0.209 C 
ATOM     26  C   UNL     1       7.762 -59.009 -23.562  1.00  0.00     0.192 C 
ATOM     27  C   UNL     1       9.843 -60.282 -23.102  1.00  0.00     0.039 A 
ATOM     28  C   UNL     1       8.495 -60.293 -23.468  1.00  0.00     0.075 A 
ATOM     29  C   UNL     1      10.563 -61.483 -22.993  1.00  0.00     0.013 A 
ATOM     30  C   UNL     1       7.881 -61.530 -23.729  1.00  0.00     0.127 A 
ATOM     31  C   UNL     1       9.941 -62.701 -23.253  1.00  0.00     0.005 A 
ATOM     32  C   UNL     1       8.599 -62.725 -23.622  1.00  0.00     0.047 A 
ATOM     33  O   UNL     1      11.709 -59.019 -22.413  1.00  0.00    -0.287 OA
ATOM     34  O   UNL     1       6.564 -58.918 -23.803  1.00  0.00    -0.289 OA
BRANCH  30  35
ATOM     35  O   UNL     1       6.568 -61.595 -24.101  1.00  0.00    -0.507 OA
ATOM     36  H   UNL     1       6.106 -62.294 -23.611  1.00  0.00     0.293 HD
ENDBRANCH  30  35
ENDBRANCH  21  23
ENDBRANCH  20  21
ENDBRANCH   1  20
TORSDOF 7
ENDMDL
MODEL 6
REMARK VINA RESULT:   -10.569      3.603      9.448
REMARK INTER + INTRA:         -15.558
REMARK INTER:                 -15.019
REMARK INTRA:                  -0.539
REMARK UNBOUND:                -0.972
REMARK SMILES O=C1C(NCCCN=c2c3c([nH]c4cc(Cl)ccc24)CCCC3)=CC(=O)c2c(O)cccc21
REMARK SMILES IDX 6 1 7 2 8 3 9 4 12 5 11 6 13 7 10 8 20 9 14 10 19 11 23 12
REMARK SMILES IDX 21 13 15 14 18 15 22 16 17 17 16 19 5 20 4 21 3 23 24 24
REMARK SMILES IDX 2 25 25 26 33 27 27 28 32 29 28 30 31 31 30 32 1 33 26 34
REMARK SMILES IDX 29 35
REMARK H PARENT 12 18 4 22 29 36
ROOT
ATOM      1  C   UNL     1      12.655 -56.325 -26.485  1.00  0.00     0.045 C 
ENDROOT
BRANCH   1   2
ATOM      2  C   UNL     1      12.509 -54.802 -26.508  1.00  0.00     0.144 C 
BRANCH   2   3
ATOM      3  N   UNL     1      13.038 -54.267 -25.270  1.00  0.00    -0.284 NA
BRANCH   3   4
ATOM      4  C   UNL     1      12.717 -53.135 -24.736  1.00  0.00     0.072 A 
ATOM      5  N   UNL     1      12.521 -51.032 -22.871  1.00  0.00    -0.358 N 
ATOM      6  C   UNL     1      11.758 -52.168 -22.692  1.00  0.00     0.021 A 
ATOM      7  C   UNL     1      13.093 -50.750 -24.123  1.00  0.00     0.049 A 
ATOM      8  C   UNL     1      11.778 -53.200 -23.558  1.00  0.00    -0.003 A 
ATOM      9  C   UNL     1      10.893 -52.204 -21.450  1.00  0.00     0.054 C 
ATOM     10  C   UNL     1      13.594 -49.469 -24.387  1.00  0.00     0.047 A 
ATOM     11  C   UNL     1      13.187 -51.758 -25.106  1.00  0.00     0.024 A 
ATOM     12  C   UNL     1      10.955 -54.450 -23.392  1.00  0.00     0.039 C 
ATOM     13  C   UNL     1      10.358 -53.596 -21.106  1.00  0.00     0.007 C 
ATOM     14  C   UNL     1      14.107 -49.165 -25.645  1.00  0.00     0.043 A 
ATOM     15  C   UNL     1      13.654 -51.419 -26.381  1.00  0.00     0.014 A 
ATOM     16  C   UNL     1       9.843 -54.302 -22.353  1.00  0.00     0.005 C 
ATOM     17  C   UNL     1      14.121 -50.128 -26.649  1.00  0.00     0.021 A 
ATOM     18  H   UNL     1      12.300 -50.240 -22.278  1.00  0.00     0.166 HD
ATOM     19  Cl  UNL     1      14.695 -47.582 -25.970  1.00  0.00    -0.084 Cl
ENDBRANCH   3   4
ENDBRANCH   2   3
ENDBRANCH   1   2
BRANCH   1  20
ATOM     20  C   UNL     1      12.325 -56.955 -25.131  1.00  0.00     0.115 C 
BRANCH  20  21
ATOM     21  N   UNL     1      12.534 -58.395 -25.130  1.00  0.00    -0.382 N 
ATOM     22  H   UNL     1      13.345 -58.696 -24.580  1.00  0.00     0.160 HD
BRANCH  21  23
ATOM     23  C   UNL     1      11.560 -59.385 -25.176  1.00  0.00     0.087 C 
ATOM     24  C   UNL     1      10.811 -59.705 -26.235  1.00  0.00     0.082 C 
ATOM     25  C   UNL     1      11.355 -60.141 -23.896  1.00  0.00     0.209 C 
ATOM     26  C   UNL     1       9.790 -60.771 -26.234  1.00  0.00     0.192 C 
ATOM     27  C   UNL     1      10.404 -61.269 -23.880  1.00  0.00     0.039 A 
ATOM     28  C   UNL     1       9.641 -61.588 -25.006  1.00  0.00     0.075 A 
ATOM     29  C   UNL     1      10.278 -62.017 -22.698  1.00  0.00     0.013 A 
ATOM     30  C   UNL     1       8.753 -62.674 -24.930  1.00  0.00     0.127 A 
ATOM     31  C   UNL     1       9.392 -63.089 -22.636  1.00  0.00     0.005 A 
ATOM     32  C   UNL     1       8.630 -63.419 -23.753  1.00  0.00     0.047 A 
ATOM     33  O   UNL     1      11.962 -59.815 -22.877  1.00  0.00    -0.287 OA
ATOM     34  O   UNL     1       9.117 -60.923 -27.246  1.00  0.00    -0.289 OA
BRANCH  30  35
ATOM     35  O   UNL     1       7.992 -63.034 -26.006  1.00  0.00    -0.507 OA
ATOM     36  H   UNL     1       7.076 -62.732 -25.896  1.00  0.00     0.293 HD
ENDBRANCH  30  35
ENDBRANCH  21  23
ENDBRANCH  20  21
ENDBRANCH   1  20
TORSDOF 7
ENDMDL
MODEL 7
REMARK VINA RESULT:   -10.404      3.545     10.126
REMARK INTER + INTRA:         -15.330
REMARK INTER:                 -14.667
REMARK INTRA:                  -0.664
REMARK UNBOUND:                -0.972
REMARK SMILES O=C1C(NCCCN=c2c3c([nH]c4cc(Cl)ccc24)CCCC3)=CC(=O)c2c(O)cccc21
REMARK SMILES IDX 6 1 7 2 8 3 9 4 12 5 11 6 13 7 10 8 20 9 14 10 19 11 23 12
REMARK SMILES IDX 21 13 15 14 18 15 22 16 17 17 16 19 5 20 4 21 3 23 24 24
REMARK SMILES IDX 2 25 25 26 33 27 27 28 32 29 28 30 31 31 30 32 1 33 26 34
REMARK SMILES IDX 29 35
REMARK H PARENT 12 18 4 22 29 36
ROOT
ATOM      1  C   UNL     1      11.088 -54.024 -22.759  1.00  0.00     0.045 C 
ENDROOT
BRANCH   1   2
ATOM      2  C   UNL     1      10.987 -52.650 -22.092  1.00  0.00     0.144 C 
BRANCH   2   3
ATOM      3  N   UNL     1      11.118 -51.629 -23.111  1.00  0.00    -0.284 NA
BRANCH   3   4
ATOM      4  C   UNL     1      12.186 -50.948 -23.367  1.00  0.00     0.072 A 
ATOM      5  N   UNL     1      14.558 -49.475 -22.987  1.00  0.00    -0.358 N 
ATOM      6  C   UNL     1      13.340 -48.867 -22.759  1.00  0.00     0.021 A 
ATOM      7  C   UNL     1      14.631 -50.657 -23.743  1.00  0.00     0.049 A 
ATOM      8  C   UNL     1      12.165 -49.500 -22.948  1.00  0.00    -0.003 A 
ATOM      9  C   UNL     1      13.387 -47.436 -22.266  1.00  0.00     0.054 C 
ATOM     10  C   UNL     1      15.869 -51.094 -24.231  1.00  0.00     0.047 A 
ATOM     11  C   UNL     1      13.469 -51.417 -23.991  1.00  0.00     0.024 A 
ATOM     12  C   UNL     1      10.821 -48.863 -22.711  1.00  0.00     0.039 C 
ATOM     13  C   UNL     1      12.062 -46.933 -21.689  1.00  0.00     0.007 C 
ATOM     14  C   UNL     1      15.941 -52.231 -25.032  1.00  0.00     0.043 A 
ATOM     15  C   UNL     1      13.553 -52.524 -24.843  1.00  0.00     0.014 A 
ATOM     16  C   UNL     1      10.894 -47.342 -22.575  1.00  0.00     0.005 C 
ATOM     17  C   UNL     1      14.787 -52.936 -25.356  1.00  0.00     0.021 A 
ATOM     18  H   UNL     1      15.371 -48.869 -23.000  1.00  0.00     0.166 HD
ATOM     19  Cl  UNL     1      17.461 -52.747 -25.650  1.00  0.00    -0.084 Cl
ENDBRANCH   3   4
ENDBRANCH   2   3
ENDBRANCH   1   2
BRANCH   1  20
ATOM     20  C   UNL     1      10.271 -55.110 -22.057  1.00  0.00     0.115 C 
BRANCH  20  21
ATOM     21  N   UNL     1       9.683 -56.049 -23.000  1.00  0.00    -0.382 N 
ATOM     22  H   UNL     1       9.389 -55.621 -23.883  1.00  0.00     0.160 HD
BRANCH  21  23
ATOM     23  C   UNL     1      10.022 -57.385 -23.176  1.00  0.00     0.087 C 
ATOM     24  C   UNL     1      11.249 -57.905 -23.083  1.00  0.00     0.082 C 
ATOM     25  C   UNL     1       8.876 -58.299 -23.502  1.00  0.00     0.209 C 
ATOM     26  C   UNL     1      11.557 -59.336 -23.274  1.00  0.00     0.192 C 
ATOM     27  C   UNL     1       9.133 -59.748 -23.616  1.00  0.00     0.039 A 
ATOM     28  C   UNL     1      10.425 -60.265 -23.505  1.00  0.00     0.075 A 
ATOM     29  C   UNL     1       8.040 -60.600 -23.846  1.00  0.00     0.013 A 
ATOM     30  C   UNL     1      10.605 -61.654 -23.622  1.00  0.00     0.127 A 
ATOM     31  C   UNL     1       8.233 -61.974 -23.962  1.00  0.00     0.005 A 
ATOM     32  C   UNL     1       9.516 -62.502 -23.849  1.00  0.00     0.047 A 
ATOM     33  O   UNL     1       7.749 -57.842 -23.683  1.00  0.00    -0.287 OA
ATOM     34  O   UNL     1      12.731 -59.682 -23.235  1.00  0.00    -0.289 OA
BRANCH  30  35
ATOM     35  O   UNL     1      11.847 -62.211 -23.510  1.00  0.00    -0.507 OA
ATOM     36  H   UNL     1      11.885 -62.816 -22.752  1.00  0.00     0.293 HD
ENDBRANCH  30  35
ENDBRANCH  21  23
ENDBRANCH  20  21
ENDBRANCH   1  20
TORSDOF 7
ENDMDL
MODEL 8
REMARK VINA RESULT:   -10.190      4.290     10.569
REMARK INTER + INTRA:         -15.035
REMARK INTER:                 -14.530
REMARK INTRA:                  -0.504
REMARK UNBOUND:                -0.972
REMARK SMILES O=C1C(NCCCN=c2c3c([nH]c4cc(Cl)ccc24)CCCC3)=CC(=O)c2c(O)cccc21
REMARK SMILES IDX 6 1 7 2 8 3 9 4 12 5 11 6 13 7 10 8 20 9 14 10 19 11 23 12
REMARK SMILES IDX 21 13 15 14 18 15 22 16 17 17 16 19 5 20 4 21 3 23 24 24
REMARK SMILES IDX 2 25 25 26 33 27 27 28 32 29 28 30 31 31 30 32 1 33 26 34
REMARK SMILES IDX 29 35
REMARK H PARENT 12 18 4 22 29 36
ROOT
ATOM      1  C   UNL     1      11.013 -53.834 -22.809  1.00  0.00     0.045 C 
ENDROOT
BRANCH   1   2
ATOM      2  C   UNL     1      11.750 -52.940 -23.809  1.00  0.00     0.144 C 
BRANCH   2   3
ATOM      3  N   UNL     1      12.584 -52.012 -23.073  1.00  0.00    -0.284 NA
BRANCH   3   4
ATOM      4  C   UNL     1      13.047 -50.892 -23.522  1.00  0.00     0.072 A 
ATOM      5  N   UNL     1      13.940 -48.908 -25.312  1.00  0.00    -0.358 N 
ATOM      6  C   UNL     1      14.764 -49.976 -25.021  1.00  0.00     0.021 A 
ATOM      7  C   UNL     1      12.854 -48.599 -24.476  1.00  0.00     0.049 A 
ATOM      8  C   UNL     1      14.416 -50.947 -24.153  1.00  0.00    -0.003 A 
ATOM      9  C   UNL     1      16.093 -50.014 -25.745  1.00  0.00     0.054 C 
ATOM     10  C   UNL     1      12.219 -47.356 -24.591  1.00  0.00     0.047 A 
ATOM     11  C   UNL     1      12.387 -49.544 -23.539  1.00  0.00     0.024 A 
ATOM     12  C   UNL     1      15.293 -52.122 -23.812  1.00  0.00     0.039 C 
ATOM     13  C   UNL     1      16.801 -51.369 -25.674  1.00  0.00     0.007 C 
ATOM     14  C   UNL     1      11.183 -47.019 -23.725  1.00  0.00     0.043 A 
ATOM     15  C   UNL     1      11.381 -49.167 -22.641  1.00  0.00     0.014 A 
ATOM     16  C   UNL     1      16.742 -51.939 -24.264  1.00  0.00     0.005 C 
ATOM     17  C   UNL     1      10.774 -47.910 -22.738  1.00  0.00     0.021 A 
ATOM     18  H   UNL     1      14.360 -48.139 -25.824  1.00  0.00     0.166 HD
ATOM     19  Cl  UNL     1      10.426 -45.480 -23.854  1.00  0.00    -0.084 Cl
ENDBRANCH   3   4
ENDBRANCH   2   3
ENDBRANCH   1   2
BRANCH   1  20
ATOM     20  C   UNL     1      10.162 -54.922 -23.467  1.00  0.00     0.115 C 
BRANCH  20  21
ATOM     21  N   UNL     1      10.561 -56.258 -23.051  1.00  0.00    -0.382 N 
ATOM     22  H   UNL     1      11.159 -56.271 -22.218  1.00  0.00     0.160 HD
BRANCH  21  23
ATOM     23  C   UNL     1       9.819 -57.427 -23.157  1.00  0.00     0.087 C 
ATOM     24  C   UNL     1       8.534 -57.515 -23.510  1.00  0.00     0.082 C 
ATOM     25  C   UNL     1      10.564 -58.690 -22.835  1.00  0.00     0.209 C 
ATOM     26  C   UNL     1       7.789 -58.785 -23.614  1.00  0.00     0.192 C 
ATOM     27  C   UNL     1       9.877 -59.985 -23.010  1.00  0.00     0.039 A 
ATOM     28  C   UNL     1       8.535 -60.047 -23.390  1.00  0.00     0.075 A 
ATOM     29  C   UNL     1      10.609 -61.162 -22.779  1.00  0.00     0.013 A 
ATOM     30  C   UNL     1       7.937 -61.310 -23.540  1.00  0.00     0.127 A 
ATOM     31  C   UNL     1      10.003 -62.406 -22.930  1.00  0.00     0.005 A 
ATOM     32  C   UNL     1       8.667 -62.480 -23.312  1.00  0.00     0.047 A 
ATOM     33  O   UNL     1      11.721 -58.641 -22.422  1.00  0.00    -0.287 OA
ATOM     34  O   UNL     1       6.595 -58.732 -23.878  1.00  0.00    -0.289 OA
BRANCH  30  35
ATOM     35  O   UNL     1       6.630 -61.425 -23.920  1.00  0.00    -0.507 OA
ATOM     36  H   UNL     1       6.167 -60.578 -23.821  1.00  0.00     0.293 HD
ENDBRANCH  30  35
ENDBRANCH  21  23
ENDBRANCH  20  21
ENDBRANCH   1  20
TORSDOF 7
ENDMDL
