MODEL 1
REMARK VINA RESULT:   -11.644      0.000      0.000
REMARK INTER + INTRA:         -16.369
REMARK INTER:                 -15.728
REMARK INTRA:                  -0.640
REMARK UNBOUND:                -0.640
REMARK SMILES COc1cc2c(cc1OC)C(=O)[C@@H](C[C@H]1CC[N@@H+](Cc3ccccc3)CC1)C2
REMARK SMILES IDX 14 1 15 2 17 3 18 4 16 5 26 6 27 7 19 9 20 10 21 11 25 12
REMARK SMILES IDX 22 13 24 14 23 15 13 16 11 17 28 18 6 19 5 20 7 21 4 22 8 23
REMARK SMILES IDX 3 24 12 25 9 26 10 27 2 28 1 29
REMARK H PARENT 18 8
ROOT
ATOM      1  C   UNL     1      11.451 -56.551 -23.412  1.00  0.00     0.016 C 
ENDROOT
BRANCH   1   2
ATOM      2  C   UNL     1      10.615 -57.341 -22.371  1.00  0.00     0.001 C 
ATOM      3  C   UNL     1       9.761 -59.210 -23.912  1.00  0.00     0.262 C 
ATOM      4  N   UNL     1      10.527 -60.207 -23.080  1.00  0.00    -0.331 N 
ATOM      5  C   UNL     1       9.395 -58.000 -23.054  1.00  0.00     0.065 C 
ATOM      6  C   UNL     1      11.780 -59.607 -22.484  1.00  0.00     0.262 C 
ATOM      7  C   UNL     1      11.377 -58.430 -21.600  1.00  0.00     0.065 C 
ATOM      8  H   UNL     1       9.925 -60.458 -22.287  1.00  0.00     0.348 HD
BRANCH   4   9
ATOM      9  C   UNL     1      10.781 -61.523 -23.793  1.00  0.00     0.299 C 
BRANCH   9  10
ATOM     10  C   UNL     1       9.565 -62.349 -24.114  1.00  0.00     0.006 A 
ATOM     11  C   UNL     1       8.974 -63.157 -23.130  1.00  0.00     0.009 A 
ATOM     12  C   UNL     1       8.996 -62.324 -25.397  1.00  0.00     0.009 A 
ATOM     13  C   UNL     1       7.834 -63.909 -23.419  1.00  0.00     0.001 A 
ATOM     14  C   UNL     1       7.854 -63.076 -25.681  1.00  0.00     0.001 A 
ATOM     15  C   UNL     1       7.273 -63.865 -24.693  1.00  0.00     0.000 A 
ENDBRANCH   9  10
ENDBRANCH   4   9
ENDBRANCH   1   2
BRANCH   1  16
ATOM     16  C   UNL     1      11.076 -55.096 -23.726  1.00  0.00     0.066 C 
ATOM     17  C   UNL     1      11.993 -54.415 -24.722  1.00  0.00     0.166 C 
ATOM     18  C   UNL     1      11.008 -54.120 -22.532  1.00  0.00     0.048 C 
ATOM     19  C   UNL     1      12.174 -53.026 -24.324  1.00  0.00     0.025 A 
ATOM     20  C   UNL     1      11.589 -52.850 -23.079  1.00  0.00    -0.033 A 
ATOM     21  C   UNL     1      12.824 -52.014 -24.996  1.00  0.00     0.062 A 
ATOM     22  C   UNL     1      11.646 -51.610 -22.459  1.00  0.00     0.055 A 
ATOM     23  C   UNL     1      12.866 -50.754 -24.392  1.00  0.00     0.161 A 
ATOM     24  C   UNL     1      12.294 -50.545 -23.110  1.00  0.00     0.161 A 
ATOM     25  O   UNL     1      12.525 -54.935 -25.688  1.00  0.00    -0.294 OA
BRANCH  23  26
ATOM     26  O   UNL     1      13.553 -49.820 -25.128  1.00  0.00    -0.493 OA
ATOM     27  C   UNL     1      14.066 -50.278 -26.377  1.00  0.00     0.278 C 
ENDBRANCH  23  26
BRANCH  24  28
ATOM     28  O   UNL     1      12.450 -49.303 -22.554  1.00  0.00    -0.493 OA
ATOM     29  C   UNL     1      11.421 -48.342 -22.753  1.00  0.00     0.278 C 
ENDBRANCH  24  28
ENDBRANCH   1  16
TORSDOF 6
ENDMDL
MODEL 2
REMARK VINA RESULT:   -10.856      3.223      9.666
REMARK INTER + INTRA:         -15.304
REMARK INTER:                 -14.781
REMARK INTRA:                  -0.523
REMARK UNBOUND:                -0.640
REMARK SMILES COc1cc2c(cc1OC)C(=O)[C@@H](C[C@H]1CC[N@@H+](Cc3ccccc3)CC1)C2
REMARK SMILES IDX 14 1 15 2 17 3 18 4 16 5 26 6 27 7 19 9 20 10 21 11 25 12
REMARK SMILES IDX 22 13 24 14 23 15 13 16 11 17 28 18 6 19 5 20 7 21 4 22 8 23
REMARK SMILES IDX 3 24 12 25 9 26 10 27 2 28 1 29
REMARK H PARENT 18 8
ROOT
ATOM      1  C   UNL     1      12.090 -59.405 -22.709  1.00  0.00     0.016 C 
ENDROOT
BRANCH   1   2
ATOM      2  C   UNL     1      10.969 -58.867 -21.780  1.00  0.00     0.001 C 
ATOM      3  C   UNL     1      11.344 -56.354 -22.152  1.00  0.00     0.262 C 
ATOM      4  N   UNL     1       9.971 -56.269 -22.768  1.00  0.00    -0.331 N 
ATOM      5  C   UNL     1      11.390 -57.515 -21.161  1.00  0.00     0.065 C 
ATOM      6  C   UNL     1       9.581 -57.551 -23.467  1.00  0.00     0.262 C 
ATOM      7  C   UNL     1       9.594 -58.682 -22.442  1.00  0.00     0.065 C 
ATOM      8  H   UNL     1       9.305 -56.150 -21.996  1.00  0.00     0.348 HD
BRANCH   4   9
ATOM      9  C   UNL     1       9.770 -55.037 -23.633  1.00  0.00     0.299 C 
BRANCH   9  10
ATOM     10  C   UNL     1      10.479 -53.789 -23.184  1.00  0.00     0.006 A 
ATOM     11  C   UNL     1      10.001 -53.054 -22.088  1.00  0.00     0.009 A 
ATOM     12  C   UNL     1      11.633 -53.338 -23.846  1.00  0.00     0.009 A 
ATOM     13  C   UNL     1      10.668 -51.906 -21.656  1.00  0.00     0.001 A 
ATOM     14  C   UNL     1      12.298 -52.192 -23.409  1.00  0.00     0.001 A 
ATOM     15  C   UNL     1      11.818 -51.478 -22.315  1.00  0.00     0.000 A 
ENDBRANCH   9  10
ENDBRANCH   4   9
ENDBRANCH   1   2
BRANCH   1  16
ATOM     16  C   UNL     1      11.781 -60.570 -23.659  1.00  0.00     0.066 C 
ATOM     17  C   UNL     1      11.440 -60.149 -25.075  1.00  0.00     0.166 C 
ATOM     18  C   UNL     1      10.634 -61.519 -23.250  1.00  0.00     0.048 C 
ATOM     19  C   UNL     1      10.395 -61.023 -25.588  1.00  0.00     0.025 A 
ATOM     20  C   UNL     1       9.948 -61.825 -24.548  1.00  0.00    -0.033 A 
ATOM     21  C   UNL     1       9.867 -61.081 -26.860  1.00  0.00     0.062 A 
ATOM     22  C   UNL     1       8.926 -62.737 -24.771  1.00  0.00     0.055 A 
ATOM     23  C   UNL     1       8.853 -62.014 -27.101  1.00  0.00     0.161 A 
ATOM     24  C   UNL     1       8.360 -62.837 -26.055  1.00  0.00     0.161 A 
ATOM     25  O   UNL     1      11.929 -59.217 -25.689  1.00  0.00    -0.294 OA
BRANCH  23  26
ATOM     26  O   UNL     1       8.380 -61.982 -28.390  1.00  0.00    -0.493 OA
ATOM     27  C   UNL     1       8.772 -63.076 -29.216  1.00  0.00     0.278 C 
ENDBRANCH  23  26
BRANCH  24  28
ATOM     28  O   UNL     1       7.312 -63.665 -26.356  1.00  0.00    -0.493 OA
ATOM     29  C   UNL     1       6.532 -64.181 -25.286  1.00  0.00     0.278 C 
ENDBRANCH  24  28
ENDBRANCH   1  16
TORSDOF 6
ENDMDL
MODEL 3
REMARK VINA RESULT:   -10.622      1.586      2.470
REMARK INTER + INTRA:         -14.987
REMARK INTER:                 -14.286
REMARK INTRA:                  -0.701
REMARK UNBOUND:                -0.640
REMARK SMILES COc1cc2c(cc1OC)C(=O)[C@@H](C[C@H]1CC[N@@H+](Cc3ccccc3)CC1)C2
REMARK SMILES IDX 14 1 15 2 17 3 18 4 16 5 26 6 27 7 19 9 20 10 21 11 25 12
REMARK SMILES IDX 22 13 24 14 23 15 13 16 11 17 28 18 6 19 5 20 7 21 4 22 8 23
REMARK SMILES IDX 3 24 12 25 9 26 10 27 2 28 1 29
REMARK H PARENT 18 8
ROOT
ATOM      1  C   UNL     1      11.322 -58.220 -21.906  1.00  0.00     0.016 C 
ENDROOT
BRANCH   1   2
ATOM      2  C   UNL     1      10.410 -59.476 -21.903  1.00  0.00     0.001 C 
ATOM      3  C   UNL     1       9.272 -59.120 -24.178  1.00  0.00     0.262 C 
ATOM      4  N   UNL     1       9.913 -60.394 -24.666  1.00  0.00    -0.331 N 
ATOM      5  C   UNL     1       9.096 -59.183 -22.662  1.00  0.00     0.065 C 
ATOM      6  C   UNL     1      11.250 -60.646 -24.008  1.00  0.00     0.262 C 
ATOM      7  C   UNL     1      11.034 -60.747 -22.500  1.00  0.00     0.065 C 
ATOM      8  H   UNL     1       9.301 -61.166 -24.376  1.00  0.00     0.348 HD
BRANCH   4   9
ATOM      9  C   UNL     1       9.967 -60.503 -26.179  1.00  0.00     0.299 C 
BRANCH   9  10
ATOM     10  C   UNL     1       9.215 -61.655 -26.789  1.00  0.00     0.006 A 
ATOM     11  C   UNL     1       9.379 -61.974 -28.146  1.00  0.00     0.009 A 
ATOM     12  C   UNL     1       8.342 -62.436 -26.014  1.00  0.00     0.009 A 
ATOM     13  C   UNL     1       8.698 -63.054 -28.710  1.00  0.00     0.001 A 
ATOM     14  C   UNL     1       7.666 -63.517 -26.581  1.00  0.00     0.001 A 
ATOM     15  C   UNL     1       7.845 -63.826 -27.927  1.00  0.00     0.000 A 
ENDBRANCH   9  10
ENDBRANCH   4   9
ENDBRANCH   1   2
BRANCH   1  16
ATOM     16  C   UNL     1      10.742 -56.874 -22.361  1.00  0.00     0.066 C 
ATOM     17  C   UNL     1      11.472 -56.241 -23.529  1.00  0.00     0.166 C 
ATOM     18  C   UNL     1      10.662 -55.754 -21.302  1.00  0.00     0.048 C 
ATOM     19  C   UNL     1      11.514 -54.799 -23.334  1.00  0.00     0.025 A 
ATOM     20  C   UNL     1      11.028 -54.517 -22.066  1.00  0.00    -0.033 A 
ATOM     21  C   UNL     1      11.970 -53.825 -24.196  1.00  0.00     0.062 A 
ATOM     22  C   UNL     1      10.986 -53.203 -21.620  1.00  0.00     0.055 A 
ATOM     23  C   UNL     1      11.910 -52.496 -23.766  1.00  0.00     0.161 A 
ATOM     24  C   UNL     1      11.435 -52.174 -22.467  1.00  0.00     0.161 A 
ATOM     25  O   UNL     1      11.975 -56.829 -24.472  1.00  0.00    -0.294 OA
BRANCH  23  26
ATOM     26  O   UNL     1      12.404 -51.604 -24.685  1.00  0.00    -0.493 OA
ATOM     27  C   UNL     1      13.572 -52.027 -25.386  1.00  0.00     0.278 C 
ENDBRANCH  23  26
BRANCH  24  28
ATOM     28  O   UNL     1      11.485 -50.857 -22.095  1.00  0.00    -0.493 OA
ATOM     29  C   UNL     1      10.305 -50.076 -22.224  1.00  0.00     0.278 C 
ENDBRANCH  24  28
ENDBRANCH   1  16
TORSDOF 6
ENDMDL
MODEL 4
REMARK VINA RESULT:   -10.608      1.366      2.609
REMARK INTER + INTRA:         -14.969
REMARK INTER:                 -14.438
REMARK INTRA:                  -0.531
REMARK UNBOUND:                -0.640
REMARK SMILES COc1cc2c(cc1OC)C(=O)[C@@H](C[C@H]1CC[N@@H+](Cc3ccccc3)CC1)C2
REMARK SMILES IDX 14 1 15 2 17 3 18 4 16 5 26 6 27 7 19 9 20 10 21 11 25 12
REMARK SMILES IDX 22 13 24 14 23 15 13 16 11 17 28 18 6 19 5 20 7 21 4 22 8 23
REMARK SMILES IDX 3 24 12 25 9 26 10 27 2 28 1 29
REMARK H PARENT 18 8
ROOT
ATOM      1  C   UNL     1      10.054 -56.090 -23.247  1.00  0.00     0.016 C 
ENDROOT
BRANCH   1   2
ATOM      2  C   UNL     1      10.128 -57.417 -22.445  1.00  0.00     0.001 C 
ATOM      3  C   UNL     1       9.203 -58.998 -24.245  1.00  0.00     0.262 C 
ATOM      4  N   UNL     1      10.535 -59.703 -24.270  1.00  0.00    -0.331 N 
ATOM      5  C   UNL     1       8.984 -58.364 -22.872  1.00  0.00     0.065 C 
ATOM      6  C   UNL     1      11.679 -58.767 -23.953  1.00  0.00     0.262 C 
ATOM      7  C   UNL     1      11.454 -58.185 -22.560  1.00  0.00     0.065 C 
ATOM      8  H   UNL     1      10.518 -60.399 -23.516  1.00  0.00     0.348 HD
BRANCH   4   9
ATOM      9  C   UNL     1      10.766 -60.516 -25.531  1.00  0.00     0.299 C 
BRANCH   9  10
ATOM     10  C   UNL     1       9.694 -61.511 -25.885  1.00  0.00     0.006 A 
ATOM     11  C   UNL     1       9.400 -61.794 -27.228  1.00  0.00     0.009 A 
ATOM     12  C   UNL     1       8.972 -62.179 -24.883  1.00  0.00     0.009 A 
ATOM     13  C   UNL     1       8.421 -62.731 -27.560  1.00  0.00     0.001 A 
ATOM     14  C   UNL     1       7.995 -63.117 -25.219  1.00  0.00     0.001 A 
ATOM     15  C   UNL     1       7.721 -63.394 -26.555  1.00  0.00     0.000 A 
ENDBRANCH   9  10
ENDBRANCH   4   9
ENDBRANCH   1   2
BRANCH   1  16
ATOM     16  C   UNL     1      11.156 -55.038 -23.060  1.00  0.00     0.066 C 
ATOM     17  C   UNL     1      10.691 -53.756 -22.399  1.00  0.00     0.166 C 
ATOM     18  C   UNL     1      11.899 -54.573 -24.330  1.00  0.00     0.048 C 
ATOM     19  C   UNL     1      11.381 -52.632 -23.015  1.00  0.00     0.025 A 
ATOM     20  C   UNL     1      12.093 -53.102 -24.108  1.00  0.00    -0.033 A 
ATOM     21  C   UNL     1      11.357 -51.302 -22.652  1.00  0.00     0.062 A 
ATOM     22  C   UNL     1      12.823 -52.217 -24.890  1.00  0.00     0.055 A 
ATOM     23  C   UNL     1      12.109 -50.405 -23.418  1.00  0.00     0.161 A 
ATOM     24  C   UNL     1      12.834 -50.851 -24.554  1.00  0.00     0.161 A 
ATOM     25  O   UNL     1       9.856 -53.659 -21.517  1.00  0.00    -0.294 OA
BRANCH  23  26
ATOM     26  O   UNL     1      12.005 -49.104 -22.991  1.00  0.00    -0.493 OA
ATOM     27  C   UNL     1      10.690 -48.674 -22.648  1.00  0.00     0.278 C 
ENDBRANCH  23  26
BRANCH  24  28
ATOM     28  O   UNL     1      13.477 -49.897 -25.296  1.00  0.00    -0.493 OA
ATOM     29  C   UNL     1      14.328 -50.324 -26.352  1.00  0.00     0.278 C 
ENDBRANCH  24  28
ENDBRANCH   1  16
TORSDOF 6
ENDMDL
MODEL 5
REMARK VINA RESULT:   -10.390      1.958      2.744
REMARK INTER + INTRA:         -14.674
REMARK INTER:                 -14.223
REMARK INTRA:                  -0.452
REMARK UNBOUND:                -0.640
REMARK SMILES COc1cc2c(cc1OC)C(=O)[C@@H](C[C@H]1CC[N@@H+](Cc3ccccc3)CC1)C2
REMARK SMILES IDX 14 1 15 2 17 3 18 4 16 5 26 6 27 7 19 9 20 10 21 11 25 12
REMARK SMILES IDX 22 13 24 14 23 15 13 16 11 17 28 18 6 19 5 20 7 21 4 22 8 23
REMARK SMILES IDX 3 24 12 25 9 26 10 27 2 28 1 29
REMARK H PARENT 18 8
ROOT
ATOM      1  C   UNL     1      11.258 -57.500 -22.466  1.00  0.00     0.016 C 
ENDROOT
BRANCH   1   2
ATOM      2  C   UNL     1      10.224 -58.531 -21.943  1.00  0.00     0.001 C 
ATOM      3  C   UNL     1       9.292 -59.312 -24.205  1.00  0.00     0.262 C 
ATOM      4  N   UNL     1       9.831 -60.691 -23.919  1.00  0.00    -0.331 N 
ATOM      5  C   UNL     1       9.004 -58.592 -22.889  1.00  0.00     0.065 C 
ATOM      6  C   UNL     1      11.086 -60.647 -23.077  1.00  0.00     0.262 C 
ATOM      7  C   UNL     1      10.754 -59.961 -21.754  1.00  0.00     0.065 C 
ATOM      8  H   UNL     1       9.124 -61.176 -23.355  1.00  0.00     0.348 HD
BRANCH   4   9
ATOM      9  C   UNL     1       9.980 -61.552 -25.161  1.00  0.00     0.299 C 
BRANCH   9  10
ATOM     10  C   UNL     1      10.639 -60.899 -26.346  1.00  0.00     0.006 A 
ATOM     11  C   UNL     1      11.764 -60.077 -26.172  1.00  0.00     0.009 A 
ATOM     12  C   UNL     1      10.148 -61.103 -27.645  1.00  0.00     0.009 A 
ATOM     13  C   UNL     1      12.389 -59.486 -27.271  1.00  0.00     0.001 A 
ATOM     14  C   UNL     1      10.778 -60.513 -28.742  1.00  0.00     0.001 A 
ATOM     15  C   UNL     1      11.898 -59.707 -28.555  1.00  0.00     0.000 A 
ENDBRANCH   9  10
ENDBRANCH   4   9
ENDBRANCH   1   2
BRANCH   1  16
ATOM     16  C   UNL     1      10.773 -56.114 -22.913  1.00  0.00     0.066 C 
ATOM     17  C   UNL     1      11.629 -55.467 -23.984  1.00  0.00     0.166 C 
ATOM     18  C   UNL     1      10.642 -55.034 -21.818  1.00  0.00     0.048 C 
ATOM     19  C   UNL     1      11.709 -54.037 -23.725  1.00  0.00     0.025 A 
ATOM     20  C   UNL     1      11.122 -53.784 -22.494  1.00  0.00    -0.033 A 
ATOM     21  C   UNL     1      12.277 -53.050 -24.501  1.00  0.00     0.062 A 
ATOM     22  C   UNL     1      11.091 -52.488 -21.997  1.00  0.00     0.055 A 
ATOM     23  C   UNL     1      12.229 -51.737 -24.021  1.00  0.00     0.161 A 
ATOM     24  C   UNL     1      11.653 -51.447 -22.757  1.00  0.00     0.161 A 
ATOM     25  O   UNL     1      12.191 -56.038 -24.903  1.00  0.00    -0.294 OA
BRANCH  23  26
ATOM     26  O   UNL     1      12.838 -50.831 -24.855  1.00  0.00    -0.493 OA
ATOM     27  C   UNL     1      13.618 -51.392 -25.907  1.00  0.00     0.278 C 
ENDBRANCH  23  26
BRANCH  24  28
ATOM     28  O   UNL     1      11.720 -50.148 -22.326  1.00  0.00    -0.493 OA
ATOM     29  C   UNL     1      10.622 -49.289 -22.605  1.00  0.00     0.278 C 
ENDBRANCH  24  28
ENDBRANCH   1  16
TORSDOF 6
ENDMDL
MODEL 6
REMARK VINA RESULT:    -9.600      2.450      4.245
REMARK INTER + INTRA:         -13.607
REMARK INTER:                 -12.933
REMARK INTRA:                  -0.674
REMARK UNBOUND:                -0.640
REMARK SMILES COc1cc2c(cc1OC)C(=O)[C@@H](C[C@H]1CC[N@@H+](Cc3ccccc3)CC1)C2
REMARK SMILES IDX 14 1 15 2 17 3 18 4 16 5 26 6 27 7 19 9 20 10 21 11 25 12
REMARK SMILES IDX 22 13 24 14 23 15 13 16 11 17 28 18 6 19 5 20 7 21 4 22 8 23
REMARK SMILES IDX 3 24 12 25 9 26 10 27 2 28 1 29
REMARK H PARENT 18 8
ROOT
ATOM      1  C   UNL     1      11.712 -52.145 -22.044  1.00  0.00     0.016 C 
ENDROOT
BRANCH   1   2
ATOM      2  C   UNL     1      10.419 -52.893 -21.622  1.00  0.00     0.001 C 
ATOM      3  C   UNL     1      10.293 -54.557 -23.575  1.00  0.00     0.262 C 
ATOM      4  N   UNL     1      10.481 -55.683 -22.590  1.00  0.00    -0.331 N 
ATOM      5  C   UNL     1       9.643 -53.366 -22.873  1.00  0.00     0.065 C 
ATOM      6  C   UNL     1      11.324 -55.268 -21.406  1.00  0.00     0.262 C 
ATOM      7  C   UNL     1      10.627 -54.106 -20.703  1.00  0.00     0.065 C 
ATOM      8  H   UNL     1       9.553 -55.909 -22.215  1.00  0.00     0.348 HD
BRANCH   4   9
ATOM      9  C   UNL     1      10.955 -56.975 -23.232  1.00  0.00     0.299 C 
BRANCH   9  10
ATOM     10  C   UNL     1      10.328 -58.241 -22.714  1.00  0.00     0.006 A 
ATOM     11  C   UNL     1       9.096 -58.684 -23.222  1.00  0.00     0.009 A 
ATOM     12  C   UNL     1      10.963 -59.006 -21.723  1.00  0.00     0.009 A 
ATOM     13  C   UNL     1       8.521 -59.869 -22.759  1.00  0.00     0.001 A 
ATOM     14  C   UNL     1      10.386 -60.192 -21.265  1.00  0.00     0.001 A 
ATOM     15  C   UNL     1       9.168 -60.623 -21.783  1.00  0.00     0.000 A 
ENDBRANCH   9  10
ENDBRANCH   4   9
ENDBRANCH   1   2
BRANCH   1  16
ATOM     16  C   UNL     1      11.708 -51.311 -23.332  1.00  0.00     0.066 C 
ATOM     17  C   UNL     1      12.631 -51.832 -24.417  1.00  0.00     0.166 C 
ATOM     18  C   UNL     1      12.074 -49.817 -23.197  1.00  0.00     0.048 C 
ATOM     19  C   UNL     1      13.236 -50.700 -25.105  1.00  0.00     0.025 A 
ATOM     20  C   UNL     1      12.897 -49.542 -24.420  1.00  0.00    -0.033 A 
ATOM     21  C   UNL     1      14.039 -50.701 -26.224  1.00  0.00     0.062 A 
ATOM     22  C   UNL     1      13.375 -48.316 -24.860  1.00  0.00     0.055 A 
ATOM     23  C   UNL     1      14.505 -49.468 -26.691  1.00  0.00     0.161 A 
ATOM     24  C   UNL     1      14.194 -48.267 -26.003  1.00  0.00     0.161 A 
ATOM     25  O   UNL     1      12.863 -53.002 -24.668  1.00  0.00    -0.294 OA
BRANCH  23  26
ATOM     26  O   UNL     1      15.312 -49.575 -27.797  1.00  0.00    -0.493 OA
ATOM     27  C   UNL     1      16.708 -49.694 -27.530  1.00  0.00     0.278 C 
ENDBRANCH  23  26
BRANCH  24  28
ATOM     28  O   UNL     1      14.756 -47.113 -26.480  1.00  0.00    -0.493 OA
ATOM     29  C   UNL     1      15.787 -46.500 -25.715  1.00  0.00     0.278 C 
ENDBRANCH  24  28
ENDBRANCH   1  16
TORSDOF 6
ENDMDL
MODEL 7
REMARK VINA RESULT:    -9.109      2.116      3.856
REMARK INTER + INTRA:         -12.944
REMARK INTER:                 -12.962
REMARK INTRA:                   0.018
REMARK UNBOUND:                -0.640
REMARK SMILES COc1cc2c(cc1OC)C(=O)[C@@H](C[C@H]1CC[N@@H+](Cc3ccccc3)CC1)C2
REMARK SMILES IDX 14 1 15 2 17 3 18 4 16 5 26 6 27 7 19 9 20 10 21 11 25 12
REMARK SMILES IDX 22 13 24 14 23 15 13 16 11 17 28 18 6 19 5 20 7 21 4 22 8 23
REMARK SMILES IDX 3 24 12 25 9 26 10 27 2 28 1 29
REMARK H PARENT 18 8
ROOT
ATOM      1  C   UNL     1      12.333 -59.613 -23.112  1.00  0.00     0.016 C 
ENDROOT
BRANCH   1   2
ATOM      2  C   UNL     1      12.264 -60.798 -24.111  1.00  0.00     0.001 C 
ATOM      3  C   UNL     1       9.942 -61.693 -23.475  1.00  0.00     0.262 C 
ATOM      4  N   UNL     1       9.462 -61.350 -24.863  1.00  0.00    -0.331 N 
ATOM      5  C   UNL     1      11.446 -61.961 -23.505  1.00  0.00     0.065 C 
ATOM      6  C   UNL     1      10.182 -60.150 -25.434  1.00  0.00     0.262 C 
ATOM      7  C   UNL     1      11.675 -60.466 -25.491  1.00  0.00     0.065 C 
ATOM      8  H   UNL     1       9.705 -62.144 -25.467  1.00  0.00     0.348 HD
BRANCH   4   9
ATOM      9  C   UNL     1       7.952 -61.242 -24.971  1.00  0.00     0.299 C 
BRANCH   9  10
ATOM     10  C   UNL     1       7.305 -60.148 -24.165  1.00  0.00     0.006 A 
ATOM     11  C   UNL     1       7.864 -58.861 -24.135  1.00  0.00     0.009 A 
ATOM     12  C   UNL     1       6.131 -60.390 -23.434  1.00  0.00     0.009 A 
ATOM     13  C   UNL     1       7.256 -57.839 -23.405  1.00  0.00     0.001 A 
ATOM     14  C   UNL     1       5.524 -59.364 -22.707  1.00  0.00     0.001 A 
ATOM     15  C   UNL     1       6.085 -58.090 -22.694  1.00  0.00     0.000 A 
ENDBRANCH   9  10
ENDBRANCH   4   9
ENDBRANCH   1   2
BRANCH   1  16
ATOM     16  C   UNL     1      11.400 -58.410 -23.310  1.00  0.00     0.066 C 
ATOM     17  C   UNL     1      11.974 -57.309 -24.180  1.00  0.00     0.166 C 
ATOM     18  C   UNL     1      10.916 -57.685 -22.036  1.00  0.00     0.048 C 
ATOM     19  C   UNL     1      11.562 -56.021 -23.643  1.00  0.00     0.025 A 
ATOM     20  C   UNL     1      10.934 -56.237 -22.425  1.00  0.00    -0.033 A 
ATOM     21  C   UNL     1      11.752 -54.764 -24.176  1.00  0.00     0.062 A 
ATOM     22  C   UNL     1      10.466 -55.157 -21.689  1.00  0.00     0.055 A 
ATOM     23  C   UNL     1      11.262 -53.671 -23.454  1.00  0.00     0.161 A 
ATOM     24  C   UNL     1      10.632 -53.855 -22.196  1.00  0.00     0.161 A 
ATOM     25  O   UNL     1      12.690 -57.458 -25.155  1.00  0.00    -0.294 OA
BRANCH  23  26
ATOM     26  O   UNL     1      11.517 -52.463 -24.056  1.00  0.00    -0.493 OA
ATOM     27  C   UNL     1      12.798 -52.341 -24.670  1.00  0.00     0.278 C 
ENDBRANCH  23  26
BRANCH  24  28
ATOM     28  O   UNL     1      10.254 -52.727 -21.518  1.00  0.00    -0.493 OA
ATOM     29  C   UNL     1      11.261 -51.792 -21.151  1.00  0.00     0.278 C 
ENDBRANCH  24  28
ENDBRANCH   1  16
TORSDOF 6
ENDMDL
MODEL 8
REMARK VINA RESULT:    -9.084      2.533      4.557
REMARK INTER + INTRA:         -12.910
REMARK INTER:                 -12.918
REMARK INTRA:                   0.008
REMARK UNBOUND:                -0.640
REMARK SMILES COc1cc2c(cc1OC)C(=O)[C@@H](C[C@H]1CC[N@@H+](Cc3ccccc3)CC1)C2
REMARK SMILES IDX 14 1 15 2 17 3 18 4 16 5 26 6 27 7 19 9 20 10 21 11 25 12
REMARK SMILES IDX 22 13 24 14 23 15 13 16 11 17 28 18 6 19 5 20 7 21 4 22 8 23
REMARK SMILES IDX 3 24 12 25 9 26 10 27 2 28 1 29
REMARK H PARENT 18 8
ROOT
ATOM      1  C   UNL     1      11.843 -52.757 -23.043  1.00  0.00     0.016 C 
ENDROOT
BRANCH   1   2
ATOM      2  C   UNL     1      10.449 -53.376 -22.757  1.00  0.00     0.001 C 
ATOM      3  C   UNL     1      10.927 -55.769 -23.559  1.00  0.00     0.262 C 
ATOM      4  N   UNL     1      10.706 -56.255 -22.149  1.00  0.00    -0.331 N 
ATOM      5  C   UNL     1      10.134 -54.483 -23.788  1.00  0.00     0.065 C 
ATOM      6  C   UNL     1      11.104 -55.220 -21.122  1.00  0.00     0.262 C 
ATOM      7  C   UNL     1      10.264 -53.966 -21.351  1.00  0.00     0.065 C 
ATOM      8  H   UNL     1       9.695 -56.395 -22.038  1.00  0.00     0.348 HD
BRANCH   4   9
ATOM      9  C   UNL     1      11.308 -57.622 -21.879  1.00  0.00     0.299 C 
BRANCH   9  10
ATOM     10  C   UNL     1      10.397 -58.801 -22.083  1.00  0.00     0.006 A 
ATOM     11  C   UNL     1       9.301 -58.711 -22.957  1.00  0.00     0.009 A 
ATOM     12  C   UNL     1      10.625 -60.013 -21.412  1.00  0.00     0.009 A 
ATOM     13  C   UNL     1       8.465 -59.810 -23.165  1.00  0.00     0.001 A 
ATOM     14  C   UNL     1       9.788 -61.110 -21.625  1.00  0.00     0.001 A 
ATOM     15  C   UNL     1       8.711 -61.009 -22.501  1.00  0.00     0.000 A 
ENDBRANCH   9  10
ENDBRANCH   4   9
ENDBRANCH   1   2
BRANCH   1  16
ATOM     16  C   UNL     1      12.141 -51.330 -22.564  1.00  0.00     0.066 C 
ATOM     17  C   UNL     1      10.949 -50.395 -22.599  1.00  0.00     0.166 C 
ATOM     18  C   UNL     1      13.256 -50.563 -23.307  1.00  0.00     0.048 C 
ATOM     19  C   UNL     1      11.398 -49.072 -23.006  1.00  0.00     0.025 A 
ATOM     20  C   UNL     1      12.728 -49.162 -23.390  1.00  0.00    -0.033 A 
ATOM     21  C   UNL     1      10.682 -47.896 -23.058  1.00  0.00     0.062 A 
ATOM     22  C   UNL     1      13.392 -48.033 -23.850  1.00  0.00     0.055 A 
ATOM     23  C   UNL     1      11.348 -46.747 -23.496  1.00  0.00     0.161 A 
ATOM     24  C   UNL     1      12.703 -46.809 -23.914  1.00  0.00     0.161 A 
ATOM     25  O   UNL     1       9.791 -50.691 -22.358  1.00  0.00    -0.294 OA
BRANCH  23  26
ATOM     26  O   UNL     1      10.545 -45.633 -23.531  1.00  0.00    -0.493 OA
ATOM     27  C   UNL     1      10.788 -44.668 -22.510  1.00  0.00     0.278 C 
ENDBRANCH  23  26
BRANCH  24  28
ATOM     28  O   UNL     1      13.255 -45.656 -24.405  1.00  0.00    -0.493 OA
ATOM     29  C   UNL     1      13.275 -45.465 -25.814  1.00  0.00     0.278 C 
ENDBRANCH  24  28
ENDBRANCH   1  16
TORSDOF 6
ENDMDL
