MODEL 1
REMARK VINA RESULT:   -10.987      0.000      0.000
REMARK INTER + INTRA:         -16.998
REMARK INTER:                 -16.447
REMARK INTRA:                  -0.552
REMARK UNBOUND:                -0.552
REMARK SMILES COc1cc2c(cc1OC)S[C@H](C(O)=CCc1cc[n+](Cc3ccccc3)cc1)C2
REMARK SMILES IDX 15 1 13 2 14 3 12 5 30 6 11 7 5 8 6 9 4 10 7 11 3 12 8 13
REMARK SMILES IDX 2 14 1 15 9 16 10 17 16 18 17 19 18 20 29 21 19 22 28 23
REMARK SMILES IDX 20 24 21 25 22 26 23 27 27 28 24 29 26 30 25 31
REMARK H PARENT 14 4
ROOT
ATOM      1  C   UNL     1      10.636 -55.370 -22.186  1.00  0.00     0.020 C 
ENDROOT
BRANCH   1   2
ATOM      2  C   UNL     1      10.585 -54.052 -21.918  1.00  0.00     0.102 C 
BRANCH   2   3
ATOM      3  O   UNL     1      10.299 -53.622 -20.633  1.00  0.00    -0.511 OA
ATOM      4  H   UNL     1      10.482 -54.334 -19.996  1.00  0.00     0.293 HD
ENDBRANCH   2   3
BRANCH   2   5
ATOM      5  C   UNL     1      10.838 -52.942 -22.917  1.00  0.00     0.121 C 
ATOM      6  C   UNL     1      12.052 -53.128 -23.853  1.00  0.00     0.059 C 
ATOM      7  S   UNL     1      11.111 -51.351 -22.057  1.00  0.00    -0.114 SA
ATOM      8  C   UNL     1      12.474 -51.748 -24.273  1.00  0.00    -0.029 A 
ATOM      9  C   UNL     1      12.092 -50.735 -23.396  1.00  0.00     0.015 A 
ATOM     10  C   UNL     1      13.244 -51.447 -25.388  1.00  0.00     0.055 A 
ATOM     11  C   UNL     1      12.450 -49.411 -23.617  1.00  0.00     0.065 A 
ATOM     12  C   UNL     1      13.626 -50.118 -25.621  1.00  0.00     0.161 A 
ATOM     13  C   UNL     1      13.214 -49.086 -24.748  1.00  0.00     0.161 A 
BRANCH  12  14
ATOM     14  O   UNL     1      14.360 -49.953 -26.770  1.00  0.00    -0.493 OA
ATOM     15  C   UNL     1      15.774 -49.940 -26.589  1.00  0.00     0.278 C 
ENDBRANCH  12  14
BRANCH  13  16
ATOM     16  O   UNL     1      13.565 -47.805 -25.085  1.00  0.00    -0.493 OA
ATOM     17  C   UNL     1      12.709 -46.747 -24.668  1.00  0.00     0.278 C 
ENDBRANCH  13  16
ENDBRANCH   2   5
ENDBRANCH   1   2
BRANCH   1  18
ATOM     18  C   UNL     1      11.286 -56.440 -21.353  1.00  0.00     0.067 C 
BRANCH  18  19
ATOM     19  C   UNL     1      11.311 -57.775 -22.062  1.00  0.00    -0.032 A 
ATOM     20  C   UNL     1      10.975 -58.951 -21.389  1.00  0.00     0.075 A 
ATOM     21  C   UNL     1      11.701 -57.866 -23.399  1.00  0.00     0.075 A 
ATOM     22  C   UNL     1      11.024 -60.169 -22.057  1.00  0.00     0.308 A 
ATOM     23  C   UNL     1      11.739 -59.106 -24.027  1.00  0.00     0.308 A 
ATOM     24  N   UNL     1      11.405 -60.231 -23.356  1.00  0.00    -0.201 N 
BRANCH  24  25
ATOM     25  C   UNL     1      11.445 -61.545 -24.045  1.00  0.00     0.393 C 
BRANCH  25  26
ATOM     26  C   UNL     1      10.121 -62.257 -23.935  1.00  0.00     0.017 A 
ATOM     27  C   UNL     1       9.863 -63.105 -22.847  1.00  0.00     0.010 A 
ATOM     28  C   UNL     1       9.125 -62.079 -24.909  1.00  0.00     0.010 A 
ATOM     29  C   UNL     1       8.641 -63.772 -22.746  1.00  0.00     0.001 A 
ATOM     30  C   UNL     1       7.905 -62.749 -24.803  1.00  0.00     0.001 A 
ATOM     31  C   UNL     1       7.665 -63.597 -23.723  1.00  0.00     0.000 A 
ENDBRANCH  25  26
ENDBRANCH  24  25
ENDBRANCH  18  19
ENDBRANCH   1  18
TORSDOF 9
ENDMDL
MODEL 2
REMARK VINA RESULT:   -10.769      1.062      2.418
REMARK INTER + INTRA:         -16.671
REMARK INTER:                 -16.009
REMARK INTRA:                  -0.662
REMARK UNBOUND:                -0.552
REMARK SMILES COc1cc2c(cc1OC)S[C@H](C(O)=CCc1cc[n+](Cc3ccccc3)cc1)C2
REMARK SMILES IDX 15 1 13 2 14 3 12 5 30 6 11 7 5 8 6 9 4 10 7 11 3 12 8 13
REMARK SMILES IDX 2 14 1 15 9 16 10 17 16 18 17 19 18 20 29 21 19 22 28 23
REMARK SMILES IDX 20 24 21 25 22 26 23 27 27 28 24 29 26 30 25 31
REMARK H PARENT 14 4
ROOT
ATOM      1  C   UNL     1      10.998 -54.680 -22.636  1.00  0.00     0.020 C 
ENDROOT
BRANCH   1   2
ATOM      2  C   UNL     1      10.929 -53.352 -22.424  1.00  0.00     0.102 C 
BRANCH   2   3
ATOM      3  O   UNL     1       9.842 -52.819 -21.751  1.00  0.00    -0.511 OA
ATOM      4  H   UNL     1      10.068 -51.941 -21.396  1.00  0.00     0.293 HD
ENDBRANCH   2   3
BRANCH   2   5
ATOM      5  C   UNL     1      11.973 -52.339 -22.847  1.00  0.00     0.121 C 
ATOM      6  C   UNL     1      11.537 -50.857 -22.821  1.00  0.00     0.059 C 
ATOM      7  S   UNL     1      12.531 -52.665 -24.558  1.00  0.00    -0.114 SA
ATOM      8  C   UNL     1      12.416 -50.144 -23.809  1.00  0.00    -0.029 A 
ATOM      9  C   UNL     1      12.956 -50.963 -24.799  1.00  0.00     0.015 A 
ATOM     10  C   UNL     1      12.653 -48.777 -23.836  1.00  0.00     0.055 A 
ATOM     11  C   UNL     1      13.748 -50.446 -25.816  1.00  0.00     0.065 A 
ATOM     12  C   UNL     1      13.439 -48.234 -24.861  1.00  0.00     0.161 A 
ATOM     13  C   UNL     1      14.011 -49.068 -25.849  1.00  0.00     0.161 A 
BRANCH  12  14
ATOM     14  O   UNL     1      13.618 -46.877 -24.755  1.00  0.00    -0.493 OA
ATOM     15  C   UNL     1      12.422 -46.104 -24.786  1.00  0.00     0.278 C 
ENDBRANCH  12  14
BRANCH  13  16
ATOM     16  O   UNL     1      14.829 -48.473 -26.773  1.00  0.00    -0.493 OA
ATOM     17  C   UNL     1      15.130 -49.195 -27.962  1.00  0.00     0.278 C 
ENDBRANCH  13  16
ENDBRANCH   2   5
ENDBRANCH   1   2
BRANCH   1  18
ATOM     18  C   UNL     1      11.024 -55.763 -21.594  1.00  0.00     0.067 C 
BRANCH  18  19
ATOM     19  C   UNL     1      11.294 -57.124 -22.197  1.00  0.00    -0.032 A 
ATOM     20  C   UNL     1      11.648 -57.254 -23.540  1.00  0.00     0.075 A 
ATOM     21  C   UNL     1      11.162 -58.284 -21.432  1.00  0.00     0.075 A 
ATOM     22  C   UNL     1      11.872 -58.518 -24.078  1.00  0.00     0.308 A 
ATOM     23  C   UNL     1      11.392 -59.527 -22.011  1.00  0.00     0.308 A 
ATOM     24  N   UNL     1      11.739 -59.628 -23.313  1.00  0.00    -0.201 N 
BRANCH  24  25
ATOM     25  C   UNL     1      11.987 -60.963 -23.912  1.00  0.00     0.393 C 
BRANCH  25  26
ATOM     26  C   UNL     1      10.714 -61.764 -24.003  1.00  0.00     0.017 A 
ATOM     27  C   UNL     1       9.868 -61.623 -25.113  1.00  0.00     0.010 A 
ATOM     28  C   UNL     1      10.358 -62.667 -22.988  1.00  0.00     0.010 A 
ATOM     29  C   UNL     1       8.684 -62.357 -25.197  1.00  0.00     0.001 A 
ATOM     30  C   UNL     1       9.173 -63.398 -23.077  1.00  0.00     0.001 A 
ATOM     31  C   UNL     1       8.335 -63.241 -24.179  1.00  0.00     0.000 A 
ENDBRANCH  25  26
ENDBRANCH  24  25
ENDBRANCH  18  19
ENDBRANCH   1  18
TORSDOF 9
ENDMDL
MODEL 3
REMARK VINA RESULT:   -10.501      1.653      2.922
REMARK INTER + INTRA:         -16.270
REMARK INTER:                 -15.569
REMARK INTRA:                  -0.701
REMARK UNBOUND:                -0.552
REMARK SMILES COc1cc2c(cc1OC)S[C@H](C(O)=CCc1cc[n+](Cc3ccccc3)cc1)C2
REMARK SMILES IDX 15 1 13 2 14 3 12 5 30 6 11 7 5 8 6 9 4 10 7 11 3 12 8 13
REMARK SMILES IDX 2 14 1 15 9 16 10 17 16 18 17 19 18 20 29 21 19 22 28 23
REMARK SMILES IDX 20 24 21 25 22 26 23 27 27 28 24 29 26 30 25 31
REMARK H PARENT 14 4
ROOT
ATOM      1  C   UNL     1      10.941 -54.040 -22.283  1.00  0.00     0.020 C 
ENDROOT
BRANCH   1   2
ATOM      2  C   UNL     1      10.367 -52.826 -22.187  1.00  0.00     0.102 C 
BRANCH   2   3
ATOM      3  O   UNL     1       8.991 -52.725 -22.066  1.00  0.00    -0.511 OA
ATOM      4  H   UNL     1       8.658 -53.411 -21.462  1.00  0.00     0.293 HD
ENDBRANCH   2   3
BRANCH   2   5
ATOM      5  C   UNL     1      11.105 -51.503 -22.176  1.00  0.00     0.121 C 
ATOM      6  C   UNL     1      10.236 -50.235 -22.327  1.00  0.00     0.059 C 
ATOM      7  S   UNL     1      12.326 -51.435 -23.536  1.00  0.00    -0.114 SA
ATOM      8  C   UNL     1      11.135 -49.176 -22.900  1.00  0.00    -0.029 A 
ATOM      9  C   UNL     1      12.235 -49.668 -23.600  1.00  0.00     0.015 A 
ATOM     10  C   UNL     1      10.908 -47.809 -22.837  1.00  0.00     0.055 A 
ATOM     11  C   UNL     1      13.131 -48.817 -24.233  1.00  0.00     0.065 A 
ATOM     12  C   UNL     1      11.795 -46.934 -23.480  1.00  0.00     0.161 A 
ATOM     13  C   UNL     1      12.927 -47.431 -24.166  1.00  0.00     0.161 A 
BRANCH  12  14
ATOM     14  O   UNL     1      11.473 -45.609 -23.318  1.00  0.00    -0.493 OA
ATOM     15  C   UNL     1      10.486 -45.342 -22.325  1.00  0.00     0.278 C 
ENDBRANCH  12  14
BRANCH  13  16
ATOM     16  O   UNL     1      13.787 -46.510 -24.703  1.00  0.00    -0.493 OA
ATOM     17  C   UNL     1      14.952 -46.171 -23.960  1.00  0.00     0.278 C 
ENDBRANCH  13  16
ENDBRANCH   2   5
ENDBRANCH   1   2
BRANCH   1  18
ATOM     18  C   UNL     1      10.739 -55.214 -21.365  1.00  0.00     0.067 C 
BRANCH  18  19
ATOM     19  C   UNL     1      11.182 -56.513 -22.001  1.00  0.00    -0.032 A 
ATOM     20  C   UNL     1      11.465 -56.584 -23.365  1.00  0.00     0.075 A 
ATOM     21  C   UNL     1      11.285 -57.680 -21.242  1.00  0.00     0.075 A 
ATOM     22  C   UNL     1      11.851 -57.794 -23.931  1.00  0.00     0.308 A 
ATOM     23  C   UNL     1      11.672 -58.870 -21.849  1.00  0.00     0.308 A 
ATOM     24  N   UNL     1      11.946 -58.913 -23.172  1.00  0.00    -0.201 N 
BRANCH  24  25
ATOM     25  C   UNL     1      12.365 -60.191 -23.801  1.00  0.00     0.393 C 
BRANCH  25  26
ATOM     26  C   UNL     1      11.176 -61.073 -24.083  1.00  0.00     0.017 A 
ATOM     27  C   UNL     1      10.790 -62.056 -23.159  1.00  0.00     0.010 A 
ATOM     28  C   UNL     1      10.434 -60.923 -25.266  1.00  0.00     0.010 A 
ATOM     29  C   UNL     1       9.695 -62.880 -23.421  1.00  0.00     0.001 A 
ATOM     30  C   UNL     1       9.339 -61.751 -25.522  1.00  0.00     0.001 A 
ATOM     31  C   UNL     1       8.972 -62.730 -24.602  1.00  0.00     0.000 A 
ENDBRANCH  25  26
ENDBRANCH  24  25
ENDBRANCH  18  19
ENDBRANCH   1  18
TORSDOF 9
ENDMDL
MODEL 4
REMARK VINA RESULT:   -10.451      1.377      1.925
REMARK INTER + INTRA:         -16.197
REMARK INTER:                 -15.483
REMARK INTRA:                  -0.714
REMARK UNBOUND:                -0.552
REMARK SMILES COc1cc2c(cc1OC)S[C@H](C(O)=CCc1cc[n+](Cc3ccccc3)cc1)C2
REMARK SMILES IDX 15 1 13 2 14 3 12 5 30 6 11 7 5 8 6 9 4 10 7 11 3 12 8 13
REMARK SMILES IDX 2 14 1 15 9 16 10 17 16 18 17 19 18 20 29 21 19 22 28 23
REMARK SMILES IDX 20 24 21 25 22 26 23 27 27 28 24 29 26 30 25 31
REMARK H PARENT 14 4
ROOT
ATOM      1  C   UNL     1      10.784 -54.984 -22.691  1.00  0.00     0.020 C 
ENDROOT
BRANCH   1   2
ATOM      2  C   UNL     1      10.716 -53.755 -22.146  1.00  0.00     0.102 C 
BRANCH   2   3
ATOM      3  O   UNL     1      10.597 -53.617 -20.773  1.00  0.00    -0.511 OA
ATOM      4  H   UNL     1       9.870 -54.174 -20.444  1.00  0.00     0.293 HD
ENDBRANCH   2   3
BRANCH   2   5
ATOM      5  C   UNL     1      10.778 -52.449 -22.912  1.00  0.00     0.121 C 
ATOM      6  C   UNL     1      12.183 -51.974 -23.340  1.00  0.00     0.059 C 
ATOM      7  S   UNL     1      10.071 -51.086 -21.918  1.00  0.00    -0.114 SA
ATOM      8  C   UNL     1      12.094 -50.481 -23.490  1.00  0.00    -0.029 A 
ATOM      9  C   UNL     1      11.067 -49.887 -22.759  1.00  0.00     0.015 A 
ATOM     10  C   UNL     1      12.972 -49.692 -24.220  1.00  0.00     0.055 A 
ATOM     11  C   UNL     1      10.885 -48.510 -22.752  1.00  0.00     0.065 A 
ATOM     12  C   UNL     1      12.812 -48.299 -24.215  1.00  0.00     0.161 A 
ATOM     13  C   UNL     1      11.753 -47.698 -23.497  1.00  0.00     0.161 A 
BRANCH  12  14
ATOM     14  O   UNL     1      13.727 -47.640 -24.997  1.00  0.00    -0.493 OA
ATOM     15  C   UNL     1      15.020 -47.486 -24.418  1.00  0.00     0.278 C 
ENDBRANCH  12  14
BRANCH  13  16
ATOM     16  O   UNL     1      11.617 -46.339 -23.603  1.00  0.00    -0.493 OA
ATOM     17  C   UNL     1      10.574 -45.712 -22.866  1.00  0.00     0.278 C 
ENDBRANCH  13  16
ENDBRANCH   2   5
ENDBRANCH   1   2
BRANCH   1  18
ATOM     18  C   UNL     1      11.021 -56.283 -21.971  1.00  0.00     0.067 C 
BRANCH  18  19
ATOM     19  C   UNL     1      10.781 -57.479 -22.865  1.00  0.00    -0.032 A 
ATOM     20  C   UNL     1       9.488 -57.947 -23.104  1.00  0.00     0.075 A 
ATOM     21  C   UNL     1      11.851 -58.162 -23.445  1.00  0.00     0.075 A 
ATOM     22  C   UNL     1       9.294 -59.061 -23.913  1.00  0.00     0.308 A 
ATOM     23  C   UNL     1      11.611 -59.273 -24.246  1.00  0.00     0.308 A 
ATOM     24  N   UNL     1      10.350 -59.706 -24.467  1.00  0.00    -0.201 N 
BRANCH  24  25
ATOM     25  C   UNL     1      10.112 -60.890 -25.331  1.00  0.00     0.393 C 
BRANCH  25  26
ATOM     26  C   UNL     1       9.401 -61.982 -24.574  1.00  0.00     0.017 A 
ATOM     27  C   UNL     1       8.180 -62.488 -25.045  1.00  0.00     0.010 A 
ATOM     28  C   UNL     1       9.947 -62.513 -23.395  1.00  0.00     0.010 A 
ATOM     29  C   UNL     1       7.514 -63.494 -24.342  1.00  0.00     0.001 A 
ATOM     30  C   UNL     1       9.277 -63.519 -22.696  1.00  0.00     0.001 A 
ATOM     31  C   UNL     1       8.060 -64.006 -23.168  1.00  0.00     0.000 A 
ENDBRANCH  25  26
ENDBRANCH  24  25
ENDBRANCH  18  19
ENDBRANCH   1  18
TORSDOF 9
ENDMDL
MODEL 5
REMARK VINA RESULT:    -9.372      3.618     11.623
REMARK INTER + INTRA:         -14.581
REMARK INTER:                 -13.866
REMARK INTRA:                  -0.716
REMARK UNBOUND:                -0.552
REMARK SMILES COc1cc2c(cc1OC)S[C@H](C(O)=CCc1cc[n+](Cc3ccccc3)cc1)C2
REMARK SMILES IDX 15 1 13 2 14 3 12 5 30 6 11 7 5 8 6 9 4 10 7 11 3 12 8 13
REMARK SMILES IDX 2 14 1 15 9 16 10 17 16 18 17 19 18 20 29 21 19 22 28 23
REMARK SMILES IDX 20 24 21 25 22 26 23 27 27 28 24 29 26 30 25 31
REMARK H PARENT 14 4
ROOT
ATOM      1  C   UNL     1      10.832 -54.130 -23.540  1.00  0.00     0.020 C 
ENDROOT
BRANCH   1   2
ATOM      2  C   UNL     1      10.839 -55.133 -22.642  1.00  0.00     0.102 C 
BRANCH   2   3
ATOM      3  O   UNL     1      10.989 -54.849 -21.295  1.00  0.00    -0.511 OA
ATOM      4  H   UNL     1      10.913 -53.890 -21.147  1.00  0.00     0.293 HD
ENDBRANCH   2   3
BRANCH   2   5
ATOM      5  C   UNL     1      10.674 -56.603 -22.966  1.00  0.00     0.121 C 
ATOM      6  C   UNL     1       9.226 -57.098 -23.178  1.00  0.00     0.059 C 
ATOM      7  S   UNL     1      11.363 -57.640 -21.626  1.00  0.00    -0.114 SA
ATOM      8  C   UNL     1       9.234 -58.568 -22.865  1.00  0.00    -0.029 A 
ATOM      9  C   UNL     1      10.267 -58.974 -22.022  1.00  0.00     0.015 A 
ATOM     10  C   UNL     1       8.282 -59.485 -23.285  1.00  0.00     0.055 A 
ATOM     11  C   UNL     1      10.382 -60.291 -21.598  1.00  0.00     0.065 A 
ATOM     12  C   UNL     1       8.374 -60.817 -22.857  1.00  0.00     0.161 A 
ATOM     13  C   UNL     1       9.438 -61.235 -22.026  1.00  0.00     0.161 A 
BRANCH  12  14
ATOM     14  O   UNL     1       7.388 -61.626 -23.366  1.00  0.00    -0.493 OA
ATOM     15  C   UNL     1       7.599 -62.071 -24.703  1.00  0.00     0.278 C 
ENDBRANCH  12  14
BRANCH  13  16
ATOM     16  O   UNL     1       9.501 -62.568 -21.712  1.00  0.00    -0.493 OA
ATOM     17  C   UNL     1      10.074 -63.452 -22.669  1.00  0.00     0.278 C 
ENDBRANCH  13  16
ENDBRANCH   2   5
ENDBRANCH   1   2
BRANCH   1  18
ATOM     18  C   UNL     1      11.957 -53.720 -24.450  1.00  0.00     0.067 C 
BRANCH  18  19
ATOM     19  C   UNL     1      12.434 -52.313 -24.162  1.00  0.00    -0.032 A 
ATOM     20  C   UNL     1      13.270 -51.643 -25.057  1.00  0.00     0.075 A 
ATOM     21  C   UNL     1      12.077 -51.666 -22.979  1.00  0.00     0.075 A 
ATOM     22  C   UNL     1      13.712 -50.358 -24.761  1.00  0.00     0.308 A 
ATOM     23  C   UNL     1      12.544 -50.382 -22.722  1.00  0.00     0.308 A 
ATOM     24  N   UNL     1      13.349 -49.751 -23.606  1.00  0.00    -0.201 N 
BRANCH  24  25
ATOM     25  C   UNL     1      13.832 -48.377 -23.318  1.00  0.00     0.393 C 
BRANCH  25  26
ATOM     26  C   UNL     1      12.691 -47.393 -23.291  1.00  0.00     0.017 A 
ATOM     27  C   UNL     1      12.019 -47.056 -24.475  1.00  0.00     0.010 A 
ATOM     28  C   UNL     1      12.277 -46.806 -22.084  1.00  0.00     0.010 A 
ATOM     29  C   UNL     1      10.967 -46.139 -24.455  1.00  0.00     0.001 A 
ATOM     30  C   UNL     1      11.224 -45.890 -22.069  1.00  0.00     0.001 A 
ATOM     31  C   UNL     1      10.572 -45.555 -23.254  1.00  0.00     0.000 A 
ENDBRANCH  25  26
ENDBRANCH  24  25
ENDBRANCH  18  19
ENDBRANCH   1  18
TORSDOF 9
ENDMDL
MODEL 6
REMARK VINA RESULT:    -9.227      3.619     11.125
REMARK INTER + INTRA:         -14.363
REMARK INTER:                 -13.828
REMARK INTRA:                  -0.535
REMARK UNBOUND:                -0.552
REMARK SMILES COc1cc2c(cc1OC)S[C@H](C(O)=CCc1cc[n+](Cc3ccccc3)cc1)C2
REMARK SMILES IDX 15 1 13 2 14 3 12 5 30 6 11 7 5 8 6 9 4 10 7 11 3 12 8 13
REMARK SMILES IDX 2 14 1 15 9 16 10 17 16 18 17 19 18 20 29 21 19 22 28 23
REMARK SMILES IDX 20 24 21 25 22 26 23 27 27 28 24 29 26 30 25 31
REMARK H PARENT 14 4
ROOT
ATOM      1  C   UNL     1      10.308 -54.121 -23.570  1.00  0.00     0.020 C 
ENDROOT
BRANCH   1   2
ATOM      2  C   UNL     1      10.008 -54.871 -22.492  1.00  0.00     0.102 C 
BRANCH   2   3
ATOM      3  O   UNL     1       9.416 -54.281 -21.388  1.00  0.00    -0.511 OA
ATOM      4  H   UNL     1       9.438 -53.312 -21.476  1.00  0.00     0.293 HD
ENDBRANCH   2   3
BRANCH   2   5
ATOM      5  C   UNL     1      10.243 -56.362 -22.366  1.00  0.00     0.121 C 
ATOM      6  C   UNL     1      11.547 -56.903 -22.990  1.00  0.00     0.059 C 
ATOM      7  S   UNL     1       8.885 -57.298 -23.158  1.00  0.00    -0.114 SA
ATOM      8  C   UNL     1      11.293 -58.351 -23.305  1.00  0.00    -0.029 A 
ATOM      9  C   UNL     1       9.949 -58.679 -23.470  1.00  0.00     0.015 A 
ATOM     10  C   UNL     1      12.271 -59.315 -23.503  1.00  0.00     0.055 A 
ATOM     11  C   UNL     1       9.553 -59.965 -23.814  1.00  0.00     0.065 A 
ATOM     12  C   UNL     1      11.892 -60.616 -23.863  1.00  0.00     0.161 A 
ATOM     13  C   UNL     1      10.527 -60.956 -24.001  1.00  0.00     0.161 A 
BRANCH  12  14
ATOM     14  O   UNL     1      12.952 -61.478 -24.000  1.00  0.00    -0.493 OA
ATOM     15  C   UNL     1      13.997 -61.022 -24.855  1.00  0.00     0.278 C 
ENDBRANCH  12  14
BRANCH  13  16
ATOM     16  O   UNL     1      10.234 -62.266 -24.281  1.00  0.00    -0.493 OA
ATOM     17  C   UNL     1       9.202 -62.894 -23.530  1.00  0.00     0.278 C 
ENDBRANCH  13  16
ENDBRANCH   2   5
ENDBRANCH   1   2
BRANCH   1  18
ATOM     18  C   UNL     1      11.680 -53.785 -24.086  1.00  0.00     0.067 C 
BRANCH  18  19
ATOM     19  C   UNL     1      12.129 -52.408 -23.650  1.00  0.00    -0.032 A 
ATOM     20  C   UNL     1      13.106 -51.714 -24.364  1.00  0.00     0.075 A 
ATOM     21  C   UNL     1      11.598 -51.814 -22.504  1.00  0.00     0.075 A 
ATOM     22  C   UNL     1      13.517 -50.457 -23.932  1.00  0.00     0.308 A 
ATOM     23  C   UNL     1      12.040 -50.557 -22.107  1.00  0.00     0.308 A 
ATOM     24  N   UNL     1      12.984 -49.901 -22.817  1.00  0.00    -0.201 N 
BRANCH  24  25
ATOM     25  C   UNL     1      13.438 -48.556 -22.382  1.00  0.00     0.393 C 
BRANCH  25  26
ATOM     26  C   UNL     1      12.436 -47.496 -22.758  1.00  0.00     0.017 A 
ATOM     27  C   UNL     1      11.859 -47.490 -24.037  1.00  0.00     0.010 A 
ATOM     28  C   UNL     1      12.058 -46.505 -21.838  1.00  0.00     0.010 A 
ATOM     29  C   UNL     1      10.937 -46.504 -24.392  1.00  0.00     0.001 A 
ATOM     30  C   UNL     1      11.134 -45.521 -22.198  1.00  0.00     0.001 A 
ATOM     31  C   UNL     1      10.577 -45.520 -23.475  1.00  0.00     0.000 A 
ENDBRANCH  25  26
ENDBRANCH  24  25
ENDBRANCH  18  19
ENDBRANCH   1  18
TORSDOF 9
ENDMDL
MODEL 7
REMARK VINA RESULT:    -9.146      2.587      4.011
REMARK INTER + INTRA:         -14.242
REMARK INTER:                 -12.976
REMARK INTRA:                  -1.267
REMARK UNBOUND:                -0.552
REMARK SMILES COc1cc2c(cc1OC)S[C@H](C(O)=CCc1cc[n+](Cc3ccccc3)cc1)C2
REMARK SMILES IDX 15 1 13 2 14 3 12 5 30 6 11 7 5 8 6 9 4 10 7 11 3 12 8 13
REMARK SMILES IDX 2 14 1 15 9 16 10 17 16 18 17 19 18 20 29 21 19 22 28 23
REMARK SMILES IDX 20 24 21 25 22 26 23 27 27 28 24 29 26 30 25 31
REMARK H PARENT 14 4
ROOT
ATOM      1  C   UNL     1      10.646 -51.084 -21.625  1.00  0.00     0.020 C 
ENDROOT
BRANCH   1   2
ATOM      2  C   UNL     1      11.125 -50.075 -22.376  1.00  0.00     0.102 C 
BRANCH   2   3
ATOM      3  O   UNL     1      10.725 -48.774 -22.117  1.00  0.00    -0.511 OA
ATOM      4  H   UNL     1       9.909 -48.777 -21.587  1.00  0.00     0.293 HD
ENDBRANCH   2   3
BRANCH   2   5
ATOM      5  C   UNL     1      12.117 -50.219 -23.513  1.00  0.00     0.121 C 
ATOM      6  C   UNL     1      13.120 -51.388 -23.399  1.00  0.00     0.059 C 
ATOM      7  S   UNL     1      13.130 -48.706 -23.681  1.00  0.00    -0.114 SA
ATOM      8  C   UNL     1      14.318 -50.993 -24.217  1.00  0.00    -0.029 A 
ATOM      9  C   UNL     1      14.469 -49.618 -24.394  1.00  0.00     0.015 A 
ATOM     10  C   UNL     1      15.273 -51.865 -24.718  1.00  0.00     0.055 A 
ATOM     11  C   UNL     1      15.554 -49.091 -25.082  1.00  0.00     0.065 A 
ATOM     12  C   UNL     1      16.382 -51.351 -25.405  1.00  0.00     0.161 A 
ATOM     13  C   UNL     1      16.521 -49.959 -25.610  1.00  0.00     0.161 A 
BRANCH  12  14
ATOM     14  O   UNL     1      17.235 -52.320 -25.873  1.00  0.00    -0.493 OA
ATOM     15  C   UNL     1      16.741 -53.654 -25.790  1.00  0.00     0.278 C 
ENDBRANCH  12  14
BRANCH  13  16
ATOM     16  O   UNL     1      17.592 -49.540 -26.356  1.00  0.00    -0.493 OA
ATOM     17  C   UNL     1      17.386 -49.299 -27.743  1.00  0.00     0.278 C 
ENDBRANCH  13  16
ENDBRANCH   2   5
ENDBRANCH   1   2
BRANCH   1  18
ATOM     18  C   UNL     1       9.560 -52.055 -21.999  1.00  0.00     0.067 C 
BRANCH  18  19
ATOM     19  C   UNL     1      10.111 -53.428 -22.315  1.00  0.00    -0.032 A 
ATOM     20  C   UNL     1      10.476 -54.306 -21.294  1.00  0.00     0.075 A 
ATOM     21  C   UNL     1      10.299 -53.835 -23.637  1.00  0.00     0.075 A 
ATOM     22  C   UNL     1      10.999 -55.555 -21.609  1.00  0.00     0.308 A 
ATOM     23  C   UNL     1      10.828 -55.092 -23.906  1.00  0.00     0.308 A 
ATOM     24  N   UNL     1      11.170 -55.927 -22.901  1.00  0.00    -0.201 N 
BRANCH  24  25
ATOM     25  C   UNL     1      11.727 -57.269 -23.208  1.00  0.00     0.393 C 
BRANCH  25  26
ATOM     26  C   UNL     1      10.782 -58.361 -22.779  1.00  0.00     0.017 A 
ATOM     27  C   UNL     1      11.126 -59.219 -21.723  1.00  0.00     0.010 A 
ATOM     28  C   UNL     1       9.544 -58.535 -23.419  1.00  0.00     0.010 A 
ATOM     29  C   UNL     1      10.257 -60.238 -21.328  1.00  0.00     0.001 A 
ATOM     30  C   UNL     1       8.679 -59.555 -23.020  1.00  0.00     0.001 A 
ATOM     31  C   UNL     1       9.037 -60.407 -21.977  1.00  0.00     0.000 A 
ENDBRANCH  25  26
ENDBRANCH  24  25
ENDBRANCH  18  19
ENDBRANCH   1  18
TORSDOF 9
ENDMDL
MODEL 8
REMARK VINA RESULT:    -9.082      3.406      6.067
REMARK INTER + INTRA:         -14.146
REMARK INTER:                 -13.386
REMARK INTRA:                  -0.760
REMARK UNBOUND:                -0.552
REMARK SMILES COc1cc2c(cc1OC)S[C@H](C(O)=CCc1cc[n+](Cc3ccccc3)cc1)C2
REMARK SMILES IDX 15 1 13 2 14 3 12 5 30 6 11 7 5 8 6 9 4 10 7 11 3 12 8 13
REMARK SMILES IDX 2 14 1 15 9 16 10 17 16 18 17 19 18 20 29 21 19 22 28 23
REMARK SMILES IDX 20 24 21 25 22 26 23 27 27 28 24 29 26 30 25 31
REMARK H PARENT 14 4
ROOT
ATOM      1  C   UNL     1      14.869 -51.469 -25.410  1.00  0.00     0.020 C 
ENDROOT
BRANCH   1   2
ATOM      2  C   UNL     1      15.224 -50.212 -25.736  1.00  0.00     0.102 C 
BRANCH   2   3
ATOM      3  O   UNL     1      16.096 -49.996 -26.791  1.00  0.00    -0.511 OA
ATOM      4  H   UNL     1      15.595 -49.885 -27.618  1.00  0.00     0.293 HD
ENDBRANCH   2   3
BRANCH   2   5
ATOM      5  C   UNL     1      14.733 -48.954 -25.051  1.00  0.00     0.121 C 
ATOM      6  C   UNL     1      13.213 -48.865 -24.794  1.00  0.00     0.059 C 
ATOM      7  S   UNL     1      15.159 -47.474 -26.038  1.00  0.00    -0.114 SA
ATOM      8  C   UNL     1      12.885 -47.401 -24.714  1.00  0.00    -0.029 A 
ATOM      9  C   UNL     1      13.793 -46.569 -25.368  1.00  0.00     0.015 A 
ATOM     10  C   UNL     1      11.754 -46.860 -24.121  1.00  0.00     0.055 A 
ATOM     11  C   UNL     1      13.604 -45.195 -25.429  1.00  0.00     0.065 A 
ATOM     12  C   UNL     1      11.538 -45.476 -24.183  1.00  0.00     0.161 A 
ATOM     13  C   UNL     1      12.473 -44.629 -24.820  1.00  0.00     0.161 A 
BRANCH  12  14
ATOM     14  O   UNL     1      10.398 -45.069 -23.534  1.00  0.00    -0.493 OA
ATOM     15  C   UNL     1      10.165 -45.690 -22.273  1.00  0.00     0.278 C 
ENDBRANCH  12  14
BRANCH  13  16
ATOM     16  O   UNL     1      12.230 -43.281 -24.773  1.00  0.00    -0.493 OA
ATOM     17  C   UNL     1      12.458 -42.520 -25.953  1.00  0.00     0.278 C 
ENDBRANCH  13  16
ENDBRANCH   2   5
ENDBRANCH   1   2
BRANCH   1  18
ATOM     18  C   UNL     1      13.839 -52.326 -26.093  1.00  0.00     0.067 C 
BRANCH  18  19
ATOM     19  C   UNL     1      12.879 -52.954 -25.106  1.00  0.00    -0.032 A 
ATOM     20  C   UNL     1      12.358 -54.229 -25.325  1.00  0.00     0.075 A 
ATOM     21  C   UNL     1      12.468 -52.257 -23.968  1.00  0.00     0.075 A 
ATOM     22  C   UNL     1      11.462 -54.777 -24.414  1.00  0.00     0.308 A 
ATOM     23  C   UNL     1      11.568 -52.842 -23.085  1.00  0.00     0.308 A 
ATOM     24  N   UNL     1      11.080 -54.081 -23.316  1.00  0.00    -0.201 N 
BRANCH  24  25
ATOM     25  C   UNL     1      10.125 -54.693 -22.358  1.00  0.00     0.393 C 
BRANCH  25  26
ATOM     26  C   UNL     1      10.230 -56.196 -22.370  1.00  0.00     0.017 A 
ATOM     27  C   UNL     1      11.253 -56.840 -21.657  1.00  0.00     0.010 A 
ATOM     28  C   UNL     1       9.306 -56.975 -23.086  1.00  0.00     0.010 A 
ATOM     29  C   UNL     1      11.358 -58.231 -21.674  1.00  0.00     0.001 A 
ATOM     30  C   UNL     1       9.416 -58.367 -23.098  1.00  0.00     0.001 A 
ATOM     31  C   UNL     1      10.443 -58.994 -22.395  1.00  0.00     0.000 A 
ENDBRANCH  25  26
ENDBRANCH  24  25
ENDBRANCH  18  19
ENDBRANCH   1  18
TORSDOF 9
ENDMDL
MODEL 9
REMARK VINA RESULT:    -8.552      3.520      6.762
REMARK INTER + INTRA:         -13.353
REMARK INTER:                 -12.790
REMARK INTRA:                  -0.563
REMARK UNBOUND:                -0.552
REMARK SMILES COc1cc2c(cc1OC)S[C@H](C(O)=CCc1cc[n+](Cc3ccccc3)cc1)C2
REMARK SMILES IDX 15 1 13 2 14 3 12 5 30 6 11 7 5 8 6 9 4 10 7 11 3 12 8 13
REMARK SMILES IDX 2 14 1 15 9 16 10 17 16 18 17 19 18 20 29 21 19 22 28 23
REMARK SMILES IDX 20 24 21 25 22 26 23 27 27 28 24 29 26 30 25 31
REMARK H PARENT 14 4
ROOT
ATOM      1  C   UNL     1      14.782 -51.062 -24.788  1.00  0.00     0.020 C 
ENDROOT
BRANCH   1   2
ATOM      2  C   UNL     1      15.144 -49.770 -24.902  1.00  0.00     0.102 C 
BRANCH   2   3
ATOM      3  O   UNL     1      15.036 -48.927 -23.808  1.00  0.00    -0.511 OA
ATOM      4  H   UNL     1      14.103 -48.842 -23.545  1.00  0.00     0.293 HD
ENDBRANCH   2   3
BRANCH   2   5
ATOM      5  C   UNL     1      15.700 -49.120 -26.152  1.00  0.00     0.121 C 
ATOM      6  C   UNL     1      14.761 -49.080 -27.377  1.00  0.00     0.059 C 
ATOM      7  S   UNL     1      17.212 -49.986 -26.710  1.00  0.00    -0.114 SA
ATOM      8  C   UNL     1      15.651 -48.999 -28.585  1.00  0.00    -0.029 A 
ATOM      9  C   UNL     1      16.941 -49.487 -28.388  1.00  0.00     0.015 A 
ATOM     10  C   UNL     1      15.264 -48.555 -29.842  1.00  0.00     0.055 A 
ATOM     11  C   UNL     1      17.868 -49.528 -29.421  1.00  0.00     0.065 A 
ATOM     12  C   UNL     1      16.181 -48.600 -30.901  1.00  0.00     0.161 A 
ATOM     13  C   UNL     1      17.498 -49.068 -30.693  1.00  0.00     0.161 A 
BRANCH  12  14
ATOM     14  O   UNL     1      15.681 -48.107 -32.081  1.00  0.00    -0.493 OA
ATOM     15  C   UNL     1      15.010 -49.061 -32.900  1.00  0.00     0.278 C 
ENDBRANCH  12  14
BRANCH  13  16
ATOM     16  O   UNL     1      18.358 -49.011 -31.759  1.00  0.00    -0.493 OA
ATOM     17  C   UNL     1      18.596 -50.208 -32.491  1.00  0.00     0.278 C 
ENDBRANCH  13  16
ENDBRANCH   2   5
ENDBRANCH   1   2
BRANCH   1  18
ATOM     18  C   UNL     1      13.732 -51.783 -25.589  1.00  0.00     0.067 C 
BRANCH  18  19
ATOM     19  C   UNL     1      12.763 -52.537 -24.706  1.00  0.00    -0.032 A 
ATOM     20  C   UNL     1      12.352 -53.829 -25.034  1.00  0.00     0.075 A 
ATOM     21  C   UNL     1      12.233 -51.944 -23.559  1.00  0.00     0.075 A 
ATOM     22  C   UNL     1      11.445 -54.496 -24.216  1.00  0.00     0.308 A 
ATOM     23  C   UNL     1      11.326 -52.646 -22.772  1.00  0.00     0.308 A 
ATOM     24  N   UNL     1      10.946 -53.899 -23.107  1.00  0.00    -0.201 N 
BRANCH  24  25
ATOM     25  C   UNL     1       9.982 -54.635 -22.251  1.00  0.00     0.393 C 
BRANCH  25  26
ATOM     26  C   UNL     1      10.155 -56.125 -22.395  1.00  0.00     0.017 A 
ATOM     27  C   UNL     1       9.221 -56.878 -23.122  1.00  0.00     0.010 A 
ATOM     28  C   UNL     1      11.252 -56.781 -21.813  1.00  0.00     0.010 A 
ATOM     29  C   UNL     1       9.374 -58.260 -23.250  1.00  0.00     0.001 A 
ATOM     30  C   UNL     1      11.400 -58.163 -21.945  1.00  0.00     0.001 A 
ATOM     31  C   UNL     1      10.460 -58.902 -22.660  1.00  0.00     0.000 A 
ENDBRANCH  25  26
ENDBRANCH  24  25
ENDBRANCH  18  19
ENDBRANCH   1  18
TORSDOF 9
ENDMDL
