MODEL 1
REMARK VINA RESULT:   -12.369      0.000      0.000
REMARK INTER + INTRA:         -19.128
REMARK INTER:                 -18.154
REMARK INTRA:                  -0.974
REMARK UNBOUND:                -0.974
REMARK SMILES Cc1cc(O)nc2c1C(=O)C(=NCCCCNc1c3c(nc4cc(Cl)ccc14)CCCC3)C=C2O
REMARK SMILES IDX 14 1 13 2 12 3 11 4 34 5 33 6 7 7 6 8 8 9 9 10 4 11 2 12
REMARK SMILES IDX 3 13 10 14 1 15 35 16 5 18 15 20 16 21 17 22 18 24 19 25
REMARK SMILES IDX 28 26 20 27 32 28 27 29 22 30 21 31 29 32 31 33 26 34 23 35
REMARK SMILES IDX 30 36 24 37 25 38
REMARK H PARENT 35 17 5 19 17 23
ROOT
ATOM      1  C   UNL     1      11.500 -58.074 -21.899  1.00  0.00     0.025 C 
ENDROOT
BRANCH   1   2
ATOM      2  C   UNL     1      10.495 -57.545 -22.922  1.00  0.00     0.143 C 
BRANCH   2   3
ATOM      3  N   UNL     1      11.169 -56.568 -23.766  1.00  0.00    -0.281 NA
BRANCH   3   4
ATOM      4  C   UNL     1      11.174 -55.320 -23.456  1.00  0.00     0.109 C 
ATOM      5  C   UNL     1      10.802 -53.419 -21.968  1.00  0.00     0.144 C 
ATOM      6  C   UNL     1      10.595 -54.708 -22.237  1.00  0.00     0.080 C 
ATOM      7  C   UNL     1      11.597 -52.534 -22.826  1.00  0.00     0.120 A 
ATOM      8  N   UNL     1      11.752 -51.273 -22.331  1.00  0.00    -0.210 NA
ATOM      9  C   UNL     1      12.126 -52.972 -24.039  1.00  0.00     0.057 A 
ATOM     10  C   UNL     1      11.847 -54.367 -24.452  1.00  0.00     0.213 C 
ATOM     11  C   UNL     1      12.471 -50.440 -23.096  1.00  0.00     0.211 A 
ATOM     12  C   UNL     1      12.878 -52.061 -24.806  1.00  0.00    -0.032 A 
ATOM     13  C   UNL     1      13.045 -50.762 -24.309  1.00  0.00     0.072 A 
ATOM     14  O   UNL     1      12.126 -54.769 -25.573  1.00  0.00    -0.287 OA
ATOM     15  C   UNL     1      13.499 -52.414 -26.127  1.00  0.00     0.045 C 
BRANCH   5  16
ATOM     16  O   UNL     1      10.280 -52.849 -20.822  1.00  0.00    -0.506 OA
ATOM     17  H   UNL     1      10.219 -53.582 -20.171  1.00  0.00     0.293 HD
ENDBRANCH   5  16
BRANCH  11  18
ATOM     18  O   UNL     1      12.618 -49.191 -22.589  1.00  0.00    -0.493 OA
ATOM     19  H   UNL     1      12.612 -49.365 -21.632  1.00  0.00     0.295 HD
ENDBRANCH  11  18
ENDBRANCH   3   4
ENDBRANCH   2   3
ENDBRANCH   1   2
BRANCH   1  20
ATOM     20  C   UNL     1      11.000 -59.340 -21.195  1.00  0.00     0.023 C 
BRANCH  20  21
ATOM     21  C   UNL     1       9.982 -60.116 -22.033  1.00  0.00     0.113 C 
BRANCH  21  22
ATOM     22  N   UNL     1      10.617 -61.153 -22.859  1.00  0.00    -0.384 N 
ATOM     23  H   UNL     1      11.619 -61.006 -22.947  1.00  0.00     0.160 HD
BRANCH  22  24
ATOM     24  C   UNL     1      10.002 -61.444 -24.098  1.00  0.00     0.049 A 
ATOM     25  C   UNL     1       8.888 -62.300 -24.166  1.00  0.00    -0.003 A 
ATOM     26  C   UNL     1      10.518 -60.892 -25.310  1.00  0.00     0.024 A 
ATOM     27  C   UNL     1       8.340 -62.560 -25.424  1.00  0.00     0.046 A 
ATOM     28  C   UNL     1       8.181 -62.899 -22.974  1.00  0.00     0.039 C 
ATOM     29  C   UNL     1      11.587 -59.964 -25.362  1.00  0.00     0.014 A 
ATOM     30  C   UNL     1       9.898 -61.263 -26.524  1.00  0.00     0.074 A 
ATOM     31  N   UNL     1       8.838 -62.076 -26.582  1.00  0.00    -0.252 NA
ATOM     32  C   UNL     1       7.097 -63.406 -25.517  1.00  0.00     0.056 C 
ATOM     33  C   UNL     1       7.681 -64.332 -23.213  1.00  0.00     0.005 C 
ATOM     34  C   UNL     1      12.056 -59.459 -26.573  1.00  0.00     0.021 A 
ATOM     35  C   UNL     1      10.380 -60.755 -27.721  1.00  0.00     0.049 A 
ATOM     36  C   UNL     1       7.249 -64.645 -24.648  1.00  0.00     0.007 C 
ATOM     37  C   UNL     1      11.452 -59.867 -27.752  1.00  0.00     0.043 A 
ATOM     38  Cl  UNL     1      12.019 -59.257 -29.258  1.00  0.00    -0.084 Cl
ENDBRANCH  22  24
ENDBRANCH  21  22
ENDBRANCH  20  21
ENDBRANCH   1  20
TORSDOF 9
ENDMDL
MODEL 2
REMARK VINA RESULT:   -11.426      1.469      2.378
REMARK INTER + INTRA:         -17.744
REMARK INTER:                 -17.009
REMARK INTRA:                  -0.735
REMARK UNBOUND:                -0.974
REMARK SMILES Cc1cc(O)nc2c1C(=O)C(=NCCCCNc1c3c(nc4cc(Cl)ccc14)CCCC3)C=C2O
REMARK SMILES IDX 14 1 13 2 12 3 11 4 34 5 33 6 7 7 6 8 8 9 9 10 4 11 2 12
REMARK SMILES IDX 3 13 10 14 1 15 35 16 5 18 15 20 16 21 17 22 18 24 19 25
REMARK SMILES IDX 28 26 20 27 32 28 27 29 22 30 21 31 29 32 31 33 26 34 23 35
REMARK SMILES IDX 30 36 24 37 25 38
REMARK H PARENT 35 17 5 19 17 23
ROOT
ATOM      1  C   UNL     1      11.389 -57.347 -22.709  1.00  0.00     0.025 C 
ENDROOT
BRANCH   1   2
ATOM      2  C   UNL     1      10.606 -56.118 -22.247  1.00  0.00     0.143 C 
BRANCH   2   3
ATOM      3  N   UNL     1      10.364 -55.266 -23.404  1.00  0.00    -0.281 NA
BRANCH   3   4
ATOM      4  C   UNL     1      11.331 -54.643 -23.978  1.00  0.00     0.109 C 
ATOM      5  C   UNL     1      13.111 -54.382 -25.630  1.00  0.00     0.144 C 
ATOM      6  C   UNL     1      12.244 -55.184 -25.011  1.00  0.00     0.080 C 
ATOM      7  C   UNL     1      13.223 -52.946 -25.350  1.00  0.00     0.120 A 
ATOM      8  N   UNL     1      14.115 -52.292 -26.147  1.00  0.00    -0.210 NA
ATOM      9  C   UNL     1      12.475 -52.337 -24.343  1.00  0.00     0.057 A 
ATOM     10  C   UNL     1      11.565 -53.190 -23.544  1.00  0.00     0.213 C 
ATOM     11  C   UNL     1      14.241 -50.979 -25.911  1.00  0.00     0.211 A 
ATOM     12  C   UNL     1      12.639 -50.954 -24.136  1.00  0.00    -0.032 A 
ATOM     13  C   UNL     1      13.553 -50.270 -24.949  1.00  0.00     0.072 A 
ATOM     14  O   UNL     1      11.011 -52.766 -22.539  1.00  0.00    -0.287 OA
ATOM     15  C   UNL     1      11.890 -50.184 -23.085  1.00  0.00     0.045 C 
BRANCH   5  16
ATOM     16  O   UNL     1      13.951 -54.879 -26.608  1.00  0.00    -0.506 OA
ATOM     17  H   UNL     1      14.515 -54.123 -26.876  1.00  0.00     0.293 HD
ENDBRANCH   5  16
BRANCH  11  18
ATOM     18  O   UNL     1      15.130 -50.344 -26.713  1.00  0.00    -0.493 OA
ATOM     19  H   UNL     1      14.583 -49.634 -27.091  1.00  0.00     0.295 HD
ENDBRANCH  11  18
ENDBRANCH   3   4
ENDBRANCH   2   3
ENDBRANCH   1   2
BRANCH   1  20
ATOM     20  C   UNL     1      11.387 -58.464 -21.659  1.00  0.00     0.023 C 
BRANCH  20  21
ATOM     21  C   UNL     1      10.442 -59.611 -22.023  1.00  0.00     0.113 C 
BRANCH  21  22
ATOM     22  N   UNL     1      11.091 -60.615 -22.879  1.00  0.00    -0.384 N 
ATOM     23  H   UNL     1      12.052 -60.364 -23.094  1.00  0.00     0.160 HD
BRANCH  22  24
ATOM     24  C   UNL     1      10.373 -61.035 -24.022  1.00  0.00     0.049 A 
ATOM     25  C   UNL     1       9.270 -61.900 -23.901  1.00  0.00    -0.003 A 
ATOM     26  C   UNL     1      10.769 -60.608 -25.325  1.00  0.00     0.024 A 
ATOM     27  C   UNL     1       8.617 -62.292 -25.072  1.00  0.00     0.046 A 
ATOM     28  C   UNL     1       8.682 -62.378 -22.595  1.00  0.00     0.039 C 
ATOM     29  C   UNL     1      11.815 -59.684 -25.568  1.00  0.00     0.014 A 
ATOM     30  C   UNL     1      10.050 -61.105 -26.434  1.00  0.00     0.074 A 
ATOM     31  N   UNL     1       9.001 -61.926 -26.313  1.00  0.00    -0.252 NA
ATOM     32  C   UNL     1       7.383 -63.151 -24.965  1.00  0.00     0.056 C 
ATOM     33  C   UNL     1       8.185 -63.831 -22.641  1.00  0.00     0.005 C 
ATOM     34  C   UNL     1      12.167 -59.302 -26.861  1.00  0.00     0.021 A 
ATOM     35  C   UNL     1      10.416 -60.720 -27.715  1.00  0.00     0.049 A 
ATOM     36  C   UNL     1       7.631 -64.293 -23.991  1.00  0.00     0.007 C 
ATOM     37  C   UNL     1      11.466 -59.834 -27.933  1.00  0.00     0.043 A 
ATOM     38  Cl  UNL     1      11.887 -59.378 -29.538  1.00  0.00    -0.084 Cl
ENDBRANCH  22  24
ENDBRANCH  21  22
ENDBRANCH  20  21
ENDBRANCH   1  20
TORSDOF 9
ENDMDL
MODEL 3
REMARK VINA RESULT:   -11.349      1.735      2.462
REMARK INTER + INTRA:         -17.630
REMARK INTER:                 -17.049
REMARK INTRA:                  -0.581
REMARK UNBOUND:                -0.974
REMARK SMILES Cc1cc(O)nc2c1C(=O)C(=NCCCCNc1c3c(nc4cc(Cl)ccc14)CCCC3)C=C2O
REMARK SMILES IDX 14 1 13 2 12 3 11 4 34 5 33 6 7 7 6 8 8 9 9 10 4 11 2 12
REMARK SMILES IDX 3 13 10 14 1 15 35 16 5 18 15 20 16 21 17 22 18 24 19 25
REMARK SMILES IDX 28 26 20 27 32 28 27 29 22 30 21 31 29 32 31 33 26 34 23 35
REMARK SMILES IDX 30 36 24 37 25 38
REMARK H PARENT 35 17 5 19 17 23
ROOT
ATOM      1  C   UNL     1      10.086 -55.905 -22.610  1.00  0.00     0.025 C 
ENDROOT
BRANCH   1   2
ATOM      2  C   UNL     1      10.671 -54.758 -21.787  1.00  0.00     0.143 C 
BRANCH   2   3
ATOM      3  N   UNL     1      11.388 -53.865 -22.687  1.00  0.00    -0.281 NA
BRANCH   3   4
ATOM      4  C   UNL     1      11.101 -52.613 -22.742  1.00  0.00     0.109 C 
ATOM      5  C   UNL     1       9.841 -50.613 -22.124  1.00  0.00     0.144 C 
ATOM      6  C   UNL     1       9.939 -51.943 -22.114  1.00  0.00     0.080 C 
ATOM      7  C   UNL     1      10.847 -49.736 -22.736  1.00  0.00     0.120 A 
ATOM      8  N   UNL     1      10.599 -48.406 -22.569  1.00  0.00    -0.210 NA
ATOM      9  C   UNL     1      11.943 -50.251 -23.426  1.00  0.00     0.057 A 
ATOM     10  C   UNL     1      12.059 -51.723 -23.543  1.00  0.00     0.213 C 
ATOM     11  C   UNL     1      11.499 -47.581 -23.121  1.00  0.00     0.211 A 
ATOM     12  C   UNL     1      12.864 -49.344 -23.985  1.00  0.00    -0.032 A 
ATOM     13  C   UNL     1      12.620 -47.973 -23.821  1.00  0.00     0.072 A 
ATOM     14  O   UNL     1      12.890 -52.242 -24.276  1.00  0.00    -0.287 OA
ATOM     15  C   UNL     1      14.083 -49.774 -24.750  1.00  0.00     0.045 C 
BRANCH   5  16
ATOM     16  O   UNL     1       8.769 -49.983 -21.522  1.00  0.00    -0.506 OA
ATOM     17  H   UNL     1       9.009 -49.910 -20.573  1.00  0.00     0.293 HD
ENDBRANCH   5  16
BRANCH  11  18
ATOM     18  O   UNL     1      11.239 -46.262 -22.944  1.00  0.00    -0.493 OA
ATOM     19  H   UNL     1      11.726 -46.072 -22.124  1.00  0.00     0.295 HD
ENDBRANCH  11  18
ENDBRANCH   3   4
ENDBRANCH   2   3
ENDBRANCH   1   2
BRANCH   1  20
ATOM     20  C   UNL     1      11.167 -56.864 -23.120  1.00  0.00     0.023 C 
BRANCH  20  21
ATOM     21  C   UNL     1      11.129 -58.222 -22.416  1.00  0.00     0.113 C 
BRANCH  21  22
ATOM     22  N   UNL     1      11.861 -59.255 -23.164  1.00  0.00    -0.384 N 
ATOM     23  H   UNL     1      12.710 -58.888 -23.585  1.00  0.00     0.160 HD
BRANCH  22  24
ATOM     24  C   UNL     1      11.107 -60.043 -24.064  1.00  0.00     0.049 A 
ATOM     25  C   UNL     1      10.186 -60.994 -23.590  1.00  0.00    -0.003 A 
ATOM     26  C   UNL     1      11.286 -59.903 -25.473  1.00  0.00     0.024 A 
ATOM     27  C   UNL     1       9.487 -61.752 -24.533  1.00  0.00     0.046 A 
ATOM     28  C   UNL     1       9.828 -61.207 -22.139  1.00  0.00     0.039 C 
ATOM     29  C   UNL     1      12.128 -58.933 -26.070  1.00  0.00     0.014 A 
ATOM     30  C   UNL     1      10.547 -60.756 -26.323  1.00  0.00     0.074 A 
ATOM     31  N   UNL     1       9.671 -61.658 -25.868  1.00  0.00    -0.252 NA
ATOM     32  C   UNL     1       8.435 -62.719 -24.056  1.00  0.00     0.056 C 
ATOM     33  C   UNL     1       9.582 -62.680 -21.778  1.00  0.00     0.005 C 
ATOM     34  C   UNL     1      12.272 -58.842 -27.453  1.00  0.00     0.021 A 
ATOM     35  C   UNL     1      10.704 -60.655 -27.698  1.00  0.00     0.049 A 
ATOM     36  C   UNL     1       8.974 -63.537 -22.892  1.00  0.00     0.007 C 
ATOM     37  C   UNL     1      11.561 -59.715 -28.262  1.00  0.00     0.043 A 
ATOM     38  Cl  UNL     1      11.726 -59.621 -29.973  1.00  0.00    -0.084 Cl
ENDBRANCH  22  24
ENDBRANCH  21  22
ENDBRANCH  20  21
ENDBRANCH   1  20
TORSDOF 9
ENDMDL
MODEL 4
REMARK VINA RESULT:   -11.180      4.115     11.042
REMARK INTER + INTRA:         -17.382
REMARK INTER:                 -16.940
REMARK INTRA:                  -0.443
REMARK UNBOUND:                -0.974
REMARK SMILES Cc1cc(O)nc2c1C(=O)C(=NCCCCNc1c3c(nc4cc(Cl)ccc14)CCCC3)C=C2O
REMARK SMILES IDX 14 1 13 2 12 3 11 4 34 5 33 6 7 7 6 8 8 9 9 10 4 11 2 12
REMARK SMILES IDX 3 13 10 14 1 15 35 16 5 18 15 20 16 21 17 22 18 24 19 25
REMARK SMILES IDX 28 26 20 27 32 28 27 29 22 30 21 31 29 32 31 33 26 34 23 35
REMARK SMILES IDX 30 36 24 37 25 38
REMARK H PARENT 35 17 5 19 17 23
ROOT
ATOM      1  C   UNL     1      10.990 -54.713 -22.525  1.00  0.00     0.025 C 
ENDROOT
BRANCH   1   2
ATOM      2  C   UNL     1       9.844 -55.548 -23.097  1.00  0.00     0.143 C 
BRANCH   2   3
ATOM      3  N   UNL     1      10.245 -56.948 -23.089  1.00  0.00    -0.281 NA
BRANCH   3   4
ATOM      4  C   UNL     1       9.370 -57.886 -23.172  1.00  0.00     0.109 C 
ATOM      5  C   UNL     1       7.121 -58.776 -23.515  1.00  0.00     0.144 C 
ATOM      6  C   UNL     1       7.902 -57.720 -23.287  1.00  0.00     0.080 C 
ATOM      7  C   UNL     1       7.636 -60.141 -23.669  1.00  0.00     0.120 A 
ATOM      8  N   UNL     1       6.681 -61.064 -23.975  1.00  0.00    -0.210 NA
ATOM      9  C   UNL     1       8.989 -60.436 -23.502  1.00  0.00     0.057 A 
ATOM     10  C   UNL     1       9.900 -59.325 -23.144  1.00  0.00     0.213 C 
ATOM     11  C   UNL     1       7.122 -62.322 -24.118  1.00  0.00     0.211 A 
ATOM     12  C   UNL     1       9.404 -61.771 -23.666  1.00  0.00    -0.032 A 
ATOM     13  C   UNL     1       8.432 -62.730 -23.981  1.00  0.00     0.072 A 
ATOM     14  O   UNL     1      11.060 -59.532 -22.812  1.00  0.00    -0.287 OA
ATOM     15  C   UNL     1      10.832 -62.214 -23.514  1.00  0.00     0.045 C 
BRANCH   5  16
ATOM     16  O   UNL     1       5.754 -58.622 -23.643  1.00  0.00    -0.506 OA
ATOM     17  H   UNL     1       5.414 -59.509 -23.890  1.00  0.00     0.293 HD
ENDBRANCH   5  16
BRANCH  11  18
ATOM     18  O   UNL     1       6.159 -63.226 -24.424  1.00  0.00    -0.493 OA
ATOM     19  H   UNL     1       6.197 -63.234 -25.396  1.00  0.00     0.295 HD
ENDBRANCH  11  18
ENDBRANCH   3   4
ENDBRANCH   2   3
ENDBRANCH   1   2
BRANCH   1  20
ATOM     20  C   UNL     1      11.233 -53.432 -23.331  1.00  0.00     0.023 C 
BRANCH  20  21
ATOM     21  C   UNL     1      11.089 -52.168 -22.483  1.00  0.00     0.113 C 
BRANCH  21  22
ATOM     22  N   UNL     1      12.357 -51.435 -22.359  1.00  0.00    -0.384 N 
ATOM     23  H   UNL     1      12.477 -51.039 -21.430  1.00  0.00     0.160 HD
BRANCH  22  24
ATOM     24  C   UNL     1      12.660 -50.509 -23.383  1.00  0.00     0.049 A 
ATOM     25  C   UNL     1      13.552 -50.845 -24.417  1.00  0.00    -0.003 A 
ATOM     26  C   UNL     1      12.082 -49.203 -23.374  1.00  0.00     0.024 A 
ATOM     27  C   UNL     1      13.821 -49.877 -25.388  1.00  0.00     0.046 A 
ATOM     28  C   UNL     1      14.183 -52.203 -24.610  1.00  0.00     0.039 C 
ATOM     29  C   UNL     1      11.118 -48.774 -22.429  1.00  0.00     0.014 A 
ATOM     30  C   UNL     1      12.464 -48.301 -24.392  1.00  0.00     0.074 A 
ATOM     31  N   UNL     1      13.312 -48.627 -25.373  1.00  0.00    -0.252 NA
ATOM     32  C   UNL     1      14.708 -50.239 -26.551  1.00  0.00     0.056 C 
ATOM     33  C   UNL     1      15.630 -52.140 -25.122  1.00  0.00     0.005 C 
ATOM     34  C   UNL     1      10.588 -47.485 -22.460  1.00  0.00     0.021 A 
ATOM     35  C   UNL     1      11.931 -47.021 -24.406  1.00  0.00     0.049 A 
ATOM     36  C   UNL     1      15.948 -50.964 -26.050  1.00  0.00     0.007 C 
ATOM     37  C   UNL     1      11.008 -46.609 -23.449  1.00  0.00     0.043 A 
ATOM     38  Cl  UNL     1      10.367 -45.013 -23.504  1.00  0.00    -0.084 Cl
ENDBRANCH  22  24
ENDBRANCH  21  22
ENDBRANCH  20  21
ENDBRANCH   1  20
TORSDOF 9
ENDMDL
MODEL 5
REMARK VINA RESULT:   -10.890      2.004      3.853
REMARK INTER + INTRA:         -16.957
REMARK INTER:                 -16.487
REMARK INTRA:                  -0.470
REMARK UNBOUND:                -0.974
REMARK SMILES Cc1cc(O)nc2c1C(=O)C(=NCCCCNc1c3c(nc4cc(Cl)ccc14)CCCC3)C=C2O
REMARK SMILES IDX 14 1 13 2 12 3 11 4 34 5 33 6 7 7 6 8 8 9 9 10 4 11 2 12
REMARK SMILES IDX 3 13 10 14 1 15 35 16 5 18 15 20 16 21 17 22 18 24 19 25
REMARK SMILES IDX 28 26 20 27 32 28 27 29 22 30 21 31 29 32 31 33 26 34 23 35
REMARK SMILES IDX 30 36 24 37 25 38
REMARK H PARENT 35 17 5 19 17 23
ROOT
ATOM      1  C   UNL     1      10.260 -56.902 -22.490  1.00  0.00     0.025 C 
ENDROOT
BRANCH   1   2
ATOM      2  C   UNL     1      11.010 -55.796 -21.748  1.00  0.00     0.143 C 
BRANCH   2   3
ATOM      3  N   UNL     1      10.276 -54.549 -21.918  1.00  0.00    -0.281 NA
BRANCH   3   4
ATOM      4  C   UNL     1      10.875 -53.478 -22.304  1.00  0.00     0.109 C 
ATOM      5  C   UNL     1      11.776 -51.228 -22.002  1.00  0.00     0.144 C 
ATOM      6  C   UNL     1      11.000 -52.212 -21.545  1.00  0.00     0.080 C 
ATOM      7  C   UNL     1      12.546 -51.321 -23.248  1.00  0.00     0.120 A 
ATOM      8  N   UNL     1      13.337 -50.237 -23.493  1.00  0.00    -0.210 NA
ATOM      9  C   UNL     1      12.447 -52.429 -24.087  1.00  0.00     0.057 A 
ATOM     10  C   UNL     1      11.522 -53.516 -23.694  1.00  0.00     0.213 C 
ATOM     11  C   UNL     1      14.049 -50.292 -24.627  1.00  0.00     0.211 A 
ATOM     12  C   UNL     1      13.218 -52.441 -25.266  1.00  0.00    -0.032 A 
ATOM     13  C   UNL     1      14.035 -51.334 -25.531  1.00  0.00     0.072 A 
ATOM     14  O   UNL     1      11.252 -54.433 -24.458  1.00  0.00    -0.287 OA
ATOM     15  C   UNL     1      13.200 -53.577 -26.250  1.00  0.00     0.045 C 
BRANCH   5  16
ATOM     16  O   UNL     1      11.911 -50.053 -21.287  1.00  0.00    -0.506 OA
ATOM     17  H   UNL     1      11.753 -49.334 -21.936  1.00  0.00     0.293 HD
ENDBRANCH   5  16
BRANCH  11  18
ATOM     18  O   UNL     1      14.831 -49.208 -24.856  1.00  0.00    -0.493 OA
ATOM     19  H   UNL     1      14.169 -48.502 -24.948  1.00  0.00     0.295 HD
ENDBRANCH  11  18
ENDBRANCH   3   4
ENDBRANCH   2   3
ENDBRANCH   1   2
BRANCH   1  20
ATOM     20  C   UNL     1      11.194 -58.023 -22.959  1.00  0.00     0.023 C 
BRANCH  20  21
ATOM     21  C   UNL     1      10.474 -59.364 -23.112  1.00  0.00     0.113 C 
BRANCH  21  22
ATOM     22  N   UNL     1      11.265 -60.335 -23.882  1.00  0.00    -0.384 N 
ATOM     23  H   UNL     1      12.246 -60.071 -23.928  1.00  0.00     0.160 HD
BRANCH  22  24
ATOM     24  C   UNL     1      10.749 -60.721 -25.140  1.00  0.00     0.049 A 
ATOM     25  C   UNL     1      11.277 -60.187 -26.329  1.00  0.00    -0.003 A 
ATOM     26  C   UNL     1       9.663 -61.644 -25.225  1.00  0.00     0.024 A 
ATOM     27  C   UNL     1      10.708 -60.597 -27.537  1.00  0.00     0.046 A 
ATOM     28  C   UNL     1      12.469 -59.264 -26.411  1.00  0.00     0.039 C 
ATOM     29  C   UNL     1       9.097 -62.302 -24.106  1.00  0.00     0.014 A 
ATOM     30  C   UNL     1       9.151 -61.950 -26.506  1.00  0.00     0.074 A 
ATOM     31  N   UNL     1       9.658 -61.441 -27.633  1.00  0.00    -0.252 NA
ATOM     32  C   UNL     1      11.309 -60.105 -28.828  1.00  0.00     0.056 C 
ATOM     33  C   UNL     1      12.338 -58.187 -27.499  1.00  0.00     0.005 C 
ATOM     34  C   UNL     1       8.033 -63.192 -24.242  1.00  0.00     0.021 A 
ATOM     35  C   UNL     1       8.089 -62.834 -26.624  1.00  0.00     0.049 A 
ATOM     36  C   UNL     1      11.555 -58.606 -28.746  1.00  0.00     0.007 C 
ATOM     37  C   UNL     1       7.527 -63.446 -25.508  1.00  0.00     0.043 A 
ATOM     38  Cl  UNL     1       6.212 -64.540 -25.698  1.00  0.00    -0.084 Cl
ENDBRANCH  22  24
ENDBRANCH  21  22
ENDBRANCH  20  21
ENDBRANCH   1  20
TORSDOF 9
ENDMDL
MODEL 6
REMARK VINA RESULT:   -10.617      4.104     11.082
REMARK INTER + INTRA:         -16.555
REMARK INTER:                 -15.822
REMARK INTRA:                  -0.733
REMARK UNBOUND:                -0.974
REMARK SMILES Cc1cc(O)nc2c1C(=O)C(=NCCCCNc1c3c(nc4cc(Cl)ccc14)CCCC3)C=C2O
REMARK SMILES IDX 14 1 13 2 12 3 11 4 34 5 33 6 7 7 6 8 8 9 9 10 4 11 2 12
REMARK SMILES IDX 3 13 10 14 1 15 35 16 5 18 15 20 16 21 17 22 18 24 19 25
REMARK SMILES IDX 28 26 20 27 32 28 27 29 22 30 21 31 29 32 31 33 26 34 23 35
REMARK SMILES IDX 30 36 24 37 25 38
REMARK H PARENT 35 17 5 19 17 23
ROOT
ATOM      1  C   UNL     1      11.015 -53.837 -22.400  1.00  0.00     0.025 C 
ENDROOT
BRANCH   1   2
ATOM      2  C   UNL     1      10.302 -55.141 -22.043  1.00  0.00     0.143 C 
BRANCH   2   3
ATOM      3  N   UNL     1      10.083 -55.896 -23.269  1.00  0.00    -0.281 NA
BRANCH   3   4
ATOM      4  C   UNL     1      10.299 -57.163 -23.311  1.00  0.00     0.109 C 
ATOM      5  C   UNL     1      11.690 -59.166 -23.172  1.00  0.00     0.144 C 
ATOM      6  C   UNL     1      11.617 -57.838 -23.272  1.00  0.00     0.080 C 
ATOM      7  C   UNL     1      10.510 -60.035 -23.093  1.00  0.00     0.120 A 
ATOM      8  N   UNL     1      10.803 -61.355 -22.916  1.00  0.00    -0.210 NA
ATOM      9  C   UNL     1       9.218 -59.524 -23.200  1.00  0.00     0.057 A 
ATOM     10  C   UNL     1       9.064 -58.067 -23.417  1.00  0.00     0.213 C 
ATOM     11  C   UNL     1       9.745 -62.173 -22.843  1.00  0.00     0.211 A 
ATOM     12  C   UNL     1       8.137 -60.424 -23.114  1.00  0.00    -0.032 A 
ATOM     13  C   UNL     1       8.425 -61.783 -22.933  1.00  0.00     0.072 A 
ATOM     14  O   UNL     1       7.980 -57.573 -23.693  1.00  0.00    -0.287 OA
ATOM     15  C   UNL     1       6.700 -59.996 -23.214  1.00  0.00     0.045 C 
BRANCH   5  16
ATOM     16  O   UNL     1      12.917 -59.798 -23.116  1.00  0.00    -0.506 OA
ATOM     17  H   UNL     1      12.726 -60.712 -22.812  1.00  0.00     0.293 HD
ENDBRANCH   5  16
BRANCH  11  18
ATOM     18  O   UNL     1      10.053 -63.481 -22.665  1.00  0.00    -0.493 OA
ATOM     19  H   UNL     1      10.800 -63.593 -23.278  1.00  0.00     0.295 HD
ENDBRANCH  11  18
ENDBRANCH   3   4
ENDBRANCH   2   3
ENDBRANCH   1   2
BRANCH   1  20
ATOM     20  C   UNL     1      10.499 -52.650 -21.579  1.00  0.00     0.023 C 
BRANCH  20  21
ATOM     21  C   UNL     1      10.505 -51.340 -22.369  1.00  0.00     0.113 C 
BRANCH  21  22
ATOM     22  N   UNL     1      11.745 -50.576 -22.168  1.00  0.00    -0.384 N 
ATOM     23  H   UNL     1      11.729 -50.052 -21.297  1.00  0.00     0.160 HD
BRANCH  22  24
ATOM     24  C   UNL     1      12.196 -49.798 -23.259  1.00  0.00     0.049 A 
ATOM     25  C   UNL     1      13.038 -50.353 -24.239  1.00  0.00    -0.003 A 
ATOM     26  C   UNL     1      11.825 -48.425 -23.372  1.00  0.00     0.024 A 
ATOM     27  C   UNL     1      13.463 -49.524 -25.280  1.00  0.00     0.046 A 
ATOM     28  C   UNL     1      13.457 -51.803 -24.303  1.00  0.00     0.039 C 
ATOM     29  C   UNL     1      10.927 -47.775 -22.490  1.00  0.00     0.014 A 
ATOM     30  C   UNL     1      12.351 -47.681 -24.452  1.00  0.00     0.074 A 
ATOM     31  N   UNL     1      13.150 -48.215 -25.382  1.00  0.00    -0.252 NA
ATOM     32  C   UNL     1      14.297 -50.115 -26.387  1.00  0.00     0.056 C 
ATOM     33  C   UNL     1      14.902 -52.003 -24.784  1.00  0.00     0.005 C 
ATOM     34  C   UNL     1      10.601 -46.428 -22.641  1.00  0.00     0.021 A 
ATOM     35  C   UNL     1      12.020 -46.341 -24.586  1.00  0.00     0.049 A 
ATOM     36  C   UNL     1      15.406 -50.973 -25.798  1.00  0.00     0.007 C 
ATOM     37  C   UNL     1      11.160 -45.714 -23.689  1.00  0.00     0.043 A 
ATOM     38  Cl  UNL     1      10.771 -44.050 -23.892  1.00  0.00    -0.084 Cl
ENDBRANCH  22  24
ENDBRANCH  21  22
ENDBRANCH  20  21
ENDBRANCH   1  20
TORSDOF 9
ENDMDL
MODEL 7
REMARK VINA RESULT:   -10.212      6.168     11.204
REMARK INTER + INTRA:         -15.961
REMARK INTER:                 -15.099
REMARK INTRA:                  -0.862
REMARK UNBOUND:                -0.974
REMARK SMILES Cc1cc(O)nc2c1C(=O)C(=NCCCCNc1c3c(nc4cc(Cl)ccc14)CCCC3)C=C2O
REMARK SMILES IDX 14 1 13 2 12 3 11 4 34 5 33 6 7 7 6 8 8 9 9 10 4 11 2 12
REMARK SMILES IDX 3 13 10 14 1 15 35 16 5 18 15 20 16 21 17 22 18 24 19 25
REMARK SMILES IDX 28 26 20 27 32 28 27 29 22 30 21 31 29 32 31 33 26 34 23 35
REMARK SMILES IDX 30 36 24 37 25 38
REMARK H PARENT 35 17 5 19 17 23
ROOT
ATOM      1  C   UNL     1      11.043 -47.138 -22.187  1.00  0.00     0.025 C 
ENDROOT
BRANCH   1   2
ATOM      2  C   UNL     1      10.303 -45.819 -22.410  1.00  0.00     0.143 C 
BRANCH   2   3
ATOM      3  N   UNL     1      11.252 -44.725 -22.245  1.00  0.00    -0.281 NA
BRANCH   3   4
ATOM      4  C   UNL     1      11.599 -43.996 -23.245  1.00  0.00     0.109 C 
ATOM      5  C   UNL     1      12.421 -43.614 -25.513  1.00  0.00     0.144 C 
ATOM      6  C   UNL     1      12.250 -44.456 -24.493  1.00  0.00     0.080 C 
ATOM      7  C   UNL     1      11.987 -42.213 -25.483  1.00  0.00     0.120 A 
ATOM      8  N   UNL     1      12.182 -41.546 -26.656  1.00  0.00    -0.210 NA
ATOM      9  C   UNL     1      11.434 -41.643 -24.337  1.00  0.00     0.057 A 
ATOM     10  C   UNL     1      11.311 -42.493 -23.131  1.00  0.00     0.213 C 
ATOM     11  C   UNL     1      11.799 -40.262 -26.657  1.00  0.00     0.211 A 
ATOM     12  C   UNL     1      11.043 -40.291 -24.389  1.00  0.00    -0.032 A 
ATOM     13  C   UNL     1      11.239 -39.593 -25.588  1.00  0.00     0.072 A 
ATOM     14  O   UNL     1      11.001 -42.021 -22.046  1.00  0.00    -0.287 OA
ATOM     15  C   UNL     1      10.435 -39.565 -23.222  1.00  0.00     0.045 C 
BRANCH   5  16
ATOM     16  O   UNL     1      13.010 -44.045 -26.686  1.00  0.00    -0.506 OA
ATOM     17  H   UNL     1      12.764 -43.377 -27.362  1.00  0.00     0.293 HD
ENDBRANCH   5  16
BRANCH  11  18
ATOM     18  O   UNL     1      11.998 -39.614 -27.831  1.00  0.00    -0.493 OA
ATOM     19  H   UNL     1      12.969 -39.583 -27.877  1.00  0.00     0.295 HD
ENDBRANCH  11  18
ENDBRANCH   3   4
ENDBRANCH   2   3
ENDBRANCH   1   2
BRANCH   1  20
ATOM     20  C   UNL     1      10.534 -48.252 -23.108  1.00  0.00     0.023 C 
BRANCH  20  21
ATOM     21  C   UNL     1      10.213 -49.541 -22.350  1.00  0.00     0.113 C 
BRANCH  21  22
ATOM     22  N   UNL     1      11.424 -50.303 -22.011  1.00  0.00    -0.384 N 
ATOM     23  H   UNL     1      12.190 -49.693 -21.739  1.00  0.00     0.160 HD
BRANCH  22  24
ATOM     24  C   UNL     1      11.825 -51.300 -22.930  1.00  0.00     0.049 A 
ATOM     25  C   UNL     1      12.778 -51.018 -23.926  1.00  0.00    -0.003 A 
ATOM     26  C   UNL     1      11.253 -52.606 -22.878  1.00  0.00     0.024 A 
ATOM     27  C   UNL     1      13.116 -52.043 -24.813  1.00  0.00     0.046 A 
ATOM     28  C   UNL     1      13.528 -49.716 -24.065  1.00  0.00     0.039 C 
ATOM     29  C   UNL     1      10.341 -53.029 -21.880  1.00  0.00     0.014 A 
ATOM     30  C   UNL     1      11.650 -53.544 -23.856  1.00  0.00     0.074 A 
ATOM     31  N   UNL     1      12.557 -53.272 -24.800  1.00  0.00    -0.252 NA
ATOM     32  C   UNL     1      14.194 -51.793 -25.836  1.00  0.00     0.056 C 
ATOM     33  C   UNL     1      13.769 -49.298 -25.524  1.00  0.00     0.005 C 
ATOM     34  C   UNL     1       9.805 -54.316 -21.878  1.00  0.00     0.021 A 
ATOM     35  C   UNL     1      11.105 -54.819 -23.843  1.00  0.00     0.049 A 
ATOM     36  C   UNL     1      13.964 -50.450 -26.513  1.00  0.00     0.007 C 
ATOM     37  C   UNL     1      10.187 -55.204 -22.871  1.00  0.00     0.043 A 
ATOM     38  Cl  UNL     1       9.536 -56.798 -22.887  1.00  0.00    -0.084 Cl
ENDBRANCH  22  24
ENDBRANCH  21  22
ENDBRANCH  20  21
ENDBRANCH   1  20
TORSDOF 9
ENDMDL
MODEL 8
REMARK VINA RESULT:   -10.158      1.645      2.843
REMARK INTER + INTRA:         -15.882
REMARK INTER:                 -15.600
REMARK INTRA:                  -0.282
REMARK UNBOUND:                -0.974
REMARK SMILES Cc1cc(O)nc2c1C(=O)C(=NCCCCNc1c3c(nc4cc(Cl)ccc14)CCCC3)C=C2O
REMARK SMILES IDX 14 1 13 2 12 3 11 4 34 5 33 6 7 7 6 8 8 9 9 10 4 11 2 12
REMARK SMILES IDX 3 13 10 14 1 15 35 16 5 18 15 20 16 21 17 22 18 24 19 25
REMARK SMILES IDX 28 26 20 27 32 28 27 29 22 30 21 31 29 32 31 33 26 34 23 35
REMARK SMILES IDX 30 36 24 37 25 38
REMARK H PARENT 35 17 5 19 17 23
ROOT
ATOM      1  C   UNL     1      10.102 -55.293 -22.295  1.00  0.00     0.025 C 
ENDROOT
BRANCH   1   2
ATOM      2  C   UNL     1      10.463 -54.178 -21.313  1.00  0.00     0.143 C 
BRANCH   2   3
ATOM      3  N   UNL     1      10.095 -52.902 -21.910  1.00  0.00    -0.281 NA
BRANCH   3   4
ATOM      4  C   UNL     1      10.997 -52.077 -22.311  1.00  0.00     0.109 C 
ATOM      5  C   UNL     1      12.394 -50.082 -22.129  1.00  0.00     0.144 C 
ATOM      6  C   UNL     1      11.335 -50.770 -21.701  1.00  0.00     0.080 C 
ATOM      7  C   UNL     1      13.281 -50.550 -23.200  1.00  0.00     0.120 A 
ATOM      8  N   UNL     1      14.350 -49.736 -23.432  1.00  0.00    -0.210 NA
ATOM      9  C   UNL     1      13.019 -51.724 -23.905  1.00  0.00     0.057 A 
ATOM     10  C   UNL     1      11.800 -52.487 -23.551  1.00  0.00     0.213 C 
ATOM     11  C   UNL     1      15.175 -50.137 -24.409  1.00  0.00     0.211 A 
ATOM     12  C   UNL     1      13.918 -52.105 -24.920  1.00  0.00    -0.032 A 
ATOM     13  C   UNL     1      15.021 -51.277 -25.169  1.00  0.00     0.072 A 
ATOM     14  O   UNL     1      11.413 -53.425 -24.235  1.00  0.00    -0.287 OA
ATOM     15  C   UNL     1      13.746 -53.347 -25.747  1.00  0.00     0.045 C 
BRANCH   5  16
ATOM     16  O   UNL     1      12.725 -48.872 -21.548  1.00  0.00    -0.506 OA
ATOM     17  H   UNL     1      11.955 -48.286 -21.709  1.00  0.00     0.293 HD
ENDBRANCH   5  16
BRANCH  11  18
ATOM     18  O   UNL     1      16.233 -49.317 -24.625  1.00  0.00    -0.493 OA
ATOM     19  H   UNL     1      15.980 -48.529 -24.116  1.00  0.00     0.295 HD
ENDBRANCH  11  18
ENDBRANCH   3   4
ENDBRANCH   2   3
ENDBRANCH   1   2
BRANCH   1  20
ATOM     20  C   UNL     1      11.108 -56.449 -22.255  1.00  0.00     0.023 C 
BRANCH  20  21
ATOM     21  C   UNL     1      11.443 -56.986 -23.647  1.00  0.00     0.113 C 
BRANCH  21  22
ATOM     22  N   UNL     1      11.977 -58.355 -23.601  1.00  0.00    -0.384 N 
ATOM     23  H   UNL     1      12.972 -58.380 -23.807  1.00  0.00     0.160 HD
BRANCH  22  24
ATOM     24  C   UNL     1      11.254 -59.344 -24.306  1.00  0.00     0.049 A 
ATOM     25  C   UNL     1      10.409 -60.239 -23.627  1.00  0.00    -0.003 A 
ATOM     26  C   UNL     1      11.388 -59.468 -25.722  1.00  0.00     0.024 A 
ATOM     27  C   UNL     1       9.738 -61.204 -24.382  1.00  0.00     0.046 A 
ATOM     28  C   UNL     1      10.102 -60.190 -22.149  1.00  0.00     0.039 C 
ATOM     29  C   UNL     1      12.150 -58.582 -26.523  1.00  0.00     0.014 A 
ATOM     30  C   UNL     1      10.685 -60.510 -26.367  1.00  0.00     0.074 A 
ATOM     31  N   UNL     1       9.882 -61.358 -25.716  1.00  0.00    -0.252 NA
ATOM     32  C   UNL     1       8.763 -62.122 -23.690  1.00  0.00     0.056 C 
ATOM     33  C   UNL     1       9.961 -61.578 -21.505  1.00  0.00     0.005 C 
ATOM     34  C   UNL     1      12.253 -58.751 -27.903  1.00  0.00     0.021 A 
ATOM     35  C   UNL     1      10.802 -60.667 -27.740  1.00  0.00     0.049 A 
ATOM     36  C   UNL     1       9.383 -62.667 -22.413  1.00  0.00     0.007 C 
ATOM     37  C   UNL     1      11.581 -59.804 -28.504  1.00  0.00     0.043 A 
ATOM     38  Cl  UNL     1      11.697 -60.030 -30.206  1.00  0.00    -0.084 Cl
ENDBRANCH  22  24
ENDBRANCH  21  22
ENDBRANCH  20  21
ENDBRANCH   1  20
TORSDOF 9
ENDMDL
MODEL 9
REMARK VINA RESULT:    -9.797      3.615     10.896
REMARK INTER + INTRA:         -15.353
REMARK INTER:                 -14.772
REMARK INTRA:                  -0.581
REMARK UNBOUND:                -0.974
REMARK SMILES Cc1cc(O)nc2c1C(=O)C(=NCCCCNc1c3c(nc4cc(Cl)ccc14)CCCC3)C=C2O
REMARK SMILES IDX 14 1 13 2 12 3 11 4 34 5 33 6 7 7 6 8 8 9 9 10 4 11 2 12
REMARK SMILES IDX 3 13 10 14 1 15 35 16 5 18 15 20 16 21 17 22 18 24 19 25
REMARK SMILES IDX 28 26 20 27 32 28 27 29 22 30 21 31 29 32 31 33 26 34 23 35
REMARK SMILES IDX 30 36 24 37 25 38
REMARK H PARENT 35 17 5 19 17 23
ROOT
ATOM      1  C   UNL     1      10.413 -54.225 -23.233  1.00  0.00     0.025 C 
ENDROOT
BRANCH   1   2
ATOM      2  C   UNL     1      11.369 -55.387 -23.502  1.00  0.00     0.143 C 
BRANCH   2   3
ATOM      3  N   UNL     1      11.089 -56.445 -22.540  1.00  0.00    -0.281 NA
BRANCH   3   4
ATOM      4  C   UNL     1      10.865 -57.650 -22.931  1.00  0.00     0.109 C 
ATOM      5  C   UNL     1      11.502 -59.946 -23.466  1.00  0.00     0.144 C 
ATOM      6  C   UNL     1      11.879 -58.693 -23.211  1.00  0.00     0.080 C 
ATOM      7  C   UNL     1      10.100 -60.378 -23.487  1.00  0.00     0.120 A 
ATOM      8  N   UNL     1       9.934 -61.716 -23.689  1.00  0.00    -0.210 NA
ATOM      9  C   UNL     1       9.053 -59.473 -23.318  1.00  0.00     0.057 A 
ATOM     10  C   UNL     1       9.397 -58.044 -23.133  1.00  0.00     0.213 C 
ATOM     11  C   UNL     1       8.663 -62.139 -23.717  1.00  0.00     0.211 A 
ATOM     12  C   UNL     1       7.735 -59.966 -23.351  1.00  0.00    -0.032 A 
ATOM     13  C   UNL     1       7.550 -61.340 -23.559  1.00  0.00     0.072 A 
ATOM     14  O   UNL     1       8.538 -57.173 -23.154  1.00  0.00    -0.287 OA
ATOM     15  C   UNL     1       6.524 -59.092 -23.181  1.00  0.00     0.045 C 
BRANCH   5  16
ATOM     16  O   UNL     1      12.445 -60.927 -23.708  1.00  0.00    -0.506 OA
ATOM     17  H   UNL     1      13.220 -60.456 -24.085  1.00  0.00     0.293 HD
ENDBRANCH   5  16
BRANCH  11  18
ATOM     18  O   UNL     1       8.515 -63.472 -23.918  1.00  0.00    -0.493 OA
ATOM     19  H   UNL     1       9.046 -63.841 -23.192  1.00  0.00     0.295 HD
ENDBRANCH  11  18
ENDBRANCH   3   4
ENDBRANCH   2   3
ENDBRANCH   1   2
BRANCH   1  20
ATOM     20  C   UNL     1      11.113 -53.044 -22.552  1.00  0.00     0.023 C 
BRANCH  20  21
ATOM     21  C   UNL     1      12.109 -52.339 -23.474  1.00  0.00     0.113 C 
BRANCH  21  22
ATOM     22  N   UNL     1      13.028 -51.462 -22.733  1.00  0.00    -0.384 N 
ATOM     23  H   UNL     1      12.609 -51.115 -21.874  1.00  0.00     0.160 HD
BRANCH  22  24
ATOM     24  C   UNL     1      13.669 -50.442 -23.473  1.00  0.00     0.049 A 
ATOM     25  C   UNL     1      13.120 -49.149 -23.539  1.00  0.00    -0.003 A 
ATOM     26  C   UNL     1      14.874 -50.713 -24.188  1.00  0.00     0.024 A 
ATOM     27  C   UNL     1      13.794 -48.192 -24.303  1.00  0.00     0.046 A 
ATOM     28  C   UNL     1      11.900 -48.684 -22.781  1.00  0.00     0.039 C 
ATOM     29  C   UNL     1      15.558 -51.953 -24.140  1.00  0.00     0.014 A 
ATOM     30  C   UNL     1      15.439 -49.671 -24.956  1.00  0.00     0.074 A 
ATOM     31  N   UNL     1      14.914 -48.442 -25.014  1.00  0.00    -0.252 NA
ATOM     32  C   UNL     1      13.274 -46.779 -24.323  1.00  0.00     0.056 C 
ATOM     33  C   UNL     1      11.019 -47.707 -23.576  1.00  0.00     0.005 C 
ATOM     34  C   UNL     1      16.731 -52.168 -24.862  1.00  0.00     0.021 A 
ATOM     35  C   UNL     1      16.604 -49.903 -25.672  1.00  0.00     0.049 A 
ATOM     36  C   UNL     1      11.768 -46.784 -24.540  1.00  0.00     0.007 C 
ATOM     37  C   UNL     1      17.243 -51.138 -25.635  1.00  0.00     0.043 A 
ATOM     38  Cl  UNL     1      18.689 -51.385 -26.536  1.00  0.00    -0.084 Cl
ENDBRANCH  22  24
ENDBRANCH  21  22
ENDBRANCH  20  21
ENDBRANCH   1  20
TORSDOF 9
ENDMDL
