MODEL 1
REMARK VINA RESULT:    -9.769      0.000      0.000
REMARK INTER + INTRA:         -14.462
REMARK INTER:                 -13.481
REMARK INTRA:                  -0.981
REMARK UNBOUND:                -0.981
REMARK SMILES COc1cccc([C@@H]2C=C(c3cc(F)cc(F)c3)NN2c2ccc(S(N)(=O)=O)cc2)c1OC
REMARK SMILES IDX 21 1 22 2 23 3 24 4 29 5 30 6 20 7 19 8 10 9 9 10 8 11 11 13
REMARK SMILES IDX 12 14 18 15 13 16 16 17 15 18 14 19 17 20 7 21 6 22 31 23
REMARK SMILES IDX 5 24 3 25 4 26 32 27 33 28 2 29 1 30 25 31 27 32 28 33 26 34
REMARK H PARENT 19 12 26 35 26 36
ROOT
ATOM      1  C   UNL     1      12.181 -52.229 -23.873  1.00  0.00     0.058 A 
ATOM      2  C   UNL     1      12.394 -53.279 -24.781  1.00  0.00     0.029 A 
ATOM      3  C   UNL     1      11.960 -54.582 -24.513  1.00  0.00     0.024 A 
ATOM      4  C   UNL     1      11.305 -54.854 -23.314  1.00  0.00     0.082 A 
ATOM      5  C   UNL     1      11.064 -53.837 -22.395  1.00  0.00     0.024 A 
ATOM      6  C   UNL     1      11.505 -52.540 -22.678  1.00  0.00     0.029 A 
ENDROOT
BRANCH   1   7
ATOM      7  N   UNL     1      12.610 -50.926 -24.121  1.00  0.00    -0.276 N 
ATOM      8  N   UNL     1      11.998 -49.774 -23.649  1.00  0.00    -0.297 N 
ATOM      9  C   UNL     1      12.558 -48.659 -24.264  1.00  0.00     0.060 C 
ATOM     10  C   UNL     1      13.565 -49.036 -25.070  1.00  0.00     0.033 C 
ATOM     11  C   UNL     1      13.717 -50.549 -25.053  1.00  0.00     0.165 C 
ATOM     12  H   UNL     1      10.979 -49.760 -23.727  1.00  0.00     0.188 HD
BRANCH   9  13
ATOM     13  C   UNL     1      12.046 -47.306 -24.028  1.00  0.00     0.005 A 
ATOM     14  C   UNL     1      12.593 -46.213 -24.715  1.00  0.00     0.049 A 
ATOM     15  C   UNL     1      11.017 -47.066 -23.107  1.00  0.00     0.049 A 
ATOM     16  C   UNL     1      12.115 -44.925 -24.484  1.00  0.00     0.126 A 
ATOM     17  C   UNL     1      10.556 -45.768 -22.891  1.00  0.00     0.126 A 
ATOM     18  C   UNL     1      11.097 -44.689 -23.574  1.00  0.00     0.078 A 
ATOM     19  F   UNL     1      12.650 -43.895 -25.154  1.00  0.00    -0.207 F 
ATOM     20  F   UNL     1       9.573 -45.559 -22.005  1.00  0.00    -0.207 F 
ENDBRANCH   9  13
BRANCH  11  21
ATOM     21  C   UNL     1      15.092 -50.967 -24.561  1.00  0.00     0.026 A 
ATOM     22  C   UNL     1      15.323 -51.228 -23.199  1.00  0.00     0.010 A 
ATOM     23  C   UNL     1      16.174 -51.067 -25.458  1.00  0.00     0.166 A 
ATOM     24  C   UNL     1      16.591 -51.583 -22.746  1.00  0.00     0.004 A 
ATOM     25  C   UNL     1      17.469 -51.385 -24.997  1.00  0.00     0.161 A 
ATOM     26  C   UNL     1      17.659 -51.659 -23.640  1.00  0.00     0.050 A 
BRANCH  23  27
ATOM     27  O   UNL     1      15.901 -50.762 -26.773  1.00  0.00    -0.492 OA
ATOM     28  C   UNL     1      16.382 -49.481 -27.180  1.00  0.00     0.278 C 
ENDBRANCH  23  27
BRANCH  25  29
ATOM     29  O   UNL     1      18.478 -51.392 -25.926  1.00  0.00    -0.493 OA
ATOM     30  C   UNL     1      19.773 -51.788 -25.493  1.00  0.00     0.278 C 
ENDBRANCH  25  29
ENDBRANCH  11  21
ENDBRANCH   1   7
BRANCH   4  31
ATOM     31  S   UNL     1      10.761 -56.506 -22.972  1.00  0.00     0.238 S 
ATOM     32  O   UNL     1       9.368 -56.613 -23.333  1.00  0.00    -0.207 OA
ATOM     33  O   UNL     1      11.262 -56.897 -21.675  1.00  0.00    -0.207 OA
BRANCH  31  34
ATOM     34  N   UNL     1      11.658 -57.391 -24.091  1.00  0.00    -0.225 NA
ATOM     35  H   UNL     1      11.102 -57.503 -24.941  1.00  0.00     0.137 HD
ATOM     36  H   UNL     1      11.981 -58.287 -23.727  1.00  0.00     0.137 HD
ENDBRANCH  31  34
ENDBRANCH   4  31
TORSDOF 7
ENDMDL
MODEL 2
REMARK VINA RESULT:    -8.966      5.539      8.621
REMARK INTER + INTRA:         -13.354
REMARK INTER:                 -11.904
REMARK INTRA:                  -1.450
REMARK UNBOUND:                -0.981
REMARK SMILES COc1cccc([C@@H]2C=C(c3cc(F)cc(F)c3)NN2c2ccc(S(N)(=O)=O)cc2)c1OC
REMARK SMILES IDX 21 1 22 2 23 3 24 4 29 5 30 6 20 7 19 8 10 9 9 10 8 11 11 13
REMARK SMILES IDX 12 14 18 15 13 16 16 17 15 18 14 19 17 20 7 21 6 22 31 23
REMARK SMILES IDX 5 24 3 25 4 26 32 27 33 28 2 29 1 30 25 31 27 32 28 33 26 34
REMARK H PARENT 19 12 26 35 26 36
ROOT
ATOM      1  C   UNL     1      14.551 -47.727 -21.330  1.00  0.00     0.058 A 
ATOM      2  C   UNL     1      15.918 -47.534 -21.589  1.00  0.00     0.029 A 
ATOM      3  C   UNL     1      16.744 -46.840 -20.699  1.00  0.00     0.024 A 
ATOM      4  C   UNL     1      16.203 -46.318 -19.525  1.00  0.00     0.082 A 
ATOM      5  C   UNL     1      14.856 -46.500 -19.227  1.00  0.00     0.024 A 
ATOM      6  C   UNL     1      14.043 -47.195 -20.129  1.00  0.00     0.029 A 
ENDROOT
BRANCH   1   7
ATOM      7  N   UNL     1      13.711 -48.411 -22.208  1.00  0.00    -0.276 N 
ATOM      8  N   UNL     1      13.305 -49.730 -22.068  1.00  0.00    -0.297 N 
ATOM      9  C   UNL     1      12.658 -50.147 -23.227  1.00  0.00     0.060 C 
ATOM     10  C   UNL     1      12.563 -49.125 -24.094  1.00  0.00     0.033 C 
ATOM     11  C   UNL     1      13.224 -47.882 -23.519  1.00  0.00     0.165 C 
ATOM     12  H   UNL     1      14.043 -50.387 -21.807  1.00  0.00     0.188 HD
BRANCH   9  13
ATOM     13  C   UNL     1      12.198 -51.527 -23.403  1.00  0.00     0.005 A 
ATOM     14  C   UNL     1      12.643 -52.287 -24.494  1.00  0.00     0.049 A 
ATOM     15  C   UNL     1      11.299 -52.118 -22.503  1.00  0.00     0.049 A 
ATOM     16  C   UNL     1      12.199 -53.597 -24.668  1.00  0.00     0.126 A 
ATOM     17  C   UNL     1      10.869 -53.429 -22.699  1.00  0.00     0.126 A 
ATOM     18  C   UNL     1      11.312 -54.179 -23.778  1.00  0.00     0.078 A 
ATOM     19  F   UNL     1      12.639 -54.305 -25.717  1.00  0.00    -0.207 F 
ATOM     20  F   UNL     1      10.007 -53.973 -21.829  1.00  0.00    -0.207 F 
ENDBRANCH   9  13
BRANCH  11  21
ATOM     21  C   UNL     1      12.237 -46.736 -23.380  1.00  0.00     0.026 A 
ATOM     22  C   UNL     1      11.073 -46.876 -22.604  1.00  0.00     0.010 A 
ATOM     23  C   UNL     1      12.451 -45.518 -24.057  1.00  0.00     0.166 A 
ATOM     24  C   UNL     1      10.154 -45.834 -22.502  1.00  0.00     0.004 A 
ATOM     25  C   UNL     1      11.503 -44.476 -23.990  1.00  0.00     0.161 A 
ATOM     26  C   UNL     1      10.367 -44.642 -23.193  1.00  0.00     0.050 A 
BRANCH  23  27
ATOM     27  O   UNL     1      13.586 -45.450 -24.834  1.00  0.00    -0.492 OA
ATOM     28  C   UNL     1      14.731 -44.951 -24.142  1.00  0.00     0.278 C 
ENDBRANCH  23  27
BRANCH  25  29
ATOM     29  O   UNL     1      11.756 -43.353 -24.736  1.00  0.00    -0.493 OA
ATOM     30  C   UNL     1      12.229 -42.199 -24.055  1.00  0.00     0.278 C 
ENDBRANCH  25  29
ENDBRANCH  11  21
ENDBRANCH   1   7
BRANCH   4  31
ATOM     31  S   UNL     1      17.249 -45.434 -18.401  1.00  0.00     0.238 S 
ATOM     32  O   UNL     1      17.047 -44.019 -18.604  1.00  0.00    -0.207 OA
ATOM     33  O   UNL     1      18.559 -46.043 -18.414  1.00  0.00    -0.207 OA
BRANCH  31  34
ATOM     34  N   UNL     1      16.570 -45.849 -16.916  1.00  0.00    -0.225 NA
ATOM     35  H   UNL     1      15.825 -46.529 -17.075  1.00  0.00     0.137 HD
ATOM     36  H   UNL     1      16.241 -45.042 -16.386  1.00  0.00     0.137 HD
ENDBRANCH  31  34
ENDBRANCH   4  31
TORSDOF 7
ENDMDL
MODEL 3
REMARK VINA RESULT:    -8.663      3.441      5.994
REMARK INTER + INTRA:         -12.936
REMARK INTER:                 -11.961
REMARK INTRA:                  -0.975
REMARK UNBOUND:                -0.981
REMARK SMILES COc1cccc([C@@H]2C=C(c3cc(F)cc(F)c3)NN2c2ccc(S(N)(=O)=O)cc2)c1OC
REMARK SMILES IDX 21 1 22 2 23 3 24 4 29 5 30 6 20 7 19 8 10 9 9 10 8 11 11 13
REMARK SMILES IDX 12 14 18 15 13 16 16 17 15 18 14 19 17 20 7 21 6 22 31 23
REMARK SMILES IDX 5 24 3 25 4 26 32 27 33 28 2 29 1 30 25 31 27 32 28 33 26 34
REMARK H PARENT 19 12 26 35 26 36
ROOT
ATOM      1  C   UNL     1      12.909 -51.558 -24.598  1.00  0.00     0.058 A 
ATOM      2  C   UNL     1      12.225 -51.367 -23.386  1.00  0.00     0.029 A 
ATOM      3  C   UNL     1      11.481 -52.392 -22.792  1.00  0.00     0.024 A 
ATOM      4  C   UNL     1      11.405 -53.636 -23.416  1.00  0.00     0.082 A 
ATOM      5  C   UNL     1      12.080 -53.868 -24.611  1.00  0.00     0.024 A 
ATOM      6  C   UNL     1      12.819 -52.831 -25.192  1.00  0.00     0.029 A 
ENDROOT
BRANCH   1   7
ATOM      7  N   UNL     1      13.652 -50.547 -25.207  1.00  0.00    -0.276 N 
ATOM      8  N   UNL     1      14.031 -50.520 -26.541  1.00  0.00    -0.297 N 
ATOM      9  C   UNL     1      14.938 -49.487 -26.750  1.00  0.00     0.060 C 
ATOM     10  C   UNL     1      15.113 -48.792 -25.614  1.00  0.00     0.033 C 
ATOM     11  C   UNL     1      14.284 -49.397 -24.492  1.00  0.00     0.165 C 
ATOM     12  H   UNL     1      14.392 -51.403 -26.909  1.00  0.00     0.188 HD
BRANCH   9  13
ATOM     13  C   UNL     1      15.582 -49.274 -28.049  1.00  0.00     0.005 A 
ATOM     14  C   UNL     1      16.926 -49.628 -28.240  1.00  0.00     0.049 A 
ATOM     15  C   UNL     1      14.886 -48.701 -29.123  1.00  0.00     0.049 A 
ATOM     16  C   UNL     1      17.542 -49.416 -29.471  1.00  0.00     0.126 A 
ATOM     17  C   UNL     1      15.525 -48.498 -30.346  1.00  0.00     0.126 A 
ATOM     18  C   UNL     1      16.853 -48.852 -30.533  1.00  0.00     0.078 A 
ATOM     19  F   UNL     1      18.825 -49.766 -29.632  1.00  0.00    -0.207 F 
ATOM     20  F   UNL     1      14.842 -47.947 -31.359  1.00  0.00    -0.207 F 
ENDBRANCH   9  13
BRANCH  11  21
ATOM     21  C   UNL     1      13.279 -48.401 -23.939  1.00  0.00     0.026 A 
ATOM     22  C   UNL     1      12.178 -47.984 -24.708  1.00  0.00     0.010 A 
ATOM     23  C   UNL     1      13.450 -47.848 -22.654  1.00  0.00     0.166 A 
ATOM     24  C   UNL     1      11.274 -47.049 -24.210  1.00  0.00     0.004 A 
ATOM     25  C   UNL     1      12.560 -46.870 -22.163  1.00  0.00     0.161 A 
ATOM     26  C   UNL     1      11.465 -46.493 -22.946  1.00  0.00     0.050 A 
BRANCH  23  27
ATOM     27  O   UNL     1      14.566 -48.262 -21.961  1.00  0.00    -0.492 OA
ATOM     28  C   UNL     1      15.716 -47.444 -22.177  1.00  0.00     0.278 C 
ENDBRANCH  23  27
BRANCH  25  29
ATOM     29  O   UNL     1      12.841 -46.332 -20.933  1.00  0.00    -0.493 OA
ATOM     30  C   UNL     1      13.410 -45.030 -20.895  1.00  0.00     0.278 C 
ENDBRANCH  25  29
ENDBRANCH  11  21
ENDBRANCH   1   7
BRANCH   4  31
ATOM     31  S   UNL     1      10.457 -54.931 -22.667  1.00  0.00     0.238 S 
ATOM     32  O   UNL     1      11.333 -55.711 -21.825  1.00  0.00    -0.207 OA
ATOM     33  O   UNL     1       9.613 -55.527 -23.675  1.00  0.00    -0.207 OA
BRANCH  31  34
ATOM     34  N   UNL     1       9.422 -54.053 -21.668  1.00  0.00    -0.225 NA
ATOM     35  H   UNL     1       8.618 -53.747 -22.218  1.00  0.00     0.137 HD
ATOM     36  H   UNL     1       9.883 -53.273 -21.201  1.00  0.00     0.137 HD
ENDBRANCH  31  34
ENDBRANCH   4  31
TORSDOF 7
ENDMDL
MODEL 4
REMARK VINA RESULT:    -8.599      1.735      2.045
REMARK INTER + INTRA:         -12.848
REMARK INTER:                 -11.772
REMARK INTRA:                  -1.076
REMARK UNBOUND:                -0.981
REMARK SMILES COc1cccc([C@@H]2C=C(c3cc(F)cc(F)c3)NN2c2ccc(S(N)(=O)=O)cc2)c1OC
REMARK SMILES IDX 21 1 22 2 23 3 24 4 29 5 30 6 20 7 19 8 10 9 9 10 8 11 11 13
REMARK SMILES IDX 12 14 18 15 13 16 16 17 15 18 14 19 17 20 7 21 6 22 31 23
REMARK SMILES IDX 5 24 3 25 4 26 32 27 33 28 2 29 1 30 25 31 27 32 28 33 26 34
REMARK H PARENT 19 12 26 35 26 36
ROOT
ATOM      1  C   UNL     1      12.115 -50.455 -23.472  1.00  0.00     0.058 A 
ATOM      2  C   UNL     1      12.432 -51.713 -24.010  1.00  0.00     0.029 A 
ATOM      3  C   UNL     1      11.949 -52.898 -23.443  1.00  0.00     0.024 A 
ATOM      4  C   UNL     1      11.137 -52.837 -22.312  1.00  0.00     0.082 A 
ATOM      5  C   UNL     1      10.791 -51.608 -21.758  1.00  0.00     0.024 A 
ATOM      6  C   UNL     1      11.283 -50.433 -22.336  1.00  0.00     0.029 A 
ENDROOT
BRANCH   1   7
ATOM      7  N   UNL     1      12.591 -49.265 -24.020  1.00  0.00    -0.276 N 
ATOM      8  N   UNL     1      12.109 -47.996 -23.730  1.00  0.00    -0.297 N 
ATOM      9  C   UNL     1      12.660 -47.073 -24.612  1.00  0.00     0.060 C 
ATOM     10  C   UNL     1      13.541 -47.680 -25.424  1.00  0.00     0.033 C 
ATOM     11  C   UNL     1      13.601 -49.169 -25.118  1.00  0.00     0.165 C 
ATOM     12  H   UNL     1      11.091 -47.914 -23.704  1.00  0.00     0.188 HD
BRANCH   9  13
ATOM     13  C   UNL     1      12.263 -45.662 -24.602  1.00  0.00     0.005 A 
ATOM     14  C   UNL     1      12.968 -44.723 -25.368  1.00  0.00     0.049 A 
ATOM     15  C   UNL     1      11.189 -45.211 -23.822  1.00  0.00     0.049 A 
ATOM     16  C   UNL     1      12.598 -43.380 -25.352  1.00  0.00     0.126 A 
ATOM     17  C   UNL     1      10.838 -43.862 -23.821  1.00  0.00     0.126 A 
ATOM     18  C   UNL     1      11.535 -42.936 -24.582  1.00  0.00     0.078 A 
ATOM     19  F   UNL     1      13.284 -42.501 -26.095  1.00  0.00    -0.207 F 
ATOM     20  F   UNL     1       9.809 -43.452 -23.067  1.00  0.00    -0.207 F 
ENDBRANCH   9  13
BRANCH  11  21
ATOM     21  C   UNL     1      14.997 -49.596 -24.695  1.00  0.00     0.026 A 
ATOM     22  C   UNL     1      15.437 -49.417 -23.372  1.00  0.00     0.010 A 
ATOM     23  C   UNL     1      15.891 -50.151 -25.633  1.00  0.00     0.166 A 
ATOM     24  C   UNL     1      16.727 -49.782 -22.994  1.00  0.00     0.004 A 
ATOM     25  C   UNL     1      17.212 -50.484 -25.264  1.00  0.00     0.161 A 
ATOM     26  C   UNL     1      17.610 -50.311 -23.935  1.00  0.00     0.050 A 
BRANCH  23  27
ATOM     27  O   UNL     1      15.421 -50.267 -26.922  1.00  0.00    -0.492 OA
ATOM     28  C   UNL     1      15.886 -49.243 -27.801  1.00  0.00     0.278 C 
ENDBRANCH  23  27
BRANCH  25  29
ATOM     29  O   UNL     1      18.037 -50.951 -26.254  1.00  0.00    -0.493 OA
ATOM     30  C   UNL     1      18.579 -52.256 -26.103  1.00  0.00     0.278 C 
ENDBRANCH  25  29
ENDBRANCH  11  21
ENDBRANCH   1   7
BRANCH   4  31
ATOM     31  S   UNL     1      10.531 -54.338 -21.591  1.00  0.00     0.238 S 
ATOM     32  O   UNL     1      11.317 -55.438 -22.097  1.00  0.00    -0.207 OA
ATOM     33  O   UNL     1       9.088 -54.323 -21.641  1.00  0.00    -0.207 OA
BRANCH  31  34
ATOM     34  N   UNL     1      10.931 -54.115 -19.969  1.00  0.00    -0.225 NA
ATOM     35  H   UNL     1      11.928 -53.901 -19.904  1.00  0.00     0.137 HD
ATOM     36  H   UNL     1      10.673 -54.906 -19.381  1.00  0.00     0.137 HD
ENDBRANCH  31  34
ENDBRANCH   4  31
TORSDOF 7
ENDMDL
MODEL 5
REMARK VINA RESULT:    -8.311      4.721      7.461
REMARK INTER + INTRA:         -12.450
REMARK INTER:                 -10.963
REMARK INTRA:                  -1.487
REMARK UNBOUND:                -0.981
REMARK SMILES COc1cccc([C@@H]2C=C(c3cc(F)cc(F)c3)NN2c2ccc(S(N)(=O)=O)cc2)c1OC
REMARK SMILES IDX 21 1 22 2 23 3 24 4 29 5 30 6 20 7 19 8 10 9 9 10 8 11 11 13
REMARK SMILES IDX 12 14 18 15 13 16 16 17 15 18 14 19 17 20 7 21 6 22 31 23
REMARK SMILES IDX 5 24 3 25 4 26 32 27 33 28 2 29 1 30 25 31 27 32 28 33 26 34
REMARK H PARENT 19 12 26 35 26 36
ROOT
ATOM      1  C   UNL     1      17.167 -51.007 -25.203  1.00  0.00     0.058 A 
ATOM      2  C   UNL     1      17.859 -49.975 -24.546  1.00  0.00     0.029 A 
ATOM      3  C   UNL     1      19.255 -49.957 -24.473  1.00  0.00     0.024 A 
ATOM      4  C   UNL     1      19.988 -50.988 -25.058  1.00  0.00     0.082 A 
ATOM      5  C   UNL     1      19.339 -52.021 -25.729  1.00  0.00     0.024 A 
ATOM      6  C   UNL     1      17.941 -52.025 -25.792  1.00  0.00     0.029 A 
ENDROOT
BRANCH   1   7
ATOM      7  N   UNL     1      15.776 -51.045 -25.282  1.00  0.00    -0.276 N 
ATOM      8  N   UNL     1      14.929 -51.568 -24.316  1.00  0.00    -0.297 N 
ATOM      9  C   UNL     1      13.633 -51.638 -24.817  1.00  0.00     0.060 C 
ATOM     10  C   UNL     1      13.589 -51.113 -26.052  1.00  0.00     0.033 C 
ATOM     11  C   UNL     1      14.974 -50.658 -26.483  1.00  0.00     0.165 C 
ATOM     12  H   UNL     1      15.219 -52.467 -23.925  1.00  0.00     0.188 HD
BRANCH   9  13
ATOM     13  C   UNL     1      12.539 -52.237 -24.048  1.00  0.00     0.005 A 
ATOM     14  C   UNL     1      12.118 -53.547 -24.318  1.00  0.00     0.049 A 
ATOM     15  C   UNL     1      11.877 -51.520 -23.041  1.00  0.00     0.049 A 
ATOM     16  C   UNL     1      11.070 -54.114 -23.594  1.00  0.00     0.126 A 
ATOM     17  C   UNL     1      10.831 -52.108 -22.331  1.00  0.00     0.126 A 
ATOM     18  C   UNL     1      10.418 -53.404 -22.598  1.00  0.00     0.078 A 
ATOM     19  F   UNL     1      10.687 -55.368 -23.867  1.00  0.00    -0.207 F 
ATOM     20  F   UNL     1      10.210 -51.404 -21.375  1.00  0.00    -0.207 F 
ENDBRANCH   9  13
BRANCH  11  21
ATOM     21  C   UNL     1      15.006 -49.167 -26.778  1.00  0.00     0.026 A 
ATOM     22  C   UNL     1      14.390 -48.247 -25.912  1.00  0.00     0.010 A 
ATOM     23  C   UNL     1      15.625 -48.681 -27.947  1.00  0.00     0.166 A 
ATOM     24  C   UNL     1      14.395 -46.884 -26.199  1.00  0.00     0.004 A 
ATOM     25  C   UNL     1      15.596 -47.306 -28.263  1.00  0.00     0.161 A 
ATOM     26  C   UNL     1      14.992 -46.417 -27.369  1.00  0.00     0.050 A 
BRANCH  23  27
ATOM     27  O   UNL     1      16.176 -49.630 -28.779  1.00  0.00    -0.492 OA
ATOM     28  C   UNL     1      17.599 -49.711 -28.698  1.00  0.00     0.278 C 
ENDBRANCH  23  27
BRANCH  25  29
ATOM     29  O   UNL     1      16.159 -46.928 -29.455  1.00  0.00    -0.493 OA
ATOM     30  C   UNL     1      15.294 -46.756 -30.569  1.00  0.00     0.278 C 
ENDBRANCH  25  29
ENDBRANCH  11  21
ENDBRANCH   1   7
BRANCH   4  31
ATOM     31  S   UNL     1      21.757 -50.967 -24.959  1.00  0.00     0.238 S 
ATOM     32  O   UNL     1      22.139 -50.305 -23.735  1.00  0.00    -0.207 OA
ATOM     33  O   UNL     1      22.286 -50.587 -26.248  1.00  0.00    -0.207 OA
BRANCH  31  34
ATOM     34  N   UNL     1      22.102 -52.608 -24.793  1.00  0.00    -0.225 NA
ATOM     35  H   UNL     1      21.497 -53.136 -25.425  1.00  0.00     0.137 HD
ATOM     36  H   UNL     1      22.026 -52.938 -23.831  1.00  0.00     0.137 HD
ENDBRANCH  31  34
ENDBRANCH   4  31
TORSDOF 7
ENDMDL
MODEL 6
REMARK VINA RESULT:    -8.014      4.696      7.879
REMARK INTER + INTRA:         -12.041
REMARK INTER:                 -10.725
REMARK INTRA:                  -1.316
REMARK UNBOUND:                -0.981
REMARK SMILES COc1cccc([C@@H]2C=C(c3cc(F)cc(F)c3)NN2c2ccc(S(N)(=O)=O)cc2)c1OC
REMARK SMILES IDX 21 1 22 2 23 3 24 4 29 5 30 6 20 7 19 8 10 9 9 10 8 11 11 13
REMARK SMILES IDX 12 14 18 15 13 16 16 17 15 18 14 19 17 20 7 21 6 22 31 23
REMARK SMILES IDX 5 24 3 25 4 26 32 27 33 28 2 29 1 30 25 31 27 32 28 33 26 34
REMARK H PARENT 19 12 26 35 26 36
ROOT
ATOM      1  C   UNL     1      14.880 -50.008 -25.960  1.00  0.00     0.058 A 
ATOM      2  C   UNL     1      16.253 -50.209 -25.740  1.00  0.00     0.029 A 
ATOM      3  C   UNL     1      17.204 -49.935 -26.729  1.00  0.00     0.024 A 
ATOM      4  C   UNL     1      16.786 -49.457 -27.970  1.00  0.00     0.082 A 
ATOM      5  C   UNL     1      15.436 -49.233 -28.222  1.00  0.00     0.024 A 
ATOM      6  C   UNL     1      14.498 -49.513 -27.222  1.00  0.00     0.029 A 
ENDROOT
BRANCH   1   7
ATOM      7  N   UNL     1      13.918 -50.279 -24.989  1.00  0.00    -0.276 N 
ATOM      8  N   UNL     1      13.604 -51.538 -24.497  1.00  0.00    -0.297 N 
ATOM      9  C   UNL     1      12.459 -51.461 -23.709  1.00  0.00     0.060 C 
ATOM     10  C   UNL     1      12.053 -50.184 -23.611  1.00  0.00     0.033 C 
ATOM     11  C   UNL     1      12.966 -49.276 -24.420  1.00  0.00     0.165 C 
ATOM     12  H   UNL     1      13.512 -52.270 -25.203  1.00  0.00     0.188 HD
BRANCH   9  13
ATOM     13  C   UNL     1      11.839 -52.655 -23.129  1.00  0.00     0.005 A 
ATOM     14  C   UNL     1      11.350 -52.630 -21.815  1.00  0.00     0.049 A 
ATOM     15  C   UNL     1      11.731 -53.849 -23.856  1.00  0.00     0.049 A 
ATOM     16  C   UNL     1      10.769 -53.768 -21.258  1.00  0.00     0.126 A 
ATOM     17  C   UNL     1      11.146 -54.974 -23.277  1.00  0.00     0.126 A 
ATOM     18  C   UNL     1      10.662 -54.946 -21.979  1.00  0.00     0.078 A 
ATOM     19  F   UNL     1      10.306 -53.720 -20.001  1.00  0.00    -0.207 F 
ATOM     20  F   UNL     1      11.056 -56.106 -23.989  1.00  0.00    -0.207 F 
ENDBRANCH   9  13
BRANCH  11  21
ATOM     21  C   UNL     1      13.638 -48.233 -23.543  1.00  0.00     0.026 A 
ATOM     22  C   UNL     1      14.587 -48.606 -22.576  1.00  0.00     0.010 A 
ATOM     23  C   UNL     1      13.295 -46.871 -23.658  1.00  0.00     0.166 A 
ATOM     24  C   UNL     1      15.181 -47.652 -21.753  1.00  0.00     0.004 A 
ATOM     25  C   UNL     1      13.862 -45.907 -22.799  1.00  0.00     0.161 A 
ATOM     26  C   UNL     1      14.818 -46.310 -21.862  1.00  0.00     0.050 A 
BRANCH  23  27
ATOM     27  O   UNL     1      12.331 -46.567 -24.593  1.00  0.00    -0.492 OA
ATOM     28  C   UNL     1      11.021 -46.417 -24.045  1.00  0.00     0.278 C 
ENDBRANCH  23  27
BRANCH  25  29
ATOM     29  O   UNL     1      13.419 -44.615 -22.931  1.00  0.00    -0.493 OA
ATOM     30  C   UNL     1      13.369 -43.811 -21.760  1.00  0.00     0.278 C 
ENDBRANCH  25  29
ENDBRANCH  11  21
ENDBRANCH   1   7
BRANCH   4  31
ATOM     31  S   UNL     1      17.991 -49.118 -29.224  1.00  0.00     0.238 S 
ATOM     32  O   UNL     1      18.665 -47.886 -28.889  1.00  0.00    -0.207 OA
ATOM     33  O   UNL     1      17.389 -49.349 -30.516  1.00  0.00    -0.207 OA
BRANCH  31  34
ATOM     34  N   UNL     1      19.078 -50.385 -28.995  1.00  0.00    -0.225 NA
ATOM     35  H   UNL     1      18.554 -51.259 -28.936  1.00  0.00     0.137 HD
ATOM     36  H   UNL     1      19.686 -50.250 -28.188  1.00  0.00     0.137 HD
ENDBRANCH  31  34
ENDBRANCH   4  31
TORSDOF 7
ENDMDL
MODEL 7
REMARK VINA RESULT:    -7.924      4.557      7.078
REMARK INTER + INTRA:         -11.917
REMARK INTER:                 -10.578
REMARK INTRA:                  -1.339
REMARK UNBOUND:                -0.981
REMARK SMILES COc1cccc([C@@H]2C=C(c3cc(F)cc(F)c3)NN2c2ccc(S(N)(=O)=O)cc2)c1OC
REMARK SMILES IDX 21 1 22 2 23 3 24 4 29 5 30 6 20 7 19 8 10 9 9 10 8 11 11 13
REMARK SMILES IDX 12 14 18 15 13 16 16 17 15 18 14 19 17 20 7 21 6 22 31 23
REMARK SMILES IDX 5 24 3 25 4 26 32 27 33 28 2 29 1 30 25 31 27 32 28 33 26 34
REMARK H PARENT 19 12 26 35 26 36
ROOT
ATOM      1  C   UNL     1      16.657 -50.278 -22.907  1.00  0.00     0.058 A 
ATOM      2  C   UNL     1      17.276 -49.060 -23.236  1.00  0.00     0.029 A 
ATOM      3  C   UNL     1      18.469 -48.654 -22.629  1.00  0.00     0.024 A 
ATOM      4  C   UNL     1      19.062 -49.469 -21.667  1.00  0.00     0.082 A 
ATOM      5  C   UNL     1      18.487 -50.689 -21.324  1.00  0.00     0.024 A 
ATOM      6  C   UNL     1      17.293 -51.080 -21.940  1.00  0.00     0.029 A 
ENDROOT
BRANCH   1   7
ATOM      7  N   UNL     1      15.466 -50.697 -23.498  1.00  0.00    -0.276 N 
ATOM      8  N   UNL     1      14.260 -50.876 -22.837  1.00  0.00    -0.297 N 
ATOM      9  C   UNL     1      13.351 -51.505 -23.683  1.00  0.00     0.060 C 
ATOM     10  C   UNL     1      13.897 -51.679 -24.898  1.00  0.00     0.033 C 
ATOM     11  C   UNL     1      15.327 -51.160 -24.913  1.00  0.00     0.165 C 
ATOM     12  H   UNL     1      14.323 -51.365 -21.942  1.00  0.00     0.188 HD
BRANCH   9  13
ATOM     13  C   UNL     1      12.018 -51.905 -23.224  1.00  0.00     0.005 A 
ATOM     14  C   UNL     1      11.566 -53.217 -23.424  1.00  0.00     0.049 A 
ATOM     15  C   UNL     1      11.159 -50.994 -22.594  1.00  0.00     0.049 A 
ATOM     16  C   UNL     1      10.295 -53.597 -22.998  1.00  0.00     0.126 A 
ATOM     17  C   UNL     1       9.891 -51.397 -22.177  1.00  0.00     0.126 A 
ATOM     18  C   UNL     1       9.447 -52.696 -22.373  1.00  0.00     0.078 A 
ATOM     19  F   UNL     1       9.885 -54.857 -23.196  1.00  0.00    -0.207 F 
ATOM     20  F   UNL     1       9.084 -50.510 -21.580  1.00  0.00    -0.207 F 
ENDBRANCH   9  13
BRANCH  11  21
ATOM     21  C   UNL     1      15.507 -50.049 -25.934  1.00  0.00     0.026 A 
ATOM     22  C   UNL     1      14.585 -48.992 -26.021  1.00  0.00     0.010 A 
ATOM     23  C   UNL     1      16.587 -50.076 -26.839  1.00  0.00     0.166 A 
ATOM     24  C   UNL     1      14.735 -47.990 -26.977  1.00  0.00     0.004 A 
ATOM     25  C   UNL     1      16.720 -49.086 -27.836  1.00  0.00     0.161 A 
ATOM     26  C   UNL     1      15.796 -48.038 -27.881  1.00  0.00     0.050 A 
BRANCH  23  27
ATOM     27  O   UNL     1      17.437 -51.154 -26.736  1.00  0.00    -0.492 OA
ATOM     28  C   UNL     1      18.668 -50.858 -26.076  1.00  0.00     0.278 C 
ENDBRANCH  23  27
BRANCH  25  29
ATOM     29  O   UNL     1      17.759 -49.228 -28.721  1.00  0.00    -0.493 OA
ATOM     30  C   UNL     1      17.466 -49.765 -30.004  1.00  0.00     0.278 C 
ENDBRANCH  25  29
ENDBRANCH  11  21
ENDBRANCH   1   7
BRANCH   4  31
ATOM     31  S   UNL     1      20.570 -48.951 -20.893  1.00  0.00     0.238 S 
ATOM     32  O   UNL     1      20.546 -49.376 -19.514  1.00  0.00    -0.207 OA
ATOM     33  O   UNL     1      20.842 -47.587 -21.283  1.00  0.00    -0.207 OA
BRANCH  31  34
ATOM     34  N   UNL     1      21.705 -49.892 -21.709  1.00  0.00    -0.225 NA
ATOM     35  H   UNL     1      22.618 -49.756 -21.272  1.00  0.00     0.137 HD
ATOM     36  H   UNL     1      21.731 -49.709 -22.711  1.00  0.00     0.137 HD
ENDBRANCH  31  34
ENDBRANCH   4  31
TORSDOF 7
ENDMDL
MODEL 8
REMARK VINA RESULT:    -7.908      4.452      7.645
REMARK INTER + INTRA:         -11.894
REMARK INTER:                 -10.551
REMARK INTRA:                  -1.343
REMARK UNBOUND:                -0.981
REMARK SMILES COc1cccc([C@@H]2C=C(c3cc(F)cc(F)c3)NN2c2ccc(S(N)(=O)=O)cc2)c1OC
REMARK SMILES IDX 21 1 22 2 23 3 24 4 29 5 30 6 20 7 19 8 10 9 9 10 8 11 11 13
REMARK SMILES IDX 12 14 18 15 13 16 16 17 15 18 14 19 17 20 7 21 6 22 31 23
REMARK SMILES IDX 5 24 3 25 4 26 32 27 33 28 2 29 1 30 25 31 27 32 28 33 26 34
REMARK H PARENT 19 12 26 35 26 36
ROOT
ATOM      1  C   UNL     1      16.608 -49.601 -23.883  1.00  0.00     0.058 A 
ATOM      2  C   UNL     1      17.315 -50.726 -23.428  1.00  0.00     0.029 A 
ATOM      3  C   UNL     1      17.985 -50.726 -22.200  1.00  0.00     0.024 A 
ATOM      4  C   UNL     1      17.961 -49.583 -21.404  1.00  0.00     0.082 A 
ATOM      5  C   UNL     1      17.260 -48.452 -21.814  1.00  0.00     0.024 A 
ATOM      6  C   UNL     1      16.596 -48.468 -23.046  1.00  0.00     0.029 A 
ENDROOT
BRANCH   1   7
ATOM      7  N   UNL     1      15.938 -49.580 -25.106  1.00  0.00    -0.276 N 
ATOM      8  N   UNL     1      16.544 -49.538 -26.354  1.00  0.00    -0.297 N 
ATOM      9  C   UNL     1      15.583 -49.308 -27.333  1.00  0.00     0.060 C 
ATOM     10  C   UNL     1      14.360 -49.268 -26.777  1.00  0.00     0.033 C 
ATOM     11  C   UNL     1      14.458 -49.455 -25.271  1.00  0.00     0.165 C 
ATOM     12  H   UNL     1      17.318 -48.877 -26.439  1.00  0.00     0.188 HD
BRANCH   9  13
ATOM     13  C   UNL     1      15.943 -49.125 -28.741  1.00  0.00     0.005 A 
ATOM     14  C   UNL     1      14.997 -48.639 -29.656  1.00  0.00     0.049 A 
ATOM     15  C   UNL     1      17.225 -49.439 -29.214  1.00  0.00     0.049 A 
ATOM     16  C   UNL     1      15.335 -48.474 -30.998  1.00  0.00     0.126 A 
ATOM     17  C   UNL     1      17.539 -49.266 -30.561  1.00  0.00     0.126 A 
ATOM     18  C   UNL     1      16.603 -48.784 -31.463  1.00  0.00     0.078 A 
ATOM     19  F   UNL     1      14.416 -48.006 -31.853  1.00  0.00    -0.207 F 
ATOM     20  F   UNL     1      18.769 -49.576 -30.993  1.00  0.00    -0.207 F 
ENDBRANCH   9  13
BRANCH  11  21
ATOM     21  C   UNL     1      13.691 -50.683 -24.809  1.00  0.00     0.026 A 
ATOM     22  C   UNL     1      13.574 -51.814 -25.635  1.00  0.00     0.010 A 
ATOM     23  C   UNL     1      13.051 -50.697 -23.554  1.00  0.00     0.166 A 
ATOM     24  C   UNL     1      12.846 -52.927 -25.222  1.00  0.00     0.004 A 
ATOM     25  C   UNL     1      12.278 -51.806 -23.148  1.00  0.00     0.161 A 
ATOM     26  C   UNL     1      12.200 -52.922 -23.986  1.00  0.00     0.050 A 
BRANCH  23  27
ATOM     27  O   UNL     1      13.165 -49.548 -22.803  1.00  0.00    -0.492 OA
ATOM     28  C   UNL     1      12.047 -48.668 -22.922  1.00  0.00     0.278 C 
ENDBRANCH  23  27
BRANCH  25  29
ATOM     29  O   UNL     1      11.630 -51.708 -21.943  1.00  0.00    -0.493 OA
ATOM     30  C   UNL     1      10.627 -52.672 -21.652  1.00  0.00     0.278 C 
ENDBRANCH  25  29
ENDBRANCH  11  21
ENDBRANCH   1   7
BRANCH   4  31
ATOM     31  S   UNL     1      18.816 -49.582 -19.852  1.00  0.00     0.238 S 
ATOM     32  O   UNL     1      18.217 -48.581 -19.001  1.00  0.00    -0.207 OA
ATOM     33  O   UNL     1      20.236 -49.638 -20.108  1.00  0.00    -0.207 OA
BRANCH  31  34
ATOM     34  N   UNL     1      18.403 -51.098 -19.243  1.00  0.00    -0.225 NA
ATOM     35  H   UNL     1      19.066 -51.346 -18.507  1.00  0.00     0.137 HD
ATOM     36  H   UNL     1      18.347 -51.817 -19.963  1.00  0.00     0.137 HD
ENDBRANCH  31  34
ENDBRANCH   4  31
TORSDOF 7
ENDMDL
MODEL 9
REMARK VINA RESULT:    -7.567      2.529      3.240
REMARK INTER + INTRA:         -11.424
REMARK INTER:                 -10.261
REMARK INTRA:                  -1.162
REMARK UNBOUND:                -0.981
REMARK SMILES COc1cccc([C@@H]2C=C(c3cc(F)cc(F)c3)NN2c2ccc(S(N)(=O)=O)cc2)c1OC
REMARK SMILES IDX 21 1 22 2 23 3 24 4 29 5 30 6 20 7 19 8 10 9 9 10 8 11 11 13
REMARK SMILES IDX 12 14 18 15 13 16 16 17 15 18 14 19 17 20 7 21 6 22 31 23
REMARK SMILES IDX 5 24 3 25 4 26 32 27 33 28 2 29 1 30 25 31 27 32 28 33 26 34
REMARK H PARENT 19 12 26 35 26 36
ROOT
ATOM      1  C   UNL     1      12.018 -49.469 -23.056  1.00  0.00     0.058 A 
ATOM      2  C   UNL     1      10.793 -49.612 -22.384  1.00  0.00     0.029 A 
ATOM      3  C   UNL     1      10.267 -50.870 -22.074  1.00  0.00     0.024 A 
ATOM      4  C   UNL     1      10.968 -52.017 -22.442  1.00  0.00     0.082 A 
ATOM      5  C   UNL     1      12.192 -51.916 -23.097  1.00  0.00     0.024 A 
ATOM      6  C   UNL     1      12.703 -50.649 -23.401  1.00  0.00     0.029 A 
ENDROOT
BRANCH   1   7
ATOM      7  N   UNL     1      12.555 -48.223 -23.377  1.00  0.00    -0.276 N 
ATOM      8  N   UNL     1      11.867 -47.018 -23.348  1.00  0.00    -0.297 N 
ATOM      9  C   UNL     1      12.641 -46.022 -23.934  1.00  0.00     0.060 C 
ATOM     10  C   UNL     1      13.841 -46.516 -24.281  1.00  0.00     0.033 C 
ATOM     11  C   UNL     1      13.920 -47.997 -23.944  1.00  0.00     0.165 C 
ATOM     12  H   UNL     1      10.932 -47.042 -23.759  1.00  0.00     0.188 HD
BRANCH   9  13
ATOM     13  C   UNL     1      12.134 -44.661 -24.125  1.00  0.00     0.005 A 
ATOM     14  C   UNL     1      12.507 -43.919 -25.255  1.00  0.00     0.049 A 
ATOM     15  C   UNL     1      11.281 -44.061 -23.188  1.00  0.00     0.049 A 
ATOM     16  C   UNL     1      12.034 -42.621 -25.434  1.00  0.00     0.126 A 
ATOM     17  C   UNL     1      10.821 -42.760 -23.388  1.00  0.00     0.126 A 
ATOM     18  C   UNL     1      11.190 -42.029 -24.507  1.00  0.00     0.078 A 
ATOM     19  F   UNL     1      12.401 -41.932 -26.522  1.00  0.00    -0.207 F 
ATOM     20  F   UNL     1      10.009 -42.204 -22.478  1.00  0.00    -0.207 F 
ENDBRANCH   9  13
BRANCH  11  21
ATOM     21  C   UNL     1      15.040 -48.288 -22.960  1.00  0.00     0.026 A 
ATOM     22  C   UNL     1      15.011 -47.760 -21.657  1.00  0.00     0.010 A 
ATOM     23  C   UNL     1      16.151 -49.065 -23.346  1.00  0.00     0.166 A 
ATOM     24  C   UNL     1      16.053 -48.003 -20.765  1.00  0.00     0.004 A 
ATOM     25  C   UNL     1      17.228 -49.279 -22.461  1.00  0.00     0.161 A 
ATOM     26  C   UNL     1      17.156 -48.757 -21.166  1.00  0.00     0.050 A 
BRANCH  23  27
ATOM     27  O   UNL     1      16.146 -49.523 -24.645  1.00  0.00    -0.492 OA
ATOM     28  C   UNL     1      15.980 -50.936 -24.759  1.00  0.00     0.278 C 
ENDBRANCH  23  27
BRANCH  25  29
ATOM     29  O   UNL     1      18.300 -49.986 -22.941  1.00  0.00    -0.493 OA
ATOM     30  C   UNL     1      19.514 -49.279 -23.159  1.00  0.00     0.278 C 
ENDBRANCH  25  29
ENDBRANCH  11  21
ENDBRANCH   1   7
BRANCH   4  31
ATOM     31  S   UNL     1      10.298 -53.611 -22.055  1.00  0.00     0.238 S 
ATOM     32  O   UNL     1      11.025 -54.608 -22.805  1.00  0.00    -0.207 OA
ATOM     33  O   UNL     1       8.857 -53.522 -22.071  1.00  0.00    -0.207 OA
BRANCH  31  34
ATOM     34  N   UNL     1      10.726 -53.768 -20.432  1.00  0.00    -0.225 NA
ATOM     35  H   UNL     1      11.084 -52.871 -20.100  1.00  0.00     0.137 HD
ATOM     36  H   UNL     1      11.385 -54.527 -20.263  1.00  0.00     0.137 HD
ENDBRANCH  31  34
ENDBRANCH   4  31
TORSDOF 7
ENDMDL
