MODEL 1
REMARK VINA RESULT:   -11.355      0.000      0.000
REMARK INTER + INTRA:         -16.144
REMARK INTER:                 -15.670
REMARK INTRA:                  -0.474
REMARK UNBOUND:                -0.474
REMARK SMILES COc1cc2c(cc1OC)C(O)=C(C[C@H]1CC[N@H+](Cc3ccccc3)CC1)C2
REMARK SMILES IDX 14 1 13 2 11 3 6 4 28 5 7 6 5 7 8 8 4 9 3 10 12 11 9 13
REMARK SMILES IDX 10 14 2 15 1 16 15 17 27 18 16 19 26 20 17 21 18 22 19 24
REMARK SMILES IDX 20 25 21 26 25 27 22 28 24 29 23 30
REMARK H PARENT 12 12 18 23
ROOT
ATOM      1  C   UNL     1      10.148 -55.861 -22.371  1.00  0.00     0.039 C 
ENDROOT
BRANCH   1   2
ATOM      2  C   UNL     1      10.838 -54.624 -22.866  1.00  0.00    -0.023 C 
ATOM      3  C   UNL     1      10.894 -53.378 -22.363  1.00  0.00     0.122 C 
ATOM      4  C   UNL     1      11.679 -52.525 -23.247  1.00  0.00     0.024 A 
ATOM      5  C   UNL     1      11.595 -54.704 -24.184  1.00  0.00     0.071 C 
ATOM      6  C   UNL     1      12.038 -51.193 -23.165  1.00  0.00     0.062 A 
ATOM      7  C   UNL     1      12.096 -53.298 -24.333  1.00  0.00    -0.029 A 
ATOM      8  C   UNL     1      12.826 -50.631 -24.183  1.00  0.00     0.161 A 
ATOM      9  C   UNL     1      12.857 -52.760 -25.362  1.00  0.00     0.055 A 
ATOM     10  C   UNL     1      13.220 -51.405 -25.302  1.00  0.00     0.161 A 
BRANCH   3  11
ATOM     11  O   UNL     1      10.303 -52.907 -21.231  1.00  0.00    -0.507 OA
ATOM     12  H   UNL     1       9.700 -53.600 -20.909  1.00  0.00     0.293 HD
ENDBRANCH   3  11
BRANCH   8  13
ATOM     13  O   UNL     1      13.093 -49.300 -23.960  1.00  0.00    -0.493 OA
ATOM     14  C   UNL     1      12.062 -48.524 -23.362  1.00  0.00     0.278 C 
ENDBRANCH   8  13
BRANCH  10  15
ATOM     15  O   UNL     1      13.928 -50.777 -26.291  1.00  0.00    -0.493 OA
ATOM     16  C   UNL     1      15.335 -50.647 -26.133  1.00  0.00     0.278 C 
ENDBRANCH  10  15
ENDBRANCH   1   2
BRANCH   1  17
ATOM     17  C   UNL     1      10.532 -57.200 -23.030  1.00  0.00     0.004 C 
ATOM     18  C   UNL     1      11.490 -57.992 -22.128  1.00  0.00     0.065 C 
ATOM     19  C   UNL     1       9.300 -58.068 -23.329  1.00  0.00     0.065 C 
ATOM     20  C   UNL     1      11.889 -59.317 -22.766  1.00  0.00     0.262 C 
ATOM     21  C   UNL     1       9.702 -59.378 -23.987  1.00  0.00     0.262 C 
ATOM     22  N   UNL     1      10.653 -60.125 -23.085  1.00  0.00    -0.331 N 
ATOM     23  H   UNL     1      10.168 -60.296 -22.195  1.00  0.00     0.348 HD
BRANCH  22  24
ATOM     24  C   UNL     1      10.981 -61.492 -23.650  1.00  0.00     0.299 C 
BRANCH  24  25
ATOM     25  C   UNL     1       9.760 -62.333 -23.906  1.00  0.00     0.006 A 
ATOM     26  C   UNL     1       9.150 -62.335 -25.170  1.00  0.00     0.009 A 
ATOM     27  C   UNL     1       9.203 -63.112 -22.881  1.00  0.00     0.009 A 
ATOM     28  C   UNL     1       8.002 -63.095 -25.399  1.00  0.00     0.001 A 
ATOM     29  C   UNL     1       8.055 -63.871 -23.115  1.00  0.00     0.001 A 
ATOM     30  C   UNL     1       7.455 -63.860 -24.372  1.00  0.00     0.000 A 
ENDBRANCH  24  25
ENDBRANCH  22  24
ENDBRANCH   1  17
TORSDOF 7
ENDMDL
MODEL 2
REMARK VINA RESULT:   -11.150      1.080      2.190
REMARK INTER + INTRA:         -15.861
REMARK INTER:                 -15.594
REMARK INTRA:                  -0.267
REMARK UNBOUND:                -0.474
REMARK SMILES COc1cc2c(cc1OC)C(O)=C(C[C@H]1CC[N@H+](Cc3ccccc3)CC1)C2
REMARK SMILES IDX 14 1 13 2 11 3 6 4 28 5 7 6 5 7 8 8 4 9 3 10 12 11 9 13
REMARK SMILES IDX 10 14 2 15 1 16 15 17 27 18 16 19 26 20 17 21 18 22 19 24
REMARK SMILES IDX 20 25 21 26 25 27 22 28 24 29 23 30
REMARK H PARENT 12 12 18 23
ROOT
ATOM      1  C   UNL     1      10.078 -55.687 -22.134  1.00  0.00     0.039 C 
ENDROOT
BRANCH   1   2
ATOM      2  C   UNL     1      10.729 -54.420 -22.605  1.00  0.00    -0.023 C 
ATOM      3  C   UNL     1      11.406 -54.136 -23.732  1.00  0.00     0.122 C 
ATOM      4  C   UNL     1      11.864 -52.753 -23.694  1.00  0.00     0.024 A 
ATOM      5  C   UNL     1      10.694 -53.211 -21.682  1.00  0.00     0.071 C 
ATOM      6  C   UNL     1      12.573 -51.991 -24.604  1.00  0.00     0.062 A 
ATOM      7  C   UNL     1      11.454 -52.195 -22.482  1.00  0.00    -0.029 A 
ATOM      8  C   UNL     1      12.871 -50.653 -24.295  1.00  0.00     0.161 A 
ATOM      9  C   UNL     1      11.755 -50.882 -22.144  1.00  0.00     0.055 A 
ATOM     10  C   UNL     1      12.485 -50.098 -23.050  1.00  0.00     0.161 A 
BRANCH   3  11
ATOM     11  O   UNL     1      11.688 -54.970 -24.769  1.00  0.00    -0.507 OA
ATOM     12  H   UNL     1      12.604 -55.278 -24.653  1.00  0.00     0.293 HD
ENDBRANCH   3  11
BRANCH   8  13
ATOM     13  O   UNL     1      13.583 -50.034 -25.294  1.00  0.00    -0.493 OA
ATOM     14  C   UNL     1      14.109 -50.861 -26.324  1.00  0.00     0.278 C 
ENDBRANCH   8  13
BRANCH  10  15
ATOM     15  O   UNL     1      12.868 -48.809 -22.784  1.00  0.00    -0.493 OA
ATOM     16  C   UNL     1      11.853 -47.833 -22.588  1.00  0.00     0.278 C 
ENDBRANCH  10  15
ENDBRANCH   1   2
BRANCH   1  17
ATOM     17  C   UNL     1      10.509 -57.002 -22.813  1.00  0.00     0.004 C 
ATOM     18  C   UNL     1      11.425 -57.815 -21.886  1.00  0.00     0.065 C 
ATOM     19  C   UNL     1       9.302 -57.870 -23.204  1.00  0.00     0.065 C 
ATOM     20  C   UNL     1      11.870 -59.116 -22.543  1.00  0.00     0.262 C 
ATOM     21  C   UNL     1       9.751 -59.155 -23.880  1.00  0.00     0.262 C 
ATOM     22  N   UNL     1      10.660 -59.923 -22.952  1.00  0.00    -0.331 N 
ATOM     23  H   UNL     1      10.131 -60.126 -22.095  1.00  0.00     0.348 HD
BRANCH  22  24
ATOM     24  C   UNL     1      11.030 -61.269 -23.541  1.00  0.00     0.299 C 
BRANCH  24  25
ATOM     25  C   UNL     1       9.858 -62.203 -23.660  1.00  0.00     0.006 A 
ATOM     26  C   UNL     1       9.112 -62.261 -24.849  1.00  0.00     0.009 A 
ATOM     27  C   UNL     1       9.480 -63.017 -22.581  1.00  0.00     0.009 A 
ATOM     28  C   UNL     1       8.008 -63.108 -24.949  1.00  0.00     0.001 A 
ATOM     29  C   UNL     1       8.375 -63.864 -22.687  1.00  0.00     0.001 A 
ATOM     30  C   UNL     1       7.640 -63.907 -23.869  1.00  0.00     0.000 A 
ENDBRANCH  24  25
ENDBRANCH  22  24
ENDBRANCH   1  17
TORSDOF 7
ENDMDL
MODEL 3
REMARK VINA RESULT:   -10.176      2.228      3.484
REMARK INTER + INTRA:         -14.518
REMARK INTER:                 -14.284
REMARK INTRA:                  -0.234
REMARK UNBOUND:                -0.474
REMARK SMILES COc1cc2c(cc1OC)C(O)=C(C[C@H]1CC[N@H+](Cc3ccccc3)CC1)C2
REMARK SMILES IDX 14 1 13 2 11 3 6 4 28 5 7 6 5 7 8 8 4 9 3 10 12 11 9 13
REMARK SMILES IDX 10 14 2 15 1 16 15 17 27 18 16 19 26 20 17 21 18 22 19 24
REMARK SMILES IDX 20 25 21 26 25 27 22 28 24 29 23 30
REMARK H PARENT 12 12 18 23
ROOT
ATOM      1  C   UNL     1       9.955 -53.082 -21.994  1.00  0.00     0.039 C 
ENDROOT
BRANCH   1   2
ATOM      2  C   UNL     1      10.482 -51.713 -22.310  1.00  0.00    -0.023 C 
ATOM      3  C   UNL     1       9.941 -50.494 -22.142  1.00  0.00     0.122 C 
ATOM      4  C   UNL     1      10.857 -49.476 -22.642  1.00  0.00     0.024 A 
ATOM      5  C   UNL     1      11.847 -51.607 -22.974  1.00  0.00     0.071 C 
ATOM      6  C   UNL     1      10.773 -48.097 -22.679  1.00  0.00     0.062 A 
ATOM      7  C   UNL     1      11.989 -50.123 -23.143  1.00  0.00    -0.029 A 
ATOM      8  C   UNL     1      11.837 -47.359 -23.223  1.00  0.00     0.161 A 
ATOM      9  C   UNL     1      13.044 -49.417 -23.705  1.00  0.00     0.055 A 
ATOM     10  C   UNL     1      12.970 -48.017 -23.764  1.00  0.00     0.161 A 
BRANCH   3  11
ATOM     11  O   UNL     1       8.719 -50.186 -21.628  1.00  0.00    -0.507 OA
ATOM     12  H   UNL     1       8.194 -51.007 -21.615  1.00  0.00     0.293 HD
ENDBRANCH   3  11
BRANCH   8  13
ATOM     13  O   UNL     1      11.600 -46.005 -23.193  1.00  0.00    -0.493 OA
ATOM     14  C   UNL     1      10.512 -45.554 -22.397  1.00  0.00     0.278 C 
ENDBRANCH   8  13
BRANCH  10  15
ATOM     15  O   UNL     1      13.939 -47.240 -24.340  1.00  0.00    -0.493 OA
ATOM     16  C   UNL     1      14.206 -47.414 -25.726  1.00  0.00     0.278 C 
ENDBRANCH  10  15
ENDBRANCH   1   2
BRANCH   1  17
ATOM     17  C   UNL     1      10.828 -54.289 -22.391  1.00  0.00     0.004 C 
ATOM     18  C   UNL     1      10.567 -55.477 -21.453  1.00  0.00     0.065 C 
ATOM     19  C   UNL     1      10.572 -54.734 -23.839  1.00  0.00     0.065 C 
ATOM     20  C   UNL     1      11.428 -56.679 -21.822  1.00  0.00     0.262 C 
ATOM     21  C   UNL     1      11.450 -55.917 -24.210  1.00  0.00     0.262 C 
ATOM     22  N   UNL     1      11.181 -57.061 -23.263  1.00  0.00    -0.331 N 
ATOM     23  H   UNL     1      10.187 -57.304 -23.343  1.00  0.00     0.348 HD
BRANCH  22  24
ATOM     24  C   UNL     1      11.948 -58.301 -23.675  1.00  0.00     0.299 C 
BRANCH  24  25
ATOM     25  C   UNL     1      11.290 -59.578 -23.227  1.00  0.00     0.006 A 
ATOM     26  C   UNL     1      10.573 -59.623 -22.020  1.00  0.00     0.009 A 
ATOM     27  C   UNL     1      11.398 -60.745 -23.998  1.00  0.00     0.009 A 
ATOM     28  C   UNL     1       9.985 -60.814 -21.593  1.00  0.00     0.001 A 
ATOM     29  C   UNL     1      10.808 -61.934 -23.565  1.00  0.00     0.001 A 
ATOM     30  C   UNL     1      10.105 -61.968 -22.363  1.00  0.00     0.000 A 
ENDBRANCH  24  25
ENDBRANCH  22  24
ENDBRANCH   1  17
TORSDOF 7
ENDMDL
MODEL 4
REMARK VINA RESULT:    -9.937      3.761     10.353
REMARK INTER + INTRA:         -14.187
REMARK INTER:                 -13.400
REMARK INTRA:                  -0.787
REMARK UNBOUND:                -0.474
REMARK SMILES COc1cc2c(cc1OC)C(O)=C(C[C@H]1CC[N@H+](Cc3ccccc3)CC1)C2
REMARK SMILES IDX 14 1 13 2 11 3 6 4 28 5 7 6 5 7 8 8 4 9 3 10 12 11 9 13
REMARK SMILES IDX 10 14 2 15 1 16 15 17 27 18 16 19 26 20 17 21 18 22 19 24
REMARK SMILES IDX 20 25 21 26 25 27 22 28 24 29 23 30
REMARK H PARENT 12 12 18 23
ROOT
ATOM      1  C   UNL     1      11.403 -57.258 -22.191  1.00  0.00     0.039 C 
ENDROOT
BRANCH   1   2
ATOM      2  C   UNL     1      10.835 -58.360 -23.035  1.00  0.00    -0.023 C 
ATOM      3  C   UNL     1      11.289 -58.940 -24.161  1.00  0.00     0.122 C 
ATOM      4  C   UNL     1      10.342 -59.955 -24.607  1.00  0.00     0.024 A 
ATOM      5  C   UNL     1       9.493 -58.952 -22.631  1.00  0.00     0.071 C 
ATOM      6  C   UNL     1      10.360 -60.824 -25.681  1.00  0.00     0.062 A 
ATOM      7  C   UNL     1       9.271 -59.969 -23.712  1.00  0.00    -0.029 A 
ATOM      8  C   UNL     1       9.292 -61.718 -25.859  1.00  0.00     0.161 A 
ATOM      9  C   UNL     1       8.193 -60.828 -23.877  1.00  0.00     0.055 A 
ATOM     10  C   UNL     1       8.187 -61.708 -24.971  1.00  0.00     0.161 A 
BRANCH   3  11
ATOM     11  O   UNL     1      12.424 -58.647 -24.851  1.00  0.00    -0.507 OA
ATOM     12  H   UNL     1      13.056 -58.258 -24.220  1.00  0.00     0.293 HD
ENDBRANCH   3  11
BRANCH   8  13
ATOM     13  O   UNL     1       9.453 -62.509 -26.972  1.00  0.00    -0.493 OA
ATOM     14  C   UNL     1       8.978 -61.992 -28.209  1.00  0.00     0.278 C 
ENDBRANCH   8  13
BRANCH  10  15
ATOM     15  O   UNL     1       7.148 -62.558 -25.241  1.00  0.00    -0.493 OA
ATOM     16  C   UNL     1       7.215 -63.885 -24.735  1.00  0.00     0.278 C 
ENDBRANCH  10  15
ENDBRANCH   1   2
BRANCH   1  17
ATOM     17  C   UNL     1      10.662 -55.907 -22.194  1.00  0.00     0.004 C 
ATOM     18  C   UNL     1      11.031 -55.084 -20.950  1.00  0.00     0.065 C 
ATOM     19  C   UNL     1      10.978 -55.078 -23.449  1.00  0.00     0.065 C 
ATOM     20  C   UNL     1      10.300 -53.747 -20.928  1.00  0.00     0.262 C 
ATOM     21  C   UNL     1      10.228 -53.756 -23.433  1.00  0.00     0.262 C 
ATOM     22  N   UNL     1      10.600 -52.979 -22.195  1.00  0.00    -0.331 N 
ATOM     23  H   UNL     1      11.616 -52.824 -22.218  1.00  0.00     0.348 HD
BRANCH  22  24
ATOM     24  C   UNL     1       9.968 -51.603 -22.204  1.00  0.00     0.299 C 
BRANCH  24  25
ATOM     25  C   UNL     1      10.937 -50.510 -22.567  1.00  0.00     0.006 A 
ATOM     26  C   UNL     1      10.506 -49.176 -22.650  1.00  0.00     0.009 A 
ATOM     27  C   UNL     1      12.278 -50.811 -22.847  1.00  0.00     0.009 A 
ATOM     28  C   UNL     1      11.399 -48.168 -23.014  1.00  0.00     0.001 A 
ATOM     29  C   UNL     1      13.168 -49.797 -23.209  1.00  0.00     0.001 A 
ATOM     30  C   UNL     1      12.727 -48.479 -23.294  1.00  0.00     0.000 A 
ENDBRANCH  24  25
ENDBRANCH  22  24
ENDBRANCH   1  17
TORSDOF 7
ENDMDL
MODEL 5
REMARK VINA RESULT:    -9.737      2.682      5.253
REMARK INTER + INTRA:         -13.912
REMARK INTER:                 -13.210
REMARK INTRA:                  -0.702
REMARK UNBOUND:                -0.474
REMARK SMILES COc1cc2c(cc1OC)C(O)=C(C[C@H]1CC[N@H+](Cc3ccccc3)CC1)C2
REMARK SMILES IDX 14 1 13 2 11 3 6 4 28 5 7 6 5 7 8 8 4 9 3 10 12 11 9 13
REMARK SMILES IDX 10 14 2 15 1 16 15 17 27 18 16 19 26 20 17 21 18 22 19 24
REMARK SMILES IDX 20 25 21 26 25 27 22 28 24 29 23 30
REMARK H PARENT 12 12 18 23
ROOT
ATOM      1  C   UNL     1      12.771 -51.508 -23.030  1.00  0.00     0.039 C 
ENDROOT
BRANCH   1   2
ATOM      2  C   UNL     1      12.468 -50.062 -23.292  1.00  0.00    -0.023 C 
ATOM      3  C   UNL     1      11.495 -49.260 -22.825  1.00  0.00     0.122 C 
ATOM      4  C   UNL     1      11.625 -47.934 -23.414  1.00  0.00     0.024 A 
ATOM      5  C   UNL     1      13.350 -49.313 -24.280  1.00  0.00     0.071 C 
ATOM      6  C   UNL     1      10.894 -46.773 -23.244  1.00  0.00     0.062 A 
ATOM      7  C   UNL     1      12.718 -47.953 -24.283  1.00  0.00    -0.029 A 
ATOM      8  C   UNL     1      11.265 -45.618 -23.953  1.00  0.00     0.161 A 
ATOM      9  C   UNL     1      13.092 -46.831 -25.011  1.00  0.00     0.055 A 
ATOM     10  C   UNL     1      12.352 -45.647 -24.862  1.00  0.00     0.161 A 
BRANCH   3  11
ATOM     11  O   UNL     1      10.490 -49.581 -21.964  1.00  0.00    -0.507 OA
ATOM     12  H   UNL     1       9.681 -49.145 -22.287  1.00  0.00     0.293 HD
ENDBRANCH   3  11
BRANCH   8  13
ATOM     13  O   UNL     1      10.440 -44.553 -23.682  1.00  0.00    -0.493 OA
ATOM     14  C   UNL     1      10.906 -43.594 -22.741  1.00  0.00     0.278 C 
ENDBRANCH   8  13
BRANCH  10  15
ATOM     15  O   UNL     1      12.618 -44.506 -25.571  1.00  0.00    -0.493 OA
ATOM     16  C   UNL     1      13.710 -44.517 -26.481  1.00  0.00     0.278 C 
ENDBRANCH  10  15
ENDBRANCH   1   2
BRANCH   1  17
ATOM     17  C   UNL     1      11.627 -52.521 -23.229  1.00  0.00     0.004 C 
ATOM     18  C   UNL     1      12.094 -53.701 -24.095  1.00  0.00     0.065 C 
ATOM     19  C   UNL     1      11.099 -53.065 -21.892  1.00  0.00     0.065 C 
ATOM     20  C   UNL     1      10.974 -54.711 -24.312  1.00  0.00     0.262 C 
ATOM     21  C   UNL     1       9.966 -54.053 -22.114  1.00  0.00     0.262 C 
ATOM     22  N   UNL     1      10.451 -55.191 -22.978  1.00  0.00    -0.331 N 
ATOM     23  H   UNL     1      11.237 -55.638 -22.491  1.00  0.00     0.348 HD
BRANCH  22  24
ATOM     24  C   UNL     1       9.387 -56.260 -23.121  1.00  0.00     0.299 C 
BRANCH  24  25
ATOM     25  C   UNL     1       9.852 -57.619 -22.673  1.00  0.00     0.006 A 
ATOM     26  C   UNL     1      11.061 -57.762 -21.974  1.00  0.00     0.009 A 
ATOM     27  C   UNL     1       9.094 -58.763 -22.963  1.00  0.00     0.009 A 
ATOM     28  C   UNL     1      11.504 -59.026 -21.583  1.00  0.00     0.001 A 
ATOM     29  C   UNL     1       9.542 -60.026 -22.569  1.00  0.00     0.001 A 
ATOM     30  C   UNL     1      10.746 -60.155 -21.881  1.00  0.00     0.000 A 
ENDBRANCH  24  25
ENDBRANCH  22  24
ENDBRANCH   1  17
TORSDOF 7
ENDMDL
MODEL 6
REMARK VINA RESULT:    -9.561      2.607      4.774
REMARK INTER + INTRA:         -13.668
REMARK INTER:                 -13.193
REMARK INTRA:                  -0.475
REMARK UNBOUND:                -0.474
REMARK SMILES COc1cc2c(cc1OC)C(O)=C(C[C@H]1CC[N@H+](Cc3ccccc3)CC1)C2
REMARK SMILES IDX 14 1 13 2 11 3 6 4 28 5 7 6 5 7 8 8 4 9 3 10 12 11 9 13
REMARK SMILES IDX 10 14 2 15 1 16 15 17 27 18 16 19 26 20 17 21 18 22 19 24
REMARK SMILES IDX 20 25 21 26 25 27 22 28 24 29 23 30
REMARK H PARENT 12 12 18 23
ROOT
ATOM      1  C   UNL     1       9.983 -51.815 -22.007  1.00  0.00     0.039 C 
ENDROOT
BRANCH   1   2
ATOM      2  C   UNL     1      10.691 -50.528 -22.310  1.00  0.00    -0.023 C 
ATOM      3  C   UNL     1      11.996 -50.254 -22.491  1.00  0.00     0.122 C 
ATOM      4  C   UNL     1      12.170 -48.828 -22.736  1.00  0.00     0.024 A 
ATOM      5  C   UNL     1       9.860 -49.257 -22.408  1.00  0.00     0.071 C 
ATOM      6  C   UNL     1      13.294 -48.067 -22.993  1.00  0.00     0.062 A 
ATOM      7  C   UNL     1      10.912 -48.224 -22.683  1.00  0.00    -0.029 A 
ATOM      8  C   UNL     1      13.155 -46.685 -23.203  1.00  0.00     0.161 A 
ATOM      9  C   UNL     1      10.750 -46.857 -22.866  1.00  0.00     0.055 A 
ATOM     10  C   UNL     1      11.883 -46.067 -23.114  1.00  0.00     0.161 A 
BRANCH   3  11
ATOM     11  O   UNL     1      13.046 -51.118 -22.431  1.00  0.00    -0.507 OA
ATOM     12  H   UNL     1      13.477 -51.112 -23.305  1.00  0.00     0.293 HD
ENDBRANCH   3  11
BRANCH   8  13
ATOM     13  O   UNL     1      14.361 -46.069 -23.440  1.00  0.00    -0.493 OA
ATOM     14  C   UNL     1      15.394 -46.278 -22.486  1.00  0.00     0.278 C 
ENDBRANCH   8  13
BRANCH  10  15
ATOM     15  O   UNL     1      11.827 -44.706 -23.261  1.00  0.00    -0.493 OA
ATOM     16  C   UNL     1      10.554 -44.074 -23.203  1.00  0.00     0.278 C 
ENDBRANCH  10  15
ENDBRANCH   1   2
BRANCH   1  17
ATOM     17  C   UNL     1      10.760 -53.125 -22.235  1.00  0.00     0.004 C 
ATOM     18  C   UNL     1      10.281 -54.215 -21.264  1.00  0.00     0.065 C 
ATOM     19  C   UNL     1      10.610 -53.642 -23.674  1.00  0.00     0.065 C 
ATOM     20  C   UNL     1      11.046 -55.518 -21.467  1.00  0.00     0.262 C 
ATOM     21  C   UNL     1      11.393 -54.928 -23.877  1.00  0.00     0.262 C 
ATOM     22  N   UNL     1      10.910 -55.973 -22.901  1.00  0.00    -0.331 N 
ATOM     23  H   UNL     1       9.909 -56.122 -23.076  1.00  0.00     0.348 HD
BRANCH  22  24
ATOM     24  C   UNL     1      11.582 -57.307 -23.154  1.00  0.00     0.299 C 
BRANCH  24  25
ATOM     25  C   UNL     1      10.729 -58.481 -22.756  1.00  0.00     0.006 A 
ATOM     26  C   UNL     1       9.550 -58.775 -23.460  1.00  0.00     0.009 A 
ATOM     27  C   UNL     1      11.088 -59.287 -21.665  1.00  0.00     0.009 A 
ATOM     28  C   UNL     1       8.746 -59.848 -23.073  1.00  0.00     0.001 A 
ATOM     29  C   UNL     1      10.280 -60.359 -21.282  1.00  0.00     0.001 A 
ATOM     30  C   UNL     1       9.110 -60.637 -21.985  1.00  0.00     0.000 A 
ENDBRANCH  24  25
ENDBRANCH  22  24
ENDBRANCH   1  17
TORSDOF 7
ENDMDL
MODEL 7
REMARK VINA RESULT:    -9.538      3.870     10.203
REMARK INTER + INTRA:         -13.637
REMARK INTER:                 -13.227
REMARK INTRA:                  -0.410
REMARK UNBOUND:                -0.474
REMARK SMILES COc1cc2c(cc1OC)C(O)=C(C[C@H]1CC[N@H+](Cc3ccccc3)CC1)C2
REMARK SMILES IDX 14 1 13 2 11 3 6 4 28 5 7 6 5 7 8 8 4 9 3 10 12 11 9 13
REMARK SMILES IDX 10 14 2 15 1 16 15 17 27 18 16 19 26 20 17 21 18 22 19 24
REMARK SMILES IDX 20 25 21 26 25 27 22 28 24 29 23 30
REMARK H PARENT 12 12 18 23
ROOT
ATOM      1  C   UNL     1      11.496 -57.858 -21.960  1.00  0.00     0.039 C 
ENDROOT
BRANCH   1   2
ATOM      2  C   UNL     1      10.834 -58.984 -22.698  1.00  0.00    -0.023 C 
ATOM      3  C   UNL     1      10.150 -60.054 -22.256  1.00  0.00     0.122 C 
ATOM      4  C   UNL     1       9.732 -60.873 -23.387  1.00  0.00     0.024 A 
ATOM      5  C   UNL     1      10.945 -59.010 -24.216  1.00  0.00     0.071 C 
ATOM      6  C   UNL     1       9.002 -62.044 -23.458  1.00  0.00     0.062 A 
ATOM      7  C   UNL     1      10.201 -60.268 -24.555  1.00  0.00    -0.029 A 
ATOM      8  C   UNL     1       8.738 -62.613 -24.715  1.00  0.00     0.161 A 
ATOM      9  C   UNL     1       9.973 -60.822 -25.807  1.00  0.00     0.055 A 
ATOM     10  C   UNL     1       9.245 -62.019 -25.897  1.00  0.00     0.161 A 
BRANCH   3  11
ATOM     11  O   UNL     1       9.886 -60.402 -20.967  1.00  0.00    -0.507 OA
ATOM     12  H   UNL     1       9.407 -61.250 -20.987  1.00  0.00     0.293 HD
ENDBRANCH   3  11
BRANCH   8  13
ATOM     13  O   UNL     1       8.009 -63.775 -24.619  1.00  0.00    -0.493 OA
ATOM     14  C   UNL     1       7.659 -64.214 -23.312  1.00  0.00     0.278 C 
ENDBRANCH   8  13
BRANCH  10  15
ATOM     15  O   UNL     1       9.010 -62.662 -27.083  1.00  0.00    -0.493 OA
ATOM     16  C   UNL     1       9.120 -61.916 -28.288  1.00  0.00     0.278 C 
ENDBRANCH  10  15
ENDBRANCH   1   2
BRANCH   1  17
ATOM     17  C   UNL     1      10.846 -56.465 -22.059  1.00  0.00     0.004 C 
ATOM     18  C   UNL     1      11.240 -55.597 -20.854  1.00  0.00     0.065 C 
ATOM     19  C   UNL     1      11.245 -55.732 -23.349  1.00  0.00     0.065 C 
ATOM     20  C   UNL     1      10.599 -54.216 -20.927  1.00  0.00     0.262 C 
ATOM     21  C   UNL     1      10.585 -54.366 -23.429  1.00  0.00     0.262 C 
ATOM     22  N   UNL     1      10.979 -53.544 -22.226  1.00  0.00    -0.331 N 
ATOM     23  H   UNL     1      12.002 -53.457 -22.231  1.00  0.00     0.348 HD
BRANCH  22  24
ATOM     24  C   UNL     1      10.440 -52.132 -22.330  1.00  0.00     0.299 C 
BRANCH  24  25
ATOM     25  C   UNL     1      11.426 -51.166 -22.927  1.00  0.00     0.006 A 
ATOM     26  C   UNL     1      12.456 -51.627 -23.763  1.00  0.00     0.009 A 
ATOM     27  C   UNL     1      11.343 -49.795 -22.643  1.00  0.00     0.009 A 
ATOM     28  C   UNL     1      13.386 -50.733 -24.295  1.00  0.00     0.001 A 
ATOM     29  C   UNL     1      12.277 -48.905 -23.178  1.00  0.00     0.001 A 
ATOM     30  C   UNL     1      13.297 -49.375 -24.001  1.00  0.00     0.000 A 
ENDBRANCH  24  25
ENDBRANCH  22  24
ENDBRANCH   1  17
TORSDOF 7
ENDMDL
MODEL 8
REMARK VINA RESULT:    -9.412      1.934      3.453
REMARK INTER + INTRA:         -13.463
REMARK INTER:                 -14.086
REMARK INTRA:                   0.623
REMARK UNBOUND:                -0.474
REMARK SMILES COc1cc2c(cc1OC)C(O)=C(C[C@H]1CC[N@H+](Cc3ccccc3)CC1)C2
REMARK SMILES IDX 14 1 13 2 11 3 6 4 28 5 7 6 5 7 8 8 4 9 3 10 12 11 9 13
REMARK SMILES IDX 10 14 2 15 1 16 15 17 27 18 16 19 26 20 17 21 18 22 19 24
REMARK SMILES IDX 20 25 21 26 25 27 22 28 24 29 23 30
REMARK H PARENT 12 12 18 23
ROOT
ATOM      1  C   UNL     1      10.888 -58.442 -22.061  1.00  0.00     0.039 C 
ENDROOT
BRANCH   1   2
ATOM      2  C   UNL     1      11.122 -57.034 -22.524  1.00  0.00    -0.023 C 
ATOM      3  C   UNL     1      11.715 -56.551 -23.630  1.00  0.00     0.122 C 
ATOM      4  C   UNL     1      11.711 -55.094 -23.593  1.00  0.00     0.024 A 
ATOM      5  C   UNL     1      10.672 -55.898 -21.618  1.00  0.00     0.071 C 
ATOM      6  C   UNL     1      12.176 -54.147 -24.487  1.00  0.00     0.062 A 
ATOM      7  C   UNL     1      11.101 -54.694 -22.403  1.00  0.00    -0.029 A 
ATOM      8  C   UNL     1      12.024 -52.784 -24.183  1.00  0.00     0.161 A 
ATOM      9  C   UNL     1      10.958 -53.354 -22.070  1.00  0.00     0.055 A 
ATOM     10  C   UNL     1      11.436 -52.378 -22.959  1.00  0.00     0.161 A 
BRANCH   3  11
ATOM     11  O   UNL     1      12.285 -57.253 -24.647  1.00  0.00    -0.507 OA
ATOM     12  H   UNL     1      13.122 -57.623 -24.311  1.00  0.00     0.293 HD
ENDBRANCH   3  11
BRANCH   8  13
ATOM     13  O   UNL     1      12.540 -51.971 -25.164  1.00  0.00    -0.493 OA
ATOM     14  C   UNL     1      13.681 -52.447 -25.867  1.00  0.00     0.278 C 
ENDBRANCH   8  13
BRANCH  10  15
ATOM     15  O   UNL     1      11.381 -51.035 -22.695  1.00  0.00    -0.493 OA
ATOM     16  C   UNL     1      12.605 -50.333 -22.521  1.00  0.00     0.278 C 
ENDBRANCH  10  15
ENDBRANCH   1   2
BRANCH   1  17
ATOM     17  C   UNL     1      10.193 -59.406 -23.042  1.00  0.00     0.004 C 
ATOM     18  C   UNL     1      10.756 -60.827 -22.894  1.00  0.00     0.065 C 
ATOM     19  C   UNL     1       8.672 -59.450 -22.826  1.00  0.00     0.065 C 
ATOM     20  C   UNL     1      10.087 -61.796 -23.863  1.00  0.00     0.262 C 
ATOM     21  C   UNL     1       8.008 -60.398 -23.810  1.00  0.00     0.262 C 
ATOM     22  N   UNL     1       8.591 -61.781 -23.651  1.00  0.00    -0.331 N 
ATOM     23  H   UNL     1       8.422 -62.080 -22.683  1.00  0.00     0.348 HD
BRANCH  22  24
ATOM     24  C   UNL     1       7.869 -62.782 -24.529  1.00  0.00     0.299 C 
BRANCH  24  25
ATOM     25  C   UNL     1       8.261 -62.687 -25.978  1.00  0.00     0.006 A 
ATOM     26  C   UNL     1       7.719 -63.575 -26.921  1.00  0.00     0.009 A 
ATOM     27  C   UNL     1       9.188 -61.723 -26.405  1.00  0.00     0.009 A 
ATOM     28  C   UNL     1       8.105 -63.503 -28.261  1.00  0.00     0.001 A 
ATOM     29  C   UNL     1       9.569 -61.655 -27.746  1.00  0.00     0.001 A 
ATOM     30  C   UNL     1       9.029 -62.546 -28.671  1.00  0.00     0.000 A 
ENDBRANCH  24  25
ENDBRANCH  22  24
ENDBRANCH   1  17
TORSDOF 7
ENDMDL
MODEL 9
REMARK VINA RESULT:    -9.364      3.491     10.016
REMARK INTER + INTRA:         -13.397
REMARK INTER:                 -12.676
REMARK INTRA:                  -0.721
REMARK UNBOUND:                -0.474
REMARK SMILES COc1cc2c(cc1OC)C(O)=C(C[C@H]1CC[N@H+](Cc3ccccc3)CC1)C2
REMARK SMILES IDX 14 1 13 2 11 3 6 4 28 5 7 6 5 7 8 8 4 9 3 10 12 11 9 13
REMARK SMILES IDX 10 14 2 15 1 16 15 17 27 18 16 19 26 20 17 21 18 22 19 24
REMARK SMILES IDX 20 25 21 26 25 27 22 28 24 29 23 30
REMARK H PARENT 12 12 18 23
ROOT
ATOM      1  C   UNL     1       9.870 -55.307 -22.349  1.00  0.00     0.039 C 
ENDROOT
BRANCH   1   2
ATOM      2  C   UNL     1       9.759 -56.768 -22.670  1.00  0.00    -0.023 C 
ATOM      3  C   UNL     1      10.561 -57.805 -22.370  1.00  0.00     0.122 C 
ATOM      4  C   UNL     1      10.016 -59.030 -22.943  1.00  0.00     0.024 A 
ATOM      5  C   UNL     1       8.578 -57.230 -23.511  1.00  0.00     0.071 C 
ATOM      6  C   UNL     1      10.451 -60.341 -22.903  1.00  0.00     0.062 A 
ATOM      7  C   UNL     1       8.843 -58.701 -23.627  1.00  0.00    -0.029 A 
ATOM      8  C   UNL     1       9.700 -61.334 -23.553  1.00  0.00     0.161 A 
ATOM      9  C   UNL     1       8.095 -59.661 -24.296  1.00  0.00     0.055 A 
ATOM     10  C   UNL     1       8.530 -60.996 -24.277  1.00  0.00     0.161 A 
BRANCH   3  11
ATOM     11  O   UNL     1      11.732 -57.783 -21.678  1.00  0.00    -0.507 OA
ATOM     12  H   UNL     1      11.536 -58.064 -20.766  1.00  0.00     0.293 HD
ENDBRANCH   3  11
BRANCH   8  13
ATOM     13  O   UNL     1      10.265 -62.581 -23.427  1.00  0.00    -0.493 OA
ATOM     14  C   UNL     1       9.801 -63.398 -22.359  1.00  0.00     0.278 C 
ENDBRANCH   8  13
BRANCH  10  15
ATOM     15  O   UNL     1       7.884 -62.002 -24.945  1.00  0.00    -0.493 OA
ATOM     16  C   UNL     1       6.843 -62.697 -24.272  1.00  0.00     0.278 C 
ENDBRANCH  10  15
ENDBRANCH   1   2
BRANCH   1  17
ATOM     17  C   UNL     1      10.544 -54.399 -23.396  1.00  0.00     0.004 C 
ATOM     18  C   UNL     1      11.243 -53.214 -22.714  1.00  0.00     0.065 C 
ATOM     19  C   UNL     1      11.575 -55.162 -24.243  1.00  0.00     0.065 C 
ATOM     20  C   UNL     1      11.910 -52.297 -23.733  1.00  0.00     0.262 C 
ATOM     21  C   UNL     1      12.218 -54.250 -25.273  1.00  0.00     0.262 C 
ATOM     22  N   UNL     1      12.883 -53.089 -24.575  1.00  0.00    -0.331 N 
ATOM     23  H   UNL     1      13.589 -53.474 -23.935  1.00  0.00     0.348 HD
BRANCH  22  24
ATOM     24  C   UNL     1      13.641 -52.222 -25.558  1.00  0.00     0.299 C 
BRANCH  24  25
ATOM     25  C   UNL     1      15.059 -51.950 -25.134  1.00  0.00     0.006 A 
ATOM     26  C   UNL     1      16.063 -52.906 -25.355  1.00  0.00     0.009 A 
ATOM     27  C   UNL     1      15.394 -50.746 -24.496  1.00  0.00     0.009 A 
ATOM     28  C   UNL     1      17.372 -52.664 -24.937  1.00  0.00     0.001 A 
ATOM     29  C   UNL     1      16.706 -50.508 -24.080  1.00  0.00     0.001 A 
ATOM     30  C   UNL     1      17.692 -51.468 -24.299  1.00  0.00     0.000 A 
ENDBRANCH  24  25
ENDBRANCH  22  24
ENDBRANCH   1  17
TORSDOF 7
ENDMDL
