MODEL 1
REMARK VINA RESULT:   -12.564      0.000      0.000
REMARK INTER + INTRA:         -17.354
REMARK INTER:                 -16.971
REMARK INTRA:                  -0.383
REMARK UNBOUND:                -0.383
REMARK SMILES c1ccc(C[N@H+]2CC[C@H](CCc3noc4cc(N5CCOCC5)ccc34)CC2)cc1
REMARK SMILES IDX 10 1 9 2 6 3 28 4 7 5 27 6 8 7 5 9 4 10 3 11 29 12 2 13
REMARK SMILES IDX 30 14 1 15 11 16 12 17 13 18 26 19 14 20 25 21 15 22 24 23
REMARK SMILES IDX 16 24 17 25 18 26 19 27 23 28 20 29 22 30 21 31
REMARK H PARENT 6 8
ROOT
ATOM      1  C   UNL     1      10.955 -55.882 -21.953  1.00  0.00     0.010 C 
ENDROOT
BRANCH   1   2
ATOM      2  C   UNL     1      10.874 -57.312 -22.527  1.00  0.00     0.000 C 
ATOM      3  N   UNL     1      12.058 -59.879 -23.295  1.00  0.00    -0.331 N 
ATOM      4  C   UNL     1      11.720 -58.851 -24.345  1.00  0.00     0.262 C 
ATOM      5  C   UNL     1      11.143 -59.789 -22.096  1.00  0.00     0.262 C 
ATOM      6  C   UNL     1      11.799 -57.454 -23.745  1.00  0.00     0.065 C 
ATOM      7  C   UNL     1      11.224 -58.392 -21.494  1.00  0.00     0.065 C 
ATOM      8  H   UNL     1      13.009 -59.687 -22.960  1.00  0.00     0.348 HD
BRANCH   3   9
ATOM      9  C   UNL     1      12.098 -61.274 -23.887  1.00  0.00     0.299 C 
BRANCH   9  10
ATOM     10  C   UNL     1      10.757 -61.955 -23.877  1.00  0.00     0.006 A 
ATOM     11  C   UNL     1      10.382 -62.777 -22.804  1.00  0.00     0.009 A 
ATOM     12  C   UNL     1       9.869 -61.793 -24.952  1.00  0.00     0.009 A 
ATOM     13  C   UNL     1       9.148 -63.428 -22.811  1.00  0.00     0.001 A 
ATOM     14  C   UNL     1       8.635 -62.445 -24.954  1.00  0.00     0.001 A 
ATOM     15  C   UNL     1       8.277 -63.264 -23.885  1.00  0.00     0.000 A 
ENDBRANCH   9  10
ENDBRANCH   3   9
ENDBRANCH   1   2
BRANCH   1  16
ATOM     16  C   UNL     1      11.227 -54.770 -22.978  1.00  0.00     0.061 C 
BRANCH  16  17
ATOM     17  C   UNL     1      10.625 -53.458 -22.605  1.00  0.00     0.091 A 
ATOM     18  N   UNL     1       9.429 -53.421 -21.999  1.00  0.00    -0.084 NA
ATOM     19  C   UNL     1      11.144 -52.157 -22.815  1.00  0.00     0.045 A 
ATOM     20  O   UNL     1       9.153 -52.076 -21.802  1.00  0.00    -0.356 OA
ATOM     21  C   UNL     1      12.287 -51.578 -23.381  1.00  0.00     0.016 A 
ATOM     22  C   UNL     1      10.175 -51.324 -22.289  1.00  0.00     0.169 A 
ATOM     23  C   UNL     1      12.388 -50.175 -23.375  1.00  0.00     0.027 A 
ATOM     24  C   UNL     1      10.251 -49.931 -22.272  1.00  0.00     0.076 A 
ATOM     25  C   UNL     1      11.400 -49.334 -22.820  1.00  0.00     0.041 A 
BRANCH  25  26
ATOM     26  N   UNL     1      11.587 -47.941 -22.873  1.00  0.00    -0.367 N 
ATOM     27  C   UNL     1      12.144 -47.355 -24.115  1.00  0.00     0.145 C 
ATOM     28  C   UNL     1      10.424 -47.159 -22.377  1.00  0.00     0.145 C 
ATOM     29  C   UNL     1      12.468 -45.869 -23.893  1.00  0.00     0.181 C 
ATOM     30  C   UNL     1      10.804 -45.674 -22.243  1.00  0.00     0.181 C 
ATOM     31  O   UNL     1      11.302 -45.140 -23.478  1.00  0.00    -0.378 OA
ENDBRANCH  25  26
ENDBRANCH  16  17
ENDBRANCH   1  16
TORSDOF 6
ENDMDL
MODEL 2
REMARK VINA RESULT:   -12.411      1.599      2.293
REMARK INTER + INTRA:         -17.147
REMARK INTER:                 -16.341
REMARK INTRA:                  -0.805
REMARK UNBOUND:                -0.383
REMARK SMILES c1ccc(C[N@H+]2CC[C@H](CCc3noc4cc(N5CCOCC5)ccc34)CC2)cc1
REMARK SMILES IDX 10 1 9 2 6 3 28 4 7 5 27 6 8 7 5 9 4 10 3 11 29 12 2 13
REMARK SMILES IDX 30 14 1 15 11 16 12 17 13 18 26 19 14 20 25 21 15 22 24 23
REMARK SMILES IDX 16 24 17 25 18 26 19 27 23 28 20 29 22 30 21 31
REMARK H PARENT 6 8
ROOT
ATOM      1  C   UNL     1      11.284 -56.436 -21.772  1.00  0.00     0.010 C 
ENDROOT
BRANCH   1   2
ATOM      2  C   UNL     1      11.542 -57.934 -22.038  1.00  0.00     0.000 C 
ATOM      3  N   UNL     1      10.891 -60.506 -23.279  1.00  0.00    -0.331 N 
ATOM      4  C   UNL     1      10.572 -60.259 -21.826  1.00  0.00     0.262 C 
ATOM      5  C   UNL     1      12.098 -59.721 -23.738  1.00  0.00     0.262 C 
ATOM      6  C   UNL     1      10.334 -58.773 -21.596  1.00  0.00     0.065 C 
ATOM      7  C   UNL     1      11.858 -58.234 -23.509  1.00  0.00     0.065 C 
ATOM      8  H   UNL     1      10.093 -60.182 -23.837  1.00  0.00     0.348 HD
BRANCH   3   9
ATOM      9  C   UNL     1      11.025 -61.989 -23.566  1.00  0.00     0.299 C 
BRANCH   9  10
ATOM     10  C   UNL     1       9.716 -62.637 -23.925  1.00  0.00     0.006 A 
ATOM     11  C   UNL     1       9.107 -62.378 -25.162  1.00  0.00     0.009 A 
ATOM     12  C   UNL     1       9.075 -63.497 -23.019  1.00  0.00     0.009 A 
ATOM     13  C   UNL     1       7.879 -62.960 -25.481  1.00  0.00     0.001 A 
ATOM     14  C   UNL     1       7.848 -64.078 -23.343  1.00  0.00     0.001 A 
ATOM     15  C   UNL     1       7.250 -63.807 -24.572  1.00  0.00     0.000 A 
ENDBRANCH   9  10
ENDBRANCH   3   9
ENDBRANCH   1   2
BRANCH   1  16
ATOM     16  C   UNL     1      10.450 -55.707 -22.838  1.00  0.00     0.061 C 
BRANCH  16  17
ATOM     17  C   UNL     1      11.143 -54.526 -23.429  1.00  0.00     0.091 A 
ATOM     18  N   UNL     1      11.746 -54.634 -24.622  1.00  0.00    -0.084 NA
ATOM     19  C   UNL     1      11.289 -53.225 -22.886  1.00  0.00     0.045 A 
ATOM     20  O   UNL     1      12.295 -53.386 -24.877  1.00  0.00    -0.356 OA
ATOM     21  C   UNL     1      10.910 -52.541 -21.725  1.00  0.00     0.016 A 
ATOM     22  C   UNL     1      12.022 -52.548 -23.841  1.00  0.00     0.169 A 
ATOM     23  C   UNL     1      11.292 -51.193 -21.599  1.00  0.00     0.027 A 
ATOM     24  C   UNL     1      12.415 -51.213 -23.739  1.00  0.00     0.076 A 
ATOM     25  C   UNL     1      12.028 -50.505 -22.588  1.00  0.00     0.041 A 
BRANCH  25  26
ATOM     26  N   UNL     1      12.372 -49.160 -22.364  1.00  0.00    -0.367 N 
ATOM     27  C   UNL     1      13.753 -48.728 -22.685  1.00  0.00     0.145 C 
ATOM     28  C   UNL     1      11.367 -48.190 -22.872  1.00  0.00     0.145 C 
ATOM     29  C   UNL     1      13.986 -47.297 -22.175  1.00  0.00     0.181 C 
ATOM     30  C   UNL     1      11.702 -46.773 -22.374  1.00  0.00     0.181 C 
ATOM     31  O   UNL     1      13.034 -46.383 -22.741  1.00  0.00    -0.378 OA
ENDBRANCH  25  26
ENDBRANCH  16  17
ENDBRANCH   1  16
TORSDOF 6
ENDMDL
MODEL 3
REMARK VINA RESULT:   -12.363      2.109      2.557
REMARK INTER + INTRA:         -17.083
REMARK INTER:                 -16.525
REMARK INTRA:                  -0.558
REMARK UNBOUND:                -0.383
REMARK SMILES c1ccc(C[N@H+]2CC[C@H](CCc3noc4cc(N5CCOCC5)ccc34)CC2)cc1
REMARK SMILES IDX 10 1 9 2 6 3 28 4 7 5 27 6 8 7 5 9 4 10 3 11 29 12 2 13
REMARK SMILES IDX 30 14 1 15 11 16 12 17 13 18 26 19 14 20 25 21 15 22 24 23
REMARK SMILES IDX 16 24 17 25 18 26 19 27 23 28 20 29 22 30 21 31
REMARK H PARENT 6 8
ROOT
ATOM      1  C   UNL     1      11.103 -56.155 -21.843  1.00  0.00     0.010 C 
ENDROOT
BRANCH   1   2
ATOM      2  C   UNL     1      10.876 -57.563 -22.433  1.00  0.00     0.000 C 
ATOM      3  N   UNL     1      11.806 -60.204 -23.293  1.00  0.00    -0.331 N 
ATOM      4  C   UNL     1      11.506 -59.133 -24.311  1.00  0.00     0.262 C 
ATOM      5  C   UNL     1      10.958 -60.061 -22.050  1.00  0.00     0.262 C 
ATOM      6  C   UNL     1      11.728 -57.758 -23.696  1.00  0.00     0.065 C 
ATOM      7  C   UNL     1      11.183 -58.686 -21.434  1.00  0.00     0.065 C 
ATOM      8  H   UNL     1      12.784 -60.097 -23.002  1.00  0.00     0.348 HD
BRANCH   3   9
ATOM      9  C   UNL     1      11.702 -61.587 -23.906  1.00  0.00     0.299 C 
BRANCH   9  10
ATOM     10  C   UNL     1      10.319 -62.170 -23.809  1.00  0.00     0.006 A 
ATOM     11  C   UNL     1       9.975 -63.018 -22.745  1.00  0.00     0.009 A 
ATOM     12  C   UNL     1       9.357 -61.889 -24.792  1.00  0.00     0.009 A 
ATOM     13  C   UNL     1       8.700 -63.579 -22.673  1.00  0.00     0.001 A 
ATOM     14  C   UNL     1       8.082 -62.451 -24.714  1.00  0.00     0.001 A 
ATOM     15  C   UNL     1       7.756 -63.297 -23.657  1.00  0.00     0.000 A 
ENDBRANCH   9  10
ENDBRANCH   3   9
ENDBRANCH   1   2
BRANCH   1  16
ATOM     16  C   UNL     1      10.087 -55.084 -22.272  1.00  0.00     0.061 C 
BRANCH  16  17
ATOM     17  C   UNL     1      10.643 -53.701 -22.265  1.00  0.00     0.091 A 
ATOM     18  N   UNL     1      10.358 -52.872 -21.250  1.00  0.00    -0.084 NA
ATOM     19  C   UNL     1      11.468 -53.077 -23.233  1.00  0.00     0.045 A 
ATOM     20  O   UNL     1      11.007 -51.682 -21.548  1.00  0.00    -0.356 OA
ATOM     21  C   UNL     1      12.059 -53.411 -24.458  1.00  0.00     0.016 A 
ATOM     22  C   UNL     1      11.668 -51.807 -22.730  1.00  0.00     0.169 A 
ATOM     23  C   UNL     1      12.834 -52.432 -25.106  1.00  0.00     0.027 A 
ATOM     24  C   UNL     1      12.429 -50.817 -23.353  1.00  0.00     0.076 A 
ATOM     25  C   UNL     1      13.045 -51.141 -24.575  1.00  0.00     0.041 A 
BRANCH  25  26
ATOM     26  N   UNL     1      13.826 -50.227 -25.304  1.00  0.00    -0.367 N 
ATOM     27  C   UNL     1      14.160 -50.555 -26.710  1.00  0.00     0.145 C 
ATOM     28  C   UNL     1      13.384 -48.814 -25.167  1.00  0.00     0.145 C 
ATOM     29  C   UNL     1      15.185 -49.548 -27.254  1.00  0.00     0.181 C 
ATOM     30  C   UNL     1      14.426 -47.871 -25.790  1.00  0.00     0.181 C 
ATOM     31  O   UNL     1      14.690 -48.203 -27.161  1.00  0.00    -0.378 OA
ENDBRANCH  25  26
ENDBRANCH  16  17
ENDBRANCH   1  16
TORSDOF 6
ENDMDL
MODEL 4
REMARK VINA RESULT:   -10.839      3.161     12.002
REMARK INTER + INTRA:         -15.024
REMARK INTER:                 -14.455
REMARK INTRA:                  -0.569
REMARK UNBOUND:                -0.383
REMARK SMILES c1ccc(C[N@H+]2CC[C@H](CCc3noc4cc(N5CCOCC5)ccc34)CC2)cc1
REMARK SMILES IDX 10 1 9 2 6 3 28 4 7 5 27 6 8 7 5 9 4 10 3 11 29 12 2 13
REMARK SMILES IDX 30 14 1 15 11 16 12 17 13 18 26 19 14 20 25 21 15 22 24 23
REMARK SMILES IDX 16 24 17 25 18 26 19 27 23 28 20 29 22 30 21 31
REMARK H PARENT 6 8
ROOT
ATOM      1  C   UNL     1      10.072 -53.996 -21.859  1.00  0.00     0.010 C 
ENDROOT
BRANCH   1   2
ATOM      2  C   UNL     1      11.013 -52.784 -22.024  1.00  0.00     0.000 C 
ATOM      3  N   UNL     1      11.946 -50.386 -23.423  1.00  0.00    -0.331 N 
ATOM      4  C   UNL     1      12.703 -51.684 -23.547  1.00  0.00     0.262 C 
ATOM      5  C   UNL     1      11.236 -50.267 -22.095  1.00  0.00     0.262 C 
ATOM      6  C   UNL     1      11.750 -52.858 -23.369  1.00  0.00     0.065 C 
ATOM      7  C   UNL     1      10.280 -51.440 -21.918  1.00  0.00     0.065 C 
ATOM      8  H   UNL     1      11.222 -50.372 -24.152  1.00  0.00     0.348 HD
BRANCH   3   9
ATOM      9  C   UNL     1      12.844 -49.198 -23.707  1.00  0.00     0.299 C 
BRANCH   9  10
ATOM     10  C   UNL     1      12.246 -47.891 -23.264  1.00  0.00     0.006 A 
ATOM     11  C   UNL     1      11.277 -47.248 -24.048  1.00  0.00     0.009 A 
ATOM     12  C   UNL     1      12.663 -47.286 -22.068  1.00  0.00     0.009 A 
ATOM     13  C   UNL     1      10.744 -46.022 -23.648  1.00  0.00     0.001 A 
ATOM     14  C   UNL     1      12.126 -46.061 -21.670  1.00  0.00     0.001 A 
ATOM     15  C   UNL     1      11.169 -45.429 -22.462  1.00  0.00     0.000 A 
ENDBRANCH   9  10
ENDBRANCH   3   9
ENDBRANCH   1   2
BRANCH   1  16
ATOM     16  C   UNL     1       9.937 -54.905 -23.091  1.00  0.00     0.061 C 
BRANCH  16  17
ATOM     17  C   UNL     1      10.244 -56.336 -22.809  1.00  0.00     0.091 A 
ATOM     18  N   UNL     1      11.419 -56.671 -22.255  1.00  0.00    -0.084 NA
ATOM     19  C   UNL     1       9.442 -57.477 -23.063  1.00  0.00     0.045 A 
ATOM     20  O   UNL     1      11.395 -58.053 -22.137  1.00  0.00    -0.356 OA
ATOM     21  C   UNL     1       8.184 -57.756 -23.610  1.00  0.00     0.016 A 
ATOM     22  C   UNL     1      10.217 -58.532 -22.619  1.00  0.00     0.169 A 
ATOM     23  C   UNL     1       7.774 -59.100 -23.670  1.00  0.00     0.027 A 
ATOM     24  C   UNL     1       9.834 -59.872 -22.669  1.00  0.00     0.076 A 
ATOM     25  C   UNL     1       8.566 -60.169 -23.199  1.00  0.00     0.041 A 
BRANCH  25  26
ATOM     26  N   UNL     1       8.072 -61.481 -23.314  1.00  0.00    -0.367 N 
ATOM     27  C   UNL     1       7.604 -61.940 -24.642  1.00  0.00     0.145 C 
ATOM     28  C   UNL     1       8.926 -62.504 -22.655  1.00  0.00     0.145 C 
ATOM     29  C   UNL     1       6.913 -63.307 -24.511  1.00  0.00     0.181 C 
ATOM     30  C   UNL     1       8.196 -63.858 -22.618  1.00  0.00     0.181 C 
ATOM     31  O   UNL     1       7.795 -64.280 -23.930  1.00  0.00    -0.378 OA
ENDBRANCH  25  26
ENDBRANCH  16  17
ENDBRANCH   1  16
TORSDOF 6
ENDMDL
MODEL 5
REMARK VINA RESULT:   -10.615      2.240      3.113
REMARK INTER + INTRA:         -14.722
REMARK INTER:                 -14.635
REMARK INTRA:                  -0.086
REMARK UNBOUND:                -0.383
REMARK SMILES c1ccc(C[N@H+]2CC[C@H](CCc3noc4cc(N5CCOCC5)ccc34)CC2)cc1
REMARK SMILES IDX 10 1 9 2 6 3 28 4 7 5 27 6 8 7 5 9 4 10 3 11 29 12 2 13
REMARK SMILES IDX 30 14 1 15 11 16 12 17 13 18 26 19 14 20 25 21 15 22 24 23
REMARK SMILES IDX 16 24 17 25 18 26 19 27 23 28 20 29 22 30 21 31
REMARK H PARENT 6 8
ROOT
ATOM      1  C   UNL     1       9.159 -56.317 -22.947  1.00  0.00     0.010 C 
ENDROOT
BRANCH   1   2
ATOM      2  C   UNL     1       9.028 -57.762 -23.473  1.00  0.00     0.000 C 
ATOM      3  N   UNL     1       8.445 -60.612 -23.131  1.00  0.00    -0.331 N 
ATOM      4  C   UNL     1       9.871 -60.131 -23.214  1.00  0.00     0.262 C 
ATOM      5  C   UNL     1       7.500 -59.728 -23.912  1.00  0.00     0.262 C 
ATOM      6  C   UNL     1       9.965 -58.701 -22.699  1.00  0.00     0.065 C 
ATOM      7  C   UNL     1       7.592 -58.298 -23.395  1.00  0.00     0.065 C 
ATOM      8  H   UNL     1       8.152 -60.567 -22.148  1.00  0.00     0.348 HD
BRANCH   3   9
ATOM      9  C   UNL     1       8.334 -62.070 -23.532  1.00  0.00     0.299 C 
BRANCH   9  10
ATOM     10  C   UNL     1       8.425 -62.279 -25.019  1.00  0.00     0.006 A 
ATOM     11  C   UNL     1       7.607 -63.223 -25.657  1.00  0.00     0.009 A 
ATOM     12  C   UNL     1       9.343 -61.545 -25.786  1.00  0.00     0.009 A 
ATOM     13  C   UNL     1       7.712 -63.434 -27.033  1.00  0.00     0.001 A 
ATOM     14  C   UNL     1       9.443 -61.758 -27.162  1.00  0.00     0.001 A 
ATOM     15  C   UNL     1       8.631 -62.704 -27.783  1.00  0.00     0.000 A 
ENDBRANCH   9  10
ENDBRANCH   3   9
ENDBRANCH   1   2
BRANCH   1  16
ATOM     16  C   UNL     1      10.558 -55.914 -22.456  1.00  0.00     0.061 C 
BRANCH  16  17
ATOM     17  C   UNL     1      11.226 -54.905 -23.328  1.00  0.00     0.091 A 
ATOM     18  N   UNL     1      11.760 -55.284 -24.499  1.00  0.00    -0.084 NA
ATOM     19  C   UNL     1      11.410 -53.520 -23.094  1.00  0.00     0.045 A 
ATOM     20  O   UNL     1      12.302 -54.133 -25.051  1.00  0.00    -0.356 OA
ATOM     21  C   UNL     1      11.101 -52.590 -22.093  1.00  0.00     0.016 A 
ATOM     22  C   UNL     1      12.094 -53.083 -24.212  1.00  0.00     0.169 A 
ATOM     23  C   UNL     1      11.499 -51.255 -22.288  1.00  0.00     0.027 A 
ATOM     24  C   UNL     1      12.501 -51.766 -24.428  1.00  0.00     0.076 A 
ATOM     25  C   UNL     1      12.183 -50.816 -23.441  1.00  0.00     0.041 A 
BRANCH  25  26
ATOM     26  N   UNL     1      12.549 -49.461 -23.538  1.00  0.00    -0.367 N 
ATOM     27  C   UNL     1      13.173 -48.817 -22.358  1.00  0.00     0.145 C 
ATOM     28  C   UNL     1      13.277 -49.122 -24.789  1.00  0.00     0.145 C 
ATOM     29  C   UNL     1      13.298 -47.303 -22.592  1.00  0.00     0.181 C 
ATOM     30  C   UNL     1      13.420 -47.596 -24.922  1.00  0.00     0.181 C 
ATOM     31  O   UNL     1      14.063 -47.022 -23.774  1.00  0.00    -0.378 OA
ENDBRANCH  25  26
ENDBRANCH  16  17
ENDBRANCH   1  16
TORSDOF 6
ENDMDL
MODEL 6
REMARK VINA RESULT:   -10.435      3.824     11.126
REMARK INTER + INTRA:         -14.477
REMARK INTER:                 -13.778
REMARK INTRA:                  -0.700
REMARK UNBOUND:                -0.383
REMARK SMILES c1ccc(C[N@H+]2CC[C@H](CCc3noc4cc(N5CCOCC5)ccc34)CC2)cc1
REMARK SMILES IDX 10 1 9 2 6 3 28 4 7 5 27 6 8 7 5 9 4 10 3 11 29 12 2 13
REMARK SMILES IDX 30 14 1 15 11 16 12 17 13 18 26 19 14 20 25 21 15 22 24 23
REMARK SMILES IDX 16 24 17 25 18 26 19 27 23 28 20 29 22 30 21 31
REMARK H PARENT 6 8
ROOT
ATOM      1  C   UNL     1      10.250 -53.255 -22.394  1.00  0.00     0.010 C 
ENDROOT
BRANCH   1   2
ATOM      2  C   UNL     1      11.160 -52.235 -23.110  1.00  0.00     0.000 C 
ATOM      3  N   UNL     1      13.775 -51.082 -23.753  1.00  0.00    -0.331 N 
ATOM      4  C   UNL     1      12.863 -50.398 -22.767  1.00  0.00     0.262 C 
ATOM      5  C   UNL     1      13.006 -51.858 -24.797  1.00  0.00     0.262 C 
ATOM      6  C   UNL     1      11.972 -51.428 -22.086  1.00  0.00     0.065 C 
ATOM      7  C   UNL     1      12.117 -52.890 -24.115  1.00  0.00     0.065 C 
ATOM      8  H   UNL     1      14.346 -51.762 -23.236  1.00  0.00     0.348 HD
BRANCH   3   9
ATOM      9  C   UNL     1      14.752 -50.100 -24.368  1.00  0.00     0.299 C 
BRANCH   9  10
ATOM     10  C   UNL     1      15.968 -50.768 -24.950  1.00  0.00     0.006 A 
ATOM     11  C   UNL     1      16.367 -52.037 -24.504  1.00  0.00     0.009 A 
ATOM     12  C   UNL     1      16.732 -50.122 -25.935  1.00  0.00     0.009 A 
ATOM     13  C   UNL     1      17.511 -52.641 -25.027  1.00  0.00     0.001 A 
ATOM     14  C   UNL     1      17.874 -50.732 -26.456  1.00  0.00     0.001 A 
ATOM     15  C   UNL     1      18.264 -51.989 -26.000  1.00  0.00     0.000 A 
ENDBRANCH   9  10
ENDBRANCH   3   9
ENDBRANCH   1   2
BRANCH   1  16
ATOM     16  C   UNL     1       9.738 -54.414 -23.263  1.00  0.00     0.061 C 
BRANCH  16  17
ATOM     17  C   UNL     1      10.179 -55.755 -22.784  1.00  0.00     0.091 A 
ATOM     18  N   UNL     1      11.342 -55.881 -22.127  1.00  0.00    -0.084 NA
ATOM     19  C   UNL     1       9.527 -57.004 -22.935  1.00  0.00     0.045 A 
ATOM     20  O   UNL     1      11.460 -57.232 -21.835  1.00  0.00    -0.356 OA
ATOM     21  C   UNL     1       8.348 -57.492 -23.512  1.00  0.00     0.016 A 
ATOM     22  C   UNL     1      10.378 -57.900 -22.317  1.00  0.00     0.169 A 
ATOM     23  C   UNL     1       8.092 -58.873 -23.423  1.00  0.00     0.027 A 
ATOM     24  C   UNL     1      10.149 -59.272 -22.218  1.00  0.00     0.076 A 
ATOM     25  C   UNL     1       8.961 -59.777 -22.776  1.00  0.00     0.041 A 
BRANCH  25  26
ATOM     26  N   UNL     1       8.623 -61.142 -22.749  1.00  0.00    -0.367 N 
ATOM     27  C   UNL     1       7.511 -61.605 -23.612  1.00  0.00     0.145 C 
ATOM     28  C   UNL     1       9.794 -62.053 -22.837  1.00  0.00     0.145 C 
ATOM     29  C   UNL     1       7.164 -63.065 -23.280  1.00  0.00     0.181 C 
ATOM     30  C   UNL     1       9.358 -63.502 -22.558  1.00  0.00     0.181 C 
ATOM     31  O   UNL     1       8.307 -63.919 -23.441  1.00  0.00    -0.378 OA
ENDBRANCH  25  26
ENDBRANCH  16  17
ENDBRANCH   1  16
TORSDOF 6
ENDMDL
MODEL 7
REMARK VINA RESULT:   -10.173      4.066     11.371
REMARK INTER + INTRA:         -14.124
REMARK INTER:                 -13.723
REMARK INTRA:                  -0.401
REMARK UNBOUND:                -0.383
REMARK SMILES c1ccc(C[N@H+]2CC[C@H](CCc3noc4cc(N5CCOCC5)ccc34)CC2)cc1
REMARK SMILES IDX 10 1 9 2 6 3 28 4 7 5 27 6 8 7 5 9 4 10 3 11 29 12 2 13
REMARK SMILES IDX 30 14 1 15 11 16 12 17 13 18 26 19 14 20 25 21 15 22 24 23
REMARK SMILES IDX 16 24 17 25 18 26 19 27 23 28 20 29 22 30 21 31
REMARK H PARENT 6 8
ROOT
ATOM      1  C   UNL     1      10.477 -56.447 -22.181  1.00  0.00     0.010 C 
ENDROOT
BRANCH   1   2
ATOM      2  C   UNL     1      11.174 -55.075 -22.301  1.00  0.00     0.000 C 
ATOM      3  N   UNL     1      11.204 -52.221 -22.959  1.00  0.00    -0.331 N 
ATOM      4  C   UNL     1      11.817 -53.226 -23.900  1.00  0.00     0.262 C 
ATOM      5  C   UNL     1      11.275 -52.673 -21.519  1.00  0.00     0.262 C 
ATOM      6  C   UNL     1      11.117 -54.570 -23.750  1.00  0.00     0.065 C 
ATOM      7  C   UNL     1      10.572 -54.015 -21.368  1.00  0.00     0.065 C 
ATOM      8  H   UNL     1      10.209 -52.133 -23.196  1.00  0.00     0.348 HD
BRANCH   3   9
ATOM      9  C   UNL     1      11.804 -50.843 -23.162  1.00  0.00     0.299 C 
BRANCH   9  10
ATOM     10  C   UNL     1      13.125 -50.878 -23.881  1.00  0.00     0.006 A 
ATOM     11  C   UNL     1      13.186 -50.682 -25.269  1.00  0.00     0.009 A 
ATOM     12  C   UNL     1      14.313 -51.127 -23.176  1.00  0.00     0.009 A 
ATOM     13  C   UNL     1      14.410 -50.742 -25.938  1.00  0.00     0.001 A 
ATOM     14  C   UNL     1      15.534 -51.184 -23.849  1.00  0.00     0.001 A 
ATOM     15  C   UNL     1      15.582 -50.994 -25.228  1.00  0.00     0.000 A 
ENDBRANCH   9  10
ENDBRANCH   3   9
ENDBRANCH   1   2
BRANCH   1  16
ATOM     16  C   UNL     1      11.345 -57.585 -21.621  1.00  0.00     0.061 C 
BRANCH  16  17
ATOM     17  C   UNL     1      10.765 -58.940 -21.848  1.00  0.00     0.091 A 
ATOM     18  N   UNL     1      10.545 -59.755 -20.806  1.00  0.00    -0.084 NA
ATOM     19  C   UNL     1      10.398 -59.549 -23.074  1.00  0.00     0.045 A 
ATOM     20  O   UNL     1      10.022 -60.920 -21.347  1.00  0.00    -0.356 OA
ATOM     21  C   UNL     1      10.404 -59.220 -24.434  1.00  0.00     0.016 A 
ATOM     22  C   UNL     1       9.935 -60.795 -22.699  1.00  0.00     0.169 A 
ATOM     23  C   UNL     1       9.928 -60.178 -25.347  1.00  0.00     0.027 A 
ATOM     24  C   UNL     1       9.460 -61.764 -23.584  1.00  0.00     0.076 A 
ATOM     25  C   UNL     1       9.442 -61.443 -24.952  1.00  0.00     0.041 A 
BRANCH  25  26
ATOM     26  N   UNL     1       8.997 -62.338 -25.942  1.00  0.00    -0.367 N 
ATOM     27  C   UNL     1       7.675 -62.982 -25.762  1.00  0.00     0.145 C 
ATOM     28  C   UNL     1       9.171 -61.835 -27.330  1.00  0.00     0.145 C 
ATOM     29  C   UNL     1       7.473 -64.072 -26.827  1.00  0.00     0.181 C 
ATOM     30  C   UNL     1       8.890 -62.961 -28.340  1.00  0.00     0.181 C 
ATOM     31  O   UNL     1       7.586 -63.529 -28.151  1.00  0.00    -0.378 OA
ENDBRANCH  25  26
ENDBRANCH  16  17
ENDBRANCH   1  16
TORSDOF 6
ENDMDL
MODEL 8
REMARK VINA RESULT:   -10.139      1.842      3.243
REMARK INTER + INTRA:         -14.078
REMARK INTER:                 -13.985
REMARK INTRA:                  -0.093
REMARK UNBOUND:                -0.383
REMARK SMILES c1ccc(C[N@H+]2CC[C@H](CCc3noc4cc(N5CCOCC5)ccc34)CC2)cc1
REMARK SMILES IDX 10 1 9 2 6 3 28 4 7 5 27 6 8 7 5 9 4 10 3 11 29 12 2 13
REMARK SMILES IDX 30 14 1 15 11 16 12 17 13 18 26 19 14 20 25 21 15 22 24 23
REMARK SMILES IDX 16 24 17 25 18 26 19 27 23 28 20 29 22 30 21 31
REMARK H PARENT 6 8
ROOT
ATOM      1  C   UNL     1      10.246 -53.135 -22.621  1.00  0.00     0.010 C 
ENDROOT
BRANCH   1   2
ATOM      2  C   UNL     1      11.089 -54.415 -22.798  1.00  0.00     0.000 C 
ATOM      3  N   UNL     1      11.413 -57.243 -23.488  1.00  0.00    -0.331 N 
ATOM      4  C   UNL     1      11.377 -56.810 -22.044  1.00  0.00     0.262 C 
ATOM      5  C   UNL     1      11.975 -56.169 -24.390  1.00  0.00     0.262 C 
ATOM      6  C   UNL     1      10.548 -55.541 -21.905  1.00  0.00     0.065 C 
ATOM      7  C   UNL     1      11.143 -54.900 -24.253  1.00  0.00     0.065 C 
ATOM      8  H   UNL     1      10.447 -57.413 -23.791  1.00  0.00     0.348 HD
BRANCH   3   9
ATOM      9  C   UNL     1      12.138 -58.565 -23.645  1.00  0.00     0.299 C 
BRANCH   9  10
ATOM     10  C   UNL     1      11.348 -59.734 -23.122  1.00  0.00     0.006 A 
ATOM     11  C   UNL     1      10.615 -59.623 -21.931  1.00  0.00     0.009 A 
ATOM     12  C   UNL     1      11.349 -60.958 -23.809  1.00  0.00     0.009 A 
ATOM     13  C   UNL     1       9.905 -60.718 -21.434  1.00  0.00     0.001 A 
ATOM     14  C   UNL     1      10.636 -62.049 -23.310  1.00  0.00     0.001 A 
ATOM     15  C   UNL     1       9.917 -61.929 -22.122  1.00  0.00     0.000 A 
ENDBRANCH   9  10
ENDBRANCH   3   9
ENDBRANCH   1   2
BRANCH   1  16
ATOM     16  C   UNL     1      10.914 -52.004 -21.824  1.00  0.00     0.061 C 
BRANCH  16  17
ATOM     17  C   UNL     1      11.641 -51.024 -22.680  1.00  0.00     0.091 A 
ATOM     18  N   UNL     1      12.711 -51.418 -23.387  1.00  0.00    -0.084 NA
ATOM     19  C   UNL     1      11.372 -49.645 -22.868  1.00  0.00     0.045 A 
ATOM     20  O   UNL     1      13.155 -50.287 -24.055  1.00  0.00    -0.356 OA
ATOM     21  C   UNL     1      10.443 -48.702 -22.412  1.00  0.00     0.016 A 
ATOM     22  C   UNL     1      12.356 -49.231 -23.744  1.00  0.00     0.169 A 
ATOM     23  C   UNL     1      10.560 -47.381 -22.880  1.00  0.00     0.027 A 
ATOM     24  C   UNL     1      12.495 -47.928 -24.222  1.00  0.00     0.076 A 
ATOM     25  C   UNL     1      11.560 -46.971 -23.788  1.00  0.00     0.041 A 
BRANCH  25  26
ATOM     26  N   UNL     1      11.601 -45.624 -24.190  1.00  0.00    -0.367 N 
ATOM     27  C   UNL     1      10.665 -44.672 -23.547  1.00  0.00     0.145 C 
ATOM     28  C   UNL     1      12.975 -45.063 -24.271  1.00  0.00     0.145 C 
ATOM     29  C   UNL     1      10.720 -43.316 -24.268  1.00  0.00     0.181 C 
ATOM     30  C   UNL     1      12.943 -43.680 -24.944  1.00  0.00     0.181 C 
ATOM     31  O   UNL     1      12.053 -42.781 -24.266  1.00  0.00    -0.378 OA
ENDBRANCH  25  26
ENDBRANCH  16  17
ENDBRANCH   1  16
TORSDOF 6
ENDMDL
MODEL 9
REMARK VINA RESULT:    -9.818      3.557     12.043
REMARK INTER + INTRA:         -13.644
REMARK INTER:                 -13.022
REMARK INTRA:                  -0.622
REMARK UNBOUND:                -0.383
REMARK SMILES c1ccc(C[N@H+]2CC[C@H](CCc3noc4cc(N5CCOCC5)ccc34)CC2)cc1
REMARK SMILES IDX 10 1 9 2 6 3 28 4 7 5 27 6 8 7 5 9 4 10 3 11 29 12 2 13
REMARK SMILES IDX 30 14 1 15 11 16 12 17 13 18 26 19 14 20 25 21 15 22 24 23
REMARK SMILES IDX 16 24 17 25 18 26 19 27 23 28 20 29 22 30 21 31
REMARK H PARENT 6 8
ROOT
ATOM      1  C   UNL     1      11.307 -54.402 -23.469  1.00  0.00     0.010 C 
ENDROOT
BRANCH   1   2
ATOM      2  C   UNL     1      11.310 -52.859 -23.479  1.00  0.00     0.000 C 
ATOM      3  N   UNL     1      12.360 -50.254 -22.647  1.00  0.00    -0.331 N 
ATOM      4  C   UNL     1      11.088 -50.791 -22.042  1.00  0.00     0.262 C 
ATOM      5  C   UNL     1      12.568 -50.744 -24.061  1.00  0.00     0.262 C 
ATOM      6  C   UNL     1      11.111 -52.313 -22.057  1.00  0.00     0.065 C 
ATOM      7  C   UNL     1      12.594 -52.267 -24.075  1.00  0.00     0.065 C 
ATOM      8  H   UNL     1      13.147 -50.604 -22.090  1.00  0.00     0.348 HD
BRANCH   3   9
ATOM      9  C   UNL     1      12.419 -48.742 -22.546  1.00  0.00     0.299 C 
BRANCH   9  10
ATOM     10  C   UNL     1      13.691 -48.245 -21.916  1.00  0.00     0.006 A 
ATOM     11  C   UNL     1      13.651 -47.309 -20.871  1.00  0.00     0.009 A 
ATOM     12  C   UNL     1      14.938 -48.696 -22.377  1.00  0.00     0.009 A 
ATOM     13  C   UNL     1      14.834 -46.829 -20.307  1.00  0.00     0.001 A 
ATOM     14  C   UNL     1      16.118 -48.215 -21.808  1.00  0.00     0.001 A 
ATOM     15  C   UNL     1      16.065 -47.281 -20.776  1.00  0.00     0.000 A 
ENDBRANCH   9  10
ENDBRANCH   3   9
ENDBRANCH   1   2
BRANCH   1  16
ATOM     16  C   UNL     1      10.106 -55.059 -22.771  1.00  0.00     0.061 C 
BRANCH  16  17
ATOM     17  C   UNL     1      10.311 -56.505 -22.472  1.00  0.00     0.091 A 
ATOM     18  N   UNL     1      11.384 -56.896 -21.769  1.00  0.00    -0.084 NA
ATOM     19  C   UNL     1       9.505 -57.607 -22.851  1.00  0.00     0.045 A 
ATOM     20  O   UNL     1      11.286 -58.276 -21.676  1.00  0.00    -0.356 OA
ATOM     21  C   UNL     1       8.324 -57.826 -23.570  1.00  0.00     0.016 A 
ATOM     22  C   UNL     1      10.167 -58.699 -22.322  1.00  0.00     0.169 A 
ATOM     23  C   UNL     1       7.870 -59.150 -23.706  1.00  0.00     0.027 A 
ATOM     24  C   UNL     1       9.739 -60.021 -22.445  1.00  0.00     0.076 A 
ATOM     25  C   UNL     1       8.545 -60.257 -23.148  1.00  0.00     0.041 A 
BRANCH  25  26
ATOM     26  N   UNL     1       8.018 -61.545 -23.350  1.00  0.00    -0.367 N 
ATOM     27  C   UNL     1       7.638 -61.940 -24.726  1.00  0.00     0.145 C 
ATOM     28  C   UNL     1       8.783 -62.622 -22.668  1.00  0.00     0.145 C 
ATOM     29  C   UNL     1       6.894 -63.284 -24.700  1.00  0.00     0.181 C 
ATOM     30  C   UNL     1       8.007 -63.948 -22.738  1.00  0.00     0.181 C 
ATOM     31  O   UNL     1       7.695 -64.309 -24.092  1.00  0.00    -0.378 OA
ENDBRANCH  25  26
ENDBRANCH  16  17
ENDBRANCH   1  16
TORSDOF 6
ENDMDL
