MODEL 1
REMARK VINA RESULT:   -11.827      0.000      0.000
REMARK INTER + INTRA:         -16.342
REMARK INTER:                 -15.975
REMARK INTRA:                  -0.367
REMARK UNBOUND:                -0.367
REMARK SMILES COc1cc2onc(CC[C@H]3CC[N@H+](Cc4ccccc4)CC3)c2cc1C
REMARK SMILES IDX 10 1 11 2 13 3 14 4 12 5 22 6 23 7 15 9 16 10 17 11 21 12
REMARK SMILES IDX 18 13 20 14 19 15 9 16 8 17 7 18 24 19 6 20 25 21 5 22 26 23
REMARK SMILES IDX 4 24 3 25 27 26 2 27 1 28
REMARK H PARENT 14 8
ROOT
ATOM      1  C   UNL     1      11.024 -56.080 -21.974  1.00  0.00     0.010 C 
ENDROOT
BRANCH   1   2
ATOM      2  C   UNL     1      10.900 -57.506 -22.548  1.00  0.00     0.000 C 
ATOM      3  C   UNL     1      11.645 -59.124 -24.348  1.00  0.00     0.262 C 
ATOM      4  N   UNL     1      11.871 -60.166 -23.276  1.00  0.00    -0.331 N 
ATOM      5  C   UNL     1      11.827 -57.732 -23.752  1.00  0.00     0.065 C 
ATOM      6  C   UNL     1      10.940 -59.991 -22.102  1.00  0.00     0.262 C 
ATOM      7  C   UNL     1      11.124 -58.602 -21.501  1.00  0.00     0.065 C 
ATOM      8  H   UNL     1      12.834 -60.042 -22.938  1.00  0.00     0.348 HD
BRANCH   4   9
ATOM      9  C   UNL     1      11.807 -61.580 -23.821  1.00  0.00     0.299 C 
BRANCH   9  10
ATOM     10  C   UNL     1      10.419 -62.157 -23.802  1.00  0.00     0.006 A 
ATOM     11  C   UNL     1       9.523 -61.898 -24.850  1.00  0.00     0.009 A 
ATOM     12  C   UNL     1      10.006 -62.982 -22.743  1.00  0.00     0.009 A 
ATOM     13  C   UNL     1       8.245 -62.457 -24.842  1.00  0.00     0.001 A 
ATOM     14  C   UNL     1       8.727 -63.539 -22.739  1.00  0.00     0.001 A 
ATOM     15  C   UNL     1       7.848 -63.278 -23.789  1.00  0.00     0.000 A 
ENDBRANCH   9  10
ENDBRANCH   4   9
ENDBRANCH   1   2
BRANCH   1  16
ATOM     16  C   UNL     1      10.143 -55.015 -22.639  1.00  0.00     0.061 C 
BRANCH  16  17
ATOM     17  C   UNL     1      10.630 -53.636 -22.355  1.00  0.00     0.091 A 
ATOM     18  N   UNL     1      10.256 -53.026 -21.223  1.00  0.00    -0.084 NA
ATOM     19  C   UNL     1      11.485 -52.817 -23.135  1.00  0.00     0.045 A 
ATOM     20  O   UNL     1      10.868 -51.782 -21.250  1.00  0.00    -0.356 OA
ATOM     21  C   UNL     1      12.170 -52.903 -24.356  1.00  0.00     0.021 A 
ATOM     22  C   UNL     1      11.601 -51.659 -22.390  1.00  0.00     0.170 A 
ATOM     23  C   UNL     1      12.949 -51.804 -24.776  1.00  0.00    -0.008 A 
ATOM     24  C   UNL     1      12.356 -50.549 -22.761  1.00  0.00     0.097 A 
ATOM     25  C   UNL     1      13.037 -50.639 -23.982  1.00  0.00     0.125 A 
ATOM     26  C   UNL     1      13.687 -51.885 -26.088  1.00  0.00     0.048 C 
BRANCH  25  27
ATOM     27  O   UNL     1      13.825 -49.640 -24.499  1.00  0.00    -0.496 OA
ATOM     28  C   UNL     1      13.176 -48.455 -24.944  1.00  0.00     0.278 C 
ENDBRANCH  25  27
ENDBRANCH  16  17
ENDBRANCH   1  16
TORSDOF 6
ENDMDL
MODEL 2
REMARK VINA RESULT:   -11.276      1.439      2.031
REMARK INTER + INTRA:         -15.598
REMARK INTER:                 -14.928
REMARK INTRA:                  -0.671
REMARK UNBOUND:                -0.367
REMARK SMILES COc1cc2onc(CC[C@H]3CC[N@H+](Cc4ccccc4)CC3)c2cc1C
REMARK SMILES IDX 10 1 11 2 13 3 14 4 12 5 22 6 23 7 15 9 16 10 17 11 21 12
REMARK SMILES IDX 18 13 20 14 19 15 9 16 8 17 7 18 24 19 6 20 25 21 5 22 26 23
REMARK SMILES IDX 4 24 3 25 27 26 2 27 1 28
REMARK H PARENT 14 8
ROOT
ATOM      1  C   UNL     1      11.146 -56.424 -22.216  1.00  0.00     0.010 C 
ENDROOT
BRANCH   1   2
ATOM      2  C   UNL     1      10.800 -57.913 -22.415  1.00  0.00     0.000 C 
ATOM      3  C   UNL     1       9.054 -59.587 -23.163  1.00  0.00     0.262 C 
ATOM      4  N   UNL     1      10.120 -60.292 -23.971  1.00  0.00    -0.331 N 
ATOM      5  C   UNL     1       9.408 -58.110 -23.033  1.00  0.00     0.065 C 
ATOM      6  C   UNL     1      11.491 -60.151 -23.358  1.00  0.00     0.262 C 
ATOM      7  C   UNL     1      11.850 -58.675 -23.232  1.00  0.00     0.065 C 
ATOM      8  H   UNL     1      10.139 -59.844 -24.896  1.00  0.00     0.348 HD
BRANCH   4   9
ATOM      9  C   UNL     1       9.781 -61.749 -24.229  1.00  0.00     0.299 C 
BRANCH   9  10
ATOM     10  C   UNL     1       9.337 -62.010 -25.641  1.00  0.00     0.006 A 
ATOM     11  C   UNL     1       9.953 -61.352 -26.717  1.00  0.00     0.009 A 
ATOM     12  C   UNL     1       8.311 -62.932 -25.906  1.00  0.00     0.009 A 
ATOM     13  C   UNL     1       9.557 -61.617 -28.028  1.00  0.00     0.001 A 
ATOM     14  C   UNL     1       7.918 -63.193 -27.219  1.00  0.00     0.001 A 
ATOM     15  C   UNL     1       8.543 -62.537 -28.279  1.00  0.00     0.000 A 
ENDBRANCH   9  10
ENDBRANCH   4   9
ENDBRANCH   1   2
BRANCH   1  16
ATOM     16  C   UNL     1      10.127 -55.421 -22.770  1.00  0.00     0.061 C 
BRANCH  16  17
ATOM     17  C   UNL     1      10.485 -54.017 -22.426  1.00  0.00     0.091 A 
ATOM     18  N   UNL     1       9.992 -53.468 -21.307  1.00  0.00    -0.084 NA
ATOM     19  C   UNL     1      11.321 -53.113 -23.129  1.00  0.00     0.045 A 
ATOM     20  O   UNL     1      10.505 -52.180 -21.266  1.00  0.00    -0.356 OA
ATOM     21  C   UNL     1      12.086 -53.114 -24.304  1.00  0.00     0.021 A 
ATOM     22  C   UNL     1      11.297 -51.971 -22.353  1.00  0.00     0.170 A 
ATOM     23  C   UNL     1      12.801 -51.947 -24.649  1.00  0.00    -0.008 A 
ATOM     24  C   UNL     1      11.984 -50.796 -22.650  1.00  0.00     0.097 A 
ATOM     25  C   UNL     1      12.746 -50.800 -23.825  1.00  0.00     0.125 A 
ATOM     26  C   UNL     1      13.625 -51.936 -25.911  1.00  0.00     0.048 C 
BRANCH  25  27
ATOM     27  O   UNL     1      13.484 -49.730 -24.268  1.00  0.00    -0.496 OA
ATOM     28  C   UNL     1      14.572 -49.301 -23.459  1.00  0.00     0.278 C 
ENDBRANCH  25  27
ENDBRANCH  16  17
ENDBRANCH   1  16
TORSDOF 6
ENDMDL
MODEL 3
REMARK VINA RESULT:   -11.158      1.531      2.105
REMARK INTER + INTRA:         -15.438
REMARK INTER:                 -15.063
REMARK INTRA:                  -0.375
REMARK UNBOUND:                -0.367
REMARK SMILES COc1cc2onc(CC[C@H]3CC[N@H+](Cc4ccccc4)CC3)c2cc1C
REMARK SMILES IDX 10 1 11 2 13 3 14 4 12 5 22 6 23 7 15 9 16 10 17 11 21 12
REMARK SMILES IDX 18 13 20 14 19 15 9 16 8 17 7 18 24 19 6 20 25 21 5 22 26 23
REMARK SMILES IDX 4 24 3 25 27 26 2 27 1 28
REMARK H PARENT 14 8
ROOT
ATOM      1  C   UNL     1      10.803 -56.093 -21.994  1.00  0.00     0.010 C 
ENDROOT
BRANCH   1   2
ATOM      2  C   UNL     1      11.022 -57.419 -22.749  1.00  0.00     0.000 C 
ATOM      3  C   UNL     1      12.089 -59.715 -22.707  1.00  0.00     0.262 C 
ATOM      4  N   UNL     1      10.776 -60.301 -23.175  1.00  0.00    -0.331 N 
ATOM      5  C   UNL     1      11.825 -58.434 -21.923  1.00  0.00     0.065 C 
ATOM      6  C   UNL     1       9.990 -59.336 -24.028  1.00  0.00     0.262 C 
ATOM      7  C   UNL     1       9.719 -58.057 -23.244  1.00  0.00     0.065 C 
ATOM      8  H   UNL     1      10.222 -60.503 -22.332  1.00  0.00     0.348 HD
BRANCH   4   9
ATOM      9  C   UNL     1      10.955 -61.634 -23.877  1.00  0.00     0.299 C 
BRANCH   9  10
ATOM     10  C   UNL     1       9.670 -62.400 -24.024  1.00  0.00     0.006 A 
ATOM     11  C   UNL     1       8.946 -62.356 -25.225  1.00  0.00     0.009 A 
ATOM     12  C   UNL     1       9.185 -63.187 -22.966  1.00  0.00     0.009 A 
ATOM     13  C   UNL     1       7.768 -63.089 -25.367  1.00  0.00     0.001 A 
ATOM     14  C   UNL     1       8.006 -63.918 -23.114  1.00  0.00     0.001 A 
ATOM     15  C   UNL     1       7.300 -63.871 -24.314  1.00  0.00     0.000 A 
ENDBRANCH   9  10
ENDBRANCH   4   9
ENDBRANCH   1   2
BRANCH   1  16
ATOM     16  C   UNL     1      10.172 -54.957 -22.810  1.00  0.00     0.061 C 
BRANCH  16  17
ATOM     17  C   UNL     1      11.154 -54.327 -23.736  1.00  0.00     0.091 A 
ATOM     18  N   UNL     1      11.602 -55.020 -24.792  1.00  0.00    -0.084 NA
ATOM     19  C   UNL     1      11.721 -53.028 -23.682  1.00  0.00     0.045 A 
ATOM     20  O   UNL     1      12.481 -54.172 -25.449  1.00  0.00    -0.356 OA
ATOM     21  C   UNL     1      11.640 -51.898 -22.857  1.00  0.00     0.021 A 
ATOM     22  C   UNL     1      12.551 -52.986 -24.787  1.00  0.00     0.170 A 
ATOM     23  C   UNL     1      12.410 -50.761 -23.185  1.00  0.00    -0.008 A 
ATOM     24  C   UNL     1      13.329 -51.890 -25.152  1.00  0.00     0.097 A 
ATOM     25  C   UNL     1      13.246 -50.763 -24.323  1.00  0.00     0.125 A 
ATOM     26  C   UNL     1      12.332 -49.542 -22.303  1.00  0.00     0.048 C 
BRANCH  25  27
ATOM     27  O   UNL     1      13.944 -49.599 -24.535  1.00  0.00    -0.496 OA
ATOM     28  C   UNL     1      13.914 -49.043 -25.844  1.00  0.00     0.278 C 
ENDBRANCH  25  27
ENDBRANCH  16  17
ENDBRANCH   1  16
TORSDOF 6
ENDMDL
MODEL 4
REMARK VINA RESULT:   -10.979      4.102      9.704
REMARK INTER + INTRA:         -15.197
REMARK INTER:                 -14.651
REMARK INTRA:                  -0.546
REMARK UNBOUND:                -0.367
REMARK SMILES COc1cc2onc(CC[C@H]3CC[N@H+](Cc4ccccc4)CC3)c2cc1C
REMARK SMILES IDX 10 1 11 2 13 3 14 4 12 5 22 6 23 7 15 9 16 10 17 11 21 12
REMARK SMILES IDX 18 13 20 14 19 15 9 16 8 17 7 18 24 19 6 20 25 21 5 22 26 23
REMARK SMILES IDX 4 24 3 25 27 26 2 27 1 28
REMARK H PARENT 14 8
ROOT
ATOM      1  C   UNL     1      10.737 -60.695 -22.512  1.00  0.00     0.010 C 
ENDROOT
BRANCH   1   2
ATOM      2  C   UNL     1      10.414 -59.200 -22.317  1.00  0.00     0.000 C 
ATOM      3  C   UNL     1      11.347 -56.870 -21.979  1.00  0.00     0.262 C 
ATOM      4  N   UNL     1      10.405 -56.371 -23.051  1.00  0.00    -0.331 N 
ATOM      5  C   UNL     1      11.681 -58.335 -22.237  1.00  0.00     0.065 C 
ATOM      6  C   UNL     1       9.132 -57.178 -23.117  1.00  0.00     0.262 C 
ATOM      7  C   UNL     1       9.463 -58.642 -23.381  1.00  0.00     0.065 C 
ATOM      8  H   UNL     1      10.893 -56.475 -23.950  1.00  0.00     0.348 HD
BRANCH   4   9
ATOM      9  C   UNL     1      10.109 -54.888 -22.916  1.00  0.00     0.299 C 
BRANCH   9  10
ATOM     10  C   UNL     1      11.114 -54.020 -23.620  1.00  0.00     0.006 A 
ATOM     11  C   UNL     1      11.403 -52.732 -23.144  1.00  0.00     0.009 A 
ATOM     12  C   UNL     1      11.794 -54.494 -24.754  1.00  0.00     0.009 A 
ATOM     13  C   UNL     1      12.356 -51.939 -23.784  1.00  0.00     0.001 A 
ATOM     14  C   UNL     1      12.747 -53.697 -25.390  1.00  0.00     0.001 A 
ATOM     15  C   UNL     1      13.029 -52.422 -24.904  1.00  0.00     0.000 A 
ENDBRANCH   9  10
ENDBRANCH   4   9
ENDBRANCH   1   2
BRANCH   1  16
ATOM     16  C   UNL     1       9.723 -61.680 -21.918  1.00  0.00     0.061 C 
BRANCH  16  17
ATOM     17  C   UNL     1       8.924 -62.359 -22.976  1.00  0.00     0.091 A 
ATOM     18  N   UNL     1       7.973 -63.235 -22.622  1.00  0.00    -0.084 NA
ATOM     19  C   UNL     1       9.006 -62.214 -24.384  1.00  0.00     0.045 A 
ATOM     20  O   UNL     1       7.417 -63.681 -23.812  1.00  0.00    -0.356 OA
ATOM     21  C   UNL     1       9.764 -61.477 -25.305  1.00  0.00     0.021 A 
ATOM     22  C   UNL     1       8.033 -63.071 -24.861  1.00  0.00     0.170 A 
ATOM     23  C   UNL     1       9.505 -61.641 -26.683  1.00  0.00    -0.008 A 
ATOM     24  C   UNL     1       7.740 -63.268 -26.208  1.00  0.00     0.097 A 
ATOM     25  C   UNL     1       8.501 -62.531 -27.125  1.00  0.00     0.125 A 
ATOM     26  C   UNL     1      10.315 -60.856 -27.682  1.00  0.00     0.048 C 
BRANCH  25  27
ATOM     27  O   UNL     1       8.344 -62.603 -28.488  1.00  0.00    -0.496 OA
ATOM     28  C   UNL     1       8.008 -63.867 -29.046  1.00  0.00     0.278 C 
ENDBRANCH  25  27
ENDBRANCH  16  17
ENDBRANCH   1  16
TORSDOF 6
ENDMDL
MODEL 5
REMARK VINA RESULT:   -10.949      3.591      9.612
REMARK INTER + INTRA:         -15.156
REMARK INTER:                 -14.221
REMARK INTRA:                  -0.935
REMARK UNBOUND:                -0.367
REMARK SMILES COc1cc2onc(CC[C@H]3CC[N@H+](Cc4ccccc4)CC3)c2cc1C
REMARK SMILES IDX 10 1 11 2 13 3 14 4 12 5 22 6 23 7 15 9 16 10 17 11 21 12
REMARK SMILES IDX 18 13 20 14 19 15 9 16 8 17 7 18 24 19 6 20 25 21 5 22 26 23
REMARK SMILES IDX 4 24 3 25 27 26 2 27 1 28
REMARK H PARENT 14 8
ROOT
ATOM      1  C   UNL     1      10.547 -60.138 -21.901  1.00  0.00     0.010 C 
ENDROOT
BRANCH   1   2
ATOM      2  C   UNL     1      10.235 -58.629 -21.969  1.00  0.00     0.000 C 
ATOM      3  C   UNL     1      11.184 -56.282 -22.010  1.00  0.00     0.262 C 
ATOM      4  N   UNL     1      10.270 -55.965 -23.172  1.00  0.00    -0.331 N 
ATOM      5  C   UNL     1      11.509 -57.772 -22.009  1.00  0.00     0.065 C 
ATOM      6  C   UNL     1       8.990 -56.764 -23.128  1.00  0.00     0.262 C 
ATOM      7  C   UNL     1       9.312 -58.254 -23.133  1.00  0.00     0.065 C 
ATOM      8  H   UNL     1      10.775 -56.224 -24.029  1.00  0.00     0.348 HD
BRANCH   4   9
ATOM      9  C   UNL     1       9.986 -54.480 -23.296  1.00  0.00     0.299 C 
BRANCH   9  10
ATOM     10  C   UNL     1      11.172 -53.692 -23.776  1.00  0.00     0.006 A 
ATOM     11  C   UNL     1      11.913 -54.121 -24.888  1.00  0.00     0.009 A 
ATOM     12  C   UNL     1      11.545 -52.501 -23.130  1.00  0.00     0.009 A 
ATOM     13  C   UNL     1      12.997 -53.373 -25.347  1.00  0.00     0.001 A 
ATOM     14  C   UNL     1      12.630 -51.756 -23.594  1.00  0.00     0.001 A 
ATOM     15  C   UNL     1      13.353 -52.191 -24.703  1.00  0.00     0.000 A 
ENDBRANCH   9  10
ENDBRANCH   4   9
ENDBRANCH   1   2
BRANCH   1  16
ATOM     16  C   UNL     1      11.702 -60.621 -22.787  1.00  0.00     0.061 C 
BRANCH  16  17
ATOM     17  C   UNL     1      11.297 -60.729 -24.216  1.00  0.00     0.091 A 
ATOM     18  N   UNL     1      11.986 -60.056 -25.148  1.00  0.00    -0.084 NA
ATOM     19  C   UNL     1      10.241 -61.482 -24.788  1.00  0.00     0.045 A 
ATOM     20  O   UNL     1      11.378 -60.363 -26.356  1.00  0.00    -0.356 OA
ATOM     21  C   UNL     1       9.230 -62.347 -24.344  1.00  0.00     0.021 A 
ATOM     22  C   UNL     1      10.338 -61.214 -26.139  1.00  0.00     0.170 A 
ATOM     23  C   UNL     1       8.350 -62.907 -25.295  1.00  0.00    -0.008 A 
ATOM     24  C   UNL     1       9.496 -61.741 -27.116  1.00  0.00     0.097 A 
ATOM     25  C   UNL     1       8.487 -62.603 -26.668  1.00  0.00     0.125 A 
ATOM     26  C   UNL     1       7.258 -63.836 -24.829  1.00  0.00     0.048 C 
BRANCH  25  27
ATOM     27  O   UNL     1       7.571 -63.210 -27.493  1.00  0.00    -0.496 OA
ATOM     28  C   UNL     1       8.024 -63.653 -28.765  1.00  0.00     0.278 C 
ENDBRANCH  25  27
ENDBRANCH  16  17
ENDBRANCH   1  16
TORSDOF 6
ENDMDL
MODEL 6
REMARK VINA RESULT:   -10.914      4.169      8.640
REMARK INTER + INTRA:         -15.110
REMARK INTER:                 -14.159
REMARK INTRA:                  -0.951
REMARK UNBOUND:                -0.367
REMARK SMILES COc1cc2onc(CC[C@H]3CC[N@H+](Cc4ccccc4)CC3)c2cc1C
REMARK SMILES IDX 10 1 11 2 13 3 14 4 12 5 22 6 23 7 15 9 16 10 17 11 21 12
REMARK SMILES IDX 18 13 20 14 19 15 9 16 8 17 7 18 24 19 6 20 25 21 5 22 26 23
REMARK SMILES IDX 4 24 3 25 27 26 2 27 1 28
REMARK H PARENT 14 8
ROOT
ATOM      1  C   UNL     1       7.214 -61.142 -23.628  1.00  0.00     0.010 C 
ENDROOT
BRANCH   1   2
ATOM      2  C   UNL     1       8.091 -60.134 -22.859  1.00  0.00     0.000 C 
ATOM      3  C   UNL     1      10.265 -59.749 -21.622  1.00  0.00     0.262 C 
ATOM      4  N   UNL     1      10.456 -58.476 -22.414  1.00  0.00    -0.331 N 
ATOM      5  C   UNL     1       9.438 -60.737 -22.436  1.00  0.00     0.065 C 
ATOM      6  C   UNL     1       9.145 -57.840 -22.802  1.00  0.00     0.262 C 
ATOM      7  C   UNL     1       8.318 -58.824 -23.622  1.00  0.00     0.065 C 
ATOM      8  H   UNL     1      10.952 -58.733 -23.278  1.00  0.00     0.348 HD
BRANCH   4   9
ATOM      9  C   UNL     1      11.359 -57.483 -21.705  1.00  0.00     0.299 C 
BRANCH   9  10
ATOM     10  C   UNL     1      11.201 -56.077 -22.212  1.00  0.00     0.006 A 
ATOM     11  C   UNL     1      11.438 -55.773 -23.561  1.00  0.00     0.009 A 
ATOM     12  C   UNL     1      10.794 -55.049 -21.345  1.00  0.00     0.009 A 
ATOM     13  C   UNL     1      11.265 -54.471 -24.034  1.00  0.00     0.001 A 
ATOM     14  C   UNL     1      10.622 -53.749 -21.823  1.00  0.00     0.001 A 
ATOM     15  C   UNL     1      10.855 -53.462 -23.167  1.00  0.00     0.000 A 
ENDBRANCH   9  10
ENDBRANCH   4   9
ENDBRANCH   1   2
BRANCH   1  16
ATOM     16  C   UNL     1       7.916 -62.429 -24.081  1.00  0.00     0.061 C 
BRANCH  16  17
ATOM     17  C   UNL     1       8.290 -62.380 -25.522  1.00  0.00     0.091 A 
ATOM     18  N   UNL     1       7.611 -63.126 -26.404  1.00  0.00    -0.084 NA
ATOM     19  C   UNL     1       9.307 -61.618 -26.152  1.00  0.00     0.045 A 
ATOM     20  O   UNL     1       8.185 -62.859 -27.638  1.00  0.00    -0.356 OA
ATOM     21  C   UNL     1      10.292 -60.695 -25.774  1.00  0.00     0.021 A 
ATOM     22  C   UNL     1       9.195 -61.960 -27.486  1.00  0.00     0.170 A 
ATOM     23  C   UNL     1      11.132 -60.152 -26.770  1.00  0.00    -0.008 A 
ATOM     24  C   UNL     1       9.998 -61.453 -28.505  1.00  0.00     0.097 A 
ATOM     25  C   UNL     1      10.982 -60.532 -28.122  1.00  0.00     0.125 A 
ATOM     26  C   UNL     1      12.195 -59.160 -26.374  1.00  0.00     0.048 C 
BRANCH  25  27
ATOM     27  O   UNL     1      11.858 -59.935 -28.995  1.00  0.00    -0.496 OA
ATOM     28  C   UNL     1      11.446 -59.797 -30.349  1.00  0.00     0.278 C 
ENDBRANCH  25  27
ENDBRANCH  16  17
ENDBRANCH   1  16
TORSDOF 6
ENDMDL
MODEL 7
REMARK VINA RESULT:   -10.733      3.451     10.244
REMARK INTER + INTRA:         -14.864
REMARK INTER:                 -14.220
REMARK INTRA:                  -0.644
REMARK UNBOUND:                -0.367
REMARK SMILES COc1cc2onc(CC[C@H]3CC[N@H+](Cc4ccccc4)CC3)c2cc1C
REMARK SMILES IDX 10 1 11 2 13 3 14 4 12 5 22 6 23 7 15 9 16 10 17 11 21 12
REMARK SMILES IDX 18 13 20 14 19 15 9 16 8 17 7 18 24 19 6 20 25 21 5 22 26 23
REMARK SMILES IDX 4 24 3 25 27 26 2 27 1 28
REMARK H PARENT 14 8
ROOT
ATOM      1  C   UNL     1      11.782 -57.440 -23.373  1.00  0.00     0.010 C 
ENDROOT
BRANCH   1   2
ATOM      2  C   UNL     1      10.979 -56.160 -23.064  1.00  0.00     0.000 C 
ATOM      3  C   UNL     1      10.292 -54.479 -21.300  1.00  0.00     0.262 C 
ATOM      4  N   UNL     1      10.643 -53.369 -22.264  1.00  0.00    -0.331 N 
ATOM      5  C   UNL     1      11.142 -55.708 -21.605  1.00  0.00     0.065 C 
ATOM      6  C   UNL     1      10.446 -53.777 -23.703  1.00  0.00     0.262 C 
ATOM      7  C   UNL     1      11.301 -55.000 -24.013  1.00  0.00     0.065 C 
ATOM      8  H   UNL     1      11.640 -53.159 -22.127  1.00  0.00     0.348 HD
BRANCH   4   9
ATOM      9  C   UNL     1       9.906 -52.079 -21.953  1.00  0.00     0.299 C 
BRANCH   9  10
ATOM     10  C   UNL     1      10.662 -50.852 -22.379  1.00  0.00     0.006 A 
ATOM     11  C   UNL     1      12.003 -50.942 -22.781  1.00  0.00     0.009 A 
ATOM     12  C   UNL     1      10.030 -49.598 -22.401  1.00  0.00     0.009 A 
ATOM     13  C   UNL     1      12.694 -49.805 -23.202  1.00  0.00     0.001 A 
ATOM     14  C   UNL     1      10.724 -48.463 -22.822  1.00  0.00     0.001 A 
ATOM     15  C   UNL     1      12.054 -48.568 -23.225  1.00  0.00     0.000 A 
ENDBRANCH   9  10
ENDBRANCH   4   9
ENDBRANCH   1   2
BRANCH   1  16
ATOM     16  C   UNL     1      11.655 -58.571 -22.345  1.00  0.00     0.061 C 
BRANCH  16  17
ATOM     17  C   UNL     1      11.204 -59.844 -22.973  1.00  0.00     0.091 A 
ATOM     18  N   UNL     1      12.115 -60.758 -23.336  1.00  0.00    -0.084 NA
ATOM     19  C   UNL     1       9.885 -60.277 -23.259  1.00  0.00     0.045 A 
ATOM     20  O   UNL     1      11.392 -61.812 -23.874  1.00  0.00    -0.356 OA
ATOM     21  C   UNL     1       8.580 -59.785 -23.111  1.00  0.00     0.021 A 
ATOM     22  C   UNL     1      10.063 -61.524 -23.827  1.00  0.00     0.170 A 
ATOM     23  C   UNL     1       7.500 -60.581 -23.550  1.00  0.00    -0.008 A 
ATOM     24  C   UNL     1       9.032 -62.346 -24.275  1.00  0.00     0.097 A 
ATOM     25  C   UNL     1       7.731 -61.850 -24.126  1.00  0.00     0.125 A 
ATOM     26  C   UNL     1       6.094 -60.060 -23.397  1.00  0.00     0.048 C 
BRANCH  25  27
ATOM     27  O   UNL     1       6.600 -62.527 -24.513  1.00  0.00    -0.496 OA
ATOM     28  C   UNL     1       6.773 -63.720 -25.268  1.00  0.00     0.278 C 
ENDBRANCH  25  27
ENDBRANCH  16  17
ENDBRANCH   1  16
TORSDOF 6
ENDMDL
MODEL 8
REMARK VINA RESULT:   -10.588      3.503     10.797
REMARK INTER + INTRA:         -14.668
REMARK INTER:                 -14.110
REMARK INTRA:                  -0.559
REMARK UNBOUND:                -0.367
REMARK SMILES COc1cc2onc(CC[C@H]3CC[N@H+](Cc4ccccc4)CC3)c2cc1C
REMARK SMILES IDX 10 1 11 2 13 3 14 4 12 5 22 6 23 7 15 9 16 10 17 11 21 12
REMARK SMILES IDX 18 13 20 14 19 15 9 16 8 17 7 18 24 19 6 20 25 21 5 22 26 23
REMARK SMILES IDX 4 24 3 25 27 26 2 27 1 28
REMARK H PARENT 14 8
ROOT
ATOM      1  C   UNL     1      10.535 -54.629 -23.521  1.00  0.00     0.010 C 
ENDROOT
BRANCH   1   2
ATOM      2  C   UNL     1      11.276 -53.390 -22.979  1.00  0.00     0.000 C 
ATOM      3  C   UNL     1      12.882 -51.503 -23.498  1.00  0.00     0.262 C 
ATOM      4  N   UNL     1      11.925 -50.544 -22.828  1.00  0.00    -0.331 N 
ATOM      5  C   UNL     1      12.105 -52.687 -24.064  1.00  0.00     0.065 C 
ATOM      6  C   UNL     1      11.131 -51.203 -21.727  1.00  0.00     0.262 C 
ATOM      7  C   UNL     1      10.348 -52.383 -22.291  1.00  0.00     0.065 C 
ATOM      8  H   UNL     1      11.264 -50.228 -23.549  1.00  0.00     0.348 HD
BRANCH   4   9
ATOM      9  C   UNL     1      12.617 -49.289 -22.330  1.00  0.00     0.299 C 
BRANCH   9  10
ATOM     10  C   UNL     1      12.026 -48.027 -22.893  1.00  0.00     0.006 A 
ATOM     11  C   UNL     1      12.408 -47.563 -24.161  1.00  0.00     0.009 A 
ATOM     12  C   UNL     1      11.066 -47.304 -22.166  1.00  0.00     0.009 A 
ATOM     13  C   UNL     1      11.838 -46.405 -24.692  1.00  0.00     0.001 A 
ATOM     14  C   UNL     1      10.498 -46.147 -22.701  1.00  0.00     0.001 A 
ATOM     15  C   UNL     1      10.882 -45.700 -23.964  1.00  0.00     0.000 A 
ENDBRANCH   9  10
ENDBRANCH   4   9
ENDBRANCH   1   2
BRANCH   1  16
ATOM     16  C   UNL     1      10.232 -55.727 -22.493  1.00  0.00     0.061 C 
BRANCH  16  17
ATOM     17  C   UNL     1      10.136 -57.071 -23.129  1.00  0.00     0.091 A 
ATOM     18  N   UNL     1      11.224 -57.610 -23.696  1.00  0.00    -0.084 NA
ATOM     19  C   UNL     1       9.012 -57.929 -23.230  1.00  0.00     0.045 A 
ATOM     20  O   UNL     1      10.818 -58.843 -24.184  1.00  0.00    -0.356 OA
ATOM     21  C   UNL     1       7.664 -57.918 -22.842  1.00  0.00     0.021 A 
ATOM     22  C   UNL     1       9.499 -59.032 -23.905  1.00  0.00     0.170 A 
ATOM     23  C   UNL     1       6.858 -59.033 -23.157  1.00  0.00    -0.008 A 
ATOM     24  C   UNL     1       8.745 -60.155 -24.239  1.00  0.00     0.097 A 
ATOM     25  C   UNL     1       7.399 -60.139 -23.851  1.00  0.00     0.125 A 
ATOM     26  C   UNL     1       5.408 -59.031 -22.747  1.00  0.00     0.048 C 
BRANCH  25  27
ATOM     27  O   UNL     1       6.515 -61.160 -24.098  1.00  0.00    -0.496 OA
ATOM     28  C   UNL     1       6.953 -62.487 -23.835  1.00  0.00     0.278 C 
ENDBRANCH  25  27
ENDBRANCH  16  17
ENDBRANCH   1  16
TORSDOF 6
ENDMDL
MODEL 9
REMARK VINA RESULT:    -9.926      3.311     10.476
REMARK INTER + INTRA:         -13.774
REMARK INTER:                 -13.568
REMARK INTRA:                  -0.206
REMARK UNBOUND:                -0.367
REMARK SMILES COc1cc2onc(CC[C@H]3CC[N@H+](Cc4ccccc4)CC3)c2cc1C
REMARK SMILES IDX 10 1 11 2 13 3 14 4 12 5 22 6 23 7 15 9 16 10 17 11 21 12
REMARK SMILES IDX 18 13 20 14 19 15 9 16 8 17 7 18 24 19 6 20 25 21 5 22 26 23
REMARK SMILES IDX 4 24 3 25 27 26 2 27 1 28
REMARK H PARENT 14 8
ROOT
ATOM      1  C   UNL     1      11.330 -56.849 -22.957  1.00  0.00     0.010 C 
ENDROOT
BRANCH   1   2
ATOM      2  C   UNL     1      10.804 -55.427 -22.675  1.00  0.00     0.000 C 
ATOM      3  C   UNL     1      10.530 -53.586 -20.960  1.00  0.00     0.262 C 
ATOM      4  N   UNL     1      11.048 -52.599 -21.981  1.00  0.00    -0.331 N 
ATOM      5  C   UNL     1      11.113 -54.966 -21.243  1.00  0.00     0.065 C 
ATOM      6  C   UNL     1      10.715 -53.009 -23.394  1.00  0.00     0.262 C 
ATOM      7  C   UNL     1      11.303 -54.386 -23.682  1.00  0.00     0.065 C 
ATOM      8  H   UNL     1      12.071 -52.582 -21.888  1.00  0.00     0.348 HD
BRANCH   4   9
ATOM      9  C   UNL     1      10.589 -51.180 -21.699  1.00  0.00     0.299 C 
BRANCH   9  10
ATOM     10  C   UNL     1      11.273 -50.157 -22.561  1.00  0.00     0.006 A 
ATOM     11  C   UNL     1      10.710 -48.885 -22.744  1.00  0.00     0.009 A 
ATOM     12  C   UNL     1      12.498 -50.453 -23.182  1.00  0.00     0.009 A 
ATOM     13  C   UNL     1      11.362 -47.928 -23.523  1.00  0.00     0.001 A 
ATOM     14  C   UNL     1      13.146 -49.493 -23.960  1.00  0.00     0.001 A 
ATOM     15  C   UNL     1      12.578 -48.232 -24.128  1.00  0.00     0.000 A 
ENDBRANCH   9  10
ENDBRANCH   4   9
ENDBRANCH   1   2
BRANCH   1  16
ATOM     16  C   UNL     1      10.621 -57.984 -22.207  1.00  0.00     0.061 C 
BRANCH  16  17
ATOM     17  C   UNL     1       9.602 -58.660 -23.058  1.00  0.00     0.091 A 
ATOM     18  N   UNL     1       8.841 -57.927 -23.882  1.00  0.00    -0.084 NA
ATOM     19  C   UNL     1       9.293 -60.041 -23.149  1.00  0.00     0.045 A 
ATOM     20  O   UNL     1       8.012 -58.832 -24.528  1.00  0.00    -0.356 OA
ATOM     21  C   UNL     1       9.732 -61.239 -22.567  1.00  0.00     0.021 A 
ATOM     22  C   UNL     1       8.283 -60.091 -24.090  1.00  0.00     0.170 A 
ATOM     23  C   UNL     1       9.124 -62.450 -22.965  1.00  0.00    -0.008 A 
ATOM     24  C   UNL     1       7.652 -61.258 -24.515  1.00  0.00     0.097 A 
ATOM     25  C   UNL     1       8.093 -62.452 -23.931  1.00  0.00     0.125 A 
ATOM     26  C   UNL     1       9.587 -63.743 -22.345  1.00  0.00     0.048 C 
BRANCH  25  27
ATOM     27  O   UNL     1       7.582 -63.691 -24.233  1.00  0.00    -0.496 OA
ATOM     28  C   UNL     1       6.895 -63.835 -25.470  1.00  0.00     0.278 C 
ENDBRANCH  25  27
ENDBRANCH  16  17
ENDBRANCH   1  16
TORSDOF 6
ENDMDL
