MODEL 1
REMARK VINA RESULT:   -10.117      0.000      0.000
REMARK INTER + INTRA:         -10.117
REMARK INTER:                 -10.117
REMARK INTRA:                   0.000
REMARK UNBOUND:                 0.000
REMARK SMILES CC1=C[C@@H]2Cc3[nH]c4cc(Cl)ccc4c(=N)c3[C@H](C1)C2
REMARK SMILES IDX 7 1 6 2 17 3 15 4 14 5 13 6 12 7 10 8 11 9 9 10 8 11 18 12
REMARK SMILES IDX 19 13 2 14 1 15 3 16 4 17 5 18 20 19 16 21
REMARK H PARENT 7 20 16 22
ROOT
ATOM      1  N   UNL     1      10.686 -59.287 -21.644  1.00  0.00    -0.358 N 
ATOM      2  C   UNL     1      10.789 -60.970 -22.327  1.00  0.00     0.021 A 
ATOM      3  C   UNL     1      11.391 -61.249 -23.838  1.00  0.00     0.000 A 
ATOM      4  C   UNL     1      12.249 -59.773 -24.850  1.00  0.00     0.068 A 
ATOM      5  C   UNL     1      11.857 -58.007 -24.202  1.00  0.00     0.023 A 
ATOM      6  C   UNL     1      12.200 -56.869 -24.872  1.00  0.00     0.014 A 
ATOM      7  C   UNL     1      11.882 -55.662 -24.195  1.00  0.00     0.021 A 
ATOM      8  C   UNL     1      11.253 -55.542 -22.877  1.00  0.00     0.043 A 
ATOM      9  Cl  UNL     1      10.993 -53.930 -22.285  1.00  0.00    -0.084 Cl
ATOM     10  C   UNL     1      10.847 -56.602 -22.052  1.00  0.00     0.047 A 
ATOM     11  C   UNL     1      11.093 -57.816 -22.632  1.00  0.00     0.049 A 
ATOM     12  C   UNL     1      10.325 -61.615 -24.890  1.00  0.00     0.028 C 
ATOM     13  C   UNL     1      10.062 -60.179 -25.328  1.00  0.00     0.039 C 
ATOM     14  C   UNL     1      10.351 -59.456 -23.830  1.00  0.00    -0.076 C 
ATOM     15  C   UNL     1      12.260 -59.612 -22.871  1.00  0.00     0.039 C 
ATOM     16  C   UNL     1       9.007 -59.628 -23.379  1.00  0.00    -0.024 C 
ATOM     17  C   UNL     1       8.620 -61.153 -23.074  1.00  0.00     0.018 C 
ATOM     18  C   UNL     1       9.505 -61.642 -21.940  1.00  0.00     0.062 C 
ATOM     19  C   UNL     1       8.978 -62.069 -24.287  1.00  0.00     0.017 C 
ATOM     20  H   UNL     1       9.733 -59.108 -21.319  1.00  0.00     0.166 HD
ENDROOT
BRANCH   4  21
ATOM     21  N   UNL     1      13.025 -59.970 -25.868  1.00  0.00    -0.300 NA
ATOM     22  H   UNL     1      12.901 -59.216 -26.549  1.00  0.00     0.188 HD
ENDBRANCH   4  21
TORSDOF 1
ENDMDL
MODEL 2
REMARK VINA RESULT:    -9.919      3.028      5.582
REMARK INTER + INTRA:          -9.919
REMARK INTER:                  -9.919
REMARK INTRA:                   0.000
REMARK UNBOUND:                 0.000
REMARK SMILES CC1=C[C@@H]2Cc3[nH]c4cc(Cl)ccc4c(=N)c3[C@H](C1)C2
REMARK SMILES IDX 7 1 6 2 17 3 15 4 14 5 13 6 12 7 10 8 11 9 9 10 8 11 18 12
REMARK SMILES IDX 19 13 2 14 1 15 3 16 4 17 5 18 20 19 16 21
REMARK H PARENT 7 20 16 22
ROOT
ATOM      1  N   UNL     1      11.334 -60.572 -25.335  1.00  0.00    -0.358 N 
ATOM      2  C   UNL     1      11.870 -60.027 -23.684  1.00  0.00     0.021 A 
ATOM      3  C   UNL     1      11.129 -60.577 -22.316  1.00  0.00     0.000 A 
ATOM      4  C   UNL     1       9.794 -62.040 -22.432  1.00  0.00     0.068 A 
ATOM      5  C   UNL     1       9.087 -62.359 -24.190  1.00  0.00     0.023 A 
ATOM      6  C   UNL     1       8.032 -63.189 -24.436  1.00  0.00     0.014 A 
ATOM      7  C   UNL     1       7.704 -63.343 -25.808  1.00  0.00     0.021 A 
ATOM      8  C   UNL     1       8.389 -62.719 -26.943  1.00  0.00     0.043 A 
ATOM      9  Cl  UNL     1       7.777 -63.099 -28.524  1.00  0.00    -0.084 Cl
ATOM     10  C   UNL     1       9.490 -61.852 -26.873  1.00  0.00     0.047 A 
ATOM     11  C   UNL     1       9.870 -61.622 -25.579  1.00  0.00     0.049 A 
ATOM     12  C   UNL     1      10.224 -59.539 -21.623  1.00  0.00     0.028 C 
ATOM     13  C   UNL     1       8.962 -59.923 -22.385  1.00  0.00     0.039 C 
ATOM     14  C   UNL     1       9.723 -60.367 -23.824  1.00  0.00    -0.076 C 
ATOM     15  C   UNL     1      11.150 -61.963 -23.880  1.00  0.00     0.039 C 
ATOM     16  C   UNL     1       9.711 -59.040 -24.353  1.00  0.00    -0.024 C 
ATOM     17  C   UNL     1      10.714 -58.039 -23.604  1.00  0.00     0.018 C 
ATOM     18  C   UNL     1      12.129 -58.555 -23.809  1.00  0.00     0.062 C 
ATOM     19  C   UNL     1      10.490 -58.082 -22.060  1.00  0.00     0.017 C 
ATOM     20  H   UNL     1      11.150 -59.754 -25.921  1.00  0.00     0.166 HD
ENDROOT
BRANCH   4  21
ATOM     21  N   UNL     1       9.422 -62.742 -21.409  1.00  0.00    -0.300 NA
ATOM     22  H   UNL     1      10.224 -62.916 -20.798  1.00  0.00     0.188 HD
ENDBRANCH   4  21
TORSDOF 1
ENDMDL
MODEL 3
REMARK VINA RESULT:    -9.824      3.427      5.430
REMARK INTER + INTRA:          -9.824
REMARK INTER:                  -9.824
REMARK INTRA:                   0.000
REMARK UNBOUND:                 0.000
REMARK SMILES CC1=C[C@@H]2Cc3[nH]c4cc(Cl)ccc4c(=N)c3[C@H](C1)C2
REMARK SMILES IDX 7 1 6 2 17 3 15 4 14 5 13 6 12 7 10 8 11 9 9 10 8 11 18 12
REMARK SMILES IDX 19 13 2 14 1 15 3 16 4 17 5 18 20 19 16 21
REMARK H PARENT 7 20 16 22
ROOT
ATOM      1  N   UNL     1       8.370 -60.596 -23.375  1.00  0.00    -0.358 N 
ATOM      2  C   UNL     1       9.618 -59.273 -23.330  1.00  0.00     0.021 A 
ATOM      3  C   UNL     1      10.590 -58.965 -24.628  1.00  0.00     0.000 A 
ATOM      4  C   UNL     1      10.247 -59.872 -26.359  1.00  0.00     0.068 A 
ATOM      5  C   UNL     1       9.123 -61.427 -26.254  1.00  0.00     0.023 A 
ATOM      6  C   UNL     1       8.927 -62.283 -27.299  1.00  0.00     0.014 A 
ATOM      7  C   UNL     1       8.008 -63.335 -27.041  1.00  0.00     0.021 A 
ATOM      8  C   UNL     1       7.268 -63.559 -25.797  1.00  0.00     0.043 A 
ATOM      9  Cl  UNL     1       6.194 -64.925 -25.768  1.00  0.00    -0.084 Cl
ATOM     10  C   UNL     1       7.341 -62.776 -24.635  1.00  0.00     0.047 A 
ATOM     11  C   UNL     1       8.225 -61.742 -24.778  1.00  0.00     0.049 A 
ATOM     12  C   UNL     1      12.051 -59.424 -24.451  1.00  0.00     0.028 C 
ATOM     13  C   UNL     1      11.830 -60.817 -25.027  1.00  0.00     0.039 C 
ATOM     14  C   UNL     1      10.238 -61.003 -24.498  1.00  0.00    -0.076 C 
ATOM     15  C   UNL     1       8.690 -59.670 -25.143  1.00  0.00     0.039 C 
ATOM     16  C   UNL     1      10.619 -61.525 -23.224  1.00  0.00    -0.024 C 
ATOM     17  C   UNL     1      11.289 -60.436 -22.257  1.00  0.00     0.018 C 
ATOM     18  C   UNL     1      10.252 -59.362 -21.973  1.00  0.00     0.062 C 
ATOM     19  C   UNL     1      12.452 -59.690 -22.984  1.00  0.00     0.017 C 
ATOM     20  H   UNL     1       8.496 -61.211 -22.567  1.00  0.00     0.166 HD
ENDROOT
BRANCH   4  21
ATOM     21  N   UNL     1      10.731 -59.454 -27.486  1.00  0.00    -0.300 NA
ATOM     22  H   UNL     1      11.269 -60.202 -27.930  1.00  0.00     0.188 HD
ENDBRANCH   4  21
TORSDOF 1
ENDMDL
MODEL 4
REMARK VINA RESULT:    -9.755      3.064      4.231
REMARK INTER + INTRA:          -9.755
REMARK INTER:                  -9.755
REMARK INTRA:                   0.000
REMARK UNBOUND:                 0.000
REMARK SMILES CC1=C[C@@H]2Cc3[nH]c4cc(Cl)ccc4c(=N)c3[C@H](C1)C2
REMARK SMILES IDX 7 1 6 2 17 3 15 4 14 5 13 6 12 7 10 8 11 9 9 10 8 11 18 12
REMARK SMILES IDX 19 13 2 14 1 15 3 16 4 17 5 18 20 19 16 21
REMARK H PARENT 7 20 16 22
ROOT
ATOM      1  N   UNL     1       8.272 -60.637 -25.497  1.00  0.00    -0.358 N 
ATOM      2  C   UNL     1       7.950 -60.962 -23.736  1.00  0.00     0.021 A 
ATOM      3  C   UNL     1       9.149 -60.845 -22.609  1.00  0.00     0.000 A 
ATOM      4  C   UNL     1      10.918 -60.103 -23.116  1.00  0.00     0.068 A 
ATOM      5  C   UNL     1      11.266 -60.051 -25.006  1.00  0.00     0.023 A 
ATOM      6  C   UNL     1      12.487 -59.752 -25.536  1.00  0.00     0.014 A 
ATOM      7  C   UNL     1      12.523 -59.700 -26.954  1.00  0.00     0.021 A 
ATOM      8  C   UNL     1      11.394 -59.918 -27.863  1.00  0.00     0.043 A 
ATOM      9  Cl  UNL     1      11.727 -59.777 -29.562  1.00  0.00    -0.084 Cl
ATOM     10  C   UNL     1      10.076 -60.223 -27.490  1.00  0.00     0.047 A 
ATOM     11  C   UNL     1       9.945 -60.318 -26.132  1.00  0.00     0.049 A 
ATOM     12  C   UNL     1       9.651 -62.200 -22.071  1.00  0.00     0.028 C 
ATOM     13  C   UNL     1      10.742 -62.371 -23.121  1.00  0.00     0.039 C 
ATOM     14  C   UNL     1       9.937 -61.583 -24.378  1.00  0.00    -0.076 C 
ATOM     15  C   UNL     1       9.368 -59.524 -24.214  1.00  0.00     0.039 C 
ATOM     16  C   UNL     1       9.253 -62.761 -24.809  1.00  0.00    -0.024 C 
ATOM     17  C   UNL     1       8.119 -63.256 -23.790  1.00  0.00     0.018 C 
ATOM     18  C   UNL     1       7.060 -62.169 -23.704  1.00  0.00     0.062 C 
ATOM     19  C   UNL     1       8.690 -63.378 -22.342  1.00  0.00     0.017 C 
ATOM     20  H   UNL     1       7.944 -61.429 -26.055  1.00  0.00     0.166 HD
ENDROOT
BRANCH   4  21
ATOM     21  N   UNL     1      11.781 -59.674 -22.252  1.00  0.00    -0.300 NA
ATOM     22  H   UNL     1      12.332 -60.458 -21.893  1.00  0.00     0.188 HD
ENDBRANCH   4  21
TORSDOF 1
ENDMDL
MODEL 5
REMARK VINA RESULT:    -8.780      7.934     11.700
REMARK INTER + INTRA:          -8.780
REMARK INTER:                  -8.780
REMARK INTRA:                   0.000
REMARK UNBOUND:                 0.000
REMARK SMILES CC1=C[C@@H]2Cc3[nH]c4cc(Cl)ccc4c(=N)c3[C@H](C1)C2
REMARK SMILES IDX 7 1 6 2 17 3 15 4 14 5 13 6 12 7 10 8 11 9 9 10 8 11 18 12
REMARK SMILES IDX 19 13 2 14 1 15 3 16 4 17 5 18 20 19 16 21
REMARK H PARENT 7 20 16 22
ROOT
ATOM      1  N   UNL     1      14.078 -49.293 -22.991  1.00  0.00    -0.358 N 
ATOM      2  C   UNL     1      14.182 -47.483 -23.143  1.00  0.00     0.021 A 
ATOM      3  C   UNL     1      12.854 -46.526 -22.937  1.00  0.00     0.000 A 
ATOM      4  C   UNL     1      11.158 -47.313 -22.274  1.00  0.00     0.068 A 
ATOM      5  C   UNL     1      11.044 -49.227 -22.408  1.00  0.00     0.023 A 
ATOM      6  C   UNL     1       9.895 -49.928 -22.179  1.00  0.00     0.014 A 
ATOM      7  C   UNL     1      10.033 -51.339 -22.263  1.00  0.00     0.021 A 
ATOM      8  C   UNL     1      11.265 -52.078 -22.548  1.00  0.00     0.043 A 
ATOM      9  Cl  UNL     1      11.142 -53.811 -22.575  1.00  0.00    -0.084 Cl
ATOM     10  C   UNL     1      12.529 -51.521 -22.797  1.00  0.00     0.047 A 
ATOM     11  C   UNL     1      12.493 -50.153 -22.760  1.00  0.00     0.049 A 
ATOM     12  C   UNL     1      12.295 -45.925 -24.243  1.00  0.00     0.028 C 
ATOM     13  C   UNL     1      11.342 -47.079 -24.530  1.00  0.00     0.039 C 
ATOM     14  C   UNL     1      12.292 -48.298 -23.852  1.00  0.00    -0.076 C 
ATOM     15  C   UNL     1      12.829 -48.265 -21.778  1.00  0.00     0.039 C 
ATOM     16  C   UNL     1      13.027 -48.528 -25.055  1.00  0.00    -0.024 C 
ATOM     17  C   UNL     1      14.030 -47.336 -25.434  1.00  0.00     0.018 C 
ATOM     18  C   UNL     1      15.066 -47.227 -24.328  1.00  0.00     0.062 C 
ATOM     19  C   UNL     1      13.287 -45.963 -25.426  1.00  0.00     0.017 C 
ATOM     20  H   UNL     1      14.474 -49.728 -23.828  1.00  0.00     0.166 HD
ENDROOT
BRANCH   4  21
ATOM     21  N   UNL     1      10.194 -46.605 -21.778  1.00  0.00    -0.300 NA
ATOM     22  H   UNL     1      10.460 -46.257 -20.853  1.00  0.00     0.188 HD
ENDBRANCH   4  21
TORSDOF 1
ENDMDL
MODEL 6
REMARK VINA RESULT:    -8.697      3.535      5.933
REMARK INTER + INTRA:          -8.697
REMARK INTER:                  -8.697
REMARK INTRA:                   0.000
REMARK UNBOUND:                 0.000
REMARK SMILES CC1=C[C@@H]2Cc3[nH]c4cc(Cl)ccc4c(=N)c3[C@H](C1)C2
REMARK SMILES IDX 7 1 6 2 17 3 15 4 14 5 13 6 12 7 10 8 11 9 9 10 8 11 18 12
REMARK SMILES IDX 19 13 2 14 1 15 3 16 4 17 5 18 20 19 16 21
REMARK H PARENT 7 20 16 22
ROOT
ATOM      1  N   UNL     1      10.113 -60.211 -24.910  1.00  0.00    -0.358 N 
ATOM      2  C   UNL     1       9.551 -59.781 -23.234  1.00  0.00     0.021 A 
ATOM      3  C   UNL     1       8.304 -60.587 -22.513  1.00  0.00     0.000 A 
ATOM      4  C   UNL     1       7.552 -62.214 -23.365  1.00  0.00     0.068 A 
ATOM      5  C   UNL     1       7.990 -62.435 -25.223  1.00  0.00     0.023 A 
ATOM      6  C   UNL     1       7.418 -63.383 -26.021  1.00  0.00     0.014 A 
ATOM      7  C   UNL     1       7.925 -63.429 -27.346  1.00  0.00     0.021 A 
ATOM      8  C   UNL     1       8.985 -62.584 -27.904  1.00  0.00     0.043 A 
ATOM      9  Cl  UNL     1       9.416 -62.871 -29.561  1.00  0.00    -0.084 Cl
ATOM     10  C   UNL     1       9.683 -61.573 -27.225  1.00  0.00     0.047 A 
ATOM     11  C   UNL     1       9.246 -61.436 -25.935  1.00  0.00     0.049 A 
ATOM     12  C   UNL     1       6.991 -59.784 -22.428  1.00  0.00     0.028 C 
ATOM     13  C   UNL     1       6.446 -60.266 -23.767  1.00  0.00     0.039 C 
ATOM     14  C   UNL     1       7.936 -60.424 -24.546  1.00  0.00    -0.076 C 
ATOM     15  C   UNL     1       9.434 -61.770 -23.815  1.00  0.00     0.039 C 
ATOM     16  C   UNL     1       7.962 -59.063 -24.979  1.00  0.00    -0.024 C 
ATOM     17  C   UNL     1       8.187 -58.013 -23.789  1.00  0.00     0.018 C 
ATOM     18  C   UNL     1       9.552 -58.282 -23.179  1.00  0.00     0.062 C 
ATOM     19  C   UNL     1       7.172 -58.263 -22.630  1.00  0.00     0.017 C 
ATOM     20  H   UNL     1      10.127 -59.370 -25.491  1.00  0.00     0.166 HD
ENDROOT
BRANCH   4  21
ATOM     21  N   UNL     1       6.824 -63.075 -22.728  1.00  0.00    -0.300 NA
ATOM     22  H   UNL     1       5.987 -62.617 -22.360  1.00  0.00     0.188 HD
ENDBRANCH   4  21
TORSDOF 1
ENDMDL
MODEL 7
REMARK VINA RESULT:    -8.578      3.187      4.859
REMARK INTER + INTRA:          -8.578
REMARK INTER:                  -8.578
REMARK INTRA:                   0.000
REMARK UNBOUND:                 0.000
REMARK SMILES CC1=C[C@@H]2Cc3[nH]c4cc(Cl)ccc4c(=N)c3[C@H](C1)C2
REMARK SMILES IDX 7 1 6 2 17 3 15 4 14 5 13 6 12 7 10 8 11 9 9 10 8 11 18 12
REMARK SMILES IDX 19 13 2 14 1 15 3 16 4 17 5 18 20 19 16 21
REMARK H PARENT 7 20 16 22
ROOT
ATOM      1  N   UNL     1      11.080 -60.120 -24.447  1.00  0.00    -0.358 N 
ATOM      2  C   UNL     1      10.060 -60.642 -23.034  1.00  0.00     0.021 A 
ATOM      3  C   UNL     1       8.761 -61.640 -23.235  1.00  0.00     0.000 A 
ATOM      4  C   UNL     1       8.431 -62.493 -24.996  1.00  0.00     0.068 A 
ATOM      5  C   UNL     1       9.358 -61.691 -26.476  1.00  0.00     0.023 A 
ATOM      6  C   UNL     1       9.116 -62.016 -27.779  1.00  0.00     0.014 A 
ATOM      7  C   UNL     1       9.952 -61.360 -28.720  1.00  0.00     0.021 A 
ATOM      8  C   UNL     1      11.025 -60.409 -28.419  1.00  0.00     0.043 A 
ATOM      9  Cl  UNL     1      11.900 -59.770 -29.777  1.00  0.00    -0.084 Cl
ATOM     10  C   UNL     1      11.413 -59.973 -27.142  1.00  0.00     0.047 A 
ATOM     11  C   UNL     1      10.644 -60.536 -26.161  1.00  0.00     0.049 A 
ATOM     12  C   UNL     1       7.395 -60.940 -23.096  1.00  0.00     0.028 C 
ATOM     13  C   UNL     1       7.269 -60.584 -24.573  1.00  0.00     0.039 C 
ATOM     14  C   UNL     1       8.918 -60.374 -24.869  1.00  0.00    -0.076 C 
ATOM     15  C   UNL     1      10.308 -61.982 -24.599  1.00  0.00     0.039 C 
ATOM     16  C   UNL     1       8.913 -59.001 -24.475  1.00  0.00    -0.024 C 
ATOM     17  C   UNL     1       8.709 -58.784 -22.900  1.00  0.00     0.018 C 
ATOM     18  C   UNL     1       9.890 -59.418 -22.183  1.00  0.00     0.062 C 
ATOM     19  C   UNL     1       7.460 -59.569 -22.390  1.00  0.00     0.017 C 
ATOM     20  H   UNL     1      11.156 -59.099 -24.453  1.00  0.00     0.166 HD
ENDROOT
BRANCH   4  21
ATOM     21  N   UNL     1       7.658 -63.521 -25.152  1.00  0.00    -0.300 NA
ATOM     22  H   UNL     1       6.696 -63.271 -24.909  1.00  0.00     0.188 HD
ENDBRANCH   4  21
TORSDOF 1
ENDMDL
MODEL 8
REMARK VINA RESULT:    -8.139      6.569     10.416
REMARK INTER + INTRA:          -8.139
REMARK INTER:                  -8.139
REMARK INTRA:                   0.000
REMARK UNBOUND:                 0.000
REMARK SMILES CC1=C[C@@H]2Cc3[nH]c4cc(Cl)ccc4c(=N)c3[C@H](C1)C2
REMARK SMILES IDX 7 1 6 2 17 3 15 4 14 5 13 6 12 7 10 8 11 9 9 10 8 11 18 12
REMARK SMILES IDX 19 13 2 14 1 15 3 16 4 17 5 18 20 19 16 21
REMARK H PARENT 7 20 16 22
ROOT
ATOM      1  N   UNL     1      15.533 -51.054 -25.185  1.00  0.00    -0.358 N 
ATOM      2  C   UNL     1      15.625 -49.418 -24.394  1.00  0.00     0.021 A 
ATOM      3  C   UNL     1      14.455 -48.902 -23.350  1.00  0.00     0.000 A 
ATOM      4  C   UNL     1      13.046 -50.159 -22.742  1.00  0.00     0.068 A 
ATOM      5  C   UNL     1      12.852 -51.744 -23.813  1.00  0.00     0.023 A 
ATOM      6  C   UNL     1      11.823 -52.627 -23.665  1.00  0.00     0.014 A 
ATOM      7  C   UNL     1      11.895 -53.769 -24.506  1.00  0.00     0.021 A 
ATOM      8  C   UNL     1      12.952 -54.073 -25.474  1.00  0.00     0.043 A 
ATOM      9  Cl  UNL     1      12.788 -55.557 -26.362  1.00  0.00    -0.084 Cl
ATOM     10  C   UNL     1      14.080 -53.284 -25.745  1.00  0.00     0.047 A 
ATOM     11  C   UNL     1      14.089 -52.141 -24.993  1.00  0.00     0.049 A 
ATOM     12  C   UNL     1      13.519 -47.822 -23.927  1.00  0.00     0.028 C 
ATOM     13  C   UNL     1      12.498 -48.806 -24.486  1.00  0.00     0.039 C 
ATOM     14  C   UNL     1      13.588 -50.043 -24.848  1.00  0.00    -0.076 C 
ATOM     15  C   UNL     1      14.766 -50.969 -23.317  1.00  0.00     0.039 C 
ATOM     16  C   UNL     1      13.891 -49.528 -26.145  1.00  0.00    -0.024 C 
ATOM     17  C   UNL     1      14.745 -48.171 -26.117  1.00  0.00     0.018 C 
ATOM     18  C   UNL     1      16.085 -48.475 -25.467  1.00  0.00     0.062 C 
ATOM     19  C   UNL     1      14.075 -47.115 -25.183  1.00  0.00     0.017 C 
ATOM     20  H   UNL     1      15.629 -50.948 -26.198  1.00  0.00     0.166 HD
ENDROOT
BRANCH   4  21
ATOM     21  N   UNL     1      12.310 -49.947 -21.698  1.00  0.00    -0.300 NA
ATOM     22  H   UNL     1      12.875 -50.041 -20.850  1.00  0.00     0.188 HD
ENDBRANCH   4  21
TORSDOF 1
ENDMDL
MODEL 9
REMARK VINA RESULT:    -7.750      7.969     11.665
REMARK INTER + INTRA:          -7.750
REMARK INTER:                  -7.750
REMARK INTRA:                   0.000
REMARK UNBOUND:                 0.000
REMARK SMILES CC1=C[C@@H]2Cc3[nH]c4cc(Cl)ccc4c(=N)c3[C@H](C1)C2
REMARK SMILES IDX 7 1 6 2 17 3 15 4 14 5 13 6 12 7 10 8 11 9 9 10 8 11 18 12
REMARK SMILES IDX 19 13 2 14 1 15 3 16 4 17 5 18 20 19 16 21
REMARK H PARENT 7 20 16 22
ROOT
ATOM      1  N   UNL     1      10.987 -47.984 -22.188  1.00  0.00    -0.358 N 
ATOM      2  C   UNL     1      11.849 -46.503 -22.800  1.00  0.00     0.021 A 
ATOM      3  C   UNL     1      13.025 -46.608 -23.952  1.00  0.00     0.000 A 
ATOM      4  C   UNL     1      13.353 -48.332 -24.878  1.00  0.00     0.068 A 
ATOM      5  C   UNL     1      12.622 -49.878 -24.001  1.00  0.00     0.023 A 
ATOM      6  C   UNL     1      12.900 -51.159 -24.382  1.00  0.00     0.014 A 
ATOM      7  C   UNL     1      12.209 -52.160 -23.650  1.00  0.00     0.021 A 
ATOM      8  C   UNL     1      11.245 -51.940 -22.569  1.00  0.00     0.043 A 
ATOM      9  Cl  UNL     1      10.538 -53.359 -21.859  1.00  0.00    -0.084 Cl
ATOM     10  C   UNL     1      10.838 -50.697 -22.061  1.00  0.00     0.047 A 
ATOM     11  C   UNL     1      11.471 -49.661 -22.693  1.00  0.00     0.049 A 
ATOM     12  C   UNL     1      14.456 -46.395 -23.422  1.00  0.00     0.028 C 
ATOM     13  C   UNL     1      14.713 -47.865 -23.115  1.00  0.00     0.039 C 
ATOM     14  C   UNL     1      13.123 -48.267 -22.713  1.00  0.00    -0.076 C 
ATOM     15  C   UNL     1      11.532 -48.060 -24.133  1.00  0.00     0.039 C 
ATOM     16  C   UNL     1      13.273 -47.893 -21.343  1.00  0.00    -0.024 C 
ATOM     17  C   UNL     1      13.407 -46.312 -21.117  1.00  0.00     0.018 C 
ATOM     18  C   UNL     1      12.117 -45.661 -21.587  1.00  0.00     0.062 C 
ATOM     19  C   UNL     1      14.517 -45.713 -22.037  1.00  0.00     0.017 C 
ATOM     20  H   UNL     1      11.038 -48.010 -21.167  1.00  0.00     0.166 HD
ENDROOT
BRANCH   4  21
ATOM     21  N   UNL     1      14.002 -48.425 -25.995  1.00  0.00    -0.300 NA
ATOM     22  H   UNL     1      13.456 -48.000 -26.749  1.00  0.00     0.188 HD
ENDBRANCH   4  21
TORSDOF 1
ENDMDL
