MODEL 1
REMARK VINA RESULT:   -12.540      0.000      0.000
REMARK INTER + INTRA:         -19.567
REMARK INTER:                 -18.771
REMARK INTRA:                  -0.796
REMARK UNBOUND:                -0.796
REMARK SMILES O=C(Cc1cc(=O)oc2cc(O)ccc12)NCCCCNc1c2c(nc3ccccc13)CCCC2
REMARK SMILES IDX 17 1 16 2 2 3 1 4 3 6 4 7 5 8 15 9 6 10 14 11 9 12 8 13
REMARK SMILES IDX 13 14 10 15 11 16 7 17 12 18 18 20 19 21 20 22 21 23 22 25
REMARK SMILES IDX 23 26 31 27 24 28 35 29 30 30 26 31 25 32 32 33 34 34 29 35
REMARK SMILES IDX 27 36 33 37 28 38
REMARK H PARENT 16 5 12 19 21 24
ROOT
ATOM      1  C   UNL     1      11.430 -58.048 -22.147  1.00  0.00     0.116 C 
ENDROOT
BRANCH   1   2
ATOM      2  N   UNL     1      11.016 -56.671 -21.963  1.00  0.00    -0.356 N 
ATOM      3  C   UNL     1       9.972 -56.113 -22.671  1.00  0.00     0.224 C 
ATOM      4  O   UNL     1       9.211 -56.761 -23.382  1.00  0.00    -0.275 OA
ATOM      5  H   UNL     1      11.611 -56.080 -21.397  1.00  0.00     0.163 HD
BRANCH   3   6
ATOM      6  C   UNL     1       9.887 -54.595 -22.553  1.00  0.00     0.136 C 
BRANCH   6   7
ATOM      7  C   UNL     1      10.975 -53.979 -23.400  1.00  0.00    -0.020 A 
ATOM      8  C   UNL     1      11.517 -54.665 -24.419  1.00  0.00     0.098 A 
ATOM      9  C   UNL     1      11.467 -52.614 -23.149  1.00  0.00     0.022 A 
ATOM     10  C   UNL     1      12.530 -54.109 -25.327  1.00  0.00     0.336 A 
ATOM     11  C   UNL     1      10.971 -51.776 -22.141  1.00  0.00     0.016 A 
ATOM     12  C   UNL     1      12.492 -52.111 -23.956  1.00  0.00     0.142 A 
ATOM     13  O   UNL     1      13.028 -52.860 -25.022  1.00  0.00    -0.423 OA
ATOM     14  C   UNL     1      11.494 -50.490 -21.948  1.00  0.00     0.047 A 
ATOM     15  C   UNL     1      13.028 -50.835 -23.776  1.00  0.00     0.094 A 
ATOM     16  C   UNL     1      12.521 -50.033 -22.767  1.00  0.00     0.119 A 
ATOM     17  O   UNL     1      12.887 -54.741 -26.315  1.00  0.00    -0.246 OA
BRANCH  16  18
ATOM     18  O   UNL     1      13.055 -48.789 -22.611  1.00  0.00    -0.508 OA
ATOM     19  H   UNL     1      14.021 -48.848 -22.702  1.00  0.00     0.293 HD
ENDBRANCH  16  18
ENDBRANCH   6   7
ENDBRANCH   3   6
ENDBRANCH   1   2
BRANCH   1  20
ATOM     20  C   UNL     1      11.128 -58.886 -20.905  1.00  0.00     0.023 C 
BRANCH  20  21
ATOM     21  C   UNL     1      10.309 -60.145 -21.217  1.00  0.00     0.023 C 
BRANCH  21  22
ATOM     22  C   UNL     1       9.835 -60.194 -22.671  1.00  0.00     0.113 C 
BRANCH  22  23
ATOM     23  N   UNL     1      10.649 -61.159 -23.426  1.00  0.00    -0.384 N 
ATOM     24  H   UNL     1      11.597 -60.802 -23.546  1.00  0.00     0.160 HD
BRANCH  23  25
ATOM     25  C   UNL     1      10.091 -61.402 -24.720  1.00  0.00     0.049 A 
ATOM     26  C   UNL     1      10.686 -60.783 -25.838  1.00  0.00    -0.003 A 
ATOM     27  C   UNL     1       9.012 -62.315 -24.905  1.00  0.00     0.024 A 
ATOM     28  C   UNL     1      10.155 -61.068 -27.097  1.00  0.00     0.046 A 
ATOM     29  C   UNL     1      11.781 -59.756 -25.673  1.00  0.00     0.039 C 
ATOM     30  C   UNL     1       8.345 -63.002 -23.857  1.00  0.00     0.012 A 
ATOM     31  C   UNL     1       8.582 -62.540 -26.228  1.00  0.00     0.073 A 
ATOM     32  N   UNL     1       9.138 -61.941 -27.291  1.00  0.00    -0.252 NA
ATOM     33  C   UNL     1      10.719 -60.457 -28.353  1.00  0.00     0.056 C 
ATOM     34  C   UNL     1      12.503 -59.399 -26.973  1.00  0.00     0.005 C 
ATOM     35  C   UNL     1       7.292 -63.880 -24.115  1.00  0.00     0.001 A 
ATOM     36  C   UNL     1       7.534 -63.421 -26.461  1.00  0.00     0.029 A 
ATOM     37  C   UNL     1      11.503 -59.175 -28.096  1.00  0.00     0.007 C 
ATOM     38  C   UNL     1       6.885 -64.092 -25.423  1.00  0.00     0.002 A 
ENDBRANCH  23  25
ENDBRANCH  22  23
ENDBRANCH  21  22
ENDBRANCH  20  21
ENDBRANCH   1  20
TORSDOF 9
ENDMDL
MODEL 2
REMARK VINA RESULT:   -12.255      1.524      3.953
REMARK INTER + INTRA:         -19.141
REMARK INTER:                 -18.583
REMARK INTRA:                  -0.558
REMARK UNBOUND:                -0.796
REMARK SMILES O=C(Cc1cc(=O)oc2cc(O)ccc12)NCCCCNc1c2c(nc3ccccc13)CCCC2
REMARK SMILES IDX 17 1 16 2 2 3 1 4 3 6 4 7 5 8 15 9 6 10 14 11 9 12 8 13
REMARK SMILES IDX 13 14 10 15 11 16 7 17 12 18 18 20 19 21 20 22 21 23 22 25
REMARK SMILES IDX 23 26 31 27 24 28 35 29 30 30 26 31 25 32 32 33 34 34 29 35
REMARK SMILES IDX 27 36 33 37 28 38
REMARK H PARENT 16 5 12 19 21 24
ROOT
ATOM      1  C   UNL     1      10.570 -56.996 -22.447  1.00  0.00     0.116 C 
ENDROOT
BRANCH   1   2
ATOM      2  N   UNL     1      11.433 -55.986 -23.027  1.00  0.00    -0.356 N 
ATOM      3  C   UNL     1      10.956 -55.003 -23.869  1.00  0.00     0.224 C 
ATOM      4  O   UNL     1       9.762 -54.799 -24.067  1.00  0.00    -0.275 OA
ATOM      5  H   UNL     1      12.430 -56.106 -22.911  1.00  0.00     0.163 HD
BRANCH   3   6
ATOM      6  C   UNL     1      12.049 -54.231 -24.600  1.00  0.00     0.136 C 
BRANCH   6   7
ATOM      7  C   UNL     1      12.121 -52.834 -24.031  1.00  0.00    -0.020 A 
ATOM      8  C   UNL     1      11.567 -52.552 -22.842  1.00  0.00     0.098 A 
ATOM      9  C   UNL     1      12.807 -51.746 -24.748  1.00  0.00     0.022 A 
ATOM     10  C   UNL     1      11.654 -51.236 -22.195  1.00  0.00     0.336 A 
ATOM     11  C   UNL     1      13.454 -51.905 -25.981  1.00  0.00     0.016 A 
ATOM     12  C   UNL     1      12.818 -50.469 -24.176  1.00  0.00     0.142 A 
ATOM     13  O   UNL     1      12.231 -50.216 -22.922  1.00  0.00    -0.423 OA
ATOM     14  C   UNL     1      14.077 -50.822 -26.615  1.00  0.00     0.047 A 
ATOM     15  C   UNL     1      13.429 -49.378 -24.796  1.00  0.00     0.094 A 
ATOM     16  C   UNL     1      14.055 -49.566 -26.018  1.00  0.00     0.119 A 
ATOM     17  O   UNL     1      11.239 -51.081 -21.051  1.00  0.00    -0.246 OA
BRANCH  16  18
ATOM     18  O   UNL     1      14.650 -48.490 -26.603  1.00  0.00    -0.508 OA
ATOM     19  H   UNL     1      15.330 -48.141 -26.002  1.00  0.00     0.293 HD
ENDBRANCH  16  18
ENDBRANCH   6   7
ENDBRANCH   3   6
ENDBRANCH   1   2
BRANCH   1  20
ATOM     20  C   UNL     1      11.354 -57.925 -21.521  1.00  0.00     0.023 C 
BRANCH  20  21
ATOM     21  C   UNL     1      11.887 -59.173 -22.236  1.00  0.00     0.023 C 
BRANCH  21  22
ATOM     22  C   UNL     1      10.872 -60.318 -22.257  1.00  0.00     0.113 C 
BRANCH  22  23
ATOM     23  N   UNL     1      11.395 -61.430 -23.067  1.00  0.00    -0.384 N 
ATOM     24  H   UNL     1      12.357 -61.239 -23.347  1.00  0.00     0.160 HD
BRANCH  23  25
ATOM     25  C   UNL     1      10.610 -61.620 -24.247  1.00  0.00     0.049 A 
ATOM     26  C   UNL     1       9.445 -62.410 -24.163  1.00  0.00    -0.003 A 
ATOM     27  C   UNL     1      10.934 -60.962 -25.469  1.00  0.00     0.024 A 
ATOM     28  C   UNL     1       8.669 -62.545 -25.314  1.00  0.00     0.046 A 
ATOM     29  C   UNL     1       9.111 -63.180 -22.907  1.00  0.00     0.039 C 
ATOM     30  C   UNL     1      12.073 -60.137 -25.666  1.00  0.00     0.012 A 
ATOM     31  C   UNL     1      10.057 -61.157 -26.555  1.00  0.00     0.073 A 
ATOM     32  N   UNL     1       8.957 -61.919 -26.480  1.00  0.00    -0.252 NA
ATOM     33  C   UNL     1       7.407 -63.368 -25.327  1.00  0.00     0.056 C 
ATOM     34  C   UNL     1       7.692 -63.746 -22.882  1.00  0.00     0.005 C 
ATOM     35  C   UNL     1      12.328 -59.527 -26.895  1.00  0.00     0.001 A 
ATOM     36  C   UNL     1      10.330 -60.536 -27.767  1.00  0.00     0.029 A 
ATOM     37  C   UNL     1       7.355 -64.405 -24.211  1.00  0.00     0.007 C 
ATOM     38  C   UNL     1      11.451 -59.726 -27.950  1.00  0.00     0.002 A 
ENDBRANCH  23  25
ENDBRANCH  22  23
ENDBRANCH  21  22
ENDBRANCH  20  21
ENDBRANCH   1  20
TORSDOF 9
ENDMDL
MODEL 3
REMARK VINA RESULT:   -12.088      1.432      2.362
REMARK INTER + INTRA:         -18.891
REMARK INTER:                 -18.344
REMARK INTRA:                  -0.547
REMARK UNBOUND:                -0.796
REMARK SMILES O=C(Cc1cc(=O)oc2cc(O)ccc12)NCCCCNc1c2c(nc3ccccc13)CCCC2
REMARK SMILES IDX 17 1 16 2 2 3 1 4 3 6 4 7 5 8 15 9 6 10 14 11 9 12 8 13
REMARK SMILES IDX 13 14 10 15 11 16 7 17 12 18 18 20 19 21 20 22 21 23 22 25
REMARK SMILES IDX 23 26 31 27 24 28 35 29 30 30 26 31 25 32 32 33 34 34 29 35
REMARK SMILES IDX 27 36 33 37 28 38
REMARK H PARENT 16 5 12 19 21 24
ROOT
ATOM      1  C   UNL     1      10.745 -57.363 -22.882  1.00  0.00     0.116 C 
ENDROOT
BRANCH   1   2
ATOM      2  N   UNL     1      11.581 -56.300 -23.406  1.00  0.00    -0.356 N 
ATOM      3  C   UNL     1      11.054 -55.163 -23.980  1.00  0.00     0.224 C 
ATOM      4  O   UNL     1       9.861 -54.877 -23.951  1.00  0.00    -0.275 OA
ATOM      5  H   UNL     1      12.574 -56.480 -23.469  1.00  0.00     0.163 HD
BRANCH   3   6
ATOM      6  C   UNL     1      12.079 -54.316 -24.727  1.00  0.00     0.136 C 
BRANCH   6   7
ATOM      7  C   UNL     1      12.134 -52.946 -24.093  1.00  0.00    -0.020 A 
ATOM      8  C   UNL     1      11.584 -52.729 -22.888  1.00  0.00     0.098 A 
ATOM      9  C   UNL     1      12.798 -51.815 -24.762  1.00  0.00     0.022 A 
ATOM     10  C   UNL     1      11.655 -51.444 -22.180  1.00  0.00     0.336 A 
ATOM     11  C   UNL     1      13.439 -51.905 -26.005  1.00  0.00     0.016 A 
ATOM     12  C   UNL     1      12.794 -50.566 -24.130  1.00  0.00     0.142 A 
ATOM     13  O   UNL     1      12.212 -50.382 -22.861  1.00  0.00    -0.423 OA
ATOM     14  C   UNL     1      14.040 -50.784 -26.591  1.00  0.00     0.047 A 
ATOM     15  C   UNL     1      13.384 -49.438 -24.702  1.00  0.00     0.094 A 
ATOM     16  C   UNL     1      14.004 -49.559 -25.934  1.00  0.00     0.119 A 
ATOM     17  O   UNL     1      11.246 -51.350 -21.028  1.00  0.00    -0.246 OA
BRANCH  16  18
ATOM     18  O   UNL     1      14.578 -48.446 -26.472  1.00  0.00    -0.508 OA
ATOM     19  H   UNL     1      14.491 -47.712 -25.841  1.00  0.00     0.293 HD
ENDBRANCH  16  18
ENDBRANCH   6   7
ENDBRANCH   3   6
ENDBRANCH   1   2
BRANCH   1  20
ATOM     20  C   UNL     1      11.359 -57.978 -21.625  1.00  0.00     0.023 C 
BRANCH  20  21
ATOM     21  C   UNL     1      10.863 -59.405 -21.353  1.00  0.00     0.023 C 
BRANCH  21  22
ATOM     22  C   UNL     1      10.025 -59.966 -22.504  1.00  0.00     0.113 C 
BRANCH  22  23
ATOM     23  N   UNL     1      10.806 -60.972 -23.241  1.00  0.00    -0.384 N 
ATOM     24  H   UNL     1      11.751 -60.627 -23.412  1.00  0.00     0.160 HD
BRANCH  23  25
ATOM     25  C   UNL     1      10.199 -61.271 -24.501  1.00  0.00     0.049 A 
ATOM     26  C   UNL     1      10.748 -60.699 -25.667  1.00  0.00    -0.003 A 
ATOM     27  C   UNL     1       9.118 -62.195 -24.605  1.00  0.00     0.024 A 
ATOM     28  C   UNL     1      10.170 -61.040 -26.890  1.00  0.00     0.046 A 
ATOM     29  C   UNL     1      11.843 -59.662 -25.588  1.00  0.00     0.039 C 
ATOM     30  C   UNL     1       8.495 -62.838 -23.503  1.00  0.00     0.012 A 
ATOM     31  C   UNL     1       8.638 -62.477 -25.900  1.00  0.00     0.073 A 
ATOM     32  N   UNL     1       9.150 -61.923 -27.007  1.00  0.00    -0.252 NA
ATOM     33  C   UNL     1      10.683 -60.481 -28.192  1.00  0.00     0.056 C 
ATOM     34  C   UNL     1      12.513 -59.360 -26.928  1.00  0.00     0.005 C 
ATOM     35  C   UNL     1       7.437 -63.730 -23.683  1.00  0.00     0.001 A 
ATOM     36  C   UNL     1       7.586 -63.371 -26.054  1.00  0.00     0.029 A 
ATOM     37  C   UNL     1      11.470 -59.187 -28.021  1.00  0.00     0.007 C 
ATOM     38  C   UNL     1       6.982 -63.999 -24.964  1.00  0.00     0.002 A 
ENDBRANCH  23  25
ENDBRANCH  22  23
ENDBRANCH  21  22
ENDBRANCH  20  21
ENDBRANCH   1  20
TORSDOF 9
ENDMDL
MODEL 4
REMARK VINA RESULT:   -12.029      3.248     10.758
REMARK INTER + INTRA:         -18.802
REMARK INTER:                 -18.008
REMARK INTRA:                  -0.794
REMARK UNBOUND:                -0.796
REMARK SMILES O=C(Cc1cc(=O)oc2cc(O)ccc12)NCCCCNc1c2c(nc3ccccc13)CCCC2
REMARK SMILES IDX 17 1 16 2 2 3 1 4 3 6 4 7 5 8 15 9 6 10 14 11 9 12 8 13
REMARK SMILES IDX 13 14 10 15 11 16 7 17 12 18 18 20 19 21 20 22 21 23 22 25
REMARK SMILES IDX 23 26 31 27 24 28 35 29 30 30 26 31 25 32 32 33 34 34 29 35
REMARK SMILES IDX 27 36 33 37 28 38
REMARK H PARENT 16 5 12 19 21 24
ROOT
ATOM      1  C   UNL     1      10.379 -54.110 -23.425  1.00  0.00     0.116 C 
ENDROOT
BRANCH   1   2
ATOM      2  N   UNL     1      11.129 -55.311 -23.113  1.00  0.00    -0.356 N 
ATOM      3  C   UNL     1      10.532 -56.550 -23.015  1.00  0.00     0.224 C 
ATOM      4  O   UNL     1       9.369 -56.772 -23.338  1.00  0.00    -0.275 OA
ATOM      5  H   UNL     1      12.092 -55.194 -22.825  1.00  0.00     0.163 HD
BRANCH   3   6
ATOM      6  C   UNL     1      11.425 -57.619 -22.395  1.00  0.00     0.136 C 
BRANCH   6   7
ATOM      7  C   UNL     1      11.463 -58.816 -23.315  1.00  0.00    -0.020 A 
ATOM      8  C   UNL     1      12.077 -58.742 -24.507  1.00  0.00     0.098 A 
ATOM      9  C   UNL     1      10.845 -60.098 -22.937  1.00  0.00     0.022 A 
ATOM     10  C   UNL     1      12.212 -59.880 -25.426  1.00  0.00     0.336 A 
ATOM     11  C   UNL     1      10.199 -60.326 -21.714  1.00  0.00     0.016 A 
ATOM     12  C   UNL     1      10.896 -61.161 -23.845  1.00  0.00     0.142 A 
ATOM     13  O   UNL     1      11.557 -61.044 -25.083  1.00  0.00    -0.423 OA
ATOM     14  C   UNL     1       9.621 -61.569 -21.424  1.00  0.00     0.047 A 
ATOM     15  C   UNL     1      10.321 -62.403 -23.574  1.00  0.00     0.094 A 
ATOM     16  C   UNL     1       9.684 -62.596 -22.359  1.00  0.00     0.119 A 
ATOM     17  O   UNL     1      12.897 -59.779 -26.437  1.00  0.00    -0.246 OA
BRANCH  16  18
ATOM     18  O   UNL     1       9.135 -63.818 -22.113  1.00  0.00    -0.508 OA
ATOM     19  H   UNL     1       8.481 -63.730 -21.399  1.00  0.00     0.293 HD
ENDBRANCH  16  18
ENDBRANCH   6   7
ENDBRANCH   3   6
ENDBRANCH   1   2
BRANCH   1  20
ATOM     20  C   UNL     1       9.748 -53.512 -22.168  1.00  0.00     0.023 C 
BRANCH  20  21
ATOM     21  C   UNL     1      10.608 -52.413 -21.532  1.00  0.00     0.023 C 
BRANCH  21  22
ATOM     22  C   UNL     1      10.343 -51.033 -22.139  1.00  0.00     0.113 C 
BRANCH  22  23
ATOM     23  N   UNL     1      11.464 -50.131 -21.829  1.00  0.00    -0.384 N 
ATOM     24  H   UNL     1      11.167 -49.417 -21.163  1.00  0.00     0.160 HD
BRANCH  23  25
ATOM     25  C   UNL     1      11.939 -49.478 -23.010  1.00  0.00     0.049 A 
ATOM     26  C   UNL     1      11.717 -48.093 -23.150  1.00  0.00    -0.003 A 
ATOM     27  C   UNL     1      12.699 -50.178 -23.992  1.00  0.00     0.024 A 
ATOM     28  C   UNL     1      12.228 -47.467 -24.287  1.00  0.00     0.046 A 
ATOM     29  C   UNL     1      10.855 -47.335 -22.168  1.00  0.00     0.039 C 
ATOM     30  C   UNL     1      12.993 -51.567 -23.949  1.00  0.00     0.012 A 
ATOM     31  C   UNL     1      13.184 -49.428 -25.082  1.00  0.00     0.073 A 
ATOM     32  N   UNL     1      12.961 -48.115 -25.224  1.00  0.00    -0.252 NA
ATOM     33  C   UNL     1      12.044 -45.991 -24.530  1.00  0.00     0.056 C 
ATOM     34  C   UNL     1      10.949 -45.815 -22.300  1.00  0.00     0.005 C 
ATOM     35  C   UNL     1      13.742 -52.185 -24.951  1.00  0.00     0.001 A 
ATOM     36  C   UNL     1      13.930 -50.065 -26.066  1.00  0.00     0.029 A 
ATOM     37  C   UNL     1      10.869 -45.398 -23.760  1.00  0.00     0.007 C 
ATOM     38  C   UNL     1      14.214 -51.430 -26.013  1.00  0.00     0.002 A 
ENDBRANCH  23  25
ENDBRANCH  22  23
ENDBRANCH  21  22
ENDBRANCH  20  21
ENDBRANCH   1  20
TORSDOF 9
ENDMDL
MODEL 5
REMARK VINA RESULT:   -11.950      3.234     10.809
REMARK INTER + INTRA:         -18.684
REMARK INTER:                 -17.831
REMARK INTRA:                  -0.853
REMARK UNBOUND:                -0.796
REMARK SMILES O=C(Cc1cc(=O)oc2cc(O)ccc12)NCCCCNc1c2c(nc3ccccc13)CCCC2
REMARK SMILES IDX 17 1 16 2 2 3 1 4 3 6 4 7 5 8 15 9 6 10 14 11 9 12 8 13
REMARK SMILES IDX 13 14 10 15 11 16 7 17 12 18 18 20 19 21 20 22 21 23 22 25
REMARK SMILES IDX 23 26 31 27 24 28 35 29 30 30 26 31 25 32 32 33 34 34 29 35
REMARK SMILES IDX 27 36 33 37 28 38
REMARK H PARENT 16 5 12 19 21 24
ROOT
ATOM      1  C   UNL     1      10.422 -54.116 -23.466  1.00  0.00     0.116 C 
ENDROOT
BRANCH   1   2
ATOM      2  N   UNL     1      11.156 -55.322 -23.136  1.00  0.00    -0.356 N 
ATOM      3  C   UNL     1      10.535 -56.542 -22.970  1.00  0.00     0.224 C 
ATOM      4  O   UNL     1       9.356 -56.747 -23.243  1.00  0.00    -0.275 OA
ATOM      5  H   UNL     1      12.131 -55.217 -22.888  1.00  0.00     0.163 HD
BRANCH   3   6
ATOM      6  C   UNL     1      11.426 -57.609 -22.343  1.00  0.00     0.136 C 
BRANCH   6   7
ATOM      7  C   UNL     1      11.475 -58.805 -23.263  1.00  0.00    -0.020 A 
ATOM      8  C   UNL     1      12.089 -58.726 -24.455  1.00  0.00     0.098 A 
ATOM      9  C   UNL     1      10.867 -60.092 -22.886  1.00  0.00     0.022 A 
ATOM     10  C   UNL     1      12.235 -59.863 -25.373  1.00  0.00     0.336 A 
ATOM     11  C   UNL     1      10.222 -60.326 -21.663  1.00  0.00     0.016 A 
ATOM     12  C   UNL     1      10.928 -61.155 -23.793  1.00  0.00     0.142 A 
ATOM     13  O   UNL     1      11.590 -61.033 -25.031  1.00  0.00    -0.423 OA
ATOM     14  C   UNL     1       9.654 -61.573 -21.373  1.00  0.00     0.047 A 
ATOM     15  C   UNL     1      10.363 -62.402 -23.523  1.00  0.00     0.094 A 
ATOM     16  C   UNL     1       9.727 -62.599 -22.309  1.00  0.00     0.119 A 
ATOM     17  O   UNL     1      12.920 -59.757 -26.384  1.00  0.00    -0.246 OA
BRANCH  16  18
ATOM     18  O   UNL     1       9.187 -63.825 -22.063  1.00  0.00    -0.508 OA
ATOM     19  H   UNL     1       8.219 -63.744 -22.043  1.00  0.00     0.293 HD
ENDBRANCH  16  18
ENDBRANCH   6   7
ENDBRANCH   3   6
ENDBRANCH   1   2
BRANCH   1  20
ATOM     20  C   UNL     1       9.825 -53.474 -22.214  1.00  0.00     0.023 C 
BRANCH  20  21
ATOM     21  C   UNL     1      10.772 -52.467 -21.548  1.00  0.00     0.023 C 
BRANCH  21  22
ATOM     22  C   UNL     1      10.531 -51.031 -22.020  1.00  0.00     0.113 C 
BRANCH  22  23
ATOM     23  N   UNL     1      11.712 -50.206 -21.720  1.00  0.00    -0.384 N 
ATOM     24  H   UNL     1      11.499 -49.546 -20.972  1.00  0.00     0.160 HD
BRANCH  23  25
ATOM     25  C   UNL     1      12.126 -49.465 -22.872  1.00  0.00     0.049 A 
ATOM     26  C   UNL     1      12.891 -50.121 -23.857  1.00  0.00    -0.003 A 
ATOM     27  C   UNL     1      11.711 -48.117 -23.077  1.00  0.00     0.024 A 
ATOM     28  C   UNL     1      13.246 -49.393 -24.993  1.00  0.00     0.046 A 
ATOM     29  C   UNL     1      13.411 -51.523 -23.640  1.00  0.00     0.039 C 
ATOM     30  C   UNL     1      10.932 -47.362 -22.160  1.00  0.00     0.012 A 
ATOM     31  C   UNL     1      12.112 -47.498 -24.278  1.00  0.00     0.073 A 
ATOM     32  N   UNL     1      12.851 -48.116 -25.209  1.00  0.00    -0.252 NA
ATOM     33  C   UNL     1      14.063 -50.004 -26.103  1.00  0.00     0.056 C 
ATOM     34  C   UNL     1      13.969 -52.183 -24.900  1.00  0.00     0.005 C 
ATOM     35  C   UNL     1      10.565 -46.043 -22.429  1.00  0.00     0.001 A 
ATOM     36  C   UNL     1      11.732 -46.185 -24.524  1.00  0.00     0.029 A 
ATOM     37  C   UNL     1      14.869 -51.219 -25.656  1.00  0.00     0.007 C 
ATOM     38  C   UNL     1      10.965 -45.452 -23.617  1.00  0.00     0.002 A 
ENDBRANCH  23  25
ENDBRANCH  22  23
ENDBRANCH  21  22
ENDBRANCH  20  21
ENDBRANCH   1  20
TORSDOF 9
ENDMDL
MODEL 6
REMARK VINA RESULT:   -11.831      1.233      3.441
REMARK INTER + INTRA:         -18.505
REMARK INTER:                 -17.815
REMARK INTRA:                  -0.690
REMARK UNBOUND:                -0.796
REMARK SMILES O=C(Cc1cc(=O)oc2cc(O)ccc12)NCCCCNc1c2c(nc3ccccc13)CCCC2
REMARK SMILES IDX 17 1 16 2 2 3 1 4 3 6 4 7 5 8 15 9 6 10 14 11 9 12 8 13
REMARK SMILES IDX 13 14 10 15 11 16 7 17 12 18 18 20 19 21 20 22 21 23 22 25
REMARK SMILES IDX 23 26 31 27 24 28 35 29 30 30 26 31 25 32 32 33 34 34 29 35
REMARK SMILES IDX 27 36 33 37 28 38
REMARK H PARENT 16 5 12 19 21 24
ROOT
ATOM      1  C   UNL     1      11.405 -56.953 -23.146  1.00  0.00     0.116 C 
ENDROOT
BRANCH   1   2
ATOM      2  N   UNL     1      11.340 -55.653 -22.507  1.00  0.00    -0.356 N 
ATOM      3  C   UNL     1      10.706 -54.576 -23.090  1.00  0.00     0.224 C 
ATOM      4  O   UNL     1      10.013 -54.660 -24.100  1.00  0.00    -0.275 OA
ATOM      5  H   UNL     1      11.900 -55.516 -21.677  1.00  0.00     0.163 HD
BRANCH   3   6
ATOM      6  C   UNL     1      11.000 -53.244 -22.410  1.00  0.00     0.136 C 
BRANCH   6   7
ATOM      7  C   UNL     1      11.847 -52.401 -23.333  1.00  0.00    -0.020 A 
ATOM      8  C   UNL     1      12.672 -52.981 -24.221  1.00  0.00     0.098 A 
ATOM      9  C   UNL     1      11.791 -50.930 -23.303  1.00  0.00     0.022 A 
ATOM     10  C   UNL     1      13.476 -52.231 -25.195  1.00  0.00     0.336 A 
ATOM     11  C   UNL     1      10.955 -50.196 -22.451  1.00  0.00     0.016 A 
ATOM     12  C   UNL     1      12.619 -50.209 -24.169  1.00  0.00     0.142 A 
ATOM     13  O   UNL     1      13.465 -50.855 -25.092  1.00  0.00    -0.423 OA
ATOM     14  C   UNL     1      10.961 -48.794 -22.464  1.00  0.00     0.047 A 
ATOM     15  C   UNL     1      12.642 -48.814 -24.193  1.00  0.00     0.094 A 
ATOM     16  C   UNL     1      11.808 -48.117 -23.334  1.00  0.00     0.119 A 
ATOM     17  O   UNL     1      14.107 -52.824 -26.063  1.00  0.00    -0.246 OA
BRANCH  16  18
ATOM     18  O   UNL     1      11.842 -46.755 -23.378  1.00  0.00    -0.508 OA
ATOM     19  H   UNL     1      12.381 -46.478 -24.137  1.00  0.00     0.293 HD
ENDBRANCH  16  18
ENDBRANCH   6   7
ENDBRANCH   3   6
ENDBRANCH   1   2
BRANCH   1  20
ATOM     20  C   UNL     1      10.568 -57.983 -22.388  1.00  0.00     0.023 C 
BRANCH  20  21
ATOM     21  C   UNL     1      11.391 -59.183 -21.902  1.00  0.00     0.023 C 
BRANCH  21  22
ATOM     22  C   UNL     1      10.636 -60.508 -22.036  1.00  0.00     0.113 C 
BRANCH  22  23
ATOM     23  N   UNL     1      11.347 -61.390 -22.975  1.00  0.00    -0.384 N 
ATOM     24  H   UNL     1      12.261 -60.998 -23.203  1.00  0.00     0.160 HD
BRANCH  23  25
ATOM     25  C   UNL     1      10.608 -61.549 -24.190  1.00  0.00     0.049 A 
ATOM     26  C   UNL     1       9.448 -62.349 -24.173  1.00  0.00    -0.003 A 
ATOM     27  C   UNL     1      10.973 -60.852 -25.378  1.00  0.00     0.024 A 
ATOM     28  C   UNL     1       8.716 -62.454 -25.357  1.00  0.00     0.046 A 
ATOM     29  C   UNL     1       9.072 -63.159 -22.955  1.00  0.00     0.039 C 
ATOM     30  C   UNL     1      12.112 -60.013 -25.507  1.00  0.00     0.012 A 
ATOM     31  C   UNL     1      10.139 -61.019 -26.502  1.00  0.00     0.073 A 
ATOM     32  N   UNL     1       9.043 -61.790 -26.491  1.00  0.00    -0.252 NA
ATOM     33  C   UNL     1       7.462 -63.284 -25.443  1.00  0.00     0.056 C 
ATOM     34  C   UNL     1       7.657 -63.735 -23.001  1.00  0.00     0.005 C 
ATOM     35  C   UNL     1      12.408 -59.365 -26.706  1.00  0.00     0.001 A 
ATOM     36  C   UNL     1      10.452 -60.361 -27.684  1.00  0.00     0.029 A 
ATOM     37  C   UNL     1       7.376 -64.355 -24.360  1.00  0.00     0.007 C 
ATOM     38  C   UNL     1      11.574 -59.538 -27.799  1.00  0.00     0.002 A 
ENDBRANCH  23  25
ENDBRANCH  22  23
ENDBRANCH  21  22
ENDBRANCH  20  21
ENDBRANCH   1  20
TORSDOF 9
ENDMDL
MODEL 7
REMARK VINA RESULT:   -11.337      3.576     10.775
REMARK INTER + INTRA:         -17.766
REMARK INTER:                 -17.370
REMARK INTRA:                  -0.396
REMARK UNBOUND:                -0.796
REMARK SMILES O=C(Cc1cc(=O)oc2cc(O)ccc12)NCCCCNc1c2c(nc3ccccc13)CCCC2
REMARK SMILES IDX 17 1 16 2 2 3 1 4 3 6 4 7 5 8 15 9 6 10 14 11 9 12 8 13
REMARK SMILES IDX 13 14 10 15 11 16 7 17 12 18 18 20 19 21 20 22 21 23 22 25
REMARK SMILES IDX 23 26 31 27 24 28 35 29 30 30 26 31 25 32 32 33 34 34 29 35
REMARK SMILES IDX 27 36 33 37 28 38
REMARK H PARENT 16 5 12 19 21 24
ROOT
ATOM      1  C   UNL     1      10.963 -54.912 -21.826  1.00  0.00     0.116 C 
ENDROOT
BRANCH   1   2
ATOM      2  N   UNL     1      10.962 -55.961 -22.827  1.00  0.00    -0.356 N 
ATOM      3  C   UNL     1      11.256 -57.273 -22.520  1.00  0.00     0.224 C 
ATOM      4  O   UNL     1      11.379 -57.692 -21.373  1.00  0.00    -0.275 OA
ATOM      5  H   UNL     1      10.878 -55.679 -23.794  1.00  0.00     0.163 HD
BRANCH   3   6
ATOM      6  C   UNL     1      11.491 -58.155 -23.741  1.00  0.00     0.136 C 
BRANCH   6   7
ATOM      7  C   UNL     1      10.678 -59.420 -23.593  1.00  0.00    -0.020 A 
ATOM      8  C   UNL     1      11.285 -60.612 -23.481  1.00  0.00     0.098 A 
ATOM      9  C   UNL     1       9.206 -59.389 -23.555  1.00  0.00     0.022 A 
ATOM     10  C   UNL     1      10.565 -61.875 -23.268  1.00  0.00     0.336 A 
ATOM     11  C   UNL     1       8.445 -58.214 -23.631  1.00  0.00     0.016 A 
ATOM     12  C   UNL     1       8.513 -60.598 -23.439  1.00  0.00     0.142 A 
ATOM     13  O   UNL     1       9.187 -61.828 -23.315  1.00  0.00    -0.423 OA
ATOM     14  C   UNL     1       7.045 -58.258 -23.602  1.00  0.00     0.047 A 
ATOM     15  C   UNL     1       7.119 -60.660 -23.413  1.00  0.00     0.094 A 
ATOM     16  C   UNL     1       6.394 -59.483 -23.496  1.00  0.00     0.119 A 
ATOM     17  O   UNL     1      11.185 -62.908 -23.042  1.00  0.00    -0.246 OA
BRANCH  16  18
ATOM     18  O   UNL     1       5.035 -59.565 -23.464  1.00  0.00    -0.508 OA
ATOM     19  H   UNL     1       4.710 -59.099 -22.676  1.00  0.00     0.293 HD
ENDBRANCH  16  18
ENDBRANCH   6   7
ENDBRANCH   3   6
ENDBRANCH   1   2
BRANCH   1  20
ATOM     20  C   UNL     1      10.326 -53.633 -22.368  1.00  0.00     0.023 C 
BRANCH  20  21
ATOM     21  C   UNL     1      10.555 -52.419 -21.458  1.00  0.00     0.023 C 
BRANCH  21  22
ATOM     22  C   UNL     1      10.435 -51.090 -22.209  1.00  0.00     0.113 C 
BRANCH  22  23
ATOM     23  N   UNL     1      11.541 -50.200 -21.820  1.00  0.00    -0.384 N 
ATOM     24  H   UNL     1      11.228 -49.542 -21.106  1.00  0.00     0.160 HD
BRANCH  23  25
ATOM     25  C   UNL     1      12.019 -49.454 -22.943  1.00  0.00     0.049 A 
ATOM     26  C   UNL     1      12.814 -50.114 -23.902  1.00  0.00    -0.003 A 
ATOM     27  C   UNL     1      11.638 -48.097 -23.150  1.00  0.00     0.024 A 
ATOM     28  C   UNL     1      13.232 -49.381 -25.013  1.00  0.00     0.046 A 
ATOM     29  C   UNL     1      13.297 -51.528 -23.679  1.00  0.00     0.039 C 
ATOM     30  C   UNL     1      10.835 -47.337 -22.260  1.00  0.00     0.012 A 
ATOM     31  C   UNL     1      12.103 -47.472 -24.325  1.00  0.00     0.073 A 
ATOM     32  N   UNL     1      12.871 -48.094 -25.230  1.00  0.00    -0.252 NA
ATOM     33  C   UNL     1      14.085 -49.995 -26.093  1.00  0.00     0.056 C 
ATOM     34  C   UNL     1      13.898 -52.185 -24.922  1.00  0.00     0.005 C 
ATOM     35  C   UNL     1      10.505 -46.008 -22.528  1.00  0.00     0.001 A 
ATOM     36  C   UNL     1      11.759 -46.149 -24.572  1.00  0.00     0.029 A 
ATOM     37  C   UNL     1      14.848 -51.230 -25.626  1.00  0.00     0.007 C 
ATOM     38  C   UNL     1      10.968 -45.412 -23.691  1.00  0.00     0.002 A 
ENDBRANCH  23  25
ENDBRANCH  22  23
ENDBRANCH  21  22
ENDBRANCH  20  21
ENDBRANCH   1  20
TORSDOF 9
ENDMDL
MODEL 8
REMARK VINA RESULT:   -11.181      3.304     10.422
REMARK INTER + INTRA:         -17.533
REMARK INTER:                 -17.078
REMARK INTRA:                  -0.455
REMARK UNBOUND:                -0.796
REMARK SMILES O=C(Cc1cc(=O)oc2cc(O)ccc12)NCCCCNc1c2c(nc3ccccc13)CCCC2
REMARK SMILES IDX 17 1 16 2 2 3 1 4 3 6 4 7 5 8 15 9 6 10 14 11 9 12 8 13
REMARK SMILES IDX 13 14 10 15 11 16 7 17 12 18 18 20 19 21 20 22 21 23 22 25
REMARK SMILES IDX 23 26 31 27 24 28 35 29 30 30 26 31 25 32 32 33 34 34 29 35
REMARK SMILES IDX 27 36 33 37 28 38
REMARK H PARENT 16 5 12 19 21 24
ROOT
ATOM      1  C   UNL     1      12.479 -54.598 -25.692  1.00  0.00     0.116 C 
ENDROOT
BRANCH   1   2
ATOM      2  N   UNL     1      12.219 -55.573 -24.650  1.00  0.00    -0.356 N 
ATOM      3  C   UNL     1      11.072 -55.547 -23.885  1.00  0.00     0.224 C 
ATOM      4  O   UNL     1      10.115 -54.816 -24.119  1.00  0.00    -0.275 OA
ATOM      5  H   UNL     1      12.975 -56.197 -24.400  1.00  0.00     0.163 HD
BRANCH   3   6
ATOM      6  C   UNL     1      11.123 -56.460 -22.664  1.00  0.00     0.136 C 
BRANCH   6   7
ATOM      7  C   UNL     1      10.912 -57.886 -23.113  1.00  0.00    -0.020 A 
ATOM      8  C   UNL     1      11.962 -58.690 -23.348  1.00  0.00     0.098 A 
ATOM      9  C   UNL     1       9.562 -58.444 -23.296  1.00  0.00     0.022 A 
ATOM     10  C   UNL     1      11.836 -60.105 -23.723  1.00  0.00     0.336 A 
ATOM     11  C   UNL     1       8.380 -57.730 -23.058  1.00  0.00     0.016 A 
ATOM     12  C   UNL     1       9.437 -59.766 -23.736  1.00  0.00     0.142 A 
ATOM     13  O   UNL     1      10.564 -60.579 -23.964  1.00  0.00    -0.423 OA
ATOM     14  C   UNL     1       7.126 -58.319 -23.265  1.00  0.00     0.047 A 
ATOM     15  C   UNL     1       8.196 -60.367 -23.952  1.00  0.00     0.094 A 
ATOM     16  C   UNL     1       7.046 -59.633 -23.714  1.00  0.00     0.119 A 
ATOM     17  O   UNL     1      12.833 -60.816 -23.794  1.00  0.00    -0.246 OA
BRANCH  16  18
ATOM     18  O   UNL     1       5.845 -60.240 -23.926  1.00  0.00    -0.508 OA
ATOM     19  H   UNL     1       5.942 -60.885 -24.647  1.00  0.00     0.293 HD
ENDBRANCH  16  18
ENDBRANCH   6   7
ENDBRANCH   3   6
ENDBRANCH   1   2
BRANCH   1  20
ATOM     20  C   UNL     1      12.803 -53.229 -25.097  1.00  0.00     0.023 C 
BRANCH  20  21
ATOM     21  C   UNL     1      13.924 -52.499 -25.849  1.00  0.00     0.023 C 
BRANCH  21  22
ATOM     22  C   UNL     1      13.717 -50.983 -25.888  1.00  0.00     0.113 C 
BRANCH  22  23
ATOM     23  N   UNL     1      14.069 -50.401 -24.583  1.00  0.00    -0.384 N 
ATOM     24  H   UNL     1      14.271 -51.141 -23.911  1.00  0.00     0.160 HD
BRANCH  23  25
ATOM     25  C   UNL     1      12.997 -49.605 -24.070  1.00  0.00     0.049 A 
ATOM     26  C   UNL     1      12.940 -48.242 -24.424  1.00  0.00    -0.003 A 
ATOM     27  C   UNL     1      11.953 -50.180 -23.289  1.00  0.00     0.024 A 
ATOM     28  C   UNL     1      11.862 -47.494 -23.950  1.00  0.00     0.046 A 
ATOM     29  C   UNL     1      14.065 -47.583 -25.187  1.00  0.00     0.039 C 
ATOM     30  C   UNL     1      11.900 -51.539 -22.883  1.00  0.00     0.012 A 
ATOM     31  C   UNL     1      10.904 -49.326 -22.892  1.00  0.00     0.073 A 
ATOM     32  N   UNL     1      10.856 -48.026 -23.216  1.00  0.00    -0.252 NA
ATOM     33  C   UNL     1      11.711 -46.029 -24.271  1.00  0.00     0.056 C 
ATOM     34  C   UNL     1      13.723 -46.196 -25.730  1.00  0.00     0.005 C 
ATOM     35  C   UNL     1      10.845 -52.031 -22.114  1.00  0.00     0.001 A 
ATOM     36  C   UNL     1       9.862 -49.838 -22.130  1.00  0.00     0.029 A 
ATOM     37  C   UNL     1      13.024 -45.363 -24.667  1.00  0.00     0.007 C 
ATOM     38  C   UNL     1       9.820 -51.177 -21.737  1.00  0.00     0.002 A 
ENDBRANCH  23  25
ENDBRANCH  22  23
ENDBRANCH  21  22
ENDBRANCH  20  21
ENDBRANCH   1  20
TORSDOF 9
ENDMDL
MODEL 9
REMARK VINA RESULT:   -11.170      1.511      2.082
REMARK INTER + INTRA:         -17.516
REMARK INTER:                 -17.116
REMARK INTRA:                  -0.400
REMARK UNBOUND:                -0.796
REMARK SMILES O=C(Cc1cc(=O)oc2cc(O)ccc12)NCCCCNc1c2c(nc3ccccc13)CCCC2
REMARK SMILES IDX 17 1 16 2 2 3 1 4 3 6 4 7 5 8 15 9 6 10 14 11 9 12 8 13
REMARK SMILES IDX 13 14 10 15 11 16 7 17 12 18 18 20 19 21 20 22 21 23 22 25
REMARK SMILES IDX 23 26 31 27 24 28 35 29 30 30 26 31 25 32 32 33 34 34 29 35
REMARK SMILES IDX 27 36 33 37 28 38
REMARK H PARENT 16 5 12 19 21 24
ROOT
ATOM      1  C   UNL     1      10.447 -55.952 -22.530  1.00  0.00     0.116 C 
ENDROOT
BRANCH   1   2
ATOM      2  N   UNL     1      10.981 -54.713 -22.000  1.00  0.00    -0.356 N 
ATOM      3  C   UNL     1      10.528 -53.478 -22.415  1.00  0.00     0.224 C 
ATOM      4  O   UNL     1       9.543 -53.320 -23.130  1.00  0.00    -0.275 OA
ATOM      5  H   UNL     1      11.804 -54.775 -21.415  1.00  0.00     0.163 HD
BRANCH   3   6
ATOM      6  C   UNL     1      11.408 -52.315 -21.968  1.00  0.00     0.136 C 
BRANCH   6   7
ATOM      7  C   UNL     1      12.126 -51.755 -23.173  1.00  0.00    -0.020 A 
ATOM      8  C   UNL     1      12.755 -52.573 -24.033  1.00  0.00     0.098 A 
ATOM      9  C   UNL     1      12.151 -50.310 -23.452  1.00  0.00     0.022 A 
ATOM     10  C   UNL     1      13.416 -52.109 -25.260  1.00  0.00     0.336 A 
ATOM     11  C   UNL     1      11.512 -49.347 -22.658  1.00  0.00     0.016 A 
ATOM     12  C   UNL     1      12.853 -49.855 -24.573  1.00  0.00     0.142 A 
ATOM     13  O   UNL     1      13.493 -50.746 -25.456  1.00  0.00    -0.423 OA
ATOM     14  C   UNL     1      11.587 -47.984 -22.974  1.00  0.00     0.047 A 
ATOM     15  C   UNL     1      12.942 -48.501 -24.900  1.00  0.00     0.094 A 
ATOM     16  C   UNL     1      12.305 -47.574 -24.092  1.00  0.00     0.119 A 
ATOM     17  O   UNL     1      13.857 -52.920 -26.068  1.00  0.00    -0.246 OA
BRANCH  16  18
ATOM     18  O   UNL     1      12.401 -46.258 -24.433  1.00  0.00    -0.508 OA
ATOM     19  H   UNL     1      11.603 -46.003 -24.925  1.00  0.00     0.293 HD
ENDBRANCH  16  18
ENDBRANCH   6   7
ENDBRANCH   3   6
ENDBRANCH   1   2
BRANCH   1  20
ATOM     20  C   UNL     1      11.221 -57.158 -21.997  1.00  0.00     0.023 C 
BRANCH  20  21
ATOM     21  C   UNL     1      11.305 -58.310 -23.007  1.00  0.00     0.023 C 
BRANCH  21  22
ATOM     22  C   UNL     1      11.211 -59.684 -22.341  1.00  0.00     0.113 C 
BRANCH  22  23
ATOM     23  N   UNL     1      11.817 -60.701 -23.215  1.00  0.00    -0.384 N 
ATOM     24  H   UNL     1      12.639 -60.318 -23.683  1.00  0.00     0.160 HD
BRANCH  23  25
ATOM     25  C   UNL     1      10.891 -61.138 -24.214  1.00  0.00     0.049 A 
ATOM     26  C   UNL     1      11.102 -60.738 -25.550  1.00  0.00    -0.003 A 
ATOM     27  C   UNL     1       9.824 -62.029 -23.901  1.00  0.00     0.024 A 
ATOM     28  C   UNL     1      10.213 -61.212 -26.516  1.00  0.00     0.046 A 
ATOM     29  C   UNL     1      12.175 -59.738 -25.907  1.00  0.00     0.039 C 
ATOM     30  C   UNL     1       9.524 -62.506 -22.597  1.00  0.00     0.012 A 
ATOM     31  C   UNL     1       9.011 -62.458 -24.969  1.00  0.00     0.073 A 
ATOM     32  N   UNL     1       9.202 -62.067 -26.236  1.00  0.00    -0.252 NA
ATOM     33  C   UNL     1      10.353 -60.842 -27.970  1.00  0.00     0.056 C 
ATOM     34  C   UNL     1      12.456 -59.632 -27.406  1.00  0.00     0.005 C 
ATOM     35  C   UNL     1       8.459 -63.376 -22.365  1.00  0.00     0.001 A 
ATOM     36  C   UNL     1       7.958 -63.328 -24.714  1.00  0.00     0.029 A 
ATOM     37  C   UNL     1      11.154 -59.564 -28.190  1.00  0.00     0.007 C 
ATOM     38  C   UNL     1       7.673 -63.790 -23.429  1.00  0.00     0.002 A 
ENDBRANCH  23  25
ENDBRANCH  22  23
ENDBRANCH  21  22
ENDBRANCH  20  21
ENDBRANCH   1  20
TORSDOF 9
ENDMDL
