MODEL 1
REMARK VINA RESULT:    -9.861      0.000      0.000
REMARK INTER + INTRA:         -16.264
REMARK INTER:                 -15.050
REMARK INTRA:                  -1.214
REMARK UNBOUND:                -1.214
REMARK SMILES COc1ccc([C@H](C)NS(=O)(=O)NC(=O)OCc2ccccc2)cc1OC
REMARK SMILES IDX 9 1 7 3 8 4 6 5 3 6 4 7 25 8 5 9 24 10 2 11 1 12 26 13 27 14
REMARK SMILES IDX 10 15 11 16 12 17 13 18 14 19 15 21 16 22 17 23 18 24 19 25
REMARK SMILES IDX 23 26 20 27 22 28 21 29
REMARK H PARENT 9 2 13 20
ROOT
ATOM      1  N   UNL     1      10.343 -60.111 -22.789  1.00  0.00    -0.190 NA
ATOM      2  H   UNL     1       9.665 -59.593 -23.351  1.00  0.00     0.143 HD
ENDROOT
BRANCH   1   3
ATOM      3  C   UNL     1      11.003 -61.179 -23.575  1.00  0.00     0.098 C 
ATOM      4  C   UNL     1      10.258 -62.489 -23.299  1.00  0.00     0.031 C 
BRANCH   3   5
ATOM      5  C   UNL     1      11.055 -60.795 -25.045  1.00  0.00    -0.026 A 
ATOM      6  C   UNL     1      11.103 -60.200 -27.808  1.00  0.00     0.160 A 
ATOM      7  C   UNL     1      12.134 -59.768 -26.968  1.00  0.00     0.051 A 
ATOM      8  C   UNL     1      10.044 -60.954 -27.269  1.00  0.00     0.161 A 
ATOM      9  C   UNL     1      12.114 -60.070 -25.603  1.00  0.00     0.009 A 
ATOM     10  C   UNL     1      10.030 -61.244 -25.898  1.00  0.00     0.055 A 
BRANCH   6  11
ATOM     11  O   UNL     1      11.043 -59.951 -29.156  1.00  0.00    -0.493 OA
ATOM     12  C   UNL     1      12.076 -59.164 -29.728  1.00  0.00     0.278 C 
ENDBRANCH   6  11
BRANCH   8  13
ATOM     13  O   UNL     1       9.074 -61.357 -28.154  1.00  0.00    -0.493 OA
ATOM     14  C   UNL     1       8.862 -62.754 -28.304  1.00  0.00     0.278 C 
ENDBRANCH   8  13
ENDBRANCH   3   5
ENDBRANCH   1   3
BRANCH   1  15
ATOM     15  S   UNL     1      11.324 -59.012 -22.005  1.00  0.00     0.304 S 
ATOM     16  O   UNL     1      12.667 -59.320 -22.437  1.00  0.00    -0.189 OA
ATOM     17  O   UNL     1      10.976 -58.977 -20.609  1.00  0.00    -0.189 OA
BRANCH  15  18
ATOM     18  N   UNL     1      10.913 -57.628 -22.767  1.00  0.00    -0.205 N 
ATOM     19  C   UNL     1       9.651 -57.226 -23.154  1.00  0.00     0.422 C 
ATOM     20  H   UNL     1      11.673 -56.967 -22.865  1.00  0.00     0.188 HD
ATOM     21  O   UNL     1       8.651 -57.923 -23.115  1.00  0.00    -0.223 OA
BRANCH  19  22
ATOM     22  O   UNL     1       9.681 -55.955 -23.618  1.00  0.00    -0.444 OA
BRANCH  22  23
ATOM     23  C   UNL     1      10.220 -55.017 -22.685  1.00  0.00     0.270 C 
BRANCH  23  24
ATOM     24  C   UNL     1      11.147 -54.101 -23.440  1.00  0.00    -0.011 A 
ATOM     25  C   UNL     1      11.418 -52.812 -22.960  1.00  0.00     0.007 A 
ATOM     26  C   UNL     1      11.782 -54.538 -24.612  1.00  0.00     0.007 A 
ATOM     27  C   UNL     1      12.293 -51.970 -23.649  1.00  0.00     0.000 A 
ATOM     28  C   UNL     1      12.655 -53.693 -25.299  1.00  0.00     0.000 A 
ATOM     29  C   UNL     1      12.909 -52.410 -24.818  1.00  0.00     0.000 A 
ENDBRANCH  23  24
ENDBRANCH  22  23
ENDBRANCH  19  22
ENDBRANCH  15  18
ENDBRANCH   1  15
TORSDOF 9
ENDMDL
MODEL 2
REMARK VINA RESULT:    -9.782      2.679      4.376
REMARK INTER + INTRA:         -16.142
REMARK INTER:                 -14.895
REMARK INTRA:                  -1.247
REMARK UNBOUND:                -1.214
REMARK SMILES COc1ccc([C@H](C)NS(=O)(=O)NC(=O)OCc2ccccc2)cc1OC
REMARK SMILES IDX 9 1 7 3 8 4 6 5 3 6 4 7 25 8 5 9 24 10 2 11 1 12 26 13 27 14
REMARK SMILES IDX 10 15 11 16 12 17 13 18 14 19 15 21 16 22 17 23 18 24 19 25
REMARK SMILES IDX 23 26 20 27 22 28 21 29
REMARK H PARENT 9 2 13 20
ROOT
ATOM      1  N   UNL     1      11.310 -60.872 -25.197  1.00  0.00    -0.190 NA
ATOM      2  H   UNL     1      11.055 -61.046 -24.223  1.00  0.00     0.143 HD
ENDROOT
BRANCH   1   3
ATOM      3  C   UNL     1      10.197 -60.252 -25.952  1.00  0.00     0.098 C 
ATOM      4  C   UNL     1       9.967 -61.087 -27.215  1.00  0.00     0.031 C 
BRANCH   3   5
ATOM      5  C   UNL     1       8.968 -60.120 -25.066  1.00  0.00    -0.026 A 
ATOM      6  C   UNL     1       6.634 -59.981 -23.478  1.00  0.00     0.160 A 
ATOM      7  C   UNL     1       7.249 -58.815 -23.944  1.00  0.00     0.051 A 
ATOM      8  C   UNL     1       7.176 -61.233 -23.823  1.00  0.00     0.161 A 
ATOM      9  C   UNL     1       8.400 -58.885 -24.736  1.00  0.00     0.009 A 
ATOM     10  C   UNL     1       8.334 -61.291 -24.610  1.00  0.00     0.055 A 
BRANCH   6  11
ATOM     11  O   UNL     1       5.504 -60.006 -22.699  1.00  0.00    -0.493 OA
ATOM     12  C   UNL     1       4.867 -58.768 -22.423  1.00  0.00     0.278 C 
ENDBRANCH   6  11
BRANCH   8  13
ATOM     13  O   UNL     1       6.512 -62.335 -23.344  1.00  0.00    -0.493 OA
ATOM     14  C   UNL     1       7.293 -63.463 -22.974  1.00  0.00     0.278 C 
ENDBRANCH   8  13
ENDBRANCH   3   5
ENDBRANCH   1   3
BRANCH   1  15
ATOM     15  S   UNL     1      12.786 -60.096 -25.222  1.00  0.00     0.304 S 
ATOM     16  O   UNL     1      13.200 -60.102 -26.605  1.00  0.00    -0.189 OA
ATOM     17  O   UNL     1      13.626 -60.640 -24.187  1.00  0.00    -0.189 OA
BRANCH  15  18
ATOM     18  N   UNL     1      12.337 -58.561 -24.893  1.00  0.00    -0.205 N 
ATOM     19  C   UNL     1      11.828 -58.071 -23.707  1.00  0.00     0.422 C 
ATOM     20  H   UNL     1      12.560 -57.898 -25.624  1.00  0.00     0.188 HD
ATOM     21  O   UNL     1      11.494 -58.753 -22.753  1.00  0.00    -0.223 OA
BRANCH  19  22
ATOM     22  O   UNL     1      11.718 -56.723 -23.761  1.00  0.00    -0.444 OA
BRANCH  22  23
ATOM     23  C   UNL     1      10.638 -56.205 -22.982  1.00  0.00     0.270 C 
BRANCH  23  24
ATOM     24  C   UNL     1      10.916 -54.746 -22.727  1.00  0.00    -0.011 A 
ATOM     25  C   UNL     1      11.524 -53.957 -23.713  1.00  0.00     0.007 A 
ATOM     26  C   UNL     1      10.536 -54.149 -21.517  1.00  0.00     0.007 A 
ATOM     27  C   UNL     1      11.765 -52.601 -23.486  1.00  0.00     0.000 A 
ATOM     28  C   UNL     1      10.779 -52.793 -21.291  1.00  0.00     0.000 A 
ATOM     29  C   UNL     1      11.394 -52.021 -22.275  1.00  0.00     0.000 A 
ENDBRANCH  23  24
ENDBRANCH  22  23
ENDBRANCH  19  22
ENDBRANCH  15  18
ENDBRANCH   1  15
TORSDOF 9
ENDMDL
MODEL 3
REMARK VINA RESULT:    -9.718      1.045      2.113
REMARK INTER + INTRA:         -16.044
REMARK INTER:                 -15.086
REMARK INTRA:                  -0.959
REMARK UNBOUND:                -1.214
REMARK SMILES COc1ccc([C@H](C)NS(=O)(=O)NC(=O)OCc2ccccc2)cc1OC
REMARK SMILES IDX 9 1 7 3 8 4 6 5 3 6 4 7 25 8 5 9 24 10 2 11 1 12 26 13 27 14
REMARK SMILES IDX 10 15 11 16 12 17 13 18 14 19 15 21 16 22 17 23 18 24 19 25
REMARK SMILES IDX 23 26 20 27 22 28 21 29
REMARK H PARENT 9 2 13 20
ROOT
ATOM      1  N   UNL     1      10.108 -59.555 -22.447  1.00  0.00    -0.190 NA
ATOM      2  H   UNL     1       9.659 -59.029 -23.200  1.00  0.00     0.143 HD
ENDROOT
BRANCH   1   3
ATOM      3  C   UNL     1      10.403 -60.948 -22.853  1.00  0.00     0.098 C 
ATOM      4  C   UNL     1       9.659 -61.882 -21.893  1.00  0.00     0.031 C 
BRANCH   3   5
ATOM      5  C   UNL     1      10.049 -61.157 -24.317  1.00  0.00    -0.026 A 
ATOM      6  C   UNL     1       9.373 -61.415 -27.049  1.00  0.00     0.160 A 
ATOM      7  C   UNL     1       8.950 -62.368 -26.117  1.00  0.00     0.051 A 
ATOM      8  C   UNL     1      10.125 -60.309 -26.612  1.00  0.00     0.161 A 
ATOM      9  C   UNL     1       9.278 -62.235 -24.764  1.00  0.00     0.009 A 
ATOM     10  C   UNL     1      10.455 -60.190 -25.256  1.00  0.00     0.055 A 
BRANCH   6  11
ATOM     11  O   UNL     1       9.096 -61.465 -28.392  1.00  0.00    -0.493 OA
ATOM     12  C   UNL     1       8.799 -62.733 -28.958  1.00  0.00     0.278 C 
ENDBRANCH   6  11
BRANCH   8  13
ATOM     13  O   UNL     1      10.493 -59.405 -27.578  1.00  0.00    -0.493 OA
ATOM     14  C   UNL     1      11.875 -59.309 -27.896  1.00  0.00     0.278 C 
ENDBRANCH   8  13
ENDBRANCH   3   5
ENDBRANCH   1   3
BRANCH   1  15
ATOM     15  S   UNL     1      11.369 -58.642 -21.848  1.00  0.00     0.304 S 
ATOM     16  O   UNL     1      12.545 -59.107 -22.546  1.00  0.00    -0.189 OA
ATOM     17  O   UNL     1      11.307 -58.633 -20.410  1.00  0.00    -0.189 OA
BRANCH  15  18
ATOM     18  N   UNL     1      11.021 -57.177 -22.480  1.00  0.00    -0.205 N 
ATOM     19  C   UNL     1       9.857 -56.791 -23.113  1.00  0.00     0.422 C 
ATOM     20  H   UNL     1      11.713 -56.465 -22.283  1.00  0.00     0.188 HD
ATOM     21  O   UNL     1       8.952 -57.542 -23.433  1.00  0.00    -0.223 OA
BRANCH  19  22
ATOM     22  O   UNL     1       9.874 -55.461 -23.364  1.00  0.00    -0.444 OA
BRANCH  22  23
ATOM     23  C   UNL     1      10.040 -54.659 -22.192  1.00  0.00     0.270 C 
BRANCH  23  24
ATOM     24  C   UNL     1      10.862 -53.455 -22.574  1.00  0.00    -0.011 A 
ATOM     25  C   UNL     1      10.847 -52.305 -21.774  1.00  0.00     0.007 A 
ATOM     26  C   UNL     1      11.682 -53.484 -23.711  1.00  0.00     0.007 A 
ATOM     27  C   UNL     1      11.624 -51.195 -22.116  1.00  0.00     0.000 A 
ATOM     28  C   UNL     1      12.456 -52.374 -24.051  1.00  0.00     0.000 A 
ATOM     29  C   UNL     1      12.426 -51.230 -23.254  1.00  0.00     0.000 A 
ENDBRANCH  23  24
ENDBRANCH  22  23
ENDBRANCH  19  22
ENDBRANCH  15  18
ENDBRANCH   1  15
TORSDOF 9
ENDMDL
MODEL 4
REMARK VINA RESULT:    -9.491      2.973      3.920
REMARK INTER + INTRA:         -15.698
REMARK INTER:                 -14.984
REMARK INTRA:                  -0.715
REMARK UNBOUND:                -1.214
REMARK SMILES COc1ccc([C@H](C)NS(=O)(=O)NC(=O)OCc2ccccc2)cc1OC
REMARK SMILES IDX 9 1 7 3 8 4 6 5 3 6 4 7 25 8 5 9 24 10 2 11 1 12 26 13 27 14
REMARK SMILES IDX 10 15 11 16 12 17 13 18 14 19 15 21 16 22 17 23 18 24 19 25
REMARK SMILES IDX 23 26 20 27 22 28 21 29
REMARK H PARENT 9 2 13 20
ROOT
ATOM      1  N   UNL     1      10.658 -58.872 -22.569  1.00  0.00    -0.190 NA
ATOM      2  H   UNL     1       9.749 -58.427 -22.710  1.00  0.00     0.143 HD
ENDROOT
BRANCH   1   3
ATOM      3  C   UNL     1      10.518 -60.254 -22.055  1.00  0.00     0.098 C 
ATOM      4  C   UNL     1      10.238 -60.167 -20.552  1.00  0.00     0.031 C 
BRANCH   3   5
ATOM      5  C   UNL     1       9.452 -61.001 -22.840  1.00  0.00    -0.026 A 
ATOM      6  C   UNL     1       7.381 -62.343 -24.217  1.00  0.00     0.160 A 
ATOM      7  C   UNL     1       8.624 -62.954 -24.031  1.00  0.00     0.051 A 
ATOM      8  C   UNL     1       7.158 -61.056 -23.693  1.00  0.00     0.161 A 
ATOM      9  C   UNL     1       9.647 -62.293 -23.343  1.00  0.00     0.009 A 
ATOM     10  C   UNL     1       8.192 -60.399 -23.013  1.00  0.00     0.055 A 
BRANCH   6  11
ATOM     11  O   UNL     1       6.323 -62.918 -24.877  1.00  0.00    -0.493 OA
ATOM     12  C   UNL     1       6.516 -64.210 -25.432  1.00  0.00     0.278 C 
ENDBRANCH   6  11
BRANCH   8  13
ATOM     13  O   UNL     1       5.909 -60.524 -23.900  1.00  0.00    -0.493 OA
ATOM     14  C   UNL     1       5.534 -59.404 -23.111  1.00  0.00     0.278 C 
ENDBRANCH   8  13
ENDBRANCH   3   5
ENDBRANCH   1   3
BRANCH   1  15
ATOM     15  S   UNL     1      11.571 -58.650 -23.948  1.00  0.00     0.304 S 
ATOM     16  O   UNL     1      10.682 -58.941 -25.048  1.00  0.00    -0.189 OA
ATOM     17  O   UNL     1      12.828 -59.336 -23.800  1.00  0.00    -0.189 OA
BRANCH  15  18
ATOM     18  N   UNL     1      11.760 -57.029 -23.939  1.00  0.00    -0.205 N 
ATOM     19  C   UNL     1      11.058 -56.106 -23.191  1.00  0.00     0.422 C 
ATOM     20  H   UNL     1      12.553 -56.700 -24.476  1.00  0.00     0.188 HD
ATOM     21  O   UNL     1      10.072 -56.353 -22.519  1.00  0.00    -0.223 OA
BRANCH  19  22
ATOM     22  O   UNL     1      11.598 -54.872 -23.335  1.00  0.00    -0.444 OA
BRANCH  22  23
ATOM     23  C   UNL     1      11.796 -54.488 -24.697  1.00  0.00     0.270 C 
BRANCH  23  24
ATOM     24  C   UNL     1      12.386 -53.102 -24.701  1.00  0.00    -0.011 A 
ATOM     25  C   UNL     1      12.113 -52.213 -23.652  1.00  0.00     0.007 A 
ATOM     26  C   UNL     1      13.245 -52.696 -25.732  1.00  0.00     0.007 A 
ATOM     27  C   UNL     1      12.675 -50.934 -23.645  1.00  0.00     0.000 A 
ATOM     28  C   UNL     1      13.804 -51.417 -25.722  1.00  0.00     0.000 A 
ATOM     29  C   UNL     1      13.518 -50.537 -24.679  1.00  0.00     0.000 A 
ENDBRANCH  23  24
ENDBRANCH  22  23
ENDBRANCH  19  22
ENDBRANCH  15  18
ENDBRANCH   1  15
TORSDOF 9
ENDMDL
MODEL 5
REMARK VINA RESULT:    -9.426      2.282      4.007
REMARK INTER + INTRA:         -15.599
REMARK INTER:                 -15.067
REMARK INTRA:                  -0.533
REMARK UNBOUND:                -1.214
REMARK SMILES COc1ccc([C@H](C)NS(=O)(=O)NC(=O)OCc2ccccc2)cc1OC
REMARK SMILES IDX 9 1 7 3 8 4 6 5 3 6 4 7 25 8 5 9 24 10 2 11 1 12 26 13 27 14
REMARK SMILES IDX 10 15 11 16 12 17 13 18 14 19 15 21 16 22 17 23 18 24 19 25
REMARK SMILES IDX 23 26 20 27 22 28 21 29
REMARK H PARENT 9 2 13 20
ROOT
ATOM      1  N   UNL     1      12.674 -60.329 -25.875  1.00  0.00    -0.190 NA
ATOM      2  H   UNL     1      12.722 -61.241 -26.332  1.00  0.00     0.143 HD
ENDROOT
BRANCH   1   3
ATOM      3  C   UNL     1      11.465 -59.575 -26.279  1.00  0.00     0.098 C 
ATOM      4  C   UNL     1      11.546 -59.339 -27.790  1.00  0.00     0.031 C 
BRANCH   3   5
ATOM      5  C   UNL     1      10.212 -60.313 -25.835  1.00  0.00    -0.026 A 
ATOM      6  C   UNL     1       7.902 -61.638 -24.889  1.00  0.00     0.160 A 
ATOM      7  C   UNL     1       8.738 -62.247 -25.830  1.00  0.00     0.051 A 
ATOM      8  C   UNL     1       8.231 -60.361 -24.398  1.00  0.00     0.161 A 
ATOM      9  C   UNL     1       9.885 -61.595 -26.292  1.00  0.00     0.009 A 
ATOM     10  C   UNL     1       9.378 -59.713 -24.873  1.00  0.00     0.055 A 
BRANCH   6  11
ATOM     11  O   UNL     1       6.760 -62.206 -24.381  1.00  0.00    -0.493 OA
ATOM     12  C   UNL     1       6.907 -63.187 -23.366  1.00  0.00     0.278 C 
ENDBRANCH   6  11
BRANCH   8  13
ATOM     13  O   UNL     1       7.374 -59.830 -23.466  1.00  0.00    -0.493 OA
ATOM     14  C   UNL     1       7.153 -58.427 -23.500  1.00  0.00     0.278 C 
ENDBRANCH   8  13
ENDBRANCH   3   5
ENDBRANCH   1   3
BRANCH   1  15
ATOM     15  S   UNL     1      12.938 -60.546 -24.242  1.00  0.00     0.304 S 
ATOM     16  O   UNL     1      14.372 -60.606 -24.089  1.00  0.00    -0.189 OA
ATOM     17  O   UNL     1      12.089 -61.605 -23.762  1.00  0.00    -0.189 OA
BRANCH  15  18
ATOM     18  N   UNL     1      12.482 -59.092 -23.656  1.00  0.00    -0.205 N 
ATOM     19  C   UNL     1      11.770 -58.838 -22.502  1.00  0.00     0.422 C 
ATOM     20  H   UNL     1      12.863 -58.303 -24.163  1.00  0.00     0.188 HD
ATOM     21  O   UNL     1      11.236 -59.685 -21.807  1.00  0.00    -0.223 OA
BRANCH  19  22
ATOM     22  O   UNL     1      11.715 -57.506 -22.264  1.00  0.00    -0.444 OA
BRANCH  22  23
ATOM     23  C   UNL     1      11.175 -56.751 -23.351  1.00  0.00     0.270 C 
BRANCH  23  24
ATOM     24  C   UNL     1      11.106 -55.310 -22.917  1.00  0.00    -0.011 A 
ATOM     25  C   UNL     1      10.735 -54.981 -21.606  1.00  0.00     0.007 A 
ATOM     26  C   UNL     1      11.448 -54.281 -23.807  1.00  0.00     0.007 A 
ATOM     27  C   UNL     1      10.689 -53.647 -21.198  1.00  0.00     0.000 A 
ATOM     28  C   UNL     1      11.400 -52.948 -23.396  1.00  0.00     0.000 A 
ATOM     29  C   UNL     1      11.020 -52.632 -22.093  1.00  0.00     0.000 A 
ENDBRANCH  23  24
ENDBRANCH  22  23
ENDBRANCH  19  22
ENDBRANCH  15  18
ENDBRANCH   1  15
TORSDOF 9
ENDMDL
MODEL 6
REMARK VINA RESULT:    -9.325      2.595      8.595
REMARK INTER + INTRA:         -15.445
REMARK INTER:                 -14.676
REMARK INTRA:                  -0.769
REMARK UNBOUND:                -1.214
REMARK SMILES COc1ccc([C@H](C)NS(=O)(=O)NC(=O)OCc2ccccc2)cc1OC
REMARK SMILES IDX 9 1 7 3 8 4 6 5 3 6 4 7 25 8 5 9 24 10 2 11 1 12 26 13 27 14
REMARK SMILES IDX 10 15 11 16 12 17 13 18 14 19 15 21 16 22 17 23 18 24 19 25
REMARK SMILES IDX 23 26 20 27 22 28 21 29
REMARK H PARENT 9 2 13 20
ROOT
ATOM      1  N   UNL     1      10.698 -54.844 -24.196  1.00  0.00    -0.190 NA
ATOM      2  H   UNL     1      10.110 -54.072 -23.875  1.00  0.00     0.143 HD
ENDROOT
BRANCH   1   3
ATOM      3  C   UNL     1      12.058 -54.384 -24.557  1.00  0.00     0.098 C 
ATOM      4  C   UNL     1      12.281 -54.704 -26.038  1.00  0.00     0.031 C 
BRANCH   3   5
ATOM      5  C   UNL     1      12.225 -52.912 -24.210  1.00  0.00    -0.026 A 
ATOM      6  C   UNL     1      12.409 -50.174 -23.537  1.00  0.00     0.160 A 
ATOM      7  C   UNL     1      13.129 -50.691 -24.617  1.00  0.00     0.051 A 
ATOM      8  C   UNL     1      11.571 -51.026 -22.794  1.00  0.00     0.161 A 
ATOM      9  C   UNL     1      13.032 -52.045 -24.955  1.00  0.00     0.009 A 
ATOM     10  C   UNL     1      11.488 -52.382 -23.135  1.00  0.00     0.055 A 
BRANCH   6  11
ATOM     11  O   UNL     1      12.443 -48.861 -23.137  1.00  0.00    -0.493 OA
ATOM     12  C   UNL     1      12.027 -47.876 -24.070  1.00  0.00     0.278 C 
ENDBRANCH   6  11
BRANCH   8  13
ATOM     13  O   UNL     1      10.883 -50.447 -21.756  1.00  0.00    -0.493 OA
ATOM     14  C   UNL     1       9.509 -50.151 -21.964  1.00  0.00     0.278 C 
ENDBRANCH   8  13
ENDBRANCH   3   5
ENDBRANCH   1   3
BRANCH   1  15
ATOM     15  S   UNL     1      10.572 -56.091 -23.094  1.00  0.00     0.304 S 
ATOM     16  O   UNL     1       9.218 -56.575 -23.215  1.00  0.00    -0.189 OA
ATOM     17  O   UNL     1      11.102 -55.660 -21.827  1.00  0.00    -0.189 OA
BRANCH  15  18
ATOM     18  N   UNL     1      11.519 -57.221 -23.794  1.00  0.00    -0.205 N 
ATOM     19  C   UNL     1      11.908 -58.435 -23.265  1.00  0.00     0.422 C 
ATOM     20  H   UNL     1      11.751 -57.028 -24.760  1.00  0.00     0.188 HD
ATOM     21  O   UNL     1      11.719 -58.791 -22.114  1.00  0.00    -0.223 OA
BRANCH  19  22
ATOM     22  O   UNL     1      12.564 -59.168 -24.196  1.00  0.00    -0.444 OA
BRANCH  22  23
ATOM     23  C   UNL     1      12.683 -60.551 -23.856  1.00  0.00     0.270 C 
BRANCH  23  24
ATOM     24  C   UNL     1      11.391 -61.229 -24.232  1.00  0.00    -0.011 A 
ATOM     25  C   UNL     1      10.781 -62.131 -23.351  1.00  0.00     0.007 A 
ATOM     26  C   UNL     1      10.762 -60.936 -25.451  1.00  0.00     0.007 A 
ATOM     27  C   UNL     1       9.573 -62.745 -23.690  1.00  0.00     0.000 A 
ATOM     28  C   UNL     1       9.556 -61.551 -25.788  1.00  0.00     0.000 A 
ATOM     29  C   UNL     1       8.963 -62.456 -24.908  1.00  0.00     0.000 A 
ENDBRANCH  23  24
ENDBRANCH  22  23
ENDBRANCH  19  22
ENDBRANCH  15  18
ENDBRANCH   1  15
TORSDOF 9
ENDMDL
MODEL 7
REMARK VINA RESULT:    -9.193      2.800      8.744
REMARK INTER + INTRA:         -15.244
REMARK INTER:                 -14.543
REMARK INTRA:                  -0.701
REMARK UNBOUND:                -1.214
REMARK SMILES COc1ccc([C@H](C)NS(=O)(=O)NC(=O)OCc2ccccc2)cc1OC
REMARK SMILES IDX 9 1 7 3 8 4 6 5 3 6 4 7 25 8 5 9 24 10 2 11 1 12 26 13 27 14
REMARK SMILES IDX 10 15 11 16 12 17 13 18 14 19 15 21 16 22 17 23 18 24 19 25
REMARK SMILES IDX 23 26 20 27 22 28 21 29
REMARK H PARENT 9 2 13 20
ROOT
ATOM      1  N   UNL     1      10.701 -54.732 -24.131  1.00  0.00    -0.190 NA
ATOM      2  H   UNL     1      10.043 -53.999 -23.860  1.00  0.00     0.143 HD
ENDROOT
BRANCH   1   3
ATOM      3  C   UNL     1      12.055 -54.186 -24.385  1.00  0.00     0.098 C 
ATOM      4  C   UNL     1      12.409 -54.478 -25.846  1.00  0.00     0.031 C 
BRANCH   3   5
ATOM      5  C   UNL     1      12.105 -52.711 -24.019  1.00  0.00    -0.026 A 
ATOM      6  C   UNL     1      12.325 -49.968 -23.374  1.00  0.00     0.160 A 
ATOM      7  C   UNL     1      11.551 -50.825 -22.587  1.00  0.00     0.051 A 
ATOM      8  C   UNL     1      13.015 -50.487 -24.486  1.00  0.00     0.161 A 
ATOM      9  C   UNL     1      11.449 -52.184 -22.901  1.00  0.00     0.009 A 
ATOM     10  C   UNL     1      12.899 -51.848 -24.798  1.00  0.00     0.055 A 
BRANCH   6  11
ATOM     11  O   UNL     1      12.482 -48.625 -23.138  1.00  0.00    -0.493 OA
ATOM     12  C   UNL     1      13.223 -48.240 -21.990  1.00  0.00     0.278 C 
ENDBRANCH   6  11
BRANCH   8  13
ATOM     13  O   UNL     1      13.767 -49.592 -25.206  1.00  0.00    -0.493 OA
ATOM     14  C   UNL     1      14.224 -49.998 -26.488  1.00  0.00     0.278 C 
ENDBRANCH   8  13
ENDBRANCH   3   5
ENDBRANCH   1   3
BRANCH   1  15
ATOM     15  S   UNL     1      10.568 -55.987 -23.040  1.00  0.00     0.304 S 
ATOM     16  O   UNL     1       9.210 -56.462 -23.167  1.00  0.00    -0.189 OA
ATOM     17  O   UNL     1      11.099 -55.569 -21.769  1.00  0.00    -0.189 OA
BRANCH  15  18
ATOM     18  N   UNL     1      11.509 -57.117 -23.749  1.00  0.00    -0.205 N 
ATOM     19  C   UNL     1      11.832 -58.366 -23.260  1.00  0.00     0.422 C 
ATOM     20  H   UNL     1      11.792 -56.889 -24.693  1.00  0.00     0.188 HD
ATOM     21  O   UNL     1      11.578 -58.767 -22.137  1.00  0.00    -0.223 OA
BRANCH  19  22
ATOM     22  O   UNL     1      12.506 -59.079 -24.193  1.00  0.00    -0.444 OA
BRANCH  22  23
ATOM     23  C   UNL     1      12.684 -60.454 -23.846  1.00  0.00     0.270 C 
BRANCH  23  24
ATOM     24  C   UNL     1      11.416 -61.184 -24.202  1.00  0.00    -0.011 A 
ATOM     25  C   UNL     1      10.838 -62.085 -23.298  1.00  0.00     0.007 A 
ATOM     26  C   UNL     1      10.775 -60.943 -25.426  1.00  0.00     0.007 A 
ATOM     27  C   UNL     1       9.651 -62.748 -23.619  1.00  0.00     0.000 A 
ATOM     28  C   UNL     1       9.590 -61.607 -25.745  1.00  0.00     0.000 A 
ATOM     29  C   UNL     1       9.029 -62.510 -24.843  1.00  0.00     0.000 A 
ENDBRANCH  23  24
ENDBRANCH  22  23
ENDBRANCH  19  22
ENDBRANCH  15  18
ENDBRANCH   1  15
TORSDOF 9
ENDMDL
MODEL 8
REMARK VINA RESULT:    -9.118      3.445      8.388
REMARK INTER + INTRA:         -15.128
REMARK INTER:                 -14.062
REMARK INTRA:                  -1.066
REMARK UNBOUND:                -1.214
REMARK SMILES COc1ccc([C@H](C)NS(=O)(=O)NC(=O)OCc2ccccc2)cc1OC
REMARK SMILES IDX 9 1 7 3 8 4 6 5 3 6 4 7 25 8 5 9 24 10 2 11 1 12 26 13 27 14
REMARK SMILES IDX 10 15 11 16 12 17 13 18 14 19 15 21 16 22 17 23 18 24 19 25
REMARK SMILES IDX 23 26 20 27 22 28 21 29
REMARK H PARENT 9 2 13 20
ROOT
ATOM      1  N   UNL     1      11.697 -53.012 -22.458  1.00  0.00    -0.190 NA
ATOM      2  H   UNL     1      11.999 -53.597 -23.239  1.00  0.00     0.143 HD
ENDROOT
BRANCH   1   3
ATOM      3  C   UNL     1      11.471 -51.610 -22.878  1.00  0.00     0.098 C 
ATOM      4  C   UNL     1      11.513 -50.734 -21.622  1.00  0.00     0.031 C 
BRANCH   3   5
ATOM      5  C   UNL     1      12.478 -51.211 -23.944  1.00  0.00    -0.026 A 
ATOM      6  C   UNL     1      14.434 -50.557 -25.876  1.00  0.00     0.160 A 
ATOM      7  C   UNL     1      13.629 -49.563 -25.313  1.00  0.00     0.051 A 
ATOM      8  C   UNL     1      14.277 -51.892 -25.458  1.00  0.00     0.161 A 
ATOM      9  C   UNL     1      12.667 -49.886 -24.351  1.00  0.00     0.009 A 
ATOM     10  C   UNL     1      13.305 -52.205 -24.500  1.00  0.00     0.055 A 
BRANCH   6  11
ATOM     11  O   UNL     1      15.403 -50.330 -26.822  1.00  0.00    -0.493 OA
ATOM     12  C   UNL     1      15.124 -49.374 -27.834  1.00  0.00     0.278 C 
ENDBRANCH   6  11
BRANCH   8  13
ATOM     13  O   UNL     1      15.111 -52.813 -26.043  1.00  0.00    -0.493 OA
ATOM     14  C   UNL     1      16.270 -53.202 -25.319  1.00  0.00     0.278 C 
ENDBRANCH   8  13
ENDBRANCH   3   5
ENDBRANCH   1   3
BRANCH   1  15
ATOM     15  S   UNL     1      10.450 -53.792 -21.670  1.00  0.00     0.304 S 
ATOM     16  O   UNL     1       9.239 -53.263 -22.250  1.00  0.00    -0.189 OA
ATOM     17  O   UNL     1      10.682 -53.744 -20.250  1.00  0.00    -0.189 OA
BRANCH  15  18
ATOM     18  N   UNL     1      10.607 -55.306 -22.259  1.00  0.00    -0.205 N 
ATOM     19  C   UNL     1      11.027 -55.677 -23.520  1.00  0.00     0.422 C 
ATOM     20  H   UNL     1      10.471 -56.036 -21.570  1.00  0.00     0.188 HD
ATOM     21  O   UNL     1      11.208 -54.911 -24.451  1.00  0.00    -0.223 OA
BRANCH  19  22
ATOM     22  O   UNL     1      11.178 -57.021 -23.592  1.00  0.00    -0.444 OA
BRANCH  22  23
ATOM     23  C   UNL     1      11.415 -57.639 -22.326  1.00  0.00     0.270 C 
BRANCH  23  24
ATOM     24  C   UNL     1      11.128 -59.111 -22.474  1.00  0.00    -0.011 A 
ATOM     25  C   UNL     1      10.240 -59.752 -21.600  1.00  0.00     0.007 A 
ATOM     26  C   UNL     1      11.713 -59.850 -23.513  1.00  0.00     0.007 A 
ATOM     27  C   UNL     1       9.958 -61.111 -21.749  1.00  0.00     0.000 A 
ATOM     28  C   UNL     1      11.430 -61.208 -23.659  1.00  0.00     0.000 A 
ATOM     29  C   UNL     1      10.554 -61.838 -22.776  1.00  0.00     0.000 A 
ENDBRANCH  23  24
ENDBRANCH  22  23
ENDBRANCH  19  22
ENDBRANCH  15  18
ENDBRANCH   1  15
TORSDOF 9
ENDMDL
MODEL 9
REMARK VINA RESULT:    -9.103      2.619      7.502
REMARK INTER + INTRA:         -15.106
REMARK INTER:                 -14.043
REMARK INTRA:                  -1.063
REMARK UNBOUND:                -1.214
REMARK SMILES COc1ccc([C@H](C)NS(=O)(=O)NC(=O)OCc2ccccc2)cc1OC
REMARK SMILES IDX 9 1 7 3 8 4 6 5 3 6 4 7 25 8 5 9 24 10 2 11 1 12 26 13 27 14
REMARK SMILES IDX 10 15 11 16 12 17 13 18 14 19 15 21 16 22 17 23 18 24 19 25
REMARK SMILES IDX 23 26 20 27 22 28 21 29
REMARK H PARENT 9 2 13 20
ROOT
ATOM      1  N   UNL     1      12.235 -58.292 -23.649  1.00  0.00    -0.190 NA
ATOM      2  H   UNL     1      12.855 -57.532 -23.933  1.00  0.00     0.143 HD
ENDROOT
BRANCH   1   3
ATOM      3  C   UNL     1      11.190 -57.824 -22.710  1.00  0.00     0.098 C 
ATOM      4  C   UNL     1      11.454 -58.482 -21.352  1.00  0.00     0.031 C 
BRANCH   3   5
ATOM      5  C   UNL     1      11.164 -56.304 -22.666  1.00  0.00    -0.026 A 
ATOM      6  C   UNL     1      11.228 -53.479 -22.652  1.00  0.00     0.160 A 
ATOM      7  C   UNL     1      10.787 -54.187 -21.530  1.00  0.00     0.051 A 
ATOM      8  C   UNL     1      11.660 -54.187 -23.789  1.00  0.00     0.161 A 
ATOM      9  C   UNL     1      10.763 -55.585 -21.534  1.00  0.00     0.009 A 
ATOM     10  C   UNL     1      11.625 -55.587 -23.786  1.00  0.00     0.055 A 
BRANCH   6  11
ATOM     11  O   UNL     1      11.286 -52.110 -22.734  1.00  0.00    -0.493 OA
ATOM     12  C   UNL     1      10.246 -51.367 -22.115  1.00  0.00     0.278 C 
ENDBRANCH   6  11
BRANCH   8  13
ATOM     13  O   UNL     1      12.093 -53.427 -24.848  1.00  0.00    -0.493 OA
ATOM     14  C   UNL     1      12.940 -54.053 -25.802  1.00  0.00     0.278 C 
ENDBRANCH   8  13
ENDBRANCH   3   5
ENDBRANCH   1   3
BRANCH   1  15
ATOM     15  S   UNL     1      11.734 -59.102 -25.019  1.00  0.00     0.304 S 
ATOM     16  O   UNL     1      12.223 -60.452 -24.867  1.00  0.00    -0.189 OA
ATOM     17  O   UNL     1      12.058 -58.315 -26.180  1.00  0.00    -0.189 OA
BRANCH  15  18
ATOM     18  N   UNL     1      10.123 -59.175 -24.767  1.00  0.00    -0.205 N 
ATOM     19  C   UNL     1       9.156 -59.624 -25.643  1.00  0.00     0.422 C 
ATOM     20  H   UNL     1       9.840 -58.952 -23.821  1.00  0.00     0.188 HD
ATOM     21  O   UNL     1       9.347 -59.904 -26.814  1.00  0.00    -0.223 OA
BRANCH  19  22
ATOM     22  O   UNL     1       7.950 -59.679 -25.028  1.00  0.00    -0.444 OA
BRANCH  22  23
ATOM     23  C   UNL     1       8.037 -59.808 -23.608  1.00  0.00     0.270 C 
BRANCH  23  24
ATOM     24  C   UNL     1       8.244 -61.267 -23.293  1.00  0.00    -0.011 A 
ATOM     25  C   UNL     1       9.385 -61.687 -22.597  1.00  0.00     0.007 A 
ATOM     26  C   UNL     1       7.279 -62.218 -23.656  1.00  0.00     0.007 A 
ATOM     27  C   UNL     1       9.569 -63.036 -22.287  1.00  0.00     0.000 A 
ATOM     28  C   UNL     1       7.465 -63.566 -23.346  1.00  0.00     0.000 A 
ATOM     29  C   UNL     1       8.610 -63.974 -22.663  1.00  0.00     0.000 A 
ENDBRANCH  23  24
ENDBRANCH  22  23
ENDBRANCH  19  22
ENDBRANCH  15  18
ENDBRANCH   1  15
TORSDOF 9
ENDMDL
