MODEL 1
REMARK VINA RESULT:   -11.254      0.000      0.000
REMARK INTER + INTRA:         -15.719
REMARK INTER:                 -15.201
REMARK INTRA:                  -0.518
REMARK UNBOUND:                -0.518
REMARK SMILES COc1cc2c(cc1OC)C(=O)[C@H](C[C@H]1CC[N@@H+](Cc3ccccc3)CC1)C2
REMARK SMILES IDX 14 1 15 2 17 3 18 4 16 5 26 6 27 7 19 9 20 10 21 11 25 12
REMARK SMILES IDX 22 13 24 14 23 15 13 16 11 17 28 18 6 19 5 20 7 21 4 22 8 23
REMARK SMILES IDX 3 24 12 25 9 26 10 27 2 28 1 29
REMARK H PARENT 18 8
ROOT
ATOM      1  C   UNL     1      11.565 -56.622 -23.118  1.00  0.00     0.016 C 
ENDROOT
BRANCH   1   2
ATOM      2  C   UNL     1      10.511 -57.408 -22.295  1.00  0.00     0.001 C 
ATOM      3  C   UNL     1      11.518 -59.753 -22.292  1.00  0.00     0.262 C 
ATOM      4  N   UNL     1      10.352 -60.236 -23.131  1.00  0.00    -0.331 N 
ATOM      5  C   UNL     1      11.064 -58.565 -21.452  1.00  0.00     0.065 C 
ATOM      6  C   UNL     1       9.819 -59.155 -24.033  1.00  0.00     0.262 C 
ATOM      7  C   UNL     1       9.393 -57.948 -23.205  1.00  0.00     0.065 C 
ATOM      8  H   UNL     1       9.607 -60.507 -22.478  1.00  0.00     0.348 HD
BRANCH   4   9
ATOM      9  C   UNL     1      10.694 -61.490 -23.912  1.00  0.00     0.299 C 
BRANCH   9  10
ATOM     10  C   UNL     1       9.486 -62.319 -24.253  1.00  0.00     0.006 A 
ATOM     11  C   UNL     1       8.871 -63.119 -23.279  1.00  0.00     0.009 A 
ATOM     12  C   UNL     1       8.943 -62.284 -25.548  1.00  0.00     0.009 A 
ATOM     13  C   UNL     1       7.735 -63.866 -23.593  1.00  0.00     0.001 A 
ATOM     14  C   UNL     1       7.807 -63.034 -25.856  1.00  0.00     0.001 A 
ATOM     15  C   UNL     1       7.203 -63.821 -24.880  1.00  0.00     0.000 A 
ENDBRANCH   9  10
ENDBRANCH   4   9
ENDBRANCH   1   2
BRANCH   1  16
ATOM     16  C   UNL     1      11.077 -55.260 -23.640  1.00  0.00     0.066 C 
ATOM     17  C   UNL     1      11.040 -54.204 -22.544  1.00  0.00     0.166 C 
ATOM     18  C   UNL     1      12.027 -54.642 -24.697  1.00  0.00     0.048 C 
ATOM     19  C   UNL     1      11.605 -52.961 -23.046  1.00  0.00     0.025 A 
ATOM     20  C   UNL     1      12.143 -53.204 -24.299  1.00  0.00    -0.033 A 
ATOM     21  C   UNL     1      11.645 -51.722 -22.443  1.00  0.00     0.062 A 
ATOM     22  C   UNL     1      12.762 -52.175 -24.996  1.00  0.00     0.055 A 
ATOM     23  C   UNL     1      12.241 -50.670 -23.146  1.00  0.00     0.161 A 
ATOM     24  C   UNL     1      12.824 -50.893 -24.421  1.00  0.00     0.161 A 
ATOM     25  O   UNL     1      10.605 -54.351 -21.414  1.00  0.00    -0.294 OA
BRANCH  23  26
ATOM     26  O   UNL     1      12.237 -49.489 -22.448  1.00  0.00    -0.493 OA
ATOM     27  C   UNL     1      11.164 -48.594 -22.732  1.00  0.00     0.278 C 
ENDBRANCH  23  26
BRANCH  24  28
ATOM     28  O   UNL     1      13.457 -49.832 -25.013  1.00  0.00    -0.493 OA
ATOM     29  C   UNL     1      14.034 -50.021 -26.298  1.00  0.00     0.278 C 
ENDBRANCH  24  28
ENDBRANCH   1  16
TORSDOF 6
ENDMDL
MODEL 2
REMARK VINA RESULT:   -10.875      1.259      2.542
REMARK INTER + INTRA:         -15.207
REMARK INTER:                 -14.723
REMARK INTRA:                  -0.484
REMARK UNBOUND:                -0.518
REMARK SMILES COc1cc2c(cc1OC)C(=O)[C@H](C[C@H]1CC[N@@H+](Cc3ccccc3)CC1)C2
REMARK SMILES IDX 14 1 15 2 17 3 18 4 16 5 26 6 27 7 19 9 20 10 21 11 25 12
REMARK SMILES IDX 22 13 24 14 23 15 13 16 11 17 28 18 6 19 5 20 7 21 4 22 8 23
REMARK SMILES IDX 3 24 12 25 9 26 10 27 2 28 1 29
REMARK H PARENT 18 8
ROOT
ATOM      1  C   UNL     1       9.902 -56.375 -23.165  1.00  0.00     0.016 C 
ENDROOT
BRANCH   1   2
ATOM      2  C   UNL     1       9.970 -57.731 -22.416  1.00  0.00     0.001 C 
ATOM      3  C   UNL     1      11.623 -59.028 -23.866  1.00  0.00     0.262 C 
ATOM      4  N   UNL     1      10.509 -59.977 -24.258  1.00  0.00    -0.331 N 
ATOM      5  C   UNL     1      11.322 -58.454 -22.486  1.00  0.00     0.065 C 
ATOM      6  C   UNL     1       9.167 -59.294 -24.278  1.00  0.00     0.262 C 
ATOM      7  C   UNL     1       8.871 -58.688 -22.910  1.00  0.00     0.065 C 
ATOM      8  H   UNL     1      10.483 -60.717 -23.547  1.00  0.00     0.348 HD
BRANCH   4   9
ATOM      9  C   UNL     1      10.793 -60.675 -25.574  1.00  0.00     0.299 C 
BRANCH   9  10
ATOM     10  C   UNL     1       9.700 -61.623 -25.984  1.00  0.00     0.006 A 
ATOM     11  C   UNL     1       9.418 -61.844 -27.341  1.00  0.00     0.009 A 
ATOM     12  C   UNL     1       8.961 -62.320 -25.014  1.00  0.00     0.009 A 
ATOM     13  C   UNL     1       8.421 -62.745 -27.718  1.00  0.00     0.001 A 
ATOM     14  C   UNL     1       7.965 -63.218 -25.396  1.00  0.00     0.001 A 
ATOM     15  C   UNL     1       7.697 -63.432 -26.745  1.00  0.00     0.000 A 
ENDBRANCH   9  10
ENDBRANCH   4   9
ENDBRANCH   1   2
BRANCH   1  16
ATOM     16  C   UNL     1      11.019 -55.385 -22.791  1.00  0.00     0.066 C 
ATOM     17  C   UNL     1      11.687 -54.782 -24.019  1.00  0.00     0.166 C 
ATOM     18  C   UNL     1      10.495 -54.144 -22.025  1.00  0.00     0.048 C 
ATOM     19  C   UNL     1      11.858 -53.350 -23.826  1.00  0.00     0.025 A 
ATOM     20  C   UNL     1      11.201 -52.988 -22.661  1.00  0.00    -0.033 A 
ATOM     21  C   UNL     1      12.531 -52.444 -24.617  1.00  0.00     0.062 A 
ATOM     22  C   UNL     1      11.199 -51.661 -22.254  1.00  0.00     0.055 A 
ATOM     23  C   UNL     1      12.561 -51.108 -24.203  1.00  0.00     0.161 A 
ATOM     24  C   UNL     1      11.877 -50.701 -23.028  1.00  0.00     0.161 A 
ATOM     25  O   UNL     1      12.038 -55.385 -25.019  1.00  0.00    -0.294 OA
BRANCH  23  26
ATOM     26  O   UNL     1      13.246 -50.294 -25.069  1.00  0.00    -0.493 OA
ATOM     27  C   UNL     1      13.923 -50.944 -26.142  1.00  0.00     0.278 C 
ENDBRANCH  23  26
BRANCH  24  28
ATOM     28  O   UNL     1      11.886 -49.364 -22.730  1.00  0.00    -0.493 OA
ATOM     29  C   UNL     1      10.644 -48.676 -22.669  1.00  0.00     0.278 C 
ENDBRANCH  24  28
ENDBRANCH   1  16
TORSDOF 6
ENDMDL
MODEL 3
REMARK VINA RESULT:   -10.315      1.534      2.335
REMARK INTER + INTRA:         -14.451
REMARK INTER:                 -13.971
REMARK INTRA:                  -0.480
REMARK UNBOUND:                -0.518
REMARK SMILES COc1cc2c(cc1OC)C(=O)[C@H](C[C@H]1CC[N@@H+](Cc3ccccc3)CC1)C2
REMARK SMILES IDX 14 1 15 2 17 3 18 4 16 5 26 6 27 7 19 9 20 10 21 11 25 12
REMARK SMILES IDX 22 13 24 14 23 15 13 16 11 17 28 18 6 19 5 20 7 21 4 22 8 23
REMARK SMILES IDX 3 24 12 25 9 26 10 27 2 28 1 29
REMARK H PARENT 18 8
ROOT
ATOM      1  C   UNL     1      11.409 -56.815 -22.674  1.00  0.00     0.016 C 
ENDROOT
BRANCH   1   2
ATOM      2  C   UNL     1      10.284 -57.690 -22.061  1.00  0.00     0.001 C 
ATOM      3  C   UNL     1      11.202 -60.040 -22.446  1.00  0.00     0.262 C 
ATOM      4  N   UNL     1      10.066 -60.307 -23.413  1.00  0.00    -0.331 N 
ATOM      5  C   UNL     1      10.748 -59.006 -21.422  1.00  0.00     0.065 C 
ATOM      6  C   UNL     1       9.623 -59.055 -24.123  1.00  0.00     0.262 C 
ATOM      7  C   UNL     1       9.198 -58.002 -23.105  1.00  0.00     0.065 C 
ATOM      8  H   UNL     1       9.278 -60.658 -22.857  1.00  0.00     0.348 HD
BRANCH   4   9
ATOM      9  C   UNL     1      10.405 -61.410 -24.396  1.00  0.00     0.299 C 
BRANCH   9  10
ATOM     10  C   UNL     1      10.785 -60.890 -25.756  1.00  0.00     0.006 A 
ATOM     11  C   UNL     1      11.950 -60.127 -25.928  1.00  0.00     0.009 A 
ATOM     12  C   UNL     1       9.991 -61.182 -26.876  1.00  0.00     0.009 A 
ATOM     13  C   UNL     1      12.313 -59.669 -27.195  1.00  0.00     0.001 A 
ATOM     14  C   UNL     1      10.358 -60.721 -28.141  1.00  0.00     0.001 A 
ATOM     15  C   UNL     1      11.518 -59.968 -28.300  1.00  0.00     0.000 A 
ENDBRANCH   9  10
ENDBRANCH   4   9
ENDBRANCH   1   2
BRANCH   1  16
ATOM     16  C   UNL     1      10.924 -55.486 -23.277  1.00  0.00     0.066 C 
ATOM     17  C   UNL     1      10.937 -54.355 -22.259  1.00  0.00     0.166 C 
ATOM     18  C   UNL     1      11.849 -54.961 -24.404  1.00  0.00     0.048 C 
ATOM     19  C   UNL     1      11.503 -53.160 -22.866  1.00  0.00     0.025 A 
ATOM     20  C   UNL     1      11.997 -53.501 -24.114  1.00  0.00    -0.033 A 
ATOM     21  C   UNL     1      11.580 -51.882 -22.354  1.00  0.00     0.062 A 
ATOM     22  C   UNL     1      12.608 -52.534 -24.902  1.00  0.00     0.055 A 
ATOM     23  C   UNL     1      12.168 -50.893 -23.149  1.00  0.00     0.161 A 
ATOM     24  C   UNL     1      12.706 -51.215 -24.422  1.00  0.00     0.161 A 
ATOM     25  O   UNL     1      10.535 -54.414 -21.108  1.00  0.00    -0.294 OA
BRANCH  23  26
ATOM     26  O   UNL     1      12.202 -49.665 -22.538  1.00  0.00    -0.493 OA
ATOM     27  C   UNL     1      11.057 -48.837 -22.723  1.00  0.00     0.278 C 
ENDBRANCH  23  26
BRANCH  24  28
ATOM     28  O   UNL     1      13.335 -50.210 -25.108  1.00  0.00    -0.493 OA
ATOM     29  C   UNL     1      13.973 -50.527 -26.338  1.00  0.00     0.278 C 
ENDBRANCH  24  28
ENDBRANCH   1  16
TORSDOF 6
ENDMDL
MODEL 4
REMARK VINA RESULT:   -10.227      1.890      3.703
REMARK INTER + INTRA:         -14.331
REMARK INTER:                 -14.811
REMARK INTRA:                   0.480
REMARK UNBOUND:                -0.518
REMARK SMILES COc1cc2c(cc1OC)C(=O)[C@H](C[C@H]1CC[N@@H+](Cc3ccccc3)CC1)C2
REMARK SMILES IDX 14 1 15 2 17 3 18 4 16 5 26 6 27 7 19 9 20 10 21 11 25 12
REMARK SMILES IDX 22 13 24 14 23 15 13 16 11 17 28 18 6 19 5 20 7 21 4 22 8 23
REMARK SMILES IDX 3 24 12 25 9 26 10 27 2 28 1 29
REMARK H PARENT 18 8
ROOT
ATOM      1  C   UNL     1      10.895 -59.554 -23.187  1.00  0.00     0.016 C 
ENDROOT
BRANCH   1   2
ATOM      2  C   UNL     1       9.802 -60.024 -22.192  1.00  0.00     0.001 C 
ATOM      3  C   UNL     1       9.484 -62.455 -22.899  1.00  0.00     0.262 C 
ATOM      4  N   UNL     1       8.080 -62.120 -23.360  1.00  0.00    -0.331 N 
ATOM      5  C   UNL     1       9.878 -61.500 -21.780  1.00  0.00     0.065 C 
ATOM      6  C   UNL     1       7.970 -60.699 -23.848  1.00  0.00     0.262 C 
ATOM      7  C   UNL     1       8.395 -59.736 -22.745  1.00  0.00     0.065 C 
ATOM      8  H   UNL     1       7.464 -62.229 -22.546  1.00  0.00     0.348 HD
BRANCH   4   9
ATOM      9  C   UNL     1       7.573 -63.101 -24.399  1.00  0.00     0.299 C 
BRANCH   9  10
ATOM     10  C   UNL     1       8.115 -62.832 -25.777  1.00  0.00     0.006 A 
ATOM     11  C   UNL     1       7.614 -63.524 -26.889  1.00  0.00     0.009 A 
ATOM     12  C   UNL     1       9.115 -61.865 -25.970  1.00  0.00     0.009 A 
ATOM     13  C   UNL     1       8.101 -63.252 -28.168  1.00  0.00     0.001 A 
ATOM     14  C   UNL     1       9.599 -61.598 -27.251  1.00  0.00     0.001 A 
ATOM     15  C   UNL     1       9.091 -62.289 -28.348  1.00  0.00     0.000 A 
ENDBRANCH   9  10
ENDBRANCH   4   9
ENDBRANCH   1   2
BRANCH   1  16
ATOM     16  C   UNL     1      11.659 -58.295 -22.745  1.00  0.00     0.066 C 
ATOM     17  C   UNL     1      11.829 -57.297 -23.882  1.00  0.00     0.166 C 
ATOM     18  C   UNL     1      10.905 -57.478 -21.664  1.00  0.00     0.048 C 
ATOM     19  C   UNL     1      11.537 -55.956 -23.400  1.00  0.00     0.025 A 
ATOM     20  C   UNL     1      11.038 -56.057 -22.112  1.00  0.00    -0.033 A 
ATOM     21  C   UNL     1      11.694 -54.750 -24.049  1.00  0.00     0.062 A 
ATOM     22  C   UNL     1      10.665 -54.910 -21.425  1.00  0.00     0.055 A 
ATOM     23  C   UNL     1      11.349 -53.584 -23.357  1.00  0.00     0.161 A 
ATOM     24  C   UNL     1      10.811 -53.655 -22.045  1.00  0.00     0.161 A 
ATOM     25  O   UNL     1      12.162 -57.557 -25.027  1.00  0.00    -0.294 OA
BRANCH  23  26
ATOM     26  O   UNL     1      11.533 -52.445 -24.100  1.00  0.00    -0.493 OA
ATOM     27  C   UNL     1      12.844 -52.238 -24.621  1.00  0.00     0.278 C 
ENDBRANCH  23  26
BRANCH  24  28
ATOM     28  O   UNL     1      10.423 -52.478 -21.463  1.00  0.00    -0.493 OA
ATOM     29  C   UNL     1      11.407 -51.475 -21.245  1.00  0.00     0.278 C 
ENDBRANCH  24  28
ENDBRANCH   1  16
TORSDOF 6
ENDMDL
MODEL 5
REMARK VINA RESULT:   -10.204      3.303     10.405
REMARK INTER + INTRA:         -14.301
REMARK INTER:                 -13.714
REMARK INTRA:                  -0.586
REMARK UNBOUND:                -0.518
REMARK SMILES COc1cc2c(cc1OC)C(=O)[C@H](C[C@H]1CC[N@@H+](Cc3ccccc3)CC1)C2
REMARK SMILES IDX 14 1 15 2 17 3 18 4 16 5 26 6 27 7 19 9 20 10 21 11 25 12
REMARK SMILES IDX 22 13 24 14 23 15 13 16 11 17 28 18 6 19 5 20 7 21 4 22 8 23
REMARK SMILES IDX 3 24 12 25 9 26 10 27 2 28 1 29
REMARK H PARENT 18 8
ROOT
ATOM      1  C   UNL     1      11.046 -55.622 -21.904  1.00  0.00     0.016 C 
ENDROOT
BRANCH   1   2
ATOM      2  C   UNL     1      10.261 -54.638 -22.810  1.00  0.00     0.001 C 
ATOM      3  C   UNL     1      12.118 -53.065 -23.578  1.00  0.00     0.262 C 
ATOM      4  N   UNL     1      11.462 -51.940 -22.803  1.00  0.00    -0.331 N 
ATOM      5  C   UNL     1      11.047 -54.066 -23.997  1.00  0.00     0.065 C 
ATOM      6  C   UNL     1      10.738 -52.443 -21.582  1.00  0.00     0.262 C 
ATOM      7  C   UNL     1       9.687 -53.471 -21.988  1.00  0.00     0.065 C 
ATOM      8  H   UNL     1      10.774 -51.507 -23.429  1.00  0.00     0.348 HD
BRANCH   4   9
ATOM      9  C   UNL     1      12.449 -50.845 -22.447  1.00  0.00     0.299 C 
BRANCH   9  10
ATOM     10  C   UNL     1      12.174 -49.551 -23.164  1.00  0.00     0.006 A 
ATOM     11  C   UNL     1      11.146 -48.699 -22.733  1.00  0.00     0.009 A 
ATOM     12  C   UNL     1      12.961 -49.167 -24.263  1.00  0.00     0.009 A 
ATOM     13  C   UNL     1      10.913 -47.488 -23.385  1.00  0.00     0.001 A 
ATOM     14  C   UNL     1      12.722 -47.954 -24.911  1.00  0.00     0.001 A 
ATOM     15  C   UNL     1      11.701 -47.116 -24.472  1.00  0.00     0.000 A 
ENDBRANCH   9  10
ENDBRANCH   4   9
ENDBRANCH   1   2
BRANCH   1  16
ATOM     16  C   UNL     1      11.306 -57.000 -22.536  1.00  0.00     0.066 C 
ATOM     17  C   UNL     1      11.143 -58.132 -21.533  1.00  0.00     0.166 C 
ATOM     18  C   UNL     1      10.285 -57.358 -23.647  1.00  0.00     0.048 C 
ATOM     19  C   UNL     1      10.385 -59.216 -22.140  1.00  0.00     0.025 A 
ATOM     20  C   UNL     1       9.921 -58.783 -23.371  1.00  0.00    -0.033 A 
ATOM     21  C   UNL     1      10.125 -60.475 -21.643  1.00  0.00     0.062 A 
ATOM     22  C   UNL     1       9.150 -59.631 -24.155  1.00  0.00     0.055 A 
ATOM     23  C   UNL     1       9.373 -61.350 -22.435  1.00  0.00     0.161 A 
ATOM     24  C   UNL     1       8.861 -60.927 -23.690  1.00  0.00     0.161 A 
ATOM     25  O   UNL     1      11.576 -58.154 -20.393  1.00  0.00    -0.294 OA
BRANCH  23  26
ATOM     26  O   UNL     1       9.165 -62.568 -21.839  1.00  0.00    -0.493 OA
ATOM     27  C   UNL     1       9.883 -63.669 -22.388  1.00  0.00     0.278 C 
ENDBRANCH  23  26
BRANCH  24  28
ATOM     28  O   UNL     1       8.069 -61.812 -24.372  1.00  0.00    -0.493 OA
ATOM     29  C   UNL     1       8.513 -62.280 -25.639  1.00  0.00     0.278 C 
ENDBRANCH  24  28
ENDBRANCH   1  16
TORSDOF 6
ENDMDL
MODEL 6
REMARK VINA RESULT:    -9.744      2.465      4.297
REMARK INTER + INTRA:         -13.680
REMARK INTER:                 -12.976
REMARK INTRA:                  -0.704
REMARK UNBOUND:                -0.518
REMARK SMILES COc1cc2c(cc1OC)C(=O)[C@H](C[C@H]1CC[N@@H+](Cc3ccccc3)CC1)C2
REMARK SMILES IDX 14 1 15 2 17 3 18 4 16 5 26 6 27 7 19 9 20 10 21 11 25 12
REMARK SMILES IDX 22 13 24 14 23 15 13 16 11 17 28 18 6 19 5 20 7 21 4 22 8 23
REMARK SMILES IDX 3 24 12 25 9 26 10 27 2 28 1 29
REMARK H PARENT 18 8
ROOT
ATOM      1  C   UNL     1      11.720 -52.235 -22.071  1.00  0.00     0.016 C 
ENDROOT
BRANCH   1   2
ATOM      2  C   UNL     1      10.436 -53.006 -21.669  1.00  0.00     0.001 C 
ATOM      3  C   UNL     1      11.366 -55.341 -21.226  1.00  0.00     0.262 C 
ATOM      4  N   UNL     1      10.588 -55.859 -22.419  1.00  0.00    -0.331 N 
ATOM      5  C   UNL     1      10.638 -54.133 -20.648  1.00  0.00     0.065 C 
ATOM      6  C   UNL     1      10.426 -54.809 -23.486  1.00  0.00     0.262 C 
ATOM      7  C   UNL     1       9.729 -53.582 -22.908  1.00  0.00     0.065 C 
ATOM      8  H   UNL     1       9.655 -56.117 -22.078  1.00  0.00     0.348 HD
BRANCH   4   9
ATOM      9  C   UNL     1      11.191 -57.131 -22.982  1.00  0.00     0.299 C 
BRANCH   9  10
ATOM     10  C   UNL     1      10.407 -58.363 -22.620  1.00  0.00     0.006 A 
ATOM     11  C   UNL     1       9.145 -58.599 -23.186  1.00  0.00     0.009 A 
ATOM     12  C   UNL     1      10.940 -59.309 -21.728  1.00  0.00     0.009 A 
ATOM     13  C   UNL     1       8.433 -59.756 -22.868  1.00  0.00     0.001 A 
ATOM     14  C   UNL     1      10.224 -60.464 -21.413  1.00  0.00     0.001 A 
ATOM     15  C   UNL     1       8.974 -60.688 -21.984  1.00  0.00     0.000 A 
ENDBRANCH   9  10
ENDBRANCH   4   9
ENDBRANCH   1   2
BRANCH   1  16
ATOM     16  C   UNL     1      11.660 -51.580 -23.461  1.00  0.00     0.066 C 
ATOM     17  C   UNL     1      12.042 -50.107 -23.419  1.00  0.00     0.166 C 
ATOM     18  C   UNL     1      12.680 -52.184 -24.459  1.00  0.00     0.048 C 
ATOM     19  C   UNL     1      12.939 -49.805 -24.524  1.00  0.00     0.025 A 
ATOM     20  C   UNL     1      13.279 -50.997 -25.144  1.00  0.00    -0.033 A 
ATOM     21  C   UNL     1      13.418 -48.582 -24.942  1.00  0.00     0.062 A 
ATOM     22  C   UNL     1      14.144 -50.987 -26.230  1.00  0.00     0.055 A 
ATOM     23  C   UNL     1      14.268 -48.556 -26.052  1.00  0.00     0.161 A 
ATOM     24  C   UNL     1      14.656 -49.761 -26.694  1.00  0.00     0.161 A 
ATOM     25  O   UNL     1      11.664 -49.286 -22.600  1.00  0.00    -0.294 OA
BRANCH  23  26
ATOM     26  O   UNL     1      14.693 -47.291 -26.372  1.00  0.00    -0.493 OA
ATOM     27  C   UNL     1      15.696 -46.731 -25.527  1.00  0.00     0.278 C 
ENDBRANCH  23  26
BRANCH  24  28
ATOM     28  O   UNL     1      15.552 -49.661 -27.724  1.00  0.00    -0.493 OA
ATOM     29  C   UNL     1      16.940 -49.705 -27.420  1.00  0.00     0.278 C 
ENDBRANCH  24  28
ENDBRANCH   1  16
TORSDOF 6
ENDMDL
MODEL 7
REMARK VINA RESULT:    -9.426      3.720     10.268
REMARK INTER + INTRA:         -13.249
REMARK INTER:                 -12.592
REMARK INTRA:                  -0.657
REMARK UNBOUND:                -0.518
REMARK SMILES COc1cc2c(cc1OC)C(=O)[C@H](C[C@H]1CC[N@@H+](Cc3ccccc3)CC1)C2
REMARK SMILES IDX 14 1 15 2 17 3 18 4 16 5 26 6 27 7 19 9 20 10 21 11 25 12
REMARK SMILES IDX 22 13 24 14 23 15 13 16 11 17 28 18 6 19 5 20 7 21 4 22 8 23
REMARK SMILES IDX 3 24 12 25 9 26 10 27 2 28 1 29
REMARK H PARENT 18 8
ROOT
ATOM      1  C   UNL     1       9.833 -57.209 -22.893  1.00  0.00     0.016 C 
ENDROOT
BRANCH   1   2
ATOM      2  C   UNL     1      11.121 -56.379 -22.649  1.00  0.00     0.001 C 
ATOM      3  C   UNL     1      10.222 -54.453 -21.236  1.00  0.00     0.262 C 
ATOM      4  N   UNL     1      10.534 -53.498 -22.370  1.00  0.00    -0.331 N 
ATOM      5  C   UNL     1      11.179 -55.637 -21.308  1.00  0.00     0.065 C 
ATOM      6  C   UNL     1      10.417 -54.162 -23.716  1.00  0.00     0.262 C 
ATOM      7  C   UNL     1      11.347 -55.368 -23.786  1.00  0.00     0.065 C 
ATOM      8  H   UNL     1      11.507 -53.195 -22.245  1.00  0.00     0.348 HD
BRANCH   4   9
ATOM      9  C   UNL     1       9.694 -52.238 -22.300  1.00  0.00     0.299 C 
BRANCH   9  10
ATOM     10  C   UNL     1      10.495 -50.984 -22.525  1.00  0.00     0.006 A 
ATOM     11  C   UNL     1      11.835 -51.056 -22.934  1.00  0.00     0.009 A 
ATOM     12  C   UNL     1       9.903 -49.722 -22.352  1.00  0.00     0.009 A 
ATOM     13  C   UNL     1      12.566 -49.890 -23.168  1.00  0.00     0.001 A 
ATOM     14  C   UNL     1      10.639 -48.560 -22.586  1.00  0.00     0.001 A 
ATOM     15  C   UNL     1      11.967 -48.644 -22.995  1.00  0.00     0.000 A 
ENDBRANCH   9  10
ENDBRANCH   4   9
ENDBRANCH   1   2
BRANCH   1  16
ATOM     16  C   UNL     1      10.078 -58.710 -23.122  1.00  0.00     0.066 C 
ATOM     17  C   UNL     1       8.780 -59.505 -23.160  1.00  0.00     0.166 C 
ATOM     18  C   UNL     1      10.721 -59.015 -24.500  1.00  0.00     0.048 C 
ATOM     19  C   UNL     1       8.818 -60.448 -24.266  1.00  0.00     0.025 A 
ATOM     20  C   UNL     1       9.953 -60.189 -25.018  1.00  0.00    -0.033 A 
ATOM     21  C   UNL     1       7.923 -61.447 -24.584  1.00  0.00     0.062 A 
ATOM     22  C   UNL     1      10.219 -60.948 -26.150  1.00  0.00     0.055 A 
ATOM     23  C   UNL     1       8.193 -62.237 -25.706  1.00  0.00     0.161 A 
ATOM     24  C   UNL     1       9.334 -61.981 -26.511  1.00  0.00     0.161 A 
ATOM     25  O   UNL     1       7.841 -59.390 -22.390  1.00  0.00    -0.294 OA
BRANCH  23  26
ATOM     26  O   UNL     1       7.233 -63.189 -25.935  1.00  0.00    -0.493 OA
ATOM     27  C   UNL     1       6.982 -64.101 -24.869  1.00  0.00     0.278 C 
ENDBRANCH  23  26
BRANCH  24  28
ATOM     28  O   UNL     1       9.490 -62.746 -27.636  1.00  0.00    -0.493 OA
ATOM     29  C   UNL     1       8.853 -62.324 -28.835  1.00  0.00     0.278 C 
ENDBRANCH  24  28
ENDBRANCH   1  16
TORSDOF 6
ENDMDL
MODEL 8
REMARK VINA RESULT:    -9.396      2.497      4.422
REMARK INTER + INTRA:         -13.210
REMARK INTER:                 -12.564
REMARK INTRA:                  -0.646
REMARK UNBOUND:                -0.518
REMARK SMILES COc1cc2c(cc1OC)C(=O)[C@H](C[C@H]1CC[N@@H+](Cc3ccccc3)CC1)C2
REMARK SMILES IDX 14 1 15 2 17 3 18 4 16 5 26 6 27 7 19 9 20 10 21 11 25 12
REMARK SMILES IDX 22 13 24 14 23 15 13 16 11 17 28 18 6 19 5 20 7 21 4 22 8 23
REMARK SMILES IDX 3 24 12 25 9 26 10 27 2 28 1 29
REMARK H PARENT 18 8
ROOT
ATOM      1  C   UNL     1      11.618 -52.203 -21.954  1.00  0.00     0.016 C 
ENDROOT
BRANCH   1   2
ATOM      2  C   UNL     1      10.350 -53.038 -21.636  1.00  0.00     0.001 C 
ATOM      3  C   UNL     1      11.348 -55.358 -21.269  1.00  0.00     0.262 C 
ATOM      4  N   UNL     1      10.632 -55.844 -22.513  1.00  0.00    -0.331 N 
ATOM      5  C   UNL     1      10.558 -54.205 -20.662  1.00  0.00     0.065 C 
ATOM      6  C   UNL     1      10.469 -54.750 -23.535  1.00  0.00     0.262 C 
ATOM      7  C   UNL     1       9.708 -53.577 -22.926  1.00  0.00     0.065 C 
ATOM      8  H   UNL     1       9.697 -56.150 -22.218  1.00  0.00     0.348 HD
BRANCH   4   9
ATOM      9  C   UNL     1      11.300 -57.066 -23.113  1.00  0.00     0.299 C 
BRANCH   9  10
ATOM     10  C   UNL     1      10.626 -58.354 -22.725  1.00  0.00     0.006 A 
ATOM     11  C   UNL     1       9.638 -58.919 -23.546  1.00  0.00     0.009 A 
ATOM     12  C   UNL     1      10.995 -59.022 -21.546  1.00  0.00     0.009 A 
ATOM     13  C   UNL     1       9.035 -60.127 -23.196  1.00  0.00     0.001 A 
ATOM     14  C   UNL     1      10.387 -60.230 -21.200  1.00  0.00     0.001 A 
ATOM     15  C   UNL     1       9.411 -60.782 -22.025  1.00  0.00     0.000 A 
ENDBRANCH   9  10
ENDBRANCH   4   9
ENDBRANCH   1   2
BRANCH   1  16
ATOM     16  C   UNL     1      11.447 -51.201 -23.108  1.00  0.00     0.066 C 
ATOM     17  C   UNL     1      10.721 -49.938 -22.669  1.00  0.00     0.166 C 
ATOM     18  C   UNL     1      12.798 -50.666 -23.649  1.00  0.00     0.048 C 
ATOM     19  C   UNL     1      11.400 -48.772 -23.212  1.00  0.00     0.025 A 
ATOM     20  C   UNL     1      12.579 -49.194 -23.806  1.00  0.00    -0.033 A 
ATOM     21  C   UNL     1      11.012 -47.450 -23.179  1.00  0.00     0.062 A 
ATOM     22  C   UNL     1      13.427 -48.265 -24.393  1.00  0.00     0.055 A 
ATOM     23  C   UNL     1      11.844 -46.507 -23.792  1.00  0.00     0.161 A 
ATOM     24  C   UNL     1      13.071 -46.904 -24.386  1.00  0.00     0.161 A 
ATOM     25  O   UNL     1       9.720 -49.885 -21.974  1.00  0.00    -0.294 OA
BRANCH  23  26
ATOM     26  O   UNL     1      11.368 -45.224 -23.688  1.00  0.00    -0.493 OA
ATOM     27  C   UNL     1      11.233 -44.707 -22.367  1.00  0.00     0.278 C 
ENDBRANCH  23  26
BRANCH  24  28
ATOM     28  O   UNL     1      13.868 -45.915 -24.896  1.00  0.00    -0.493 OA
ATOM     29  C   UNL     1      14.345 -46.050 -26.228  1.00  0.00     0.278 C 
ENDBRANCH  24  28
ENDBRANCH   1  16
TORSDOF 6
ENDMDL
MODEL 9
REMARK VINA RESULT:    -9.394      3.548      9.330
REMARK INTER + INTRA:         -13.207
REMARK INTER:                 -13.592
REMARK INTRA:                   0.385
REMARK UNBOUND:                -0.518
REMARK SMILES COc1cc2c(cc1OC)C(=O)[C@H](C[C@H]1CC[N@@H+](Cc3ccccc3)CC1)C2
REMARK SMILES IDX 14 1 15 2 17 3 18 4 16 5 26 6 27 7 19 9 20 10 21 11 25 12
REMARK SMILES IDX 22 13 24 14 23 15 13 16 11 17 28 18 6 19 5 20 7 21 4 22 8 23
REMARK SMILES IDX 3 24 12 25 9 26 10 27 2 28 1 29
REMARK H PARENT 18 8
ROOT
ATOM      1  C   UNL     1      11.010 -56.677 -22.057  1.00  0.00     0.016 C 
ENDROOT
BRANCH   1   2
ATOM      2  C   UNL     1      10.071 -55.743 -22.864  1.00  0.00     0.001 C 
ATOM      3  C   UNL     1      11.731 -54.053 -23.814  1.00  0.00     0.262 C 
ATOM      4  N   UNL     1      11.094 -52.974 -22.963  1.00  0.00    -0.331 N 
ATOM      5  C   UNL     1      10.687 -55.120 -24.123  1.00  0.00     0.065 C 
ATOM      6  C   UNL     1      10.539 -53.525 -21.676  1.00  0.00     0.262 C 
ATOM      7  C   UNL     1       9.517 -54.617 -21.974  1.00  0.00     0.065 C 
ATOM      8  H   UNL     1      10.316 -52.584 -23.508  1.00  0.00     0.348 HD
BRANCH   4   9
ATOM      9  C   UNL     1      12.042 -51.819 -22.706  1.00  0.00     0.299 C 
BRANCH   9  10
ATOM     10  C   UNL     1      12.673 -51.285 -23.963  1.00  0.00     0.006 A 
ATOM     11  C   UNL     1      12.891 -49.909 -24.125  1.00  0.00     0.009 A 
ATOM     12  C   UNL     1      13.074 -52.162 -24.985  1.00  0.00     0.009 A 
ATOM     13  C   UNL     1      13.500 -49.420 -25.281  1.00  0.00     0.001 A 
ATOM     14  C   UNL     1      13.682 -51.668 -26.140  1.00  0.00     0.001 A 
ATOM     15  C   UNL     1      13.896 -50.300 -26.286  1.00  0.00     0.000 A 
ENDBRANCH   9  10
ENDBRANCH   4   9
ENDBRANCH   1   2
BRANCH   1  16
ATOM     16  C   UNL     1      11.248 -58.053 -22.702  1.00  0.00     0.066 C 
ATOM     17  C   UNL     1       9.963 -58.662 -23.245  1.00  0.00     0.166 C 
ATOM     18  C   UNL     1      12.165 -57.985 -23.950  1.00  0.00     0.048 C 
ATOM     19  C   UNL     1      10.210 -59.222 -24.565  1.00  0.00     0.025 A 
ATOM     20  C   UNL     1      11.489 -58.861 -24.956  1.00  0.00    -0.033 A 
ATOM     21  C   UNL     1       9.372 -59.979 -25.354  1.00  0.00     0.062 A 
ATOM     22  C   UNL     1      11.969 -59.261 -26.196  1.00  0.00     0.055 A 
ATOM     23  C   UNL     1       9.853 -60.412 -26.594  1.00  0.00     0.161 A 
ATOM     24  C   UNL     1      11.150 -60.039 -27.035  1.00  0.00     0.161 A 
ATOM     25  O   UNL     1       8.884 -58.694 -22.678  1.00  0.00    -0.294 OA
BRANCH  23  26
ATOM     26  O   UNL     1       8.934 -61.147 -27.300  1.00  0.00    -0.493 OA
ATOM     27  C   UNL     1       8.749 -62.496 -26.879  1.00  0.00     0.278 C 
ENDBRANCH  23  26
BRANCH  24  28
ATOM     28  O   UNL     1      11.521 -60.435 -28.292  1.00  0.00    -0.493 OA
ATOM     29  C   UNL     1      12.018 -59.453 -29.192  1.00  0.00     0.278 C 
ENDBRANCH  24  28
ENDBRANCH   1  16
TORSDOF 6
ENDMDL
