MODEL 1
REMARK VINA RESULT:    -9.136      0.000      0.000
REMARK INTER + INTRA:         -15.449
REMARK INTER:                 -14.476
REMARK INTRA:                  -0.973
REMARK UNBOUND:                -0.973
REMARK SMILES CCOCC[n+]1ccc(CCC(=O)[C@H]2Cc3cc(OC)c(OC)cc3S2)cc1
REMARK SMILES IDX 6 1 7 2 8 3 9 4 27 5 28 6 5 7 4 8 3 9 2 10 1 11 10 12 11 13
REMARK SMILES IDX 12 14 13 15 14 16 15 17 26 18 16 19 25 20 17 21 24 22 18 23
REMARK SMILES IDX 21 24 19 25 20 26 22 27 23 28
REMARK H PARENT
ROOT
ATOM      1  N   UNL     1      11.378 -53.245 -22.649  1.00  0.00    -0.203 N 
ATOM      2  C   UNL     1      10.842 -53.867 -21.573  1.00  0.00     0.308 A 
ATOM      3  C   UNL     1      10.423 -55.189 -21.655  1.00  0.00     0.074 A 
ATOM      4  C   UNL     1      10.557 -55.884 -22.857  1.00  0.00    -0.036 A 
ATOM      5  C   UNL     1      11.085 -55.211 -23.961  1.00  0.00     0.074 A 
ATOM      6  C   UNL     1      11.493 -53.888 -23.832  1.00  0.00     0.308 A 
ENDROOT
BRANCH   1   7
ATOM      7  C   UNL     1      11.852 -51.851 -22.526  1.00  0.00     0.385 C 
BRANCH   7   8
ATOM      8  C   UNL     1      12.455 -51.385 -23.847  1.00  0.00     0.233 C 
BRANCH   8   9
ATOM      9  O   UNL     1      13.867 -51.301 -23.682  1.00  0.00    -0.375 OA
BRANCH   9  10
ATOM     10  C   UNL     1      14.596 -51.367 -24.909  1.00  0.00     0.157 C 
ATOM     11  C   UNL     1      13.675 -51.601 -26.092  1.00  0.00     0.035 C 
ENDBRANCH   9  10
ENDBRANCH   8   9
ENDBRANCH   7   8
ENDBRANCH   1   7
BRANCH   4  12
ATOM     12  C   UNL     1      10.217 -57.353 -22.947  1.00  0.00     0.044 C 
BRANCH  12  13
ATOM     13  C   UNL     1      11.061 -58.232 -22.021  1.00  0.00     0.081 C 
BRANCH  13  14
ATOM     14  C   UNL     1      10.627 -59.693 -22.008  1.00  0.00     0.146 C 
ATOM     15  O   UNL     1       9.658 -60.030 -21.313  1.00  0.00    -0.298 OA
BRANCH  14  16
ATOM     16  C   UNL     1      11.412 -60.746 -22.788  1.00  0.00     0.123 C 
ATOM     17  C   UNL     1      10.551 -61.687 -23.640  1.00  0.00     0.059 C 
ATOM     18  S   UNL     1      12.611 -59.927 -23.891  1.00  0.00    -0.114 SA
ATOM     19  C   UNL     1      10.617 -61.198 -25.060  1.00  0.00    -0.029 A 
ATOM     20  C   UNL     1      11.662 -60.317 -25.332  1.00  0.00     0.015 A 
ATOM     21  C   UNL     1       9.755 -61.601 -26.078  1.00  0.00     0.055 A 
ATOM     22  C   UNL     1      11.869 -59.811 -26.606  1.00  0.00     0.065 A 
ATOM     23  C   UNL     1       9.941 -61.097 -27.372  1.00  0.00     0.161 A 
ATOM     24  C   UNL     1      11.005 -60.200 -27.636  1.00  0.00     0.161 A 
BRANCH  23  25
ATOM     25  O   UNL     1       9.141 -61.408 -28.442  1.00  0.00    -0.493 OA
ATOM     26  C   UNL     1       8.455 -62.652 -28.419  1.00  0.00     0.278 C 
ENDBRANCH  23  25
BRANCH  24  27
ATOM     27  O   UNL     1      11.101 -59.749 -28.930  1.00  0.00    -0.493 OA
ATOM     28  C   UNL     1      11.968 -58.651 -29.181  1.00  0.00     0.278 C 
ENDBRANCH  24  27
ENDBRANCH  14  16
ENDBRANCH  13  14
ENDBRANCH  12  13
ENDBRANCH   4  12
TORSDOF 10
ENDMDL
MODEL 2
REMARK VINA RESULT:    -8.886      1.367      1.974
REMARK INTER + INTRA:         -15.053
REMARK INTER:                 -14.254
REMARK INTRA:                  -0.799
REMARK UNBOUND:                -0.973
REMARK SMILES CCOCC[n+]1ccc(CCC(=O)[C@H]2Cc3cc(OC)c(OC)cc3S2)cc1
REMARK SMILES IDX 6 1 7 2 8 3 9 4 27 5 28 6 5 7 4 8 3 9 2 10 1 11 10 12 11 13
REMARK SMILES IDX 12 14 13 15 14 16 15 17 26 18 16 19 25 20 17 21 24 22 18 23
REMARK SMILES IDX 21 24 19 25 20 26 22 27 23 28
REMARK H PARENT
ROOT
ATOM      1  N   UNL     1      11.553 -52.912 -22.739  1.00  0.00    -0.203 N 
ATOM      2  C   UNL     1      11.748 -53.682 -23.834  1.00  0.00     0.308 A 
ATOM      3  C   UNL     1      11.338 -55.010 -23.848  1.00  0.00     0.074 A 
ATOM      4  C   UNL     1      10.717 -55.554 -22.723  1.00  0.00    -0.036 A 
ATOM      5  C   UNL     1      10.555 -54.747 -21.595  1.00  0.00     0.074 A 
ATOM      6  C   UNL     1      10.979 -53.424 -21.627  1.00  0.00     0.308 A 
ENDROOT
BRANCH   1   7
ATOM      7  C   UNL     1      11.963 -51.492 -22.762  1.00  0.00     0.385 C 
BRANCH   7   8
ATOM      8  C   UNL     1      10.928 -50.637 -22.038  1.00  0.00     0.233 C 
BRANCH   8   9
ATOM      9  O   UNL     1      10.475 -49.635 -22.942  1.00  0.00    -0.375 OA
BRANCH   9  10
ATOM     10  C   UNL     1      10.586 -48.305 -22.430  1.00  0.00     0.157 C 
ATOM     11  C   UNL     1      11.048 -47.333 -23.500  1.00  0.00     0.035 C 
ENDBRANCH   9  10
ENDBRANCH   8   9
ENDBRANCH   7   8
ENDBRANCH   1   7
BRANCH   4  12
ATOM     12  C   UNL     1      10.159 -56.957 -22.748  1.00  0.00     0.044 C 
BRANCH  12  13
ATOM     13  C   UNL     1      11.076 -57.991 -22.089  1.00  0.00     0.081 C 
BRANCH  13  14
ATOM     14  C   UNL     1      10.555 -59.419 -22.193  1.00  0.00     0.146 C 
ATOM     15  O   UNL     1       9.483 -59.713 -21.646  1.00  0.00    -0.298 OA
BRANCH  14  16
ATOM     16  C   UNL     1      11.372 -60.496 -22.905  1.00  0.00     0.123 C 
ATOM     17  C   UNL     1      10.541 -61.499 -23.715  1.00  0.00     0.059 C 
ATOM     18  S   UNL     1      12.567 -59.713 -24.037  1.00  0.00    -0.114 SA
ATOM     19  C   UNL     1      10.615 -61.086 -25.159  1.00  0.00    -0.029 A 
ATOM     20  C   UNL     1      11.645 -60.200 -25.466  1.00  0.00     0.015 A 
ATOM     21  C   UNL     1       9.774 -61.562 -26.163  1.00  0.00     0.055 A 
ATOM     22  C   UNL     1      11.859 -59.760 -26.763  1.00  0.00     0.065 A 
ATOM     23  C   UNL     1       9.967 -61.124 -27.480  1.00  0.00     0.161 A 
ATOM     24  C   UNL     1      11.016 -60.222 -27.780  1.00  0.00     0.161 A 
BRANCH  23  25
ATOM     25  O   UNL     1       9.188 -61.510 -28.542  1.00  0.00    -0.493 OA
ATOM     26  C   UNL     1       8.533 -62.769 -28.463  1.00  0.00     0.278 C 
ENDBRANCH  23  25
BRANCH  24  27
ATOM     27  O   UNL     1      11.120 -59.839 -29.095  1.00  0.00    -0.493 OA
ATOM     28  C   UNL     1      11.873 -58.668 -29.382  1.00  0.00     0.278 C 
ENDBRANCH  24  27
ENDBRANCH  14  16
ENDBRANCH  13  14
ENDBRANCH  12  13
ENDBRANCH   4  12
TORSDOF 10
ENDMDL
MODEL 3
REMARK VINA RESULT:    -8.684      1.362      1.852
REMARK INTER + INTRA:         -14.733
REMARK INTER:                 -14.004
REMARK INTRA:                  -0.729
REMARK UNBOUND:                -0.973
REMARK SMILES CCOCC[n+]1ccc(CCC(=O)[C@H]2Cc3cc(OC)c(OC)cc3S2)cc1
REMARK SMILES IDX 6 1 7 2 8 3 9 4 27 5 28 6 5 7 4 8 3 9 2 10 1 11 10 12 11 13
REMARK SMILES IDX 12 14 13 15 14 16 15 17 26 18 16 19 25 20 17 21 24 22 18 23
REMARK SMILES IDX 21 24 19 25 20 26 22 27 23 28
REMARK H PARENT
ROOT
ATOM      1  N   UNL     1      11.033 -52.564 -22.787  1.00  0.00    -0.203 N 
ATOM      2  C   UNL     1      10.081 -53.027 -21.945  1.00  0.00     0.308 A 
ATOM      3  C   UNL     1       9.733 -54.373 -21.941  1.00  0.00     0.074 A 
ATOM      4  C   UNL     1      10.375 -55.255 -22.810  1.00  0.00    -0.036 A 
ATOM      5  C   UNL     1      11.333 -54.747 -23.690  1.00  0.00     0.074 A 
ATOM      6  C   UNL     1      11.649 -53.394 -23.658  1.00  0.00     0.308 A 
ENDROOT
BRANCH   1   7
ATOM      7  C   UNL     1      11.412 -51.136 -22.747  1.00  0.00     0.385 C 
BRANCH   7   8
ATOM      8  C   UNL     1      12.921 -50.990 -22.917  1.00  0.00     0.233 C 
BRANCH   8   9
ATOM      9  O   UNL     1      13.163 -50.332 -24.156  1.00  0.00    -0.375 OA
BRANCH   9  10
ATOM     10  C   UNL     1      13.955 -51.095 -25.069  1.00  0.00     0.157 C 
ATOM     11  C   UNL     1      14.016 -50.440 -26.436  1.00  0.00     0.035 C 
ENDBRANCH   9  10
ENDBRANCH   8   9
ENDBRANCH   7   8
ENDBRANCH   1   7
BRANCH   4  12
ATOM     12  C   UNL     1      10.102 -56.740 -22.749  1.00  0.00     0.044 C 
BRANCH  12  13
ATOM     13  C   UNL     1      11.299 -57.598 -23.164  1.00  0.00     0.081 C 
BRANCH  13  14
ATOM     14  C   UNL     1      11.380 -58.927 -22.423  1.00  0.00     0.146 C 
ATOM     15  O   UNL     1      11.040 -58.977 -21.233  1.00  0.00    -0.298 OA
BRANCH  14  16
ATOM     16  C   UNL     1      11.935 -60.171 -23.113  1.00  0.00     0.123 C 
ATOM     17  C   UNL     1      11.025 -61.404 -23.040  1.00  0.00     0.059 C 
ATOM     18  S   UNL     1      12.250 -59.810 -24.872  1.00  0.00    -0.114 SA
ATOM     19  C   UNL     1      10.304 -61.514 -24.354  1.00  0.00    -0.029 A 
ATOM     20  C   UNL     1      10.861 -60.773 -25.395  1.00  0.00     0.015 A 
ATOM     21  C   UNL     1       9.190 -62.319 -24.582  1.00  0.00     0.055 A 
ATOM     22  C   UNL     1      10.325 -60.804 -26.673  1.00  0.00     0.065 A 
ATOM     23  C   UNL     1       8.627 -62.360 -25.864  1.00  0.00     0.161 A 
ATOM     24  C   UNL     1       9.200 -61.601 -26.914  1.00  0.00     0.161 A 
BRANCH  23  25
ATOM     25  O   UNL     1       7.520 -63.099 -26.197  1.00  0.00    -0.493 OA
ATOM     26  C   UNL     1       6.951 -63.930 -25.194  1.00  0.00     0.278 C 
ENDBRANCH  23  25
BRANCH  24  27
ATOM     27  O   UNL     1       8.572 -61.694 -28.132  1.00  0.00    -0.493 OA
ATOM     28  C   UNL     1       9.217 -62.449 -29.149  1.00  0.00     0.278 C 
ENDBRANCH  24  27
ENDBRANCH  14  16
ENDBRANCH  13  14
ENDBRANCH  12  13
ENDBRANCH   4  12
TORSDOF 10
ENDMDL
MODEL 4
REMARK VINA RESULT:    -8.620      2.251      3.123
REMARK INTER + INTRA:         -14.632
REMARK INTER:                 -13.893
REMARK INTRA:                  -0.738
REMARK UNBOUND:                -0.973
REMARK SMILES CCOCC[n+]1ccc(CCC(=O)[C@H]2Cc3cc(OC)c(OC)cc3S2)cc1
REMARK SMILES IDX 6 1 7 2 8 3 9 4 27 5 28 6 5 7 4 8 3 9 2 10 1 11 10 12 11 13
REMARK SMILES IDX 12 14 13 15 14 16 15 17 26 18 16 19 25 20 17 21 24 22 18 23
REMARK SMILES IDX 21 24 19 25 20 26 22 27 23 28
REMARK H PARENT
ROOT
ATOM      1  N   UNL     1      11.414 -52.362 -22.197  1.00  0.00    -0.203 N 
ATOM      2  C   UNL     1      11.542 -52.937 -23.415  1.00  0.00     0.308 A 
ATOM      3  C   UNL     1      11.177 -54.264 -23.612  1.00  0.00     0.074 A 
ATOM      4  C   UNL     1      10.672 -55.008 -22.546  1.00  0.00    -0.036 A 
ATOM      5  C   UNL     1      10.579 -54.401 -21.293  1.00  0.00     0.074 A 
ATOM      6  C   UNL     1      10.954 -53.071 -21.142  1.00  0.00     0.308 A 
ENDROOT
BRANCH   1   7
ATOM      7  C   UNL     1      11.773 -50.939 -22.021  1.00  0.00     0.385 C 
BRANCH   7   8
ATOM      8  C   UNL     1      10.591 -50.051 -22.399  1.00  0.00     0.233 C 
BRANCH   8   9
ATOM      9  O   UNL     1      11.082 -48.986 -23.206  1.00  0.00    -0.375 OA
BRANCH   9  10
ATOM     10  C   UNL     1      11.632 -47.901 -22.457  1.00  0.00     0.157 C 
ATOM     11  C   UNL     1      10.715 -46.692 -22.469  1.00  0.00     0.035 C 
ENDBRANCH   9  10
ENDBRANCH   8   9
ENDBRANCH   7   8
ENDBRANCH   1   7
BRANCH   4  12
ATOM     12  C   UNL     1      10.161 -56.415 -22.755  1.00  0.00     0.044 C 
BRANCH  12  13
ATOM     13  C   UNL     1      11.195 -57.495 -22.426  1.00  0.00     0.081 C 
BRANCH  13  14
ATOM     14  C   UNL     1      11.880 -58.073 -23.658  1.00  0.00     0.146 C 
ATOM     15  O   UNL     1      12.142 -57.326 -24.611  1.00  0.00    -0.298 OA
BRANCH  14  16
ATOM     16  C   UNL     1      12.183 -59.568 -23.752  1.00  0.00     0.123 C 
ATOM     17  C   UNL     1      11.101 -60.479 -23.159  1.00  0.00     0.059 C 
ATOM     18  S   UNL     1      12.419 -60.039 -25.498  1.00  0.00    -0.114 SA
ATOM     19  C   UNL     1      10.276 -61.005 -24.301  1.00  0.00    -0.029 A 
ATOM     20  C   UNL     1      10.863 -60.877 -25.558  1.00  0.00     0.015 A 
ATOM     21  C   UNL     1       9.037 -61.626 -24.164  1.00  0.00     0.055 A 
ATOM     22  C   UNL     1      10.236 -61.350 -26.701  1.00  0.00     0.065 A 
ATOM     23  C   UNL     1       8.382 -62.104 -25.305  1.00  0.00     0.161 A 
ATOM     24  C   UNL     1       8.986 -61.968 -26.579  1.00  0.00     0.161 A 
BRANCH  23  25
ATOM     25  O   UNL     1       7.151 -62.712 -25.290  1.00  0.00    -0.493 OA
ATOM     26  C   UNL     1       7.087 -64.071 -24.878  1.00  0.00     0.278 C 
ENDBRANCH  23  25
BRANCH  24  27
ATOM     27  O   UNL     1       8.263 -62.454 -27.641  1.00  0.00    -0.493 OA
ATOM     28  C   UNL     1       8.839 -63.508 -28.401  1.00  0.00     0.278 C 
ENDBRANCH  24  27
ENDBRANCH  14  16
ENDBRANCH  13  14
ENDBRANCH  12  13
ENDBRANCH   4  12
TORSDOF 10
ENDMDL
MODEL 5
REMARK VINA RESULT:    -8.500      2.442      3.707
REMARK INTER + INTRA:         -14.442
REMARK INTER:                 -13.824
REMARK INTRA:                  -0.618
REMARK UNBOUND:                -0.973
REMARK SMILES CCOCC[n+]1ccc(CCC(=O)[C@H]2Cc3cc(OC)c(OC)cc3S2)cc1
REMARK SMILES IDX 6 1 7 2 8 3 9 4 27 5 28 6 5 7 4 8 3 9 2 10 1 11 10 12 11 13
REMARK SMILES IDX 12 14 13 15 14 16 15 17 26 18 16 19 25 20 17 21 24 22 18 23
REMARK SMILES IDX 21 24 19 25 20 26 22 27 23 28
REMARK H PARENT
ROOT
ATOM      1  N   UNL     1      12.343 -50.887 -23.105  1.00  0.00    -0.203 N 
ATOM      2  C   UNL     1      12.390 -51.981 -23.899  1.00  0.00     0.308 A 
ATOM      3  C   UNL     1      11.718 -53.145 -23.540  1.00  0.00     0.074 A 
ATOM      4  C   UNL     1      10.988 -53.183 -22.353  1.00  0.00    -0.036 A 
ATOM      5  C   UNL     1      10.981 -52.051 -21.536  1.00  0.00     0.074 A 
ATOM      6  C   UNL     1      11.666 -50.909 -21.936  1.00  0.00     0.308 A 
ENDROOT
BRANCH   1   7
ATOM      7  C   UNL     1      13.033 -49.650 -23.527  1.00  0.00     0.385 C 
BRANCH   7   8
ATOM      8  C   UNL     1      12.322 -48.431 -22.948  1.00  0.00     0.233 C 
BRANCH   8   9
ATOM      9  O   UNL     1      13.129 -47.286 -23.206  1.00  0.00    -0.375 OA
BRANCH   9  10
ATOM     10  C   UNL     1      12.520 -46.340 -24.088  1.00  0.00     0.157 C 
ATOM     11  C   UNL     1      11.035 -46.605 -24.250  1.00  0.00     0.035 C 
ENDBRANCH   9  10
ENDBRANCH   8   9
ENDBRANCH   7   8
ENDBRANCH   1   7
BRANCH   4  12
ATOM     12  C   UNL     1      10.156 -54.392 -21.992  1.00  0.00     0.044 C 
BRANCH  12  13
ATOM     13  C   UNL     1      10.989 -55.647 -21.719  1.00  0.00     0.081 C 
BRANCH  13  14
ATOM     14  C   UNL     1      10.660 -56.808 -22.649  1.00  0.00     0.146 C 
ATOM     15  O   UNL     1       9.774 -56.666 -23.503  1.00  0.00    -0.298 OA
BRANCH  14  16
ATOM     16  C   UNL     1      11.363 -58.155 -22.492  1.00  0.00     0.123 C 
ATOM     17  C   UNL     1      10.530 -59.235 -21.791  1.00  0.00     0.059 C 
ATOM     18  S   UNL     1      11.842 -58.793 -24.132  1.00  0.00    -0.114 SA
ATOM     19  C   UNL     1       9.962 -60.132 -22.856  1.00  0.00    -0.029 A 
ATOM     20  C   UNL     1      10.581 -60.032 -24.100  1.00  0.00     0.015 A 
ATOM     21  C   UNL     1       8.932 -61.048 -22.654  1.00  0.00     0.055 A 
ATOM     22  C   UNL     1      10.188 -60.824 -25.168  1.00  0.00     0.065 A 
ATOM     23  C   UNL     1       8.514 -61.853 -23.722  1.00  0.00     0.161 A 
ATOM     24  C   UNL     1       9.148 -61.741 -24.983  1.00  0.00     0.161 A 
BRANCH  23  25
ATOM     25  O   UNL     1       7.497 -62.771 -23.643  1.00  0.00    -0.493 OA
ATOM     26  C   UNL     1       7.805 -64.059 -23.127  1.00  0.00     0.278 C 
ENDBRANCH  23  25
BRANCH  24  27
ATOM     27  O   UNL     1       8.662 -62.561 -25.973  1.00  0.00    -0.493 OA
ATOM     28  C   UNL     1       8.905 -62.180 -27.321  1.00  0.00     0.278 C 
ENDBRANCH  24  27
ENDBRANCH  14  16
ENDBRANCH  13  14
ENDBRANCH  12  13
ENDBRANCH   4  12
TORSDOF 10
ENDMDL
MODEL 6
REMARK VINA RESULT:    -8.327      2.099      3.328
REMARK INTER + INTRA:         -14.167
REMARK INTER:                 -13.514
REMARK INTRA:                  -0.654
REMARK UNBOUND:                -0.973
REMARK SMILES CCOCC[n+]1ccc(CCC(=O)[C@H]2Cc3cc(OC)c(OC)cc3S2)cc1
REMARK SMILES IDX 6 1 7 2 8 3 9 4 27 5 28 6 5 7 4 8 3 9 2 10 1 11 10 12 11 13
REMARK SMILES IDX 12 14 13 15 14 16 15 17 26 18 16 19 25 20 17 21 24 22 18 23
REMARK SMILES IDX 21 24 19 25 20 26 22 27 23 28
REMARK H PARENT
ROOT
ATOM      1  N   UNL     1      12.628 -51.250 -23.944  1.00  0.00    -0.203 N 
ATOM      2  C   UNL     1      11.858 -50.885 -22.893  1.00  0.00     0.308 A 
ATOM      3  C   UNL     1      11.017 -51.805 -22.278  1.00  0.00     0.074 A 
ATOM      4  C   UNL     1      10.967 -53.117 -22.747  1.00  0.00    -0.036 A 
ATOM      5  C   UNL     1      11.748 -53.461 -23.852  1.00  0.00     0.074 A 
ATOM      6  C   UNL     1      12.576 -52.508 -24.434  1.00  0.00     0.308 A 
ENDROOT
BRANCH   1   7
ATOM      7  C   UNL     1      13.543 -50.264 -24.556  1.00  0.00     0.385 C 
BRANCH   7   8
ATOM      8  C   UNL     1      14.879 -50.263 -23.820  1.00  0.00     0.233 C 
BRANCH   8   9
ATOM      9  O   UNL     1      15.847 -50.877 -24.665  1.00  0.00    -0.375 OA
BRANCH   9  10
ATOM     10  C   UNL     1      16.325 -52.132 -24.176  1.00  0.00     0.157 C 
ATOM     11  C   UNL     1      16.953 -52.959 -25.282  1.00  0.00     0.035 C 
ENDBRANCH   9  10
ENDBRANCH   8   9
ENDBRANCH   7   8
ENDBRANCH   1   7
BRANCH   4  12
ATOM     12  C   UNL     1      10.150 -54.167 -22.030  1.00  0.00     0.044 C 
BRANCH  12  13
ATOM     13  C   UNL     1      10.956 -55.410 -21.646  1.00  0.00     0.081 C 
BRANCH  13  14
ATOM     14  C   UNL     1      10.654 -56.623 -22.518  1.00  0.00     0.146 C 
ATOM     15  O   UNL     1       9.642 -56.616 -23.234  1.00  0.00    -0.298 OA
BRANCH  14  16
ATOM     16  C   UNL     1      11.545 -57.863 -22.465  1.00  0.00     0.123 C 
ATOM     17  C   UNL     1      10.942 -59.053 -21.709  1.00  0.00     0.059 C 
ATOM     18  S   UNL     1      11.934 -58.412 -24.160  1.00  0.00    -0.114 SA
ATOM     19  C   UNL     1      10.394 -60.009 -22.733  1.00  0.00    -0.029 A 
ATOM     20  C   UNL     1      10.862 -59.813 -24.030  1.00  0.00     0.015 A 
ATOM     21  C   UNL     1       9.523 -61.059 -22.450  1.00  0.00     0.055 A 
ATOM     22  C   UNL     1      10.472 -60.640 -25.072  1.00  0.00     0.065 A 
ATOM     23  C   UNL     1       9.110 -61.903 -23.489  1.00  0.00     0.161 A 
ATOM     24  C   UNL     1       9.589 -61.693 -24.805  1.00  0.00     0.161 A 
BRANCH  23  25
ATOM     25  O   UNL     1       8.240 -62.952 -23.330  1.00  0.00    -0.493 OA
ATOM     26  C   UNL     1       6.853 -62.698 -23.507  1.00  0.00     0.278 C 
ENDBRANCH  23  25
BRANCH  24  27
ATOM     27  O   UNL     1       9.120 -62.561 -25.760  1.00  0.00    -0.493 OA
ATOM     28  C   UNL     1       9.103 -62.111 -27.108  1.00  0.00     0.278 C 
ENDBRANCH  24  27
ENDBRANCH  14  16
ENDBRANCH  13  14
ENDBRANCH  12  13
ENDBRANCH   4  12
TORSDOF 10
ENDMDL
MODEL 7
REMARK VINA RESULT:    -8.148      2.936      4.286
REMARK INTER + INTRA:         -13.884
REMARK INTER:                 -13.776
REMARK INTRA:                  -0.108
REMARK UNBOUND:                -0.973
REMARK SMILES CCOCC[n+]1ccc(CCC(=O)[C@H]2Cc3cc(OC)c(OC)cc3S2)cc1
REMARK SMILES IDX 6 1 7 2 8 3 9 4 27 5 28 6 5 7 4 8 3 9 2 10 1 11 10 12 11 13
REMARK SMILES IDX 12 14 13 15 14 16 15 17 26 18 16 19 25 20 17 21 24 22 18 23
REMARK SMILES IDX 21 24 19 25 20 26 22 27 23 28
REMARK H PARENT
ROOT
ATOM      1  N   UNL     1      11.561 -51.489 -22.321  1.00  0.00    -0.203 N 
ATOM      2  C   UNL     1      12.090 -51.943 -23.480  1.00  0.00     0.308 A 
ATOM      3  C   UNL     1      11.885 -53.257 -23.885  1.00  0.00     0.074 A 
ATOM      4  C   UNL     1      11.125 -54.114 -23.091  1.00  0.00    -0.036 A 
ATOM      5  C   UNL     1      10.615 -53.631 -21.885  1.00  0.00     0.074 A 
ATOM      6  C   UNL     1      10.844 -52.309 -21.520  1.00  0.00     0.308 A 
ENDROOT
BRANCH   1   7
ATOM      7  C   UNL     1      11.761 -50.077 -21.931  1.00  0.00     0.385 C 
BRANCH   7   8
ATOM      8  C   UNL     1      10.925 -49.165 -22.822  1.00  0.00     0.233 C 
BRANCH   8   9
ATOM      9  O   UNL     1      11.134 -47.822 -22.397  1.00  0.00    -0.375 OA
BRANCH   9  10
ATOM     10  C   UNL     1      11.682 -46.976 -23.410  1.00  0.00     0.157 C 
ATOM     11  C   UNL     1      12.445 -47.774 -24.451  1.00  0.00     0.035 C 
ENDBRANCH   9  10
ENDBRANCH   8   9
ENDBRANCH   7   8
ENDBRANCH   1   7
BRANCH   4  12
ATOM     12  C   UNL     1      10.789 -55.512 -23.558  1.00  0.00     0.044 C 
BRANCH  12  13
ATOM     13  C   UNL     1      11.968 -56.236 -24.213  1.00  0.00     0.081 C 
BRANCH  13  14
ATOM     14  C   UNL     1      11.824 -57.753 -24.214  1.00  0.00     0.146 C 
ATOM     15  O   UNL     1      12.086 -58.384 -25.248  1.00  0.00    -0.298 OA
BRANCH  14  16
ATOM     16  C   UNL     1      11.299 -58.487 -22.982  1.00  0.00     0.123 C 
ATOM     17  C   UNL     1       9.891 -58.069 -22.539  1.00  0.00     0.059 C 
ATOM     18  S   UNL     1      11.279 -60.282 -23.298  1.00  0.00    -0.114 SA
ATOM     19  C   UNL     1       8.930 -59.109 -23.046  1.00  0.00    -0.029 A 
ATOM     20  C   UNL     1       9.515 -60.314 -23.429  1.00  0.00     0.015 A 
ATOM     21  C   UNL     1       7.547 -58.950 -23.102  1.00  0.00     0.055 A 
ATOM     22  C   UNL     1       8.750 -61.378 -23.883  1.00  0.00     0.065 A 
ATOM     23  C   UNL     1       6.755 -60.009 -23.564  1.00  0.00     0.161 A 
ATOM     24  C   UNL     1       7.361 -61.229 -23.953  1.00  0.00     0.161 A 
BRANCH  23  25
ATOM     25  O   UNL     1       5.389 -59.956 -23.681  1.00  0.00    -0.493 OA
ATOM     26  C   UNL     1       4.689 -59.025 -22.867  1.00  0.00     0.278 C 
ENDBRANCH  23  25
BRANCH  24  27
ATOM     27  O   UNL     1       6.507 -62.205 -24.405  1.00  0.00    -0.493 OA
ATOM     28  C   UNL     1       7.076 -63.311 -25.094  1.00  0.00     0.278 C 
ENDBRANCH  24  27
ENDBRANCH  14  16
ENDBRANCH  13  14
ENDBRANCH  12  13
ENDBRANCH   4  12
TORSDOF 10
ENDMDL
MODEL 8
REMARK VINA RESULT:    -7.962      3.045      4.828
REMARK INTER + INTRA:         -13.589
REMARK INTER:                 -13.122
REMARK INTRA:                  -0.467
REMARK UNBOUND:                -0.973
REMARK SMILES CCOCC[n+]1ccc(CCC(=O)[C@H]2Cc3cc(OC)c(OC)cc3S2)cc1
REMARK SMILES IDX 6 1 7 2 8 3 9 4 27 5 28 6 5 7 4 8 3 9 2 10 1 11 10 12 11 13
REMARK SMILES IDX 12 14 13 15 14 16 15 17 26 18 16 19 25 20 17 21 24 22 18 23
REMARK SMILES IDX 21 24 19 25 20 26 22 27 23 28
REMARK H PARENT
ROOT
ATOM      1  N   UNL     1      12.711 -49.667 -23.039  1.00  0.00    -0.203 N 
ATOM      2  C   UNL     1      13.048 -50.609 -23.949  1.00  0.00     0.308 A 
ATOM      3  C   UNL     1      12.527 -51.895 -23.863  1.00  0.00     0.074 A 
ATOM      4  C   UNL     1      11.648 -52.217 -22.830  1.00  0.00    -0.036 A 
ATOM      5  C   UNL     1      11.340 -51.235 -21.886  1.00  0.00     0.074 A 
ATOM      6  C   UNL     1      11.883 -49.962 -22.013  1.00  0.00     0.308 A 
ENDROOT
BRANCH   1   7
ATOM      7  C   UNL     1      13.247 -48.296 -23.174  1.00  0.00     0.385 C 
BRANCH   7   8
ATOM      8  C   UNL     1      12.454 -47.335 -22.294  1.00  0.00     0.233 C 
BRANCH   8   9
ATOM      9  O   UNL     1      11.499 -46.672 -23.115  1.00  0.00    -0.375 OA
BRANCH   9  10
ATOM     10  C   UNL     1      10.578 -45.858 -22.386  1.00  0.00     0.157 C 
ATOM     11  C   UNL     1      10.603 -44.419 -22.867  1.00  0.00     0.035 C 
ENDBRANCH   9  10
ENDBRANCH   8   9
ENDBRANCH   7   8
ENDBRANCH   1   7
BRANCH   4  12
ATOM     12  C   UNL     1      10.977 -53.570 -22.774  1.00  0.00     0.044 C 
BRANCH  12  13
ATOM     13  C   UNL     1      11.249 -54.436 -24.006  1.00  0.00     0.081 C 
BRANCH  13  14
ATOM     14  C   UNL     1      11.307 -55.928 -23.698  1.00  0.00     0.146 C 
ATOM     15  O   UNL     1      12.094 -56.645 -24.333  1.00  0.00    -0.298 OA
BRANCH  14  16
ATOM     16  C   UNL     1      10.364 -56.549 -22.670  1.00  0.00     0.123 C 
ATOM     17  C   UNL     1       9.108 -57.199 -23.263  1.00  0.00     0.059 C 
ATOM     18  S   UNL     1      11.253 -57.819 -21.709  1.00  0.00    -0.114 SA
ATOM     19  C   UNL     1       9.347 -58.682 -23.315  1.00  0.00    -0.029 A 
ATOM     20  C   UNL     1      10.398 -59.137 -22.523  1.00  0.00     0.015 A 
ATOM     21  C   UNL     1       8.574 -59.584 -24.043  1.00  0.00     0.055 A 
ATOM     22  C   UNL     1      10.714 -60.485 -22.442  1.00  0.00     0.065 A 
ATOM     23  C   UNL     1       8.879 -60.950 -23.983  1.00  0.00     0.161 A 
ATOM     24  C   UNL     1       9.952 -61.401 -23.176  1.00  0.00     0.161 A 
BRANCH  23  25
ATOM     25  O   UNL     1       8.200 -61.923 -24.673  1.00  0.00    -0.493 OA
ATOM     26  C   UNL     1       8.616 -62.206 -26.002  1.00  0.00     0.278 C 
ENDBRANCH  23  25
BRANCH  24  27
ATOM     27  O   UNL     1      10.185 -62.755 -23.189  1.00  0.00    -0.493 OA
ATOM     28  C   UNL     1       9.445 -63.559 -22.280  1.00  0.00     0.278 C 
ENDBRANCH  24  27
ENDBRANCH  14  16
ENDBRANCH  13  14
ENDBRANCH  12  13
ENDBRANCH   4  12
TORSDOF 10
ENDMDL
MODEL 9
REMARK VINA RESULT:    -7.938      3.067      4.938
REMARK INTER + INTRA:         -13.552
REMARK INTER:                 -12.788
REMARK INTRA:                  -0.764
REMARK UNBOUND:                -0.973
REMARK SMILES CCOCC[n+]1ccc(CCC(=O)[C@H]2Cc3cc(OC)c(OC)cc3S2)cc1
REMARK SMILES IDX 6 1 7 2 8 3 9 4 27 5 28 6 5 7 4 8 3 9 2 10 1 11 10 12 11 13
REMARK SMILES IDX 12 14 13 15 14 16 15 17 26 18 16 19 25 20 17 21 24 22 18 23
REMARK SMILES IDX 21 24 19 25 20 26 22 27 23 28
REMARK H PARENT
ROOT
ATOM      1  N   UNL     1      13.738 -50.574 -25.678  1.00  0.00    -0.203 N 
ATOM      2  C   UNL     1      13.669 -51.847 -26.131  1.00  0.00     0.308 A 
ATOM      3  C   UNL     1      13.023 -52.829 -25.388  1.00  0.00     0.074 A 
ATOM      4  C   UNL     1      12.439 -52.499 -24.165  1.00  0.00    -0.036 A 
ATOM      5  C   UNL     1      12.551 -51.185 -23.705  1.00  0.00     0.074 A 
ATOM      6  C   UNL     1      13.205 -50.236 -24.483  1.00  0.00     0.308 A 
ENDROOT
BRANCH   1   7
ATOM      7  C   UNL     1      14.396 -49.540 -26.503  1.00  0.00     0.385 C 
BRANCH   7   8
ATOM      8  C   UNL     1      15.912 -49.655 -26.375  1.00  0.00     0.233 C 
BRANCH   8   9
ATOM      9  O   UNL     1      16.438 -49.983 -27.657  1.00  0.00    -0.375 OA
BRANCH   9  10
ATOM     10  C   UNL     1      17.862 -49.890 -27.736  1.00  0.00     0.157 C 
ATOM     11  C   UNL     1      18.321 -49.548 -29.141  1.00  0.00     0.035 C 
ENDBRANCH   9  10
ENDBRANCH   8   9
ENDBRANCH   7   8
ENDBRANCH   1   7
BRANCH   4  12
ATOM     12  C   UNL     1      11.634 -53.515 -23.390  1.00  0.00     0.044 C 
BRANCH  12  13
ATOM     13  C   UNL     1      10.968 -54.570 -24.276  1.00  0.00     0.081 C 
BRANCH  13  14
ATOM     14  C   UNL     1      11.645 -55.934 -24.210  1.00  0.00     0.146 C 
ATOM     15  O   UNL     1      12.394 -56.282 -25.134  1.00  0.00    -0.298 OA
BRANCH  14  16
ATOM     16  C   UNL     1      11.357 -56.892 -23.056  1.00  0.00     0.123 C 
ATOM     17  C   UNL     1       9.923 -56.833 -22.516  1.00  0.00     0.059 C 
ATOM     18  S   UNL     1      11.688 -58.606 -23.583  1.00  0.00    -0.114 SA
ATOM     19  C   UNL     1       9.168 -57.990 -23.109  1.00  0.00    -0.029 A 
ATOM     20  C   UNL     1       9.964 -58.995 -23.653  1.00  0.00     0.015 A 
ATOM     21  C   UNL     1       7.781 -58.122 -23.096  1.00  0.00     0.055 A 
ATOM     22  C   UNL     1       9.409 -60.140 -24.203  1.00  0.00     0.065 A 
ATOM     23  C   UNL     1       7.198 -59.267 -23.652  1.00  0.00     0.161 A 
ATOM     24  C   UNL     1       8.017 -60.282 -24.205  1.00  0.00     0.161 A 
BRANCH  23  25
ATOM     25  O   UNL     1       5.845 -59.492 -23.712  1.00  0.00    -0.493 OA
ATOM     26  C   UNL     1       5.028 -58.893 -22.716  1.00  0.00     0.278 C 
ENDBRANCH  23  25
BRANCH  24  27
ATOM     27  O   UNL     1       7.356 -61.361 -24.739  1.00  0.00    -0.493 OA
ATOM     28  C   UNL     1       8.031 -62.612 -24.739  1.00  0.00     0.278 C 
ENDBRANCH  24  27
ENDBRANCH  14  16
ENDBRANCH  13  14
ENDBRANCH  12  13
ENDBRANCH   4  12
TORSDOF 10
ENDMDL
