MODEL 1
REMARK VINA RESULT:   -10.146      0.000      0.000
REMARK INTER + INTRA:         -11.124
REMARK INTER:                 -11.036
REMARK INTRA:                  -0.088
REMARK UNBOUND:                -0.088
REMARK SMILES CCC1=C[C@H]2Cc3nc4cc(Cl)ccc4c(N)c3[C@@H](C1)C2
REMARK SMILES IDX 3 1 4 2 5 3 6 4 7 5 8 6 9 7 10 8 11 9 12 10 13 11 14 12
REMARK SMILES IDX 15 13 16 14 18 15 19 16 20 17 21 18 2 19 1 20 17 21
REMARK H PARENT 17 22 17 23
ROOT
ATOM      1  C   UNL     1      10.139 -61.149 -24.562  1.00  0.00    -0.074 C 
ATOM      2  C   UNL     1      10.918 -60.818 -25.610  1.00  0.00    -0.024 C 
ATOM      3  C   UNL     1      12.332 -60.292 -25.465  1.00  0.00     0.018 C 
ATOM      4  C   UNL     1      12.359 -58.764 -25.593  1.00  0.00     0.064 C 
ATOM      5  C   UNL     1      11.911 -58.034 -24.345  1.00  0.00     0.047 A 
ATOM      6  N   UNL     1      11.742 -56.701 -24.501  1.00  0.00    -0.252 NA
ATOM      7  C   UNL     1      11.429 -55.957 -23.437  1.00  0.00     0.074 A 
ATOM      8  C   UNL     1      11.311 -54.588 -23.627  1.00  0.00     0.049 A 
ATOM      9  C   UNL     1      11.017 -53.733 -22.570  1.00  0.00     0.043 A 
ATOM     10  Cl  UNL     1      10.882 -52.040 -22.845  1.00  0.00    -0.084 Cl
ATOM     11  C   UNL     1      10.839 -54.239 -21.291  1.00  0.00     0.021 A 
ATOM     12  C   UNL     1      10.948 -55.614 -21.083  1.00  0.00     0.014 A 
ATOM     13  C   UNL     1      11.232 -56.504 -22.150  1.00  0.00     0.024 A 
ATOM     14  C   UNL     1      11.331 -57.917 -22.012  1.00  0.00     0.046 A 
ATOM     15  C   UNL     1      11.749 -58.689 -23.117  1.00  0.00     0.001 A 
ATOM     16  C   UNL     1      11.977 -60.194 -23.021  1.00  0.00     0.028 C 
ATOM     17  C   UNL     1      10.644 -60.972 -23.138  1.00  0.00     0.039 C 
ATOM     18  C   UNL     1      12.934 -60.679 -24.114  1.00  0.00     0.017 C 
ENDROOT
BRANCH   1  19
ATOM     19  C   UNL     1       8.731 -61.698 -24.662  1.00  0.00     0.027 C 
ATOM     20  C   UNL     1       8.475 -63.068 -24.045  1.00  0.00     0.008 C 
ENDBRANCH   1  19
BRANCH  14  21
ATOM     21  N   UNL     1      11.216 -58.517 -20.734  1.00  0.00    -0.398 N 
ATOM     22  H   UNL     1      11.625 -59.443 -20.670  1.00  0.00     0.156 HD
ATOM     23  H   UNL     1      10.267 -58.525 -20.376  1.00  0.00     0.156 HD
ENDBRANCH  14  21
TORSDOF 2
ENDMDL
MODEL 2
REMARK VINA RESULT:    -9.574      4.709      8.510
REMARK INTER + INTRA:         -10.501
REMARK INTER:                 -10.393
REMARK INTRA:                  -0.109
REMARK UNBOUND:                -0.088
REMARK SMILES CCC1=C[C@H]2Cc3nc4cc(Cl)ccc4c(N)c3[C@@H](C1)C2
REMARK SMILES IDX 3 1 4 2 5 3 6 4 7 5 8 6 9 7 10 8 11 9 12 10 13 11 14 12
REMARK SMILES IDX 15 13 16 14 18 15 19 16 20 17 21 18 2 19 1 20 17 21
REMARK H PARENT 17 22 17 23
ROOT
ATOM      1  C   UNL     1      15.905 -50.195 -24.001  1.00  0.00    -0.074 C 
ATOM      2  C   UNL     1      15.747 -50.535 -25.295  1.00  0.00    -0.024 C 
ATOM      3  C   UNL     1      14.452 -50.341 -26.056  1.00  0.00     0.018 C 
ATOM      4  C   UNL     1      13.661 -51.653 -26.126  1.00  0.00     0.064 C 
ATOM      5  C   UNL     1      12.915 -51.991 -24.853  1.00  0.00     0.047 A 
ATOM      6  N   UNL     1      12.375 -53.231 -24.827  1.00  0.00    -0.252 NA
ATOM      7  C   UNL     1      11.627 -53.592 -23.780  1.00  0.00     0.074 A 
ATOM      8  C   UNL     1      11.052 -54.853 -23.812  1.00  0.00     0.049 A 
ATOM      9  C   UNL     1      10.234 -55.302 -22.779  1.00  0.00     0.043 A 
ATOM     10  Cl  UNL     1       9.536 -56.872 -22.857  1.00  0.00    -0.084 Cl
ATOM     11  C   UNL     1       9.973 -54.485 -21.690  1.00  0.00     0.021 A 
ATOM     12  C   UNL     1      10.549 -53.216 -21.639  1.00  0.00     0.014 A 
ATOM     13  C   UNL     1      11.397 -52.746 -22.673  1.00  0.00     0.024 A 
ATOM     14  C   UNL     1      12.037 -51.474 -22.673  1.00  0.00     0.046 A 
ATOM     15  C   UNL     1      12.752 -51.061 -23.817  1.00  0.00     0.001 A 
ATOM     16  C   UNL     1      13.377 -49.675 -23.931  1.00  0.00     0.028 C 
ATOM     17  C   UNL     1      14.744 -49.615 -23.208  1.00  0.00     0.039 C 
ATOM     18  C   UNL     1      13.573 -49.277 -25.398  1.00  0.00     0.017 C 
ENDROOT
BRANCH   1  19
ATOM     19  C   UNL     1      17.187 -50.351 -23.210  1.00  0.00     0.027 C 
ATOM     20  C   UNL     1      17.214 -51.435 -22.139  1.00  0.00     0.008 C 
ENDBRANCH   1  19
BRANCH  14  21
ATOM     21  N   UNL     1      11.786 -50.552 -21.626  1.00  0.00    -0.398 N 
ATOM     22  H   UNL     1      12.539 -50.473 -20.952  1.00  0.00     0.156 HD
ATOM     23  H   UNL     1      10.904 -50.712 -21.152  1.00  0.00     0.156 HD
ENDBRANCH  14  21
TORSDOF 2
ENDMDL
MODEL 3
REMARK VINA RESULT:    -8.443      5.172      9.818
REMARK INTER + INTRA:          -9.271
REMARK INTER:                  -9.164
REMARK INTRA:                  -0.107
REMARK UNBOUND:                -0.088
REMARK SMILES CCC1=C[C@H]2Cc3nc4cc(Cl)ccc4c(N)c3[C@@H](C1)C2
REMARK SMILES IDX 3 1 4 2 5 3 6 4 7 5 8 6 9 7 10 8 11 9 12 10 13 11 14 12
REMARK SMILES IDX 15 13 16 14 18 15 19 16 20 17 21 18 2 19 1 20 17 21
REMARK H PARENT 17 22 17 23
ROOT
ATOM      1  C   UNL     1      14.005 -47.729 -22.199  1.00  0.00    -0.074 C 
ATOM      2  C   UNL     1      14.556 -48.039 -23.389  1.00  0.00    -0.024 C 
ATOM      3  C   UNL     1      13.742 -48.333 -24.633  1.00  0.00     0.018 C 
ATOM      4  C   UNL     1      13.614 -49.845 -24.854  1.00  0.00     0.064 C 
ATOM      5  C   UNL     1      12.584 -50.511 -23.969  1.00  0.00     0.047 A 
ATOM      6  N   UNL     1      12.594 -51.864 -24.009  1.00  0.00    -0.252 NA
ATOM      7  C   UNL     1      11.667 -52.542 -23.326  1.00  0.00     0.074 A 
ATOM      8  C   UNL     1      11.681 -53.924 -23.431  1.00  0.00     0.049 A 
ATOM      9  C   UNL     1      10.736 -54.709 -22.778  1.00  0.00     0.043 A 
ATOM     10  Cl  UNL     1      10.783 -56.421 -22.936  1.00  0.00    -0.084 Cl
ATOM     11  C   UNL     1       9.749 -54.116 -22.006  1.00  0.00     0.021 A 
ATOM     12  C   UNL     1       9.724 -52.726 -21.884  1.00  0.00     0.014 A 
ATOM     13  C   UNL     1      10.687 -51.910 -22.529  1.00  0.00     0.024 A 
ATOM     14  C   UNL     1      10.735 -50.491 -22.427  1.00  0.00     0.046 A 
ATOM     15  C   UNL     1      11.658 -49.774 -23.219  1.00  0.00     0.001 A 
ATOM     16  C   UNL     1      11.701 -48.250 -23.241  1.00  0.00     0.028 C 
ATOM     17  C   UNL     1      12.493 -47.693 -22.034  1.00  0.00     0.039 C 
ATOM     18  C   UNL     1      12.339 -47.734 -24.535  1.00  0.00     0.017 C 
ENDROOT
BRANCH   1  19
ATOM     19  C   UNL     1      14.780 -47.408 -20.938  1.00  0.00     0.027 C 
ATOM     20  C   UNL     1      13.969 -47.033 -19.702  1.00  0.00     0.008 C 
ENDBRANCH   1  19
BRANCH  14  21
ATOM     21  N   UNL     1       9.736 -49.796 -21.702  1.00  0.00    -0.398 N 
ATOM     22  H   UNL     1       8.864 -50.303 -21.605  1.00  0.00     0.156 HD
ATOM     23  H   UNL     1       9.562 -48.860 -22.052  1.00  0.00     0.156 HD
ENDBRANCH  14  21
TORSDOF 2
ENDMDL
MODEL 4
REMARK VINA RESULT:    -8.386      5.482      9.551
REMARK INTER + INTRA:          -9.209
REMARK INTER:                  -9.128
REMARK INTRA:                  -0.082
REMARK UNBOUND:                -0.088
REMARK SMILES CCC1=C[C@H]2Cc3nc4cc(Cl)ccc4c(N)c3[C@@H](C1)C2
REMARK SMILES IDX 3 1 4 2 5 3 6 4 7 5 8 6 9 7 10 8 11 9 12 10 13 11 14 12
REMARK SMILES IDX 15 13 16 14 18 15 19 16 20 17 21 18 2 19 1 20 17 21
REMARK H PARENT 17 22 17 23
ROOT
ATOM      1  C   UNL     1      16.277 -49.103 -24.491  1.00  0.00    -0.074 C 
ATOM      2  C   UNL     1      16.047 -49.509 -25.755  1.00  0.00    -0.024 C 
ATOM      3  C   UNL     1      14.700 -49.387 -26.438  1.00  0.00     0.018 C 
ATOM      4  C   UNL     1      13.946 -50.722 -26.394  1.00  0.00     0.064 C 
ATOM      5  C   UNL     1      13.294 -51.017 -25.061  1.00  0.00     0.047 A 
ATOM      6  N   UNL     1      12.793 -52.269 -24.942  1.00  0.00    -0.252 NA
ATOM      7  C   UNL     1      12.125 -52.598 -23.833  1.00  0.00     0.074 A 
ATOM      8  C   UNL     1      11.587 -53.874 -23.768  1.00  0.00     0.049 A 
ATOM      9  C   UNL     1      10.850 -54.294 -22.665  1.00  0.00     0.043 A 
ATOM     10  Cl  UNL     1      10.195 -55.884 -22.624  1.00  0.00    -0.084 Cl
ATOM     11  C   UNL     1      10.635 -53.433 -21.600  1.00  0.00     0.021 A 
ATOM     12  C   UNL     1      11.175 -52.148 -21.646  1.00  0.00     0.014 A 
ATOM     13  C   UNL     1      11.941 -51.706 -22.754  1.00  0.00     0.024 A 
ATOM     14  C   UNL     1      12.542 -50.419 -22.855  1.00  0.00     0.046 A 
ATOM     15  C   UNL     1      13.169 -50.043 -24.061  1.00  0.00     0.001 A 
ATOM     16  C   UNL     1      13.745 -48.648 -24.280  1.00  0.00     0.028 C 
ATOM     17  C   UNL     1      15.152 -48.517 -23.651  1.00  0.00     0.039 C 
ATOM     18  C   UNL     1      13.835 -48.316 -25.773  1.00  0.00     0.017 C 
ENDROOT
BRANCH   1  19
ATOM     19  C   UNL     1      17.612 -49.187 -23.779  1.00  0.00     0.027 C 
ATOM     20  C   UNL     1      18.780 -48.434 -24.405  1.00  0.00     0.008 C 
ENDBRANCH   1  19
BRANCH  14  21
ATOM     21  N   UNL     1      12.331 -49.455 -21.837  1.00  0.00    -0.398 N 
ATOM     22  H   UNL     1      12.523 -48.501 -22.122  1.00  0.00     0.156 HD
ATOM     23  H   UNL     1      12.815 -49.669 -20.973  1.00  0.00     0.156 HD
ENDBRANCH  14  21
TORSDOF 2
ENDMDL
MODEL 5
REMARK VINA RESULT:    -7.806      6.441      9.443
REMARK INTER + INTRA:          -8.579
REMARK INTER:                  -8.497
REMARK INTRA:                  -0.082
REMARK UNBOUND:                -0.088
REMARK SMILES CCC1=C[C@H]2Cc3nc4cc(Cl)ccc4c(N)c3[C@@H](C1)C2
REMARK SMILES IDX 3 1 4 2 5 3 6 4 7 5 8 6 9 7 10 8 11 9 12 10 13 11 14 12
REMARK SMILES IDX 15 13 16 14 18 15 19 16 20 17 21 18 2 19 1 20 17 21
REMARK H PARENT 17 22 17 23
ROOT
ATOM      1  C   UNL     1      12.418 -52.213 -23.844  1.00  0.00    -0.074 C 
ATOM      2  C   UNL     1      12.899 -51.967 -25.078  1.00  0.00    -0.024 C 
ATOM      3  C   UNL     1      14.097 -51.080 -25.345  1.00  0.00     0.018 C 
ATOM      4  C   UNL     1      13.650 -49.677 -25.775  1.00  0.00     0.064 C 
ATOM      5  C   UNL     1      13.196 -48.797 -24.630  1.00  0.00     0.047 A 
ATOM      6  N   UNL     1      12.617 -47.634 -25.007  1.00  0.00    -0.252 NA
ATOM      7  C   UNL     1      12.258 -46.753 -24.069  1.00  0.00     0.074 A 
ATOM      8  C   UNL     1      11.712 -45.552 -24.497  1.00  0.00     0.049 A 
ATOM      9  C   UNL     1      11.337 -44.564 -23.592  1.00  0.00     0.043 A 
ATOM     10  Cl  UNL     1      10.667 -43.086 -24.162  1.00  0.00    -0.084 Cl
ATOM     11  C   UNL     1      11.509 -44.763 -22.231  1.00  0.00     0.021 A 
ATOM     12  C   UNL     1      12.052 -45.967 -21.782  1.00  0.00     0.014 A 
ATOM     13  C   UNL     1      12.426 -46.993 -22.688  1.00  0.00     0.024 A 
ATOM     14  C   UNL     1      12.960 -48.253 -22.298  1.00  0.00     0.046 A 
ATOM     15  C   UNL     1      13.419 -49.144 -23.291  1.00  0.00     0.001 A 
ATOM     16  C   UNL     1      14.096 -50.467 -22.949  1.00  0.00     0.028 C 
ATOM     17  C   UNL     1      13.053 -51.563 -22.624  1.00  0.00     0.039 C 
ATOM     18  C   UNL     1      14.980 -50.950 -24.103  1.00  0.00     0.017 C 
ENDROOT
BRANCH   1  19
ATOM     19  C   UNL     1      11.238 -53.110 -23.532  1.00  0.00     0.027 C 
ATOM     20  C   UNL     1      11.327 -54.560 -23.995  1.00  0.00     0.008 C 
ENDBRANCH   1  19
BRANCH  14  21
ATOM     21  N   UNL     1      13.220 -48.524 -20.931  1.00  0.00    -0.398 N 
ATOM     22  H   UNL     1      13.748 -49.373 -20.768  1.00  0.00     0.156 HD
ATOM     23  H   UNL     1      12.387 -48.510 -20.353  1.00  0.00     0.156 HD
ENDBRANCH  14  21
TORSDOF 2
ENDMDL
MODEL 6
REMARK VINA RESULT:    -7.355      7.134     11.955
REMARK INTER + INTRA:          -8.087
REMARK INTER:                  -8.006
REMARK INTRA:                  -0.081
REMARK UNBOUND:                -0.088
REMARK SMILES CCC1=C[C@H]2Cc3nc4cc(Cl)ccc4c(N)c3[C@@H](C1)C2
REMARK SMILES IDX 3 1 4 2 5 3 6 4 7 5 8 6 9 7 10 8 11 9 12 10 13 11 14 12
REMARK SMILES IDX 15 13 16 14 18 15 19 16 20 17 21 18 2 19 1 20 17 21
REMARK H PARENT 17 22 17 23
ROOT
ATOM      1  C   UNL     1      13.432 -45.145 -22.199  1.00  0.00    -0.074 C 
ATOM      2  C   UNL     1      13.666 -44.783 -23.475  1.00  0.00    -0.024 C 
ATOM      3  C   UNL     1      12.705 -45.067 -24.612  1.00  0.00     0.018 C 
ATOM      4  C   UNL     1      13.147 -46.307 -25.400  1.00  0.00     0.064 C 
ATOM      5  C   UNL     1      12.809 -47.618 -24.726  1.00  0.00     0.047 A 
ATOM      6  N   UNL     1      13.360 -48.710 -25.305  1.00  0.00    -0.252 NA
ATOM      7  C   UNL     1      13.053 -49.921 -24.832  1.00  0.00     0.074 A 
ATOM      8  C   UNL     1      13.600 -51.017 -25.482  1.00  0.00     0.049 A 
ATOM      9  C   UNL     1      13.311 -52.317 -25.077  1.00  0.00     0.043 A 
ATOM     10  Cl  UNL     1      14.006 -53.651 -25.911  1.00  0.00    -0.084 Cl
ATOM     11  C   UNL     1      12.459 -52.542 -24.007  1.00  0.00     0.021 A 
ATOM     12  C   UNL     1      11.904 -51.451 -23.338  1.00  0.00     0.014 A 
ATOM     13  C   UNL     1      12.198 -50.118 -23.725  1.00  0.00     0.024 A 
ATOM     14  C   UNL     1      11.688 -48.961 -23.072  1.00  0.00     0.046 A 
ATOM     15  C   UNL     1      11.942 -47.689 -23.627  1.00  0.00     0.001 A 
ATOM     16  C   UNL     1      11.347 -46.412 -23.043  1.00  0.00     0.028 C 
ATOM     17  C   UNL     1      12.170 -45.911 -21.832  1.00  0.00     0.039 C 
ATOM     18  C   UNL     1      11.285 -45.300 -24.095  1.00  0.00     0.017 C 
ENDROOT
BRANCH   1  19
ATOM     19  C   UNL     1      14.354 -44.861 -21.031  1.00  0.00     0.027 C 
ATOM     20  C   UNL     1      15.112 -43.539 -21.051  1.00  0.00     0.008 C 
ENDBRANCH   1  19
BRANCH  14  21
ATOM     21  N   UNL     1      10.768 -49.095 -22.003  1.00  0.00    -0.398 N 
ATOM     22  H   UNL     1      10.258 -49.971 -22.000  1.00  0.00     0.156 HD
ATOM     23  H   UNL     1      10.127 -48.313 -21.922  1.00  0.00     0.156 HD
ENDBRANCH  14  21
TORSDOF 2
ENDMDL
