MODEL 1
REMARK VINA RESULT:    -8.544      0.000      0.000
REMARK INTER + INTRA:          -8.793
REMARK INTER:                  -8.793
REMARK INTRA:                   0.000
REMARK UNBOUND:                 0.000
REMARK SMILES Nc1c2c(nc3ccccc13)CCCC2
REMARK SMILES IDX 1 1 2 4 3 5 11 6 4 7 15 8 10 9 6 10 5 11 12 12 14 13 9 14
REMARK SMILES IDX 7 15 13 16 8 17
REMARK H PARENT 1 2 1 3
ROOT
ATOM      1  N   UNL     1      11.540 -50.335 -21.881  1.00  0.00    -0.398 N 
ATOM      2  H   UNL     1      10.720 -50.633 -21.363  1.00  0.00     0.156 HD
ATOM      3  H   UNL     1      12.299 -50.131 -21.233  1.00  0.00     0.156 HD
ENDROOT
BRANCH   1   4
ATOM      4  C   UNL     1      11.966 -51.299 -22.833  1.00  0.00     0.046 A 
ATOM      5  C   UNL     1      11.497 -52.618 -22.696  1.00  0.00    -0.003 A 
ATOM      6  C   UNL     1      12.659 -50.916 -24.013  1.00  0.00     0.023 A 
ATOM      7  C   UNL     1      11.794 -53.525 -23.714  1.00  0.00     0.046 A 
ATOM      8  C   UNL     1      10.662 -53.025 -21.505  1.00  0.00     0.039 C 
ATOM      9  C   UNL     1      13.104 -49.598 -24.291  1.00  0.00     0.012 A 
ATOM     10  C   UNL     1      12.915 -51.925 -24.965  1.00  0.00     0.073 A 
ATOM     11  N   UNL     1      12.506 -53.191 -24.814  1.00  0.00    -0.252 NA
ATOM     12  C   UNL     1      11.378 -54.971 -23.630  1.00  0.00     0.056 C 
ATOM     13  C   UNL     1      10.541 -54.538 -21.322  1.00  0.00     0.005 C 
ATOM     14  C   UNL     1      13.795 -49.296 -25.465  1.00  0.00     0.001 A 
ATOM     15  C   UNL     1      13.608 -51.600 -26.124  1.00  0.00     0.029 A 
ATOM     16  C   UNL     1      10.235 -55.213 -22.650  1.00  0.00     0.007 C 
ATOM     17  C   UNL     1      14.051 -50.303 -26.384  1.00  0.00     0.002 A 
ENDBRANCH   1   4
TORSDOF 1
ENDMDL
MODEL 2
REMARK VINA RESULT:    -8.468      0.691      2.555
REMARK INTER + INTRA:          -8.715
REMARK INTER:                  -8.715
REMARK INTRA:                   0.000
REMARK UNBOUND:                 0.000
REMARK SMILES Nc1c2c(nc3ccccc13)CCCC2
REMARK SMILES IDX 1 1 2 4 3 5 11 6 4 7 15 8 10 9 6 10 5 11 12 12 14 13 9 14
REMARK SMILES IDX 7 15 13 16 8 17
REMARK H PARENT 1 2 1 3
ROOT
ATOM      1  N   UNL     1      12.758 -54.403 -25.724  1.00  0.00    -0.398 N 
ATOM      2  H   UNL     1      12.280 -54.383 -26.619  1.00  0.00     0.156 HD
ATOM      3  H   UNL     1      13.766 -54.399 -25.874  1.00  0.00     0.156 HD
ENDROOT
BRANCH   1   4
ATOM      4  C   UNL     1      12.392 -53.320 -24.883  1.00  0.00     0.046 A 
ATOM      5  C   UNL     1      11.688 -53.608 -23.699  1.00  0.00    -0.003 A 
ATOM      6  C   UNL     1      12.904 -52.011 -25.098  1.00  0.00     0.023 A 
ATOM      7  C   UNL     1      11.464 -52.563 -22.803  1.00  0.00     0.046 A 
ATOM      8  C   UNL     1      11.230 -55.014 -23.392  1.00  0.00     0.039 C 
ATOM      9  C   UNL     1      13.693 -51.631 -26.213  1.00  0.00     0.012 A 
ATOM     10  C   UNL     1      12.597 -51.033 -24.128  1.00  0.00     0.073 A 
ATOM     11  N   UNL     1      11.890 -51.298 -23.023  1.00  0.00    -0.252 NA
ATOM     12  C   UNL     1      10.674 -52.765 -21.535  1.00  0.00     0.056 C 
ATOM     13  C   UNL     1      10.189 -55.096 -22.276  1.00  0.00     0.005 C 
ATOM     14  C   UNL     1      14.149 -50.321 -26.369  1.00  0.00     0.001 A 
ATOM     15  C   UNL     1      13.058 -49.736 -24.309  1.00  0.00     0.029 A 
ATOM     16  C   UNL     1      10.600 -54.224 -21.099  1.00  0.00     0.007 C 
ATOM     17  C   UNL     1      13.826 -49.369 -25.414  1.00  0.00     0.002 A 
ENDBRANCH   1   4
TORSDOF 1
ENDMDL
MODEL 3
REMARK VINA RESULT:    -8.458      0.260      4.726
REMARK INTER + INTRA:          -8.705
REMARK INTER:                  -8.705
REMARK INTRA:                   0.000
REMARK UNBOUND:                 0.000
REMARK SMILES Nc1c2c(nc3ccccc13)CCCC2
REMARK SMILES IDX 1 1 2 4 3 5 11 6 4 7 15 8 10 9 6 10 5 11 12 12 14 13 9 14
REMARK SMILES IDX 7 15 13 16 8 17
REMARK H PARENT 1 2 1 3
ROOT
ATOM      1  N   UNL     1      11.761 -50.352 -21.675  1.00  0.00    -0.398 N 
ATOM      2  H   UNL     1      11.386 -50.784 -20.837  1.00  0.00     0.156 HD
ATOM      3  H   UNL     1      12.671 -49.941 -21.471  1.00  0.00     0.156 HD
ENDROOT
BRANCH   1   4
ATOM      4  C   UNL     1      11.878 -51.266 -22.756  1.00  0.00     0.046 A 
ATOM      5  C   UNL     1      12.634 -50.874 -23.876  1.00  0.00    -0.003 A 
ATOM      6  C   UNL     1      11.443 -52.613 -22.636  1.00  0.00     0.023 A 
ATOM      7  C   UNL     1      12.872 -51.826 -24.868  1.00  0.00     0.046 A 
ATOM      8  C   UNL     1      13.203 -49.479 -23.978  1.00  0.00     0.039 C 
ATOM      9  C   UNL     1      10.747 -53.135 -21.516  1.00  0.00     0.012 A 
ATOM     10  C   UNL     1      11.730 -53.480 -23.711  1.00  0.00     0.073 A 
ATOM     11  N   UNL     1      12.412 -53.095 -24.797  1.00  0.00    -0.252 NA
ATOM     12  C   UNL     1      13.626 -51.483 -26.127  1.00  0.00     0.056 C 
ATOM     13  C   UNL     1      13.677 -49.104 -25.382  1.00  0.00     0.005 C 
ATOM     14  C   UNL     1      10.335 -54.468 -21.472  1.00  0.00     0.001 A 
ATOM     15  C   UNL     1      11.305 -54.800 -23.646  1.00  0.00     0.029 A 
ATOM     16  C   UNL     1      14.493 -50.236 -25.989  1.00  0.00     0.007 C 
ATOM     17  C   UNL     1      10.612 -55.303 -22.544  1.00  0.00     0.002 A 
ENDBRANCH   1   4
TORSDOF 1
ENDMDL
MODEL 4
REMARK VINA RESULT:    -8.206      8.415     10.879
REMARK INTER + INTRA:          -8.445
REMARK INTER:                  -8.445
REMARK INTRA:                   0.000
REMARK UNBOUND:                 0.000
REMARK SMILES Nc1c2c(nc3ccccc13)CCCC2
REMARK SMILES IDX 1 1 2 4 3 5 11 6 4 7 15 8 10 9 6 10 5 11 12 12 14 13 9 14
REMARK SMILES IDX 7 15 13 16 8 17
REMARK H PARENT 1 2 1 3
ROOT
ATOM      1  N   UNL     1      12.202 -60.992 -23.502  1.00  0.00    -0.398 N 
ATOM      2  H   UNL     1      11.920 -60.826 -22.542  1.00  0.00     0.156 HD
ATOM      3  H   UNL     1      12.848 -61.779 -23.539  1.00  0.00     0.156 HD
ENDROOT
BRANCH   1   4
ATOM      4  C   UNL     1      11.099 -61.234 -24.364  1.00  0.00     0.046 A 
ATOM      5  C   UNL     1      11.171 -60.753 -25.683  1.00  0.00    -0.003 A 
ATOM      6  C   UNL     1      10.053 -62.121 -23.993  1.00  0.00     0.023 A 
ATOM      7  C   UNL     1      10.158 -61.121 -26.569  1.00  0.00     0.046 A 
ATOM      8  C   UNL     1      12.332 -59.900 -26.136  1.00  0.00     0.039 C 
ATOM      9  C   UNL     1       9.929 -62.728 -22.717  1.00  0.00     0.012 A 
ATOM     10  C   UNL     1       9.076 -62.407 -24.969  1.00  0.00     0.073 A 
ATOM     11  N   UNL     1       9.120 -61.913 -26.213  1.00  0.00    -0.252 NA
ATOM     12  C   UNL     1      10.123 -60.611 -27.986  1.00  0.00     0.056 C 
ATOM     13  C   UNL     1      12.088 -59.172 -27.458  1.00  0.00     0.005 C 
ATOM     14  C   UNL     1       8.864 -63.578 -22.416  1.00  0.00     0.001 A 
ATOM     15  C   UNL     1       8.023 -63.252 -24.644  1.00  0.00     0.029 A 
ATOM     16  C   UNL     1      11.477 -60.116 -28.482  1.00  0.00     0.007 C 
ATOM     17  C   UNL     1       7.904 -63.837 -23.383  1.00  0.00     0.002 A 
ENDBRANCH   1   4
TORSDOF 1
ENDMDL
MODEL 5
REMARK VINA RESULT:    -8.183      0.689      5.348
REMARK INTER + INTRA:          -8.422
REMARK INTER:                  -8.422
REMARK INTRA:                   0.000
REMARK UNBOUND:                 0.000
REMARK SMILES Nc1c2c(nc3ccccc13)CCCC2
REMARK SMILES IDX 1 1 2 4 3 5 11 6 4 7 15 8 10 9 6 10 5 11 12 12 14 13 9 14
REMARK SMILES IDX 7 15 13 16 8 17
REMARK H PARENT 1 2 1 3
ROOT
ATOM      1  N   UNL     1      12.781 -54.041 -25.895  1.00  0.00    -0.398 N 
ATOM      2  H   UNL     1      12.434 -53.667 -26.771  1.00  0.00     0.156 HD
ATOM      3  H   UNL     1      13.781 -54.223 -25.971  1.00  0.00     0.156 HD
ENDROOT
BRANCH   1   4
ATOM      4  C   UNL     1      12.532 -53.179 -24.794  1.00  0.00     0.046 A 
ATOM      5  C   UNL     1      12.927 -51.833 -24.904  1.00  0.00    -0.003 A 
ATOM      6  C   UNL     1      11.715 -53.587 -23.705  1.00  0.00     0.023 A 
ATOM      7  C   UNL     1      12.546 -50.957 -23.887  1.00  0.00     0.046 A 
ATOM      8  C   UNL     1      13.700 -51.347 -26.106  1.00  0.00     0.039 C 
ATOM      9  C   UNL     1      11.195 -54.896 -23.539  1.00  0.00     0.012 A 
ATOM     10  C   UNL     1      11.410 -52.615 -22.730  1.00  0.00     0.073 A 
ATOM     11  N   UNL     1      11.822 -51.344 -22.812  1.00  0.00    -0.252 NA
ATOM     12  C   UNL     1      12.968 -49.510 -23.893  1.00  0.00     0.056 C 
ATOM     13  C   UNL     1      14.354 -49.979 -25.911  1.00  0.00     0.005 C 
ATOM     14  C   UNL     1      10.411 -55.233 -22.434  1.00  0.00     0.001 A 
ATOM     15  C   UNL     1      10.632 -52.975 -21.638  1.00  0.00     0.029 A 
ATOM     16  C   UNL     1      13.373 -49.006 -25.274  1.00  0.00     0.007 C 
ATOM     17  C   UNL     1      10.132 -54.268 -21.477  1.00  0.00     0.002 A 
ENDBRANCH   1   4
TORSDOF 1
ENDMDL
MODEL 6
REMARK VINA RESULT:    -8.035      5.752      8.481
REMARK INTER + INTRA:          -8.270
REMARK INTER:                  -8.270
REMARK INTRA:                   0.000
REMARK UNBOUND:                 0.000
REMARK SMILES Nc1c2c(nc3ccccc13)CCCC2
REMARK SMILES IDX 1 1 2 4 3 5 11 6 4 7 15 8 10 9 6 10 5 11 12 12 14 13 9 14
REMARK SMILES IDX 7 15 13 16 8 17
REMARK H PARENT 1 2 1 3
ROOT
ATOM      1  N   UNL     1      11.972 -60.806 -23.496  1.00  0.00    -0.398 N 
ATOM      2  H   UNL     1      12.542 -60.439 -22.741  1.00  0.00     0.156 HD
ATOM      3  H   UNL     1      11.871 -61.814 -23.390  1.00  0.00     0.156 HD
ENDROOT
BRANCH   1   4
ATOM      4  C   UNL     1      10.691 -60.197 -23.559  1.00  0.00     0.046 A 
ATOM      5  C   UNL     1       9.563 -61.034 -23.648  1.00  0.00    -0.003 A 
ATOM      6  C   UNL     1      10.519 -58.808 -23.317  1.00  0.00     0.023 A 
ATOM      7  C   UNL     1       8.303 -60.443 -23.557  1.00  0.00     0.046 A 
ATOM      8  C   UNL     1       9.717 -62.530 -23.793  1.00  0.00     0.039 C 
ATOM      9  C   UNL     1      11.583 -57.888 -23.130  1.00  0.00     0.012 A 
ATOM     10  C   UNL     1       9.196 -58.323 -23.262  1.00  0.00     0.073 A 
ATOM     11  N   UNL     1       8.122 -59.113 -23.390  1.00  0.00    -0.252 NA
ATOM     12  C   UNL     1       7.039 -61.252 -23.695  1.00  0.00     0.056 C 
ATOM     13  C   UNL     1       8.439 -63.244 -24.232  1.00  0.00     0.005 C 
ATOM     14  C   UNL     1      11.341 -56.531 -22.913  1.00  0.00     0.001 A 
ATOM     15  C   UNL     1       8.981 -56.967 -23.049  1.00  0.00     0.029 A 
ATOM     16  C   UNL     1       7.245 -62.740 -23.434  1.00  0.00     0.007 C 
ATOM     17  C   UNL     1      10.034 -56.068 -22.876  1.00  0.00     0.002 A 
ENDBRANCH   1   4
TORSDOF 1
ENDMDL
MODEL 7
REMARK VINA RESULT:    -7.126      1.541      5.137
REMARK INTER + INTRA:          -7.334
REMARK INTER:                  -7.334
REMARK INTRA:                   0.000
REMARK UNBOUND:                 0.000
REMARK SMILES Nc1c2c(nc3ccccc13)CCCC2
REMARK SMILES IDX 1 1 2 4 3 5 11 6 4 7 15 8 10 9 6 10 5 11 12 12 14 13 9 14
REMARK SMILES IDX 7 15 13 16 8 17
REMARK H PARENT 1 2 1 3
ROOT
ATOM      1  N   UNL     1      14.129 -51.266 -26.509  1.00  0.00    -0.398 N 
ATOM      2  H   UNL     1      15.136 -51.253 -26.391  1.00  0.00     0.156 HD
ATOM      3  H   UNL     1      13.857 -52.086 -27.047  1.00  0.00     0.156 HD
ENDROOT
BRANCH   1   4
ATOM      4  C   UNL     1      13.433 -51.250 -25.271  1.00  0.00     0.046 A 
ATOM      5  C   UNL     1      13.240 -50.010 -24.635  1.00  0.00    -0.003 A 
ATOM      6  C   UNL     1      12.756 -52.402 -24.789  1.00  0.00     0.023 A 
ATOM      7  C   UNL     1      12.428 -49.978 -23.500  1.00  0.00     0.046 A 
ATOM      8  C   UNL     1      13.857 -48.749 -25.190  1.00  0.00     0.039 C 
ATOM      9  C   UNL     1      12.814 -53.682 -25.398  1.00  0.00     0.012 A 
ATOM     10  C   UNL     1      11.976 -52.250 -23.623  1.00  0.00     0.073 A 
ATOM     11  N   UNL     1      11.827 -51.078 -22.993  1.00  0.00    -0.252 NA
ATOM     12  C   UNL     1      12.206 -48.706 -22.724  1.00  0.00     0.056 C 
ATOM     13  C   UNL     1      13.857 -47.576 -24.210  1.00  0.00     0.005 C 
ATOM     14  C   UNL     1      12.135 -54.776 -24.860  1.00  0.00     0.001 A 
ATOM     15  C   UNL     1      11.313 -53.355 -23.104  1.00  0.00     0.029 A 
ATOM     16  C   UNL     1      12.502 -47.448 -23.532  1.00  0.00     0.007 C 
ATOM     17  C   UNL     1      11.385 -54.612 -23.705  1.00  0.00     0.002 A 
ENDBRANCH   1   4
TORSDOF 1
ENDMDL
MODEL 8
REMARK VINA RESULT:    -7.097      2.158      3.016
REMARK INTER + INTRA:          -7.305
REMARK INTER:                  -7.305
REMARK INTRA:                   0.000
REMARK UNBOUND:                 0.000
REMARK SMILES Nc1c2c(nc3ccccc13)CCCC2
REMARK SMILES IDX 1 1 2 4 3 5 11 6 4 7 15 8 10 9 6 10 5 11 12 12 14 13 9 14
REMARK SMILES IDX 7 15 13 16 8 17
REMARK H PARENT 1 2 1 3
ROOT
ATOM      1  N   UNL     1      10.059 -48.196 -22.069  1.00  0.00    -0.398 N 
ATOM      2  H   UNL     1       9.371 -48.886 -21.786  1.00  0.00     0.156 HD
ATOM      3  H   UNL     1      10.413 -47.707 -21.248  1.00  0.00     0.156 HD
ENDROOT
BRANCH   1   4
ATOM      4  C   UNL     1      11.140 -48.765 -22.793  1.00  0.00     0.046 A 
ATOM      5  C   UNL     1      11.282 -50.164 -22.780  1.00  0.00    -0.003 A 
ATOM      6  C   UNL     1      11.924 -47.985 -23.686  1.00  0.00     0.023 A 
ATOM      7  C   UNL     1      12.249 -50.730 -23.612  1.00  0.00     0.046 A 
ATOM      8  C   UNL     1      10.386 -51.027 -21.925  1.00  0.00     0.039 C 
ATOM      9  C   UNL     1      11.807 -46.580 -23.840  1.00  0.00     0.012 A 
ATOM     10  C   UNL     1      12.882 -48.667 -24.465  1.00  0.00     0.073 A 
ATOM     11  N   UNL     1      13.047 -49.995 -24.420  1.00  0.00    -0.252 NA
ATOM     12  C   UNL     1      12.509 -52.214 -23.626  1.00  0.00     0.056 C 
ATOM     13  C   UNL     1      10.891 -52.459 -21.745  1.00  0.00     0.005 C 
ATOM     14  C   UNL     1      12.623 -45.874 -24.725  1.00  0.00     0.001 A 
ATOM     15  C   UNL     1      13.685 -47.942 -25.335  1.00  0.00     0.029 A 
ATOM     16  C   UNL     1      11.347 -53.034 -23.078  1.00  0.00     0.007 C 
ATOM     17  C   UNL     1      13.569 -46.559 -25.473  1.00  0.00     0.002 A 
ENDBRANCH   1   4
TORSDOF 1
ENDMDL
MODEL 9
REMARK VINA RESULT:    -6.998      3.571      6.476
REMARK INTER + INTRA:          -7.202
REMARK INTER:                  -7.202
REMARK INTRA:                   0.000
REMARK UNBOUND:                 0.000
REMARK SMILES Nc1c2c(nc3ccccc13)CCCC2
REMARK SMILES IDX 1 1 2 4 3 5 11 6 4 7 15 8 10 9 6 10 5 11 12 12 14 13 9 14
REMARK SMILES IDX 7 15 13 16 8 17
REMARK H PARENT 1 2 1 3
ROOT
ATOM      1  N   UNL     1      11.007 -57.541 -21.099  1.00  0.00    -0.398 N 
ATOM      2  H   UNL     1      10.300 -56.911 -20.735  1.00  0.00     0.156 HD
ATOM      3  H   UNL     1      10.703 -58.505 -20.978  1.00  0.00     0.156 HD
ENDROOT
BRANCH   1   4
ATOM      4  C   UNL     1      11.305 -57.298 -22.466  1.00  0.00     0.046 A 
ATOM      5  C   UNL     1      11.375 -55.963 -22.902  1.00  0.00    -0.003 A 
ATOM      6  C   UNL     1      11.739 -58.344 -23.325  1.00  0.00     0.023 A 
ATOM      7  C   UNL     1      11.815 -55.724 -24.205  1.00  0.00     0.046 A 
ATOM      8  C   UNL     1      11.026 -54.824 -21.974  1.00  0.00     0.039 C 
ATOM      9  C   UNL     1      11.788 -59.714 -22.962  1.00  0.00     0.012 A 
ATOM     10  C   UNL     1      12.147 -57.980 -24.626  1.00  0.00     0.073 A 
ATOM     11  N   UNL     1      12.172 -56.712 -25.055  1.00  0.00    -0.252 NA
ATOM     12  C   UNL     1      11.873 -54.330 -24.776  1.00  0.00     0.056 C 
ATOM     13  C   UNL     1      10.806 -53.489 -22.685  1.00  0.00     0.005 C 
ATOM     14  C   UNL     1      12.210 -60.691 -23.863  1.00  0.00     0.001 A 
ATOM     15  C   UNL     1      12.559 -58.972 -25.506  1.00  0.00     0.029 A 
ATOM     16  C   UNL     1      11.905 -53.242 -23.708  1.00  0.00     0.007 C 
ATOM     17  C   UNL     1      12.594 -60.319 -25.143  1.00  0.00     0.002 A 
ENDBRANCH   1   4
TORSDOF 1
ENDMDL
