MODEL 1
REMARK VINA RESULT:   -12.726      0.000      0.000
REMARK INTER + INTRA:         -18.821
REMARK INTER:                 -17.934
REMARK INTRA:                  -0.887
REMARK UNBOUND:                -0.887
REMARK SMILES Cc1cc(=O)[nH]c2c1C(=O)C(NCCCCN=c1c3c([nH]c4cc(Cl)ccc14)CCCC3)=CC2=O
REMARK SMILES IDX 15 1 16 2 17 3 18 4 21 5 20 6 22 7 19 8 29 9 23 10 28 11
REMARK SMILES IDX 32 12 30 13 24 14 27 15 31 16 26 17 25 19 14 20 13 21 12 22
REMARK SMILES IDX 11 24 33 25 9 26 34 27 8 28 7 29 2 30 6 31 3 32 4 33 10 34
REMARK SMILES IDX 35 35 1 36 5 38
REMARK H PARENT 21 18 12 23 6 37
ROOT
ATOM      1  C   UNL     1      11.891 -59.407 -22.344  1.00  0.00     0.025 C 
ENDROOT
BRANCH   1   2
ATOM      2  C   UNL     1      10.848 -60.523 -22.461  1.00  0.00     0.143 C 
BRANCH   2   3
ATOM      3  N   UNL     1      11.149 -61.314 -23.637  1.00  0.00    -0.284 NA
BRANCH   3   4
ATOM      4  C   UNL     1      10.552 -61.225 -24.779  1.00  0.00     0.072 A 
ATOM      5  N   UNL     1       9.531 -61.921 -27.310  1.00  0.00    -0.358 N 
ATOM      6  C   UNL     1       8.877 -62.353 -26.176  1.00  0.00     0.021 A 
ATOM      7  C   UNL     1      10.451 -60.861 -27.241  1.00  0.00     0.049 A 
ATOM      8  C   UNL     1       9.289 -62.035 -24.933  1.00  0.00    -0.003 A 
ATOM      9  C   UNL     1       7.660 -63.228 -26.395  1.00  0.00     0.054 C 
ATOM     10  C   UNL     1      10.871 -60.227 -28.417  1.00  0.00     0.047 A 
ATOM     11  C   UNL     1      10.969 -60.450 -25.996  1.00  0.00     0.024 A 
ATOM     12  C   UNL     1       8.596 -62.489 -23.676  1.00  0.00     0.039 C 
ATOM     13  C   UNL     1       7.194 -63.971 -25.142  1.00  0.00     0.007 C 
ATOM     14  C   UNL     1      11.734 -59.136 -28.350  1.00  0.00     0.043 A 
ATOM     15  C   UNL     1      11.791 -59.318 -25.944  1.00  0.00     0.014 A 
ATOM     16  C   UNL     1       7.196 -63.047 -23.930  1.00  0.00     0.005 C 
ATOM     17  C   UNL     1      12.181 -58.667 -27.118  1.00  0.00     0.021 A 
ATOM     18  H   UNL     1       9.044 -62.051 -28.192  1.00  0.00     0.166 HD
ATOM     19  Cl  UNL     1      12.226 -58.344 -29.794  1.00  0.00    -0.084 Cl
ENDBRANCH   3   4
ENDBRANCH   2   3
ENDBRANCH   1   2
BRANCH   1  20
ATOM     20  C   UNL     1      11.281 -58.093 -21.842  1.00  0.00     0.023 C 
BRANCH  20  21
ATOM     21  C   UNL     1      10.128 -57.613 -22.721  1.00  0.00     0.113 C 
BRANCH  21  22
ATOM     22  N   UNL     1      10.571 -56.553 -23.614  1.00  0.00    -0.382 N 
ATOM     23  H   UNL     1      11.221 -56.862 -24.347  1.00  0.00     0.160 HD
BRANCH  22  24
ATOM     24  C   UNL     1      10.846 -55.238 -23.247  1.00  0.00     0.087 C 
ATOM     25  C   UNL     1      10.393 -54.629 -22.148  1.00  0.00     0.084 C 
ATOM     26  C   UNL     1      11.735 -54.476 -24.206  1.00  0.00     0.211 C 
ATOM     27  C   UNL     1      10.714 -53.233 -21.834  1.00  0.00     0.205 C 
ATOM     28  C   UNL     1      12.027 -53.032 -23.934  1.00  0.00     0.055 A 
ATOM     29  C   UNL     1      11.539 -52.479 -22.809  1.00  0.00     0.101 A 
ATOM     30  C   UNL     1      12.832 -52.190 -24.836  1.00  0.00    -0.032 A 
ATOM     31  N   UNL     1      11.786 -51.159 -22.500  1.00  0.00    -0.319 N 
ATOM     32  C   UNL     1      13.065 -50.902 -24.520  1.00  0.00     0.075 A 
ATOM     33  C   UNL     1      12.524 -50.311 -23.274  1.00  0.00     0.248 A 
ATOM     34  O   UNL     1      12.203 -55.078 -25.172  1.00  0.00    -0.287 OA
ATOM     35  O   UNL     1      10.305 -52.710 -20.802  1.00  0.00    -0.288 OA
ATOM     36  C   UNL     1      13.391 -52.753 -26.114  1.00  0.00     0.045 C 
ATOM     37  H   UNL     1      11.398 -50.786 -21.636  1.00  0.00     0.170 HD
ATOM     38  O   UNL     1      12.735 -49.142 -22.981  1.00  0.00    -0.270 OA
ENDBRANCH  22  24
ENDBRANCH  21  22
ENDBRANCH  20  21
ENDBRANCH   1  20
TORSDOF 7
ENDMDL
MODEL 2
REMARK VINA RESULT:   -12.468      1.886      3.640
REMARK INTER + INTRA:         -18.457
REMARK INTER:                 -17.295
REMARK INTRA:                  -1.162
REMARK UNBOUND:                -0.887
REMARK SMILES Cc1cc(=O)[nH]c2c1C(=O)C(NCCCCN=c1c3c([nH]c4cc(Cl)ccc14)CCCC3)=CC2=O
REMARK SMILES IDX 15 1 16 2 17 3 18 4 21 5 20 6 22 7 19 8 29 9 23 10 28 11
REMARK SMILES IDX 32 12 30 13 24 14 27 15 31 16 26 17 25 19 14 20 13 21 12 22
REMARK SMILES IDX 11 24 33 25 9 26 34 27 8 28 7 29 2 30 6 31 3 32 4 33 10 34
REMARK SMILES IDX 35 35 1 36 5 38
REMARK H PARENT 21 18 12 23 6 37
ROOT
ATOM      1  C   UNL     1      11.113 -59.280 -21.190  1.00  0.00     0.025 C 
ENDROOT
BRANCH   1   2
ATOM      2  C   UNL     1      10.059 -60.205 -21.806  1.00  0.00     0.143 C 
BRANCH   2   3
ATOM      3  N   UNL     1      10.730 -61.159 -22.665  1.00  0.00    -0.284 NA
BRANCH   3   4
ATOM      4  C   UNL     1      10.336 -61.522 -23.841  1.00  0.00     0.072 A 
ATOM      5  N   UNL     1       9.215 -61.415 -26.422  1.00  0.00    -0.358 N 
ATOM      6  C   UNL     1      10.466 -60.876 -26.206  1.00  0.00     0.021 A 
ATOM      7  C   UNL     1       8.663 -62.323 -25.502  1.00  0.00     0.049 A 
ATOM      8  C   UNL     1      11.077 -60.917 -25.006  1.00  0.00    -0.003 A 
ATOM      9  C   UNL     1      11.125 -60.213 -27.398  1.00  0.00     0.054 C 
ATOM     10  C   UNL     1       7.554 -63.097 -25.869  1.00  0.00     0.047 A 
ATOM     11  C   UNL     1       9.206 -62.440 -24.207  1.00  0.00     0.024 A 
ATOM     12  C   UNL     1      12.442 -60.339 -24.739  1.00  0.00     0.039 C 
ATOM     13  C   UNL     1      12.317 -59.325 -27.034  1.00  0.00     0.007 C 
ATOM     14  C   UNL     1       7.041 -64.042 -24.983  1.00  0.00     0.043 A 
ATOM     15  C   UNL     1       8.713 -63.433 -23.352  1.00  0.00     0.014 A 
ATOM     16  C   UNL     1      13.217 -60.014 -26.016  1.00  0.00     0.005 C 
ATOM     17  C   UNL     1       7.627 -64.227 -23.735  1.00  0.00     0.021 A 
ATOM     18  H   UNL     1       8.921 -61.505 -27.390  1.00  0.00     0.166 HD
ATOM     19  Cl  UNL     1       5.697 -65.008 -25.448  1.00  0.00    -0.084 Cl
ENDBRANCH   3   4
ENDBRANCH   2   3
ENDBRANCH   1   2
BRANCH   1  20
ATOM     20  C   UNL     1      11.355 -58.027 -22.040  1.00  0.00     0.023 C 
BRANCH  20  21
ATOM     21  C   UNL     1      10.107 -57.596 -22.809  1.00  0.00     0.113 C 
BRANCH  21  22
ATOM     22  N   UNL     1      10.405 -56.474 -23.685  1.00  0.00    -0.382 N 
ATOM     23  H   UNL     1      10.920 -56.728 -24.537  1.00  0.00     0.160 HD
BRANCH  22  24
ATOM     24  C   UNL     1      10.755 -55.189 -23.276  1.00  0.00     0.087 C 
ATOM     25  C   UNL     1      10.352 -54.598 -22.147  1.00  0.00     0.084 C 
ATOM     26  C   UNL     1      11.666 -54.438 -24.222  1.00  0.00     0.211 C 
ATOM     27  C   UNL     1      10.750 -53.234 -21.789  1.00  0.00     0.205 C 
ATOM     28  C   UNL     1      12.037 -53.022 -23.904  1.00  0.00     0.055 A 
ATOM     29  C   UNL     1      11.597 -52.487 -22.751  1.00  0.00     0.101 A 
ATOM     30  C   UNL     1      12.870 -52.191 -24.790  1.00  0.00    -0.032 A 
ATOM     31  N   UNL     1      11.917 -51.194 -22.399  1.00  0.00    -0.319 N 
ATOM     32  C   UNL     1      13.174 -50.928 -24.432  1.00  0.00     0.075 A 
ATOM     33  C   UNL     1      12.685 -50.357 -23.155  1.00  0.00     0.248 A 
ATOM     34  O   UNL     1      12.086 -55.027 -25.218  1.00  0.00    -0.287 OA
ATOM     35  O   UNL     1      10.386 -52.728 -20.731  1.00  0.00    -0.288 OA
ATOM     36  C   UNL     1      13.377 -52.734 -26.097  1.00  0.00     0.045 C 
ATOM     37  H   UNL     1      11.564 -50.834 -21.515  1.00  0.00     0.170 HD
ATOM     38  O   UNL     1      12.962 -49.212 -22.824  1.00  0.00    -0.270 OA
ENDBRANCH  22  24
ENDBRANCH  21  22
ENDBRANCH  20  21
ENDBRANCH   1  20
TORSDOF 7
ENDMDL
MODEL 3
REMARK VINA RESULT:   -11.728      4.050     10.404
REMARK INTER + INTRA:         -17.414
REMARK INTER:                 -16.703
REMARK INTRA:                  -0.711
REMARK UNBOUND:                -0.887
REMARK SMILES Cc1cc(=O)[nH]c2c1C(=O)C(NCCCCN=c1c3c([nH]c4cc(Cl)ccc14)CCCC3)=CC2=O
REMARK SMILES IDX 15 1 16 2 17 3 18 4 21 5 20 6 22 7 19 8 29 9 23 10 28 11
REMARK SMILES IDX 32 12 30 13 24 14 27 15 31 16 26 17 25 19 14 20 13 21 12 22
REMARK SMILES IDX 11 24 33 25 9 26 34 27 8 28 7 29 2 30 6 31 3 32 4 33 10 34
REMARK SMILES IDX 35 35 1 36 5 38
REMARK H PARENT 21 18 12 23 6 37
ROOT
ATOM      1  C   UNL     1      10.551 -53.808 -21.117  1.00  0.00     0.025 C 
ENDROOT
BRANCH   1   2
ATOM      2  C   UNL     1      11.036 -52.366 -21.287  1.00  0.00     0.143 C 
BRANCH   2   3
ATOM      3  N   UNL     1      11.003 -52.032 -22.697  1.00  0.00    -0.284 NA
BRANCH   3   4
ATOM      4  C   UNL     1      11.754 -51.160 -23.283  1.00  0.00     0.072 A 
ATOM      5  N   UNL     1      14.027 -49.660 -24.005  1.00  0.00    -0.358 N 
ATOM      6  C   UNL     1      13.880 -50.942 -24.494  1.00  0.00     0.021 A 
ATOM      7  C   UNL     1      12.923 -48.969 -23.476  1.00  0.00     0.049 A 
ATOM      8  C   UNL     1      12.805 -51.706 -24.215  1.00  0.00    -0.003 A 
ATOM      9  C   UNL     1      15.006 -51.462 -25.362  1.00  0.00     0.054 C 
ATOM     10  C   UNL     1      13.002 -47.585 -23.275  1.00  0.00     0.047 A 
ATOM     11  C   UNL     1      11.748 -49.666 -23.129  1.00  0.00     0.024 A 
ATOM     12  C   UNL     1      12.614 -53.107 -24.735  1.00  0.00     0.039 C 
ATOM     13  C   UNL     1      14.979 -52.977 -25.573  1.00  0.00     0.007 C 
ATOM     14  C   UNL     1      11.891 -46.885 -22.810  1.00  0.00     0.043 A 
ATOM     15  C   UNL     1      10.626 -48.938 -22.716  1.00  0.00     0.014 A 
ATOM     16  C   UNL     1      13.566 -53.458 -25.878  1.00  0.00     0.005 C 
ATOM     17  C   UNL     1      10.698 -47.553 -22.548  1.00  0.00     0.021 A 
ATOM     18  H   UNL     1      14.766 -49.100 -24.417  1.00  0.00     0.166 HD
ATOM     19  Cl  UNL     1      11.984 -45.183 -22.588  1.00  0.00    -0.084 Cl
ENDBRANCH   3   4
ENDBRANCH   2   3
ENDBRANCH   1   2
BRANCH   1  20
ATOM     20  C   UNL     1      10.335 -54.512 -22.462  1.00  0.00     0.023 C 
BRANCH  20  21
ATOM     21  C   UNL     1      10.225 -56.028 -22.315  1.00  0.00     0.113 C 
BRANCH  21  22
ATOM     22  N   UNL     1       9.541 -56.607 -23.461  1.00  0.00    -0.382 N 
ATOM     23  H   UNL     1       9.027 -55.927 -24.034  1.00  0.00     0.160 HD
BRANCH  22  24
ATOM     24  C   UNL     1       8.903 -57.844 -23.491  1.00  0.00     0.087 C 
ATOM     25  C   UNL     1       7.584 -58.039 -23.405  1.00  0.00     0.084 C 
ATOM     26  C   UNL     1       9.822 -59.039 -23.633  1.00  0.00     0.211 C 
ATOM     27  C   UNL     1       6.983 -59.375 -23.430  1.00  0.00     0.205 C 
ATOM     28  C   UNL     1       9.233 -60.416 -23.602  1.00  0.00     0.055 A 
ATOM     29  C   UNL     1       7.897 -60.541 -23.512  1.00  0.00     0.101 A 
ATOM     30  C   UNL     1      10.048 -61.641 -23.674  1.00  0.00    -0.032 A 
ATOM     31  N   UNL     1       7.298 -61.782 -23.493  1.00  0.00    -0.319 N 
ATOM     32  C   UNL     1       9.448 -62.847 -23.654  1.00  0.00     0.075 A 
ATOM     33  C   UNL     1       7.975 -62.966 -23.560  1.00  0.00     0.248 A 
ATOM     34  O   UNL     1      11.025 -58.834 -23.788  1.00  0.00    -0.287 OA
ATOM     35  O   UNL     1       5.766 -59.520 -23.377  1.00  0.00    -0.288 OA
ATOM     36  C   UNL     1      11.547 -61.560 -23.762  1.00  0.00     0.045 C 
ATOM     37  H   UNL     1       6.284 -61.826 -23.427  1.00  0.00     0.170 HD
ATOM     38  O   UNL     1       7.424 -64.059 -23.545  1.00  0.00    -0.270 OA
ENDBRANCH  22  24
ENDBRANCH  21  22
ENDBRANCH  20  21
ENDBRANCH   1  20
TORSDOF 7
ENDMDL
MODEL 4
REMARK VINA RESULT:   -11.449      1.185      2.160
REMARK INTER + INTRA:         -17.020
REMARK INTER:                 -16.239
REMARK INTRA:                  -0.781
REMARK UNBOUND:                -0.887
REMARK SMILES Cc1cc(=O)[nH]c2c1C(=O)C(NCCCCN=c1c3c([nH]c4cc(Cl)ccc14)CCCC3)=CC2=O
REMARK SMILES IDX 15 1 16 2 17 3 18 4 21 5 20 6 22 7 19 8 29 9 23 10 28 11
REMARK SMILES IDX 32 12 30 13 24 14 27 15 31 16 26 17 25 19 14 20 13 21 12 22
REMARK SMILES IDX 11 24 33 25 9 26 34 27 8 28 7 29 2 30 6 31 3 32 4 33 10 34
REMARK SMILES IDX 35 35 1 36 5 38
REMARK H PARENT 21 18 12 23 6 37
ROOT
ATOM      1  C   UNL     1      11.368 -59.399 -22.169  1.00  0.00     0.025 C 
ENDROOT
BRANCH   1   2
ATOM      2  C   UNL     1      10.659 -60.742 -22.364  1.00  0.00     0.143 C 
BRANCH   2   3
ATOM      3  N   UNL     1      11.121 -61.331 -23.605  1.00  0.00    -0.284 NA
BRANCH   3   4
ATOM      4  C   UNL     1      10.532 -61.234 -24.750  1.00  0.00     0.072 A 
ATOM      5  N   UNL     1       9.528 -61.913 -27.293  1.00  0.00    -0.358 N 
ATOM      6  C   UNL     1       8.864 -62.350 -26.166  1.00  0.00     0.021 A 
ATOM      7  C   UNL     1      10.451 -60.856 -27.210  1.00  0.00     0.049 A 
ATOM      8  C   UNL     1       9.268 -62.039 -24.918  1.00  0.00    -0.003 A 
ATOM      9  C   UNL     1       7.646 -63.219 -26.399  1.00  0.00     0.054 C 
ATOM     10  C   UNL     1      10.881 -60.216 -28.380  1.00  0.00     0.047 A 
ATOM     11  C   UNL     1      10.960 -60.453 -25.959  1.00  0.00     0.024 A 
ATOM     12  C   UNL     1       8.564 -62.498 -23.668  1.00  0.00     0.039 C 
ATOM     13  C   UNL     1       7.169 -63.968 -25.154  1.00  0.00     0.007 C 
ATOM     14  C   UNL     1      11.747 -59.128 -28.300  1.00  0.00     0.043 A 
ATOM     15  C   UNL     1      11.785 -59.324 -25.894  1.00  0.00     0.014 A 
ATOM     16  C   UNL     1       7.164 -63.051 -23.937  1.00  0.00     0.005 C 
ATOM     17  C   UNL     1      12.186 -58.668 -27.062  1.00  0.00     0.021 A 
ATOM     18  H   UNL     1       9.047 -62.036 -28.178  1.00  0.00     0.166 HD
ATOM     19  Cl  UNL     1      12.252 -58.330 -29.736  1.00  0.00    -0.084 Cl
ENDBRANCH   3   4
ENDBRANCH   2   3
ENDBRANCH   1   2
BRANCH   1  20
ATOM     20  C   UNL     1      10.381 -58.232 -22.049  1.00  0.00     0.023 C 
BRANCH  20  21
ATOM     21  C   UNL     1      11.084 -56.876 -22.011  1.00  0.00     0.113 C 
BRANCH  21  22
ATOM     22  N   UNL     1      10.563 -55.999 -23.047  1.00  0.00    -0.382 N 
ATOM     23  H   UNL     1       9.833 -56.424 -23.633  1.00  0.00     0.160 HD
BRANCH  22  24
ATOM     24  C   UNL     1      11.302 -55.081 -23.788  1.00  0.00     0.087 C 
ATOM     25  C   UNL     1      12.037 -55.366 -24.867  1.00  0.00     0.084 C 
ATOM     26  C   UNL     1      11.239 -53.653 -23.290  1.00  0.00     0.211 C 
ATOM     27  C   UNL     1      12.803 -54.346 -25.589  1.00  0.00     0.205 C 
ATOM     28  C   UNL     1      12.060 -52.606 -23.978  1.00  0.00     0.055 A 
ATOM     29  C   UNL     1      12.779 -52.961 -25.058  1.00  0.00     0.101 A 
ATOM     30  C   UNL     1      12.111 -51.202 -23.533  1.00  0.00    -0.032 A 
ATOM     31  N   UNL     1      13.542 -52.038 -25.739  1.00  0.00    -0.319 N 
ATOM     32  C   UNL     1      12.862 -50.312 -24.210  1.00  0.00     0.075 A 
ATOM     33  C   UNL     1      13.643 -50.720 -25.400  1.00  0.00     0.248 A 
ATOM     34  O   UNL     1      10.496 -53.398 -22.342  1.00  0.00    -0.287 OA
ATOM     35  O   UNL     1      13.447 -54.635 -26.593  1.00  0.00    -0.288 OA
ATOM     36  C   UNL     1      11.338 -50.753 -22.324  1.00  0.00     0.045 C 
ATOM     37  H   UNL     1      14.067 -52.354 -26.552  1.00  0.00     0.170 HD
ATOM     38  O   UNL     1      14.325 -49.914 -26.021  1.00  0.00    -0.270 OA
ENDBRANCH  22  24
ENDBRANCH  21  22
ENDBRANCH  20  21
ENDBRANCH   1  20
TORSDOF 7
ENDMDL
MODEL 5
REMARK VINA RESULT:   -11.402      3.834     10.365
REMARK INTER + INTRA:         -16.955
REMARK INTER:                 -16.305
REMARK INTRA:                  -0.649
REMARK UNBOUND:                -0.887
REMARK SMILES Cc1cc(=O)[nH]c2c1C(=O)C(NCCCCN=c1c3c([nH]c4cc(Cl)ccc14)CCCC3)=CC2=O
REMARK SMILES IDX 15 1 16 2 17 3 18 4 21 5 20 6 22 7 19 8 29 9 23 10 28 11
REMARK SMILES IDX 32 12 30 13 24 14 27 15 31 16 26 17 25 19 14 20 13 21 12 22
REMARK SMILES IDX 11 24 33 25 9 26 34 27 8 28 7 29 2 30 6 31 3 32 4 33 10 34
REMARK SMILES IDX 35 35 1 36 5 38
REMARK H PARENT 21 18 12 23 6 37
ROOT
ATOM      1  C   UNL     1      10.236 -53.533 -21.311  1.00  0.00     0.025 C 
ENDROOT
BRANCH   1   2
ATOM      2  C   UNL     1      10.098 -52.139 -21.931  1.00  0.00     0.143 C 
BRANCH   2   3
ATOM      3  N   UNL     1      11.421 -51.571 -22.088  1.00  0.00    -0.284 NA
BRANCH   3   4
ATOM      4  C   UNL     1      11.813 -50.833 -23.073  1.00  0.00     0.072 A 
ATOM      5  N   UNL     1      13.497 -49.446 -24.854  1.00  0.00    -0.358 N 
ATOM      6  C   UNL     1      13.364 -50.814 -24.976  1.00  0.00     0.021 A 
ATOM      7  C   UNL     1      12.553 -48.701 -24.128  1.00  0.00     0.049 A 
ATOM      8  C   UNL     1      12.554 -51.539 -24.179  1.00  0.00    -0.003 A 
ATOM      9  C   UNL     1      14.195 -51.475 -26.056  1.00  0.00     0.054 C 
ATOM     10  C   UNL     1      12.512 -47.308 -24.265  1.00  0.00     0.047 A 
ATOM     11  C   UNL     1      11.663 -49.348 -23.246  1.00  0.00     0.024 A 
ATOM     12  C   UNL     1      12.386 -53.031 -24.288  1.00  0.00     0.039 C 
ATOM     13  C   UNL     1      14.298 -52.995 -25.917  1.00  0.00     0.007 C 
ATOM     14  C   UNL     1      11.538 -46.571 -23.595  1.00  0.00     0.043 A 
ATOM     15  C   UNL     1      10.657 -48.598 -22.626  1.00  0.00     0.014 A 
ATOM     16  C   UNL     1      12.940 -53.604 -25.592  1.00  0.00     0.005 C 
ATOM     17  C   UNL     1      10.599 -47.211 -22.792  1.00  0.00     0.021 A 
ATOM     18  H   UNL     1      13.977 -48.968 -25.611  1.00  0.00     0.166 HD
ATOM     19  Cl  UNL     1      11.475 -44.863 -23.787  1.00  0.00    -0.084 Cl
ENDBRANCH   3   4
ENDBRANCH   2   3
ENDBRANCH   1   2
BRANCH   1  20
ATOM     20  C   UNL     1       9.941 -54.650 -22.320  1.00  0.00     0.023 C 
BRANCH  20  21
ATOM     21  C   UNL     1      10.948 -55.795 -22.230  1.00  0.00     0.113 C 
BRANCH  21  22
ATOM     22  N   UNL     1      10.883 -56.630 -23.420  1.00  0.00    -0.382 N 
ATOM     23  H   UNL     1      10.445 -56.176 -24.231  1.00  0.00     0.160 HD
BRANCH  22  24
ATOM     24  C   UNL     1      10.637 -58.000 -23.443  1.00  0.00     0.087 C 
ATOM     25  C   UNL     1      11.570 -58.953 -23.528  1.00  0.00     0.084 C 
ATOM     26  C   UNL     1       9.178 -58.394 -23.367  1.00  0.00     0.211 C 
ATOM     27  C   UNL     1      11.235 -60.380 -23.563  1.00  0.00     0.205 C 
ATOM     28  C   UNL     1       8.811 -59.843 -23.460  1.00  0.00     0.055 A 
ATOM     29  C   UNL     1       9.799 -60.752 -23.544  1.00  0.00     0.101 A 
ATOM     30  C   UNL     1       7.417 -60.321 -23.453  1.00  0.00    -0.032 A 
ATOM     31  N   UNL     1       9.521 -62.099 -23.618  1.00  0.00    -0.319 N 
ATOM     32  C   UNL     1       7.162 -61.642 -23.527  1.00  0.00     0.075 A 
ATOM     33  C   UNL     1       8.263 -62.629 -23.614  1.00  0.00     0.248 A 
ATOM     34  O   UNL     1       8.341 -57.505 -23.213  1.00  0.00    -0.287 OA
ATOM     35  O   UNL     1      12.115 -61.233 -23.612  1.00  0.00    -0.288 OA
ATOM     36  C   UNL     1       6.273 -59.349 -23.375  1.00  0.00     0.045 C 
ATOM     37  H   UNL     1      10.302 -62.749 -23.678  1.00  0.00     0.170 HD
ATOM     38  O   UNL     1       8.037 -63.831 -23.677  1.00  0.00    -0.270 OA
ENDBRANCH  22  24
ENDBRANCH  21  22
ENDBRANCH  20  21
ENDBRANCH   1  20
TORSDOF 7
ENDMDL
MODEL 6
REMARK VINA RESULT:   -11.372      3.656      9.768
REMARK INTER + INTRA:         -16.912
REMARK INTER:                 -16.483
REMARK INTRA:                  -0.429
REMARK UNBOUND:                -0.887
REMARK SMILES Cc1cc(=O)[nH]c2c1C(=O)C(NCCCCN=c1c3c([nH]c4cc(Cl)ccc14)CCCC3)=CC2=O
REMARK SMILES IDX 15 1 16 2 17 3 18 4 21 5 20 6 22 7 19 8 29 9 23 10 28 11
REMARK SMILES IDX 32 12 30 13 24 14 27 15 31 16 26 17 25 19 14 20 13 21 12 22
REMARK SMILES IDX 11 24 33 25 9 26 34 27 8 28 7 29 2 30 6 31 3 32 4 33 10 34
REMARK SMILES IDX 35 35 1 36 5 38
REMARK H PARENT 21 18 12 23 6 37
ROOT
ATOM      1  C   UNL     1      10.378 -55.916 -22.095  1.00  0.00     0.025 C 
ENDROOT
BRANCH   1   2
ATOM      2  C   UNL     1      10.969 -54.564 -21.685  1.00  0.00     0.143 C 
BRANCH   2   3
ATOM      3  N   UNL     1      10.382 -53.534 -22.517  1.00  0.00    -0.284 NA
BRANCH   3   4
ATOM      4  C   UNL     1      11.032 -52.607 -23.140  1.00  0.00     0.072 A 
ATOM      5  N   UNL     1      13.154 -50.985 -24.033  1.00  0.00    -0.358 N 
ATOM      6  C   UNL     1      13.003 -52.251 -24.560  1.00  0.00     0.021 A 
ATOM      7  C   UNL     1      12.088 -50.363 -23.360  1.00  0.00     0.049 A 
ATOM      8  C   UNL     1      11.995 -53.071 -24.203  1.00  0.00    -0.003 A 
ATOM      9  C   UNL     1      14.048 -52.688 -25.565  1.00  0.00     0.054 C 
ATOM     10  C   UNL     1      12.135 -48.986 -23.106  1.00  0.00     0.047 A 
ATOM     11  C   UNL     1      10.985 -51.123 -22.920  1.00  0.00     0.024 A 
ATOM     12  C   UNL     1      11.802 -54.457 -24.761  1.00  0.00     0.039 C 
ATOM     13  C   UNL     1      14.056 -54.193 -25.839  1.00  0.00     0.007 C 
ATOM     14  C   UNL     1      11.056 -48.353 -22.495  1.00  0.00     0.043 A 
ATOM     15  C   UNL     1       9.887 -50.461 -22.358  1.00  0.00     0.014 A 
ATOM     16  C   UNL     1      12.637 -54.721 -26.013  1.00  0.00     0.005 C 
ATOM     17  C   UNL     1       9.925 -49.081 -22.137  1.00  0.00     0.021 A 
ATOM     18  H   UNL     1      13.822 -50.378 -24.497  1.00  0.00     0.166 HD
ATOM     19  Cl  UNL     1      11.107 -46.658 -22.209  1.00  0.00    -0.084 Cl
ENDBRANCH   3   4
ENDBRANCH   2   3
ENDBRANCH   1   2
BRANCH   1  20
ATOM     20  C   UNL     1      11.458 -56.984 -22.306  1.00  0.00     0.023 C 
BRANCH  20  21
ATOM     21  C   UNL     1      11.039 -58.351 -21.769  1.00  0.00     0.113 C 
BRANCH  21  22
ATOM     22  N   UNL     1      11.637 -59.417 -22.557  1.00  0.00    -0.382 N 
ATOM     23  H   UNL     1      12.637 -59.566 -22.377  1.00  0.00     0.160 HD
BRANCH  22  24
ATOM     24  C   UNL     1      11.335 -59.721 -23.882  1.00  0.00     0.087 C 
ATOM     25  C   UNL     1      11.843 -59.107 -24.954  1.00  0.00     0.084 C 
ATOM     26  C   UNL     1      10.341 -60.846 -24.073  1.00  0.00     0.211 C 
ATOM     27  C   UNL     1      11.466 -59.472 -26.322  1.00  0.00     0.205 C 
ATOM     28  C   UNL     1       9.898 -61.196 -25.461  1.00  0.00     0.055 A 
ATOM     29  C   UNL     1      10.449 -60.538 -26.496  1.00  0.00     0.101 A 
ATOM     30  C   UNL     1       8.892 -62.235 -25.746  1.00  0.00    -0.032 A 
ATOM     31  N   UNL     1      10.090 -60.827 -27.795  1.00  0.00    -0.319 N 
ATOM     32  C   UNL     1       8.553 -62.506 -27.021  1.00  0.00     0.075 A 
ATOM     33  C   UNL     1       9.174 -61.774 -28.149  1.00  0.00     0.248 A 
ATOM     34  O   UNL     1       9.942 -61.449 -23.077  1.00  0.00    -0.287 OA
ATOM     35  O   UNL     1      11.972 -58.908 -27.288  1.00  0.00    -0.288 OA
ATOM     36  C   UNL     1       8.234 -62.992 -24.626  1.00  0.00     0.045 C 
ATOM     37  H   UNL     1      10.537 -60.304 -28.545  1.00  0.00     0.170 HD
ATOM     38  O   UNL     1       8.871 -62.018 -29.310  1.00  0.00    -0.270 OA
ENDBRANCH  22  24
ENDBRANCH  21  22
ENDBRANCH  20  21
ENDBRANCH   1  20
TORSDOF 7
ENDMDL
MODEL 7
REMARK VINA RESULT:   -11.346      2.404      4.365
REMARK INTER + INTRA:         -16.875
REMARK INTER:                 -15.881
REMARK INTRA:                  -0.994
REMARK UNBOUND:                -0.887
REMARK SMILES Cc1cc(=O)[nH]c2c1C(=O)C(NCCCCN=c1c3c([nH]c4cc(Cl)ccc14)CCCC3)=CC2=O
REMARK SMILES IDX 15 1 16 2 17 3 18 4 21 5 20 6 22 7 19 8 29 9 23 10 28 11
REMARK SMILES IDX 32 12 30 13 24 14 27 15 31 16 26 17 25 19 14 20 13 21 12 22
REMARK SMILES IDX 11 24 33 25 9 26 34 27 8 28 7 29 2 30 6 31 3 32 4 33 10 34
REMARK SMILES IDX 35 35 1 36 5 38
REMARK H PARENT 21 18 12 23 6 37
ROOT
ATOM      1  C   UNL     1      11.456 -57.774 -21.921  1.00  0.00     0.025 C 
ENDROOT
BRANCH   1   2
ATOM      2  C   UNL     1      10.666 -58.155 -23.177  1.00  0.00     0.143 C 
BRANCH   2   3
ATOM      3  N   UNL     1      11.462 -59.077 -23.960  1.00  0.00    -0.284 NA
BRANCH   3   4
ATOM      4  C   UNL     1      11.006 -60.069 -24.650  1.00  0.00     0.072 A 
ATOM      5  N   UNL     1       9.458 -61.552 -26.477  1.00  0.00    -0.358 N 
ATOM      6  C   UNL     1      10.465 -60.737 -26.950  1.00  0.00     0.021 A 
ATOM      7  C   UNL     1       9.432 -61.940 -25.126  1.00  0.00     0.049 A 
ATOM      8  C   UNL     1      11.264 -60.022 -26.135  1.00  0.00    -0.003 A 
ATOM      9  C   UNL     1      10.623 -60.671 -28.455  1.00  0.00     0.054 C 
ATOM     10  C   UNL     1       8.608 -62.998 -24.723  1.00  0.00     0.047 A 
ATOM     11  C   UNL     1      10.212 -61.253 -24.175  1.00  0.00     0.024 A 
ATOM     12  C   UNL     1      12.372 -59.125 -26.620  1.00  0.00     0.039 C 
ATOM     13  C   UNL     1      11.484 -59.503 -28.939  1.00  0.00     0.007 C 
ATOM     14  C   UNL     1       8.624 -63.427 -23.397  1.00  0.00     0.043 A 
ATOM     15  C   UNL     1      10.257 -61.733 -22.860  1.00  0.00     0.014 A 
ATOM     16  C   UNL     1      12.738 -59.361 -28.085  1.00  0.00     0.005 C 
ATOM     17  C   UNL     1       9.459 -62.812 -22.469  1.00  0.00     0.021 A 
ATOM     18  H   UNL     1       9.038 -62.190 -27.147  1.00  0.00     0.166 HD
ATOM     19  Cl  UNL     1       7.631 -64.744 -22.912  1.00  0.00    -0.084 Cl
ENDBRANCH   3   4
ENDBRANCH   2   3
ENDBRANCH   1   2
BRANCH   1  20
ATOM     20  C   UNL     1      11.087 -56.380 -21.402  1.00  0.00     0.023 C 
BRANCH  20  21
ATOM     21  C   UNL     1      10.073 -55.674 -22.301  1.00  0.00     0.113 C 
BRANCH  21  22
ATOM     22  N   UNL     1      10.434 -54.277 -22.484  1.00  0.00    -0.382 N 
ATOM     23  H   UNL     1       9.672 -53.615 -22.298  1.00  0.00     0.160 HD
BRANCH  22  24
ATOM     24  C   UNL     1      11.278 -53.775 -23.471  1.00  0.00     0.087 C 
ATOM     25  C   UNL     1      11.815 -54.486 -24.467  1.00  0.00     0.084 C 
ATOM     26  C   UNL     1      11.586 -52.297 -23.364  1.00  0.00     0.211 C 
ATOM     27  C   UNL     1      12.710 -53.890 -25.465  1.00  0.00     0.205 C 
ATOM     28  C   UNL     1      12.544 -51.682 -24.338  1.00  0.00     0.055 A 
ATOM     29  C   UNL     1      13.049 -52.453 -25.316  1.00  0.00     0.101 A 
ATOM     30  C   UNL     1      12.951 -50.267 -24.280  1.00  0.00    -0.032 A 
ATOM     31  N   UNL     1      13.923 -51.938 -26.248  1.00  0.00    -0.319 N 
ATOM     32  C   UNL     1      13.807 -49.778 -25.198  1.00  0.00     0.075 A 
ATOM     33  C   UNL     1      14.349 -50.642 -26.273  1.00  0.00     0.248 A 
ATOM     34  O   UNL     1      11.022 -51.646 -22.485  1.00  0.00    -0.287 OA
ATOM     35  O   UNL     1      13.165 -54.562 -26.385  1.00  0.00    -0.288 OA
ATOM     36  C   UNL     1      12.427 -49.362 -23.199  1.00  0.00     0.045 C 
ATOM     37  H   UNL     1      14.277 -52.561 -26.972  1.00  0.00     0.170 HD
ATOM     38  O   UNL     1      15.125 -50.202 -27.112  1.00  0.00    -0.270 OA
ENDBRANCH  22  24
ENDBRANCH  21  22
ENDBRANCH  20  21
ENDBRANCH   1  20
TORSDOF 7
ENDMDL
MODEL 8
REMARK VINA RESULT:   -11.076      3.821     10.682
REMARK INTER + INTRA:         -16.496
REMARK INTER:                 -15.939
REMARK INTRA:                  -0.557
REMARK UNBOUND:                -0.887
REMARK SMILES Cc1cc(=O)[nH]c2c1C(=O)C(NCCCCN=c1c3c([nH]c4cc(Cl)ccc14)CCCC3)=CC2=O
REMARK SMILES IDX 15 1 16 2 17 3 18 4 21 5 20 6 22 7 19 8 29 9 23 10 28 11
REMARK SMILES IDX 32 12 30 13 24 14 27 15 31 16 26 17 25 19 14 20 13 21 12 22
REMARK SMILES IDX 11 24 33 25 9 26 34 27 8 28 7 29 2 30 6 31 3 32 4 33 10 34
REMARK SMILES IDX 35 35 1 36 5 38
REMARK H PARENT 21 18 12 23 6 37
ROOT
ATOM      1  C   UNL     1      11.032 -53.499 -22.728  1.00  0.00     0.025 C 
ENDROOT
BRANCH   1   2
ATOM      2  C   UNL     1      11.923 -52.640 -23.631  1.00  0.00     0.143 C 
BRANCH   2   3
ATOM      3  N   UNL     1      12.490 -51.570 -22.835  1.00  0.00    -0.284 NA
BRANCH   3   4
ATOM      4  C   UNL     1      13.259 -50.630 -23.275  1.00  0.00     0.072 A 
ATOM      5  N   UNL     1      14.391 -48.698 -24.984  1.00  0.00    -0.358 N 
ATOM      6  C   UNL     1      13.191 -48.428 -24.359  1.00  0.00     0.021 A 
ATOM      7  C   UNL     1      15.223 -49.727 -24.511  1.00  0.00     0.049 A 
ATOM      8  C   UNL     1      12.606 -49.291 -23.505  1.00  0.00    -0.003 A 
ATOM      9  C   UNL     1      12.546 -47.098 -24.692  1.00  0.00     0.054 C 
ATOM     10  C   UNL     1      16.555 -49.795 -24.938  1.00  0.00     0.047 A 
ATOM     11  C   UNL     1      14.717 -50.701 -23.627  1.00  0.00     0.024 A 
ATOM     12  C   UNL     1      11.299 -49.024 -22.806  1.00  0.00     0.039 C 
ATOM     13  C   UNL     1      11.077 -46.999 -24.277  1.00  0.00     0.007 C 
ATOM     14  C   UNL     1      17.402 -50.775 -24.426  1.00  0.00     0.043 A 
ATOM     15  C   UNL     1      15.596 -51.644 -23.081  1.00  0.00     0.014 A 
ATOM     16  C   UNL     1      10.869 -47.559 -22.875  1.00  0.00     0.005 C 
ATOM     17  C   UNL     1      16.934 -51.687 -23.485  1.00  0.00     0.021 A 
ATOM     18  H   UNL     1      14.842 -47.920 -25.454  1.00  0.00     0.166 HD
ATOM     19  Cl  UNL     1      19.044 -50.838 -24.934  1.00  0.00    -0.084 Cl
ENDBRANCH   3   4
ENDBRANCH   2   3
ENDBRANCH   1   2
BRANCH   1  20
ATOM     20  C   UNL     1      10.468 -54.721 -23.462  1.00  0.00     0.023 C 
BRANCH  20  21
ATOM     21  C   UNL     1      11.364 -55.950 -23.319  1.00  0.00     0.113 C 
BRANCH  21  22
ATOM     22  N   UNL     1      10.718 -56.962 -22.497  1.00  0.00    -0.382 N 
ATOM     23  H   UNL     1      11.341 -57.415 -21.817  1.00  0.00     0.160 HD
BRANCH  22  24
ATOM     24  C   UNL     1       9.737 -57.855 -22.920  1.00  0.00     0.087 C 
ATOM     25  C   UNL     1       8.457 -57.548 -23.151  1.00  0.00     0.084 C 
ATOM     26  C   UNL     1      10.207 -59.279 -23.121  1.00  0.00     0.211 C 
ATOM     27  C   UNL     1       7.475 -58.547 -23.582  1.00  0.00     0.205 C 
ATOM     28  C   UNL     1       9.207 -60.327 -23.505  1.00  0.00     0.055 A 
ATOM     29  C   UNL     1       7.934 -59.951 -23.721  1.00  0.00     0.101 A 
ATOM     30  C   UNL     1       9.555 -61.749 -23.667  1.00  0.00    -0.032 A 
ATOM     31  N   UNL     1       6.975 -60.868 -24.089  1.00  0.00    -0.319 N 
ATOM     32  C   UNL     1       8.606 -62.634 -24.027  1.00  0.00     0.075 A 
ATOM     33  C   UNL     1       7.209 -62.201 -24.267  1.00  0.00     0.248 A 
ATOM     34  O   UNL     1      11.405 -59.525 -22.977  1.00  0.00    -0.287 OA
ATOM     35  O   UNL     1       6.313 -58.229 -23.813  1.00  0.00    -0.288 OA
ATOM     36  C   UNL     1      10.960 -62.227 -23.425  1.00  0.00     0.045 C 
ATOM     37  H   UNL     1       6.025 -60.536 -24.245  1.00  0.00     0.170 HD
ATOM     38  O   UNL     1       6.343 -63.000 -24.597  1.00  0.00    -0.270 OA
ENDBRANCH  22  24
ENDBRANCH  21  22
ENDBRANCH  20  21
ENDBRANCH   1  20
TORSDOF 7
ENDMDL
MODEL 9
REMARK VINA RESULT:   -10.740      3.502      9.366
REMARK INTER + INTRA:         -16.021
REMARK INTER:                 -15.864
REMARK INTRA:                  -0.157
REMARK UNBOUND:                -0.887
REMARK SMILES Cc1cc(=O)[nH]c2c1C(=O)C(NCCCCN=c1c3c([nH]c4cc(Cl)ccc14)CCCC3)=CC2=O
REMARK SMILES IDX 15 1 16 2 17 3 18 4 21 5 20 6 22 7 19 8 29 9 23 10 28 11
REMARK SMILES IDX 32 12 30 13 24 14 27 15 31 16 26 17 25 19 14 20 13 21 12 22
REMARK SMILES IDX 11 24 33 25 9 26 34 27 8 28 7 29 2 30 6 31 3 32 4 33 10 34
REMARK SMILES IDX 35 35 1 36 5 38
REMARK H PARENT 21 18 12 23 6 37
ROOT
ATOM      1  C   UNL     1      12.500 -56.758 -26.569  1.00  0.00     0.025 C 
ENDROOT
BRANCH   1   2
ATOM      2  C   UNL     1      13.083 -55.356 -26.371  1.00  0.00     0.143 C 
BRANCH   2   3
ATOM      3  N   UNL     1      12.040 -54.491 -25.859  1.00  0.00    -0.284 NA
BRANCH   3   4
ATOM      4  C   UNL     1      12.191 -53.582 -24.954  1.00  0.00     0.072 A 
ATOM      5  N   UNL     1      11.594 -51.551 -23.096  1.00  0.00    -0.358 N 
ATOM      6  C   UNL     1      11.322 -52.864 -22.772  1.00  0.00     0.021 A 
ATOM      7  C   UNL     1      12.480 -51.245 -24.143  1.00  0.00     0.049 A 
ATOM      8  C   UNL     1      11.608 -53.890 -23.598  1.00  0.00    -0.003 A 
ATOM      9  C   UNL     1      10.665 -53.102 -21.429  1.00  0.00     0.054 C 
ATOM     10  C   UNL     1      12.990 -49.946 -24.265  1.00  0.00     0.047 A 
ATOM     11  C   UNL     1      12.839 -52.233 -25.082  1.00  0.00     0.024 A 
ATOM     12  C   UNL     1      11.326 -55.333 -23.274  1.00  0.00     0.039 C 
ATOM     13  C   UNL     1      10.059 -54.497 -21.272  1.00  0.00     0.007 C 
ATOM     14  C   UNL     1      13.916 -49.652 -25.263  1.00  0.00     0.043 A 
ATOM     15  C   UNL     1      13.812 -51.934 -26.043  1.00  0.00     0.014 A 
ATOM     16  C   UNL     1      11.010 -55.565 -21.796  1.00  0.00     0.005 C 
ATOM     17  C   UNL     1      14.343 -50.644 -26.140  1.00  0.00     0.021 A 
ATOM     18  H   UNL     1      11.520 -50.874 -22.343  1.00  0.00     0.166 HD
ATOM     19  Cl  UNL     1      14.559 -48.063 -25.392  1.00  0.00    -0.084 Cl
ENDBRANCH   3   4
ENDBRANCH   2   3
ENDBRANCH   1   2
BRANCH   1  20
ATOM     20  C   UNL     1      12.392 -57.140 -28.050  1.00  0.00     0.023 C 
BRANCH  20  21
ATOM     21  C   UNL     1      12.057 -58.617 -28.247  1.00  0.00     0.113 C 
BRANCH  21  22
ATOM     22  N   UNL     1      12.496 -59.399 -27.102  1.00  0.00    -0.382 N 
ATOM     23  H   UNL     1      13.315 -59.992 -27.284  1.00  0.00     0.160 HD
BRANCH  22  24
ATOM     24  C   UNL     1      11.668 -59.999 -26.156  1.00  0.00     0.087 C 
ATOM     25  C   UNL     1      11.802 -59.895 -24.831  1.00  0.00     0.084 C 
ATOM     26  C   UNL     1      10.537 -60.828 -26.725  1.00  0.00     0.211 C 
ATOM     27  C   UNL     1      10.898 -60.568 -23.894  1.00  0.00     0.205 C 
ATOM     28  C   UNL     1       9.638 -61.572 -25.786  1.00  0.00     0.055 A 
ATOM     29  C   UNL     1       9.828 -61.424 -24.463  1.00  0.00     0.101 A 
ATOM     30  C   UNL     1       8.547 -62.450 -26.243  1.00  0.00    -0.032 A 
ATOM     31  N   UNL     1       9.023 -62.072 -23.552  1.00  0.00    -0.319 N 
ATOM     32  C   UNL     1       7.769 -63.077 -25.340  1.00  0.00     0.075 A 
ATOM     33  C   UNL     1       7.989 -62.899 -23.886  1.00  0.00     0.248 A 
ATOM     34  O   UNL     1      10.386 -60.849 -27.946  1.00  0.00    -0.287 OA
ATOM     35  O   UNL     1      11.030 -60.430 -22.682  1.00  0.00    -0.288 OA
ATOM     36  C   UNL     1       8.298 -62.662 -27.711  1.00  0.00     0.045 C 
ATOM     37  H   UNL     1       9.203 -61.927 -22.561  1.00  0.00     0.170 HD
ATOM     38  O   UNL     1       7.283 -63.463 -23.061  1.00  0.00    -0.270 OA
ENDBRANCH  22  24
ENDBRANCH  21  22
ENDBRANCH  20  21
ENDBRANCH   1  20
TORSDOF 7
ENDMDL
