MODEL 1
REMARK VINA RESULT:   -11.682      0.000      0.000
REMARK INTER + INTRA:         -18.868
REMARK INTER:                 -17.829
REMARK INTRA:                  -1.039
REMARK UNBOUND:                -1.039
REMARK SMILES CNC(=O)Oc1cccc(C[N@H+](C)CCCOc2ccc3c(=O)c4ccccc4oc3c2)c1
REMARK SMILES IDX 12 1 13 2 11 4 10 5 9 6 33 7 8 8 6 9 7 10 5 11 3 12 2 13
REMARK SMILES IDX 4 14 1 15 14 17 15 18 16 19 17 20 18 21 19 22 32 23 20 24
REMARK SMILES IDX 31 25 21 26 30 27 22 28 29 29 24 30 28 31 25 32 27 33 26 34
REMARK SMILES IDX 23 35
REMARK H PARENT 12 3 2 16
ROOT
ATOM      1  N   UNL     1      11.556 -60.117 -24.312  1.00  0.00    -0.334 N 
ATOM      2  C   UNL     1      12.177 -60.010 -25.675  1.00  0.00     0.333 C 
ATOM      3  H   UNL     1      10.566 -59.850 -24.427  1.00  0.00     0.348 HD
ENDROOT
BRANCH   1   4
ATOM      4  C   UNL     1      11.516 -61.546 -23.797  1.00  0.00     0.298 C 
BRANCH   4   5
ATOM      5  C   UNL     1      10.134 -62.109 -23.608  1.00  0.00     0.010 A 
ATOM      6  C   UNL     1       9.917 -63.276 -22.858  1.00  0.00     0.010 A 
ATOM      7  C   UNL     1       9.025 -61.427 -24.127  1.00  0.00     0.056 A 
ATOM      8  C   UNL     1       8.618 -63.728 -22.606  1.00  0.00     0.004 A 
ATOM      9  C   UNL     1       7.735 -61.844 -23.809  1.00  0.00     0.133 A 
ATOM     10  C   UNL     1       7.521 -63.004 -23.072  1.00  0.00     0.047 A 
BRANCH   9  11
ATOM     11  O   UNL     1       6.603 -61.133 -24.237  1.00  0.00    -0.410 OA
BRANCH  11  12
ATOM     12  C   UNL     1       6.452 -59.837 -23.749  1.00  0.00     0.412 C 
ATOM     13  N   UNL     1       5.614 -59.856 -22.672  1.00  0.00    -0.324 N 
ATOM     14  O   UNL     1       6.973 -58.831 -24.216  1.00  0.00    -0.224 OA
ATOM     15  C   UNL     1       5.194 -58.661 -21.990  1.00  0.00     0.146 C 
ATOM     16  H   UNL     1       5.185 -60.744 -22.441  1.00  0.00     0.166 HD
ENDBRANCH  11  12
ENDBRANCH   9  11
ENDBRANCH   4   5
ENDBRANCH   1   4
BRANCH   1  17
ATOM     17  C   UNL     1      12.133 -59.128 -23.315  1.00  0.00     0.265 C 
BRANCH  17  18
ATOM     18  C   UNL     1      11.333 -59.098 -22.010  1.00  0.00     0.103 C 
BRANCH  18  19
ATOM     19  C   UNL     1      11.018 -57.681 -21.529  1.00  0.00     0.235 C 
BRANCH  19  20
ATOM     20  O   UNL     1      10.393 -56.968 -22.603  1.00  0.00    -0.493 OA
BRANCH  20  21
ATOM     21  C   UNL     1      10.764 -55.662 -22.776  1.00  0.00     0.123 A 
ATOM     22  C   UNL     1      10.321 -54.792 -21.773  1.00  0.00     0.047 A 
ATOM     23  C   UNL     1      11.528 -55.160 -23.833  1.00  0.00     0.094 A 
ATOM     24  C   UNL     1      10.641 -53.434 -21.820  1.00  0.00     0.020 A 
ATOM     25  C   UNL     1      11.849 -53.798 -23.883  1.00  0.00     0.142 A 
ATOM     26  C   UNL     1      11.407 -52.943 -22.878  1.00  0.00     0.066 A 
ATOM     27  O   UNL     1      12.604 -53.388 -24.956  1.00  0.00    -0.456 OA
ATOM     28  C   UNL     1      11.763 -51.520 -22.950  1.00  0.00     0.200 A 
ATOM     29  C   UNL     1      12.934 -52.057 -25.048  1.00  0.00     0.138 A 
ATOM     30  C   UNL     1      12.559 -51.096 -24.111  1.00  0.00     0.065 A 
ATOM     31  C   UNL     1      13.690 -51.678 -26.158  1.00  0.00     0.048 A 
ATOM     32  C   UNL     1      12.934 -49.758 -24.271  1.00  0.00     0.016 A 
ATOM     33  C   UNL     1      14.067 -50.343 -26.324  1.00  0.00     0.004 A 
ATOM     34  C   UNL     1      13.691 -49.385 -25.381  1.00  0.00     0.001 A 
ATOM     35  O   UNL     1      11.412 -50.735 -22.080  1.00  0.00    -0.288 OA
ENDBRANCH  20  21
ENDBRANCH  19  20
ENDBRANCH  18  19
ENDBRANCH  17  18
ENDBRANCH   1  17
TORSDOF 9
ENDMDL
MODEL 2
REMARK VINA RESULT:   -11.394      1.781      2.803
REMARK INTER + INTRA:         -18.429
REMARK INTER:                 -18.152
REMARK INTRA:                  -0.277
REMARK UNBOUND:                -1.039
REMARK SMILES CNC(=O)Oc1cccc(C[N@H+](C)CCCOc2ccc3c(=O)c4ccccc4oc3c2)c1
REMARK SMILES IDX 12 1 13 2 11 4 10 5 9 6 33 7 8 8 6 9 7 10 5 11 3 12 2 13
REMARK SMILES IDX 4 14 1 15 14 17 15 18 16 19 17 20 18 21 19 22 32 23 20 24
REMARK SMILES IDX 31 25 21 26 30 27 22 28 29 29 24 30 28 31 25 32 27 33 26 34
REMARK SMILES IDX 23 35
REMARK H PARENT 12 3 2 16
ROOT
ATOM      1  N   UNL     1       9.882 -60.957 -21.918  1.00  0.00    -0.334 N 
ATOM      2  C   UNL     1       8.671 -60.271 -22.482  1.00  0.00     0.333 C 
ATOM      3  H   UNL     1       9.719 -61.035 -20.901  1.00  0.00     0.348 HD
ENDROOT
BRANCH   1   4
ATOM      4  C   UNL     1      10.022 -62.391 -22.400  1.00  0.00     0.298 C 
BRANCH   4   5
ATOM      5  C   UNL     1       9.251 -62.713 -23.650  1.00  0.00     0.010 A 
ATOM      6  C   UNL     1       8.072 -63.475 -23.606  1.00  0.00     0.010 A 
ATOM      7  C   UNL     1       9.668 -62.191 -24.882  1.00  0.00     0.056 A 
ATOM      8  C   UNL     1       7.313 -63.677 -24.762  1.00  0.00     0.004 A 
ATOM      9  C   UNL     1       8.867 -62.337 -26.013  1.00  0.00     0.133 A 
ATOM     10  C   UNL     1       7.703 -63.098 -25.969  1.00  0.00     0.047 A 
BRANCH   9  11
ATOM     11  O   UNL     1       9.210 -61.751 -27.240  1.00  0.00    -0.410 OA
BRANCH  11  12
ATOM     12  C   UNL     1       9.757 -60.471 -27.196  1.00  0.00     0.412 C 
ATOM     13  N   UNL     1      10.795 -60.394 -28.080  1.00  0.00    -0.324 N 
ATOM     14  O   UNL     1       9.383 -59.556 -26.472  1.00  0.00    -0.224 OA
ATOM     15  C   UNL     1      11.618 -59.223 -28.215  1.00  0.00     0.146 C 
ATOM     16  H   UNL     1      11.054 -61.248 -28.557  1.00  0.00     0.166 HD
ENDBRANCH  11  12
ENDBRANCH   9  11
ENDBRANCH   4   5
ENDBRANCH   1   4
BRANCH   1  17
ATOM     17  C   UNL     1      11.153 -60.139 -22.066  1.00  0.00     0.265 C 
BRANCH  17  18
ATOM     18  C   UNL     1      10.937 -58.672 -21.684  1.00  0.00     0.103 C 
BRANCH  18  19
ATOM     19  C   UNL     1      11.041 -57.718 -22.875  1.00  0.00     0.235 C 
BRANCH  19  20
ATOM     20  O   UNL     1      10.077 -56.673 -22.700  1.00  0.00    -0.493 OA
BRANCH  20  21
ATOM     21  C   UNL     1      10.531 -55.387 -22.821  1.00  0.00     0.123 A 
ATOM     22  C   UNL     1      10.180 -54.543 -21.762  1.00  0.00     0.047 A 
ATOM     23  C   UNL     1      11.296 -54.884 -23.877  1.00  0.00     0.094 A 
ATOM     24  C   UNL     1      10.591 -53.209 -21.753  1.00  0.00     0.020 A 
ATOM     25  C   UNL     1      11.708 -53.545 -23.871  1.00  0.00     0.142 A 
ATOM     26  C   UNL     1      11.357 -52.716 -22.810  1.00  0.00     0.066 A 
ATOM     27  O   UNL     1      12.456 -53.132 -24.947  1.00  0.00    -0.456 OA
ATOM     28  C   UNL     1      11.807 -51.318 -22.824  1.00  0.00     0.200 A 
ATOM     29  C   UNL     1      12.874 -51.824 -24.984  1.00  0.00     0.138 A 
ATOM     30  C   UNL     1      12.594 -50.889 -23.989  1.00  0.00     0.065 A 
ATOM     31  C   UNL     1      13.621 -51.440 -26.099  1.00  0.00     0.048 A 
ATOM     32  C   UNL     1      13.056 -49.574 -24.095  1.00  0.00     0.016 A 
ATOM     33  C   UNL     1      14.083 -50.126 -26.212  1.00  0.00     0.004 A 
ATOM     34  C   UNL     1      13.802 -49.195 -25.210  1.00  0.00     0.001 A 
ATOM     35  O   UNL     1      11.537 -50.557 -21.905  1.00  0.00    -0.288 OA
ENDBRANCH  20  21
ENDBRANCH  19  20
ENDBRANCH  18  19
ENDBRANCH  17  18
ENDBRANCH   1  17
TORSDOF 9
ENDMDL
MODEL 3
REMARK VINA RESULT:   -10.882      1.056      2.085
REMARK INTER + INTRA:         -17.648
REMARK INTER:                 -16.656
REMARK INTRA:                  -0.992
REMARK UNBOUND:                -1.039
REMARK SMILES CNC(=O)Oc1cccc(C[N@H+](C)CCCOc2ccc3c(=O)c4ccccc4oc3c2)c1
REMARK SMILES IDX 12 1 13 2 11 4 10 5 9 6 33 7 8 8 6 9 7 10 5 11 3 12 2 13
REMARK SMILES IDX 4 14 1 15 14 17 15 18 16 19 17 20 18 21 19 22 32 23 20 24
REMARK SMILES IDX 31 25 21 26 30 27 22 28 29 29 24 30 28 31 25 32 27 33 26 34
REMARK SMILES IDX 23 35
REMARK H PARENT 12 3 2 16
ROOT
ATOM      1  N   UNL     1      11.352 -60.057 -23.868  1.00  0.00    -0.334 N 
ATOM      2  C   UNL     1      11.760 -59.835 -25.296  1.00  0.00     0.333 C 
ATOM      3  H   UNL     1      10.372 -59.739 -23.799  1.00  0.00     0.348 HD
ENDROOT
BRANCH   1   4
ATOM      4  C   UNL     1      11.310 -61.528 -23.492  1.00  0.00     0.298 C 
BRANCH   4   5
ATOM      5  C   UNL     1       9.931 -62.125 -23.433  1.00  0.00     0.010 A 
ATOM      6  C   UNL     1       9.692 -63.350 -22.790  1.00  0.00     0.010 A 
ATOM      7  C   UNL     1       8.843 -61.421 -23.966  1.00  0.00     0.056 A 
ATOM      8  C   UNL     1       8.389 -63.839 -22.654  1.00  0.00     0.004 A 
ATOM      9  C   UNL     1       7.543 -61.881 -23.762  1.00  0.00     0.133 A 
ATOM     10  C   UNL     1       7.308 -63.098 -23.131  1.00  0.00     0.047 A 
BRANCH   9  11
ATOM     11  O   UNL     1       6.426 -61.156 -24.203  1.00  0.00    -0.410 OA
BRANCH  11  12
ATOM     12  C   UNL     1       6.280 -59.862 -23.711  1.00  0.00     0.412 C 
ATOM     13  N   UNL     1       5.396 -59.871 -22.672  1.00  0.00    -0.324 N 
ATOM     14  O   UNL     1       6.843 -58.863 -24.145  1.00  0.00    -0.224 OA
ATOM     15  C   UNL     1       4.972 -58.673 -21.998  1.00  0.00     0.146 C 
ATOM     16  H   UNL     1       4.939 -60.751 -22.468  1.00  0.00     0.166 HD
ENDBRANCH  11  12
ENDBRANCH   9  11
ENDBRANCH   4   5
ENDBRANCH   1   4
BRANCH   1  17
ATOM     17  C   UNL     1      12.130 -59.200 -22.886  1.00  0.00     0.265 C 
BRANCH  17  18
ATOM     18  C   UNL     1      11.204 -58.372 -21.991  1.00  0.00     0.103 C 
BRANCH  18  19
ATOM     19  C   UNL     1      10.529 -57.215 -22.728  1.00  0.00     0.235 C 
BRANCH  19  20
ATOM     20  O   UNL     1      11.221 -57.003 -23.964  1.00  0.00    -0.493 OA
BRANCH  20  21
ATOM     21  C   UNL     1      11.655 -55.729 -24.219  1.00  0.00     0.123 A 
ATOM     22  C   UNL     1      12.464 -55.606 -25.354  1.00  0.00     0.047 A 
ATOM     23  C   UNL     1      11.352 -54.594 -23.463  1.00  0.00     0.094 A 
ATOM     24  C   UNL     1      12.963 -54.360 -25.736  1.00  0.00     0.020 A 
ATOM     25  C   UNL     1      11.854 -53.343 -23.844  1.00  0.00     0.142 A 
ATOM     26  C   UNL     1      12.653 -53.230 -24.978  1.00  0.00     0.066 A 
ATOM     27  O   UNL     1      11.507 -52.278 -23.046  1.00  0.00    -0.456 OA
ATOM     28  C   UNL     1      13.160 -51.906 -25.360  1.00  0.00     0.200 A 
ATOM     29  C   UNL     1      11.985 -51.034 -23.380  1.00  0.00     0.138 A 
ATOM     30  C   UNL     1      12.792 -50.781 -24.488  1.00  0.00     0.065 A 
ATOM     31  C   UNL     1      11.622 -49.981 -22.538  1.00  0.00     0.048 A 
ATOM     32  C   UNL     1      13.240 -49.486 -24.765  1.00  0.00     0.016 A 
ATOM     33  C   UNL     1      12.067 -48.684 -22.809  1.00  0.00     0.004 A 
ATOM     34  C   UNL     1      12.873 -48.437 -23.922  1.00  0.00     0.001 A 
ATOM     35  O   UNL     1      13.852 -51.757 -26.357  1.00  0.00    -0.288 OA
ENDBRANCH  20  21
ENDBRANCH  19  20
ENDBRANCH  18  19
ENDBRANCH  17  18
ENDBRANCH   1  17
TORSDOF 9
ENDMDL
MODEL 4
REMARK VINA RESULT:   -10.649      2.859      4.903
REMARK INTER + INTRA:         -17.292
REMARK INTER:                 -16.521
REMARK INTRA:                  -0.770
REMARK UNBOUND:                -1.039
REMARK SMILES CNC(=O)Oc1cccc(C[N@H+](C)CCCOc2ccc3c(=O)c4ccccc4oc3c2)c1
REMARK SMILES IDX 12 1 13 2 11 4 10 5 9 6 33 7 8 8 6 9 7 10 5 11 3 12 2 13
REMARK SMILES IDX 4 14 1 15 14 17 15 18 16 19 17 20 18 21 19 22 32 23 20 24
REMARK SMILES IDX 31 25 21 26 30 27 22 28 29 29 24 30 28 31 25 32 27 33 26 34
REMARK SMILES IDX 23 35
REMARK H PARENT 12 3 2 16
ROOT
ATOM      1  N   UNL     1      10.566 -55.480 -23.199  1.00  0.00    -0.334 N 
ATOM      2  C   UNL     1      11.371 -54.777 -24.254  1.00  0.00     0.333 C 
ATOM      3  H   UNL     1       9.870 -56.052 -23.704  1.00  0.00     0.348 HD
ENDROOT
BRANCH   1   4
ATOM      4  C   UNL     1      11.388 -56.482 -22.405  1.00  0.00     0.298 C 
BRANCH   4   5
ATOM      5  C   UNL     1      10.797 -57.862 -22.328  1.00  0.00     0.010 A 
ATOM      6  C   UNL     1      11.100 -58.729 -21.265  1.00  0.00     0.010 A 
ATOM      7  C   UNL     1       9.871 -58.280 -23.293  1.00  0.00     0.056 A 
ATOM      8  C   UNL     1      10.462 -59.968 -21.154  1.00  0.00     0.004 A 
ATOM      9  C   UNL     1       9.188 -59.484 -23.134  1.00  0.00     0.133 A 
ATOM     10  C   UNL     1       9.494 -60.344 -22.085  1.00  0.00     0.047 A 
BRANCH   9  11
ATOM     11  O   UNL     1       8.190 -59.890 -24.033  1.00  0.00    -0.410 OA
BRANCH  11  12
ATOM     12  C   UNL     1       6.917 -60.100 -23.508  1.00  0.00     0.412 C 
ATOM     13  N   UNL     1       6.399 -58.909 -23.091  1.00  0.00    -0.324 N 
ATOM     14  O   UNL     1       6.350 -61.183 -23.418  1.00  0.00    -0.224 OA
ATOM     15  C   UNL     1       5.126 -58.801 -22.431  1.00  0.00     0.146 C 
ATOM     16  H   UNL     1       7.006 -58.101 -23.147  1.00  0.00     0.166 HD
ENDBRANCH  11  12
ENDBRANCH   9  11
ENDBRANCH   4   5
ENDBRANCH   1   4
BRANCH   1  17
ATOM     17  C   UNL     1       9.762 -54.530 -22.331  1.00  0.00     0.265 C 
BRANCH  17  18
ATOM     18  C   UNL     1      10.579 -54.008 -21.145  1.00  0.00     0.103 C 
BRANCH  18  19
ATOM     19  C   UNL     1      10.972 -52.537 -21.286  1.00  0.00     0.235 C 
BRANCH  19  20
ATOM     20  O   UNL     1      11.730 -52.386 -22.491  1.00  0.00    -0.493 OA
BRANCH  20  21
ATOM     21  C   UNL     1      11.914 -51.109 -22.950  1.00  0.00     0.123 A 
ATOM     22  C   UNL     1      12.862 -50.989 -23.973  1.00  0.00     0.047 A 
ATOM     23  C   UNL     1      11.243 -49.971 -22.497  1.00  0.00     0.094 A 
ATOM     24  C   UNL     1      13.137 -49.744 -24.541  1.00  0.00     0.020 A 
ATOM     25  C   UNL     1      11.519 -48.720 -23.064  1.00  0.00     0.142 A 
ATOM     26  C   UNL     1      12.460 -48.612 -24.084  1.00  0.00     0.066 A 
ATOM     27  O   UNL     1      10.815 -47.652 -22.560  1.00  0.00    -0.456 OA
ATOM     28  C   UNL     1      12.725 -47.291 -24.667  1.00  0.00     0.200 A 
ATOM     29  C   UNL     1      11.061 -46.407 -23.084  1.00  0.00     0.138 A 
ATOM     30  C   UNL     1      11.974 -46.159 -24.107  1.00  0.00     0.065 A 
ATOM     31  C   UNL     1      10.336 -45.347 -22.537  1.00  0.00     0.048 A 
ATOM     32  C   UNL     1      12.170 -44.862 -24.591  1.00  0.00     0.016 A 
ATOM     33  C   UNL     1      10.527 -44.048 -23.015  1.00  0.00     0.004 A 
ATOM     34  C   UNL     1      11.442 -43.806 -24.041  1.00  0.00     0.001 A 
ATOM     35  O   UNL     1      13.531 -47.151 -25.576  1.00  0.00    -0.288 OA
ENDBRANCH  20  21
ENDBRANCH  19  20
ENDBRANCH  18  19
ENDBRANCH  17  18
ENDBRANCH   1  17
TORSDOF 9
ENDMDL
MODEL 5
REMARK VINA RESULT:   -10.384      1.574      2.558
REMARK INTER + INTRA:         -16.886
REMARK INTER:                 -16.183
REMARK INTRA:                  -0.703
REMARK UNBOUND:                -1.039
REMARK SMILES CNC(=O)Oc1cccc(C[N@H+](C)CCCOc2ccc3c(=O)c4ccccc4oc3c2)c1
REMARK SMILES IDX 12 1 13 2 11 4 10 5 9 6 33 7 8 8 6 9 7 10 5 11 3 12 2 13
REMARK SMILES IDX 4 14 1 15 14 17 15 18 16 19 17 20 18 21 19 22 32 23 20 24
REMARK SMILES IDX 31 25 21 26 30 27 22 28 29 29 24 30 28 31 25 32 27 33 26 34
REMARK SMILES IDX 23 35
REMARK H PARENT 12 3 2 16
ROOT
ATOM      1  N   UNL     1      12.096 -59.022 -22.621  1.00  0.00    -0.334 N 
ATOM      2  C   UNL     1      11.181 -59.555 -21.556  1.00  0.00     0.333 C 
ATOM      3  H   UNL     1      12.970 -58.756 -22.140  1.00  0.00     0.348 HD
ENDROOT
BRANCH   1   4
ATOM      4  C   UNL     1      12.512 -60.086 -23.623  1.00  0.00     0.298 C 
BRANCH   4   5
ATOM      5  C   UNL     1      11.529 -60.321 -24.736  1.00  0.00     0.010 A 
ATOM      6  C   UNL     1      11.790 -59.887 -26.046  1.00  0.00     0.010 A 
ATOM      7  C   UNL     1      10.356 -61.047 -24.490  1.00  0.00     0.056 A 
ATOM      8  C   UNL     1      10.915 -60.205 -27.089  1.00  0.00     0.004 A 
ATOM      9  C   UNL     1       9.528 -61.421 -25.548  1.00  0.00     0.133 A 
ATOM     10  C   UNL     1       9.785 -60.984 -26.843  1.00  0.00     0.047 A 
BRANCH   9  11
ATOM     11  O   UNL     1       8.395 -62.223 -25.349  1.00  0.00    -0.410 OA
BRANCH  11  12
ATOM     12  C   UNL     1       7.643 -61.979 -24.203  1.00  0.00     0.412 C 
ATOM     13  N   UNL     1       7.138 -60.712 -24.256  1.00  0.00    -0.324 N 
ATOM     14  O   UNL     1       7.467 -62.767 -23.281  1.00  0.00    -0.224 OA
ATOM     15  C   UNL     1       6.379 -60.130 -23.182  1.00  0.00     0.146 C 
ATOM     16  H   UNL     1       7.429 -60.136 -25.037  1.00  0.00     0.166 HD
ENDBRANCH  11  12
ENDBRANCH   9  11
ENDBRANCH   4   5
ENDBRANCH   1   4
BRANCH   1  17
ATOM     17  C   UNL     1      11.580 -57.748 -23.266  1.00  0.00     0.265 C 
BRANCH  17  18
ATOM     18  C   UNL     1      10.143 -57.433 -22.842  1.00  0.00     0.103 C 
BRANCH  18  19
ATOM     19  C   UNL     1       9.761 -55.967 -23.051  1.00  0.00     0.235 C 
BRANCH  19  20
ATOM     20  O   UNL     1      10.378 -55.189 -22.019  1.00  0.00    -0.493 OA
BRANCH  20  21
ATOM     21  C   UNL     1      10.901 -53.977 -22.387  1.00  0.00     0.123 A 
ATOM     22  C   UNL     1      10.698 -52.950 -21.458  1.00  0.00     0.047 A 
ATOM     23  C   UNL     1      11.600 -53.711 -23.566  1.00  0.00     0.094 A 
ATOM     24  C   UNL     1      11.193 -51.668 -21.702  1.00  0.00     0.020 A 
ATOM     25  C   UNL     1      12.095 -52.424 -23.814  1.00  0.00     0.142 A 
ATOM     26  C   UNL     1      11.893 -51.411 -22.882  1.00  0.00     0.066 A 
ATOM     27  O   UNL     1      12.772 -52.248 -24.998  1.00  0.00    -0.456 OA
ATOM     28  C   UNL     1      12.428 -50.072 -23.161  1.00  0.00     0.200 A 
ATOM     29  C   UNL     1      13.267 -50.999 -25.283  1.00  0.00     0.138 A 
ATOM     30  C   UNL     1      13.136 -49.898 -24.438  1.00  0.00     0.065 A 
ATOM     31  C   UNL     1      13.935 -50.856 -26.500  1.00  0.00     0.048 A 
ATOM     32  C   UNL     1      13.669 -48.655 -24.796  1.00  0.00     0.016 A 
ATOM     33  C   UNL     1      14.469 -49.617 -26.864  1.00  0.00     0.004 A 
ATOM     34  C   UNL     1      14.337 -48.519 -26.012  1.00  0.00     0.001 A 
ATOM     35  O   UNL     1      12.289 -49.156 -22.364  1.00  0.00    -0.288 OA
ENDBRANCH  20  21
ENDBRANCH  19  20
ENDBRANCH  18  19
ENDBRANCH  17  18
ENDBRANCH   1  17
TORSDOF 9
ENDMDL
MODEL 6
REMARK VINA RESULT:   -10.327      2.360      4.214
REMARK INTER + INTRA:         -16.800
REMARK INTER:                 -15.794
REMARK INTRA:                  -1.005
REMARK UNBOUND:                -1.039
REMARK SMILES CNC(=O)Oc1cccc(C[N@H+](C)CCCOc2ccc3c(=O)c4ccccc4oc3c2)c1
REMARK SMILES IDX 12 1 13 2 11 4 10 5 9 6 33 7 8 8 6 9 7 10 5 11 3 12 2 13
REMARK SMILES IDX 4 14 1 15 14 17 15 18 16 19 17 20 18 21 19 22 32 23 20 24
REMARK SMILES IDX 31 25 21 26 30 27 22 28 29 29 24 30 28 31 25 32 27 33 26 34
REMARK SMILES IDX 23 35
REMARK H PARENT 12 3 2 16
ROOT
ATOM      1  N   UNL     1      10.756 -55.608 -23.529  1.00  0.00    -0.334 N 
ATOM      2  C   UNL     1      11.813 -55.170 -24.501  1.00  0.00     0.333 C 
ATOM      3  H   UNL     1      10.113 -56.217 -24.060  1.00  0.00     0.348 HD
ENDROOT
BRANCH   1   4
ATOM      4  C   UNL     1      11.306 -56.496 -22.425  1.00  0.00     0.298 C 
BRANCH   4   5
ATOM      5  C   UNL     1      10.730 -57.884 -22.386  1.00  0.00     0.010 A 
ATOM      6  C   UNL     1      11.028 -58.771 -21.339  1.00  0.00     0.010 A 
ATOM      7  C   UNL     1       9.821 -58.291 -23.373  1.00  0.00     0.056 A 
ATOM      8  C   UNL     1      10.403 -60.019 -21.263  1.00  0.00     0.004 A 
ATOM      9  C   UNL     1       9.150 -59.506 -23.249  1.00  0.00     0.133 A 
ATOM     10  C   UNL     1       9.451 -60.385 -22.215  1.00  0.00     0.047 A 
BRANCH   9  11
ATOM     11  O   UNL     1       8.168 -59.903 -24.169  1.00  0.00    -0.410 OA
BRANCH  11  12
ATOM     12  C   UNL     1       6.886 -60.116 -23.670  1.00  0.00     0.412 C 
ATOM     13  N   UNL     1       6.438 -58.973 -23.074  1.00  0.00    -0.324 N 
ATOM     14  O   UNL     1       6.256 -61.165 -23.739  1.00  0.00    -0.224 OA
ATOM     15  C   UNL     1       5.174 -58.892 -22.393  1.00  0.00     0.146 C 
ATOM     16  H   UNL     1       7.092 -58.202 -23.013  1.00  0.00     0.166 HD
ENDBRANCH  11  12
ENDBRANCH   9  11
ENDBRANCH   4   5
ENDBRANCH   1   4
BRANCH   1  17
ATOM     17  C   UNL     1       9.904 -54.461 -23.018  1.00  0.00     0.265 C 
BRANCH  17  18
ATOM     18  C   UNL     1      10.216 -54.123 -21.557  1.00  0.00     0.103 C 
BRANCH  18  19
ATOM     19  C   UNL     1      10.922 -52.777 -21.387  1.00  0.00     0.235 C 
BRANCH  19  20
ATOM     20  O   UNL     1      11.713 -52.533 -22.556  1.00  0.00    -0.493 OA
BRANCH  20  21
ATOM     21  C   UNL     1      11.816 -51.232 -22.972  1.00  0.00     0.123 A 
ATOM     22  C   UNL     1      10.900 -50.356 -22.379  1.00  0.00     0.047 A 
ATOM     23  C   UNL     1      12.739 -50.739 -23.897  1.00  0.00     0.094 A 
ATOM     24  C   UNL     1      10.906 -48.999 -22.703  1.00  0.00     0.020 A 
ATOM     25  C   UNL     1      12.746 -49.377 -24.225  1.00  0.00     0.142 A 
ATOM     26  C   UNL     1      11.833 -48.514 -23.627  1.00  0.00     0.066 A 
ATOM     27  O   UNL     1      13.686 -48.975 -25.144  1.00  0.00    -0.456 OA
ATOM     28  C   UNL     1      11.865 -47.090 -23.982  1.00  0.00     0.200 A 
ATOM     29  C   UNL     1      13.721 -47.649 -25.500  1.00  0.00     0.138 A 
ATOM     30  C   UNL     1      12.867 -46.680 -24.977  1.00  0.00     0.065 A 
ATOM     31  C   UNL     1      14.681 -47.283 -26.445  1.00  0.00     0.048 A 
ATOM     32  C   UNL     1      12.964 -45.346 -25.386  1.00  0.00     0.016 A 
ATOM     33  C   UNL     1      14.782 -45.952 -26.859  1.00  0.00     0.004 A 
ATOM     34  C   UNL     1      13.925 -44.985 -26.330  1.00  0.00     0.001 A 
ATOM     35  O   UNL     1      11.093 -46.292 -23.469  1.00  0.00    -0.288 OA
ENDBRANCH  20  21
ENDBRANCH  19  20
ENDBRANCH  18  19
ENDBRANCH  17  18
ENDBRANCH   1  17
TORSDOF 9
ENDMDL
MODEL 7
REMARK VINA RESULT:   -10.114      3.034     10.498
REMARK INTER + INTRA:         -16.475
REMARK INTER:                 -15.967
REMARK INTRA:                  -0.508
REMARK UNBOUND:                -1.039
REMARK SMILES CNC(=O)Oc1cccc(C[N@H+](C)CCCOc2ccc3c(=O)c4ccccc4oc3c2)c1
REMARK SMILES IDX 12 1 13 2 11 4 10 5 9 6 33 7 8 8 6 9 7 10 5 11 3 12 2 13
REMARK SMILES IDX 4 14 1 15 14 17 15 18 16 19 17 20 18 21 19 22 32 23 20 24
REMARK SMILES IDX 31 25 21 26 30 27 22 28 29 29 24 30 28 31 25 32 27 33 26 34
REMARK SMILES IDX 23 35
REMARK H PARENT 12 3 2 16
ROOT
ATOM      1  N   UNL     1      10.430 -50.989 -22.697  1.00  0.00    -0.334 N 
ATOM      2  C   UNL     1       9.818 -49.766 -22.076  1.00  0.00     0.333 C 
ATOM      3  H   UNL     1      10.282 -50.897 -23.715  1.00  0.00     0.348 HD
ENDROOT
BRANCH   1   4
ATOM      4  C   UNL     1      11.939 -51.040 -22.527  1.00  0.00     0.298 C 
BRANCH   4   5
ATOM      5  C   UNL     1      12.719 -51.025 -23.812  1.00  0.00     0.010 A 
ATOM      6  C   UNL     1      12.866 -49.847 -24.564  1.00  0.00     0.010 A 
ATOM      7  C   UNL     1      13.375 -52.185 -24.245  1.00  0.00     0.056 A 
ATOM      8  C   UNL     1      13.680 -49.826 -25.700  1.00  0.00     0.004 A 
ATOM      9  C   UNL     1      14.241 -52.135 -25.336  1.00  0.00     0.133 A 
ATOM     10  C   UNL     1      14.380 -50.970 -26.083  1.00  0.00     0.047 A 
BRANCH   9  11
ATOM     11  O   UNL     1      14.982 -53.255 -25.741  1.00  0.00    -0.410 OA
BRANCH  11  12
ATOM     12  C   UNL     1      16.369 -53.126 -25.741  1.00  0.00     0.412 C 
ATOM     13  N   UNL     1      16.740 -52.240 -24.772  1.00  0.00    -0.324 N 
ATOM     14  O   UNL     1      17.141 -53.703 -26.498  1.00  0.00    -0.224 OA
ATOM     15  C   UNL     1      18.104 -51.832 -24.570  1.00  0.00     0.146 C 
ATOM     16  H   UNL     1      15.995 -51.771 -24.272  1.00  0.00     0.166 HD
ENDBRANCH  11  12
ENDBRANCH   9  11
ENDBRANCH   4   5
ENDBRANCH   1   4
BRANCH   1  17
ATOM     17  C   UNL     1       9.729 -52.275 -22.297  1.00  0.00     0.265 C 
BRANCH  17  18
ATOM     18  C   UNL     1      10.685 -53.259 -21.616  1.00  0.00     0.103 C 
BRANCH  18  19
ATOM     19  C   UNL     1      11.069 -54.440 -22.508  1.00  0.00     0.235 C 
BRANCH  19  20
ATOM     20  O   UNL     1       9.874 -55.143 -22.865  1.00  0.00    -0.493 OA
BRANCH  20  21
ATOM     21  C   UNL     1       9.965 -56.506 -22.968  1.00  0.00     0.123 A 
ATOM     22  C   UNL     1      11.270 -57.008 -22.915  1.00  0.00     0.047 A 
ATOM     23  C   UNL     1       8.893 -57.391 -23.107  1.00  0.00     0.094 A 
ATOM     24  C   UNL     1      11.505 -58.381 -22.995  1.00  0.00     0.020 A 
ATOM     25  C   UNL     1       9.126 -58.770 -23.189  1.00  0.00     0.142 A 
ATOM     26  C   UNL     1      10.428 -59.258 -23.131  1.00  0.00     0.066 A 
ATOM     27  O   UNL     1       8.016 -59.569 -23.324  1.00  0.00    -0.456 OA
ATOM     28  C   UNL     1      10.646 -60.709 -23.212  1.00  0.00     0.200 A 
ATOM     29  C   UNL     1       8.202 -60.927 -23.417  1.00  0.00     0.138 A 
ATOM     30  C   UNL     1       9.449 -61.548 -23.370  1.00  0.00     0.065 A 
ATOM     31  C   UNL     1       7.052 -61.704 -23.566  1.00  0.00     0.048 A 
ATOM     32  C   UNL     1       9.560 -62.938 -23.469  1.00  0.00     0.016 A 
ATOM     33  C   UNL     1       7.155 -63.094 -23.666  1.00  0.00     0.004 A 
ATOM     34  C   UNL     1       8.407 -63.710 -23.617  1.00  0.00     0.001 A 
ATOM     35  O   UNL     1      11.770 -61.184 -23.148  1.00  0.00    -0.288 OA
ENDBRANCH  20  21
ENDBRANCH  19  20
ENDBRANCH  18  19
ENDBRANCH  17  18
ENDBRANCH   1  17
TORSDOF 9
ENDMDL
MODEL 8
REMARK VINA RESULT:    -9.889      2.966      5.138
REMARK INTER + INTRA:         -16.131
REMARK INTER:                 -15.589
REMARK INTRA:                  -0.543
REMARK UNBOUND:                -1.039
REMARK SMILES CNC(=O)Oc1cccc(C[N@H+](C)CCCOc2ccc3c(=O)c4ccccc4oc3c2)c1
REMARK SMILES IDX 12 1 13 2 11 4 10 5 9 6 33 7 8 8 6 9 7 10 5 11 3 12 2 13
REMARK SMILES IDX 4 14 1 15 14 17 15 18 16 19 17 20 18 21 19 22 32 23 20 24
REMARK SMILES IDX 31 25 21 26 30 27 22 28 29 29 24 30 28 31 25 32 27 33 26 34
REMARK SMILES IDX 23 35
REMARK H PARENT 12 3 2 16
ROOT
ATOM      1  N   UNL     1      10.116 -56.001 -22.432  1.00  0.00    -0.334 N 
ATOM      2  C   UNL     1       9.054 -56.798 -23.133  1.00  0.00     0.333 C 
ATOM      3  H   UNL     1       9.772 -55.849 -21.471  1.00  0.00     0.348 HD
ENDROOT
BRANCH   1   4
ATOM      4  C   UNL     1      11.413 -56.775 -22.263  1.00  0.00     0.298 C 
BRANCH   4   5
ATOM      5  C   UNL     1      11.312 -58.246 -22.561  1.00  0.00     0.010 A 
ATOM      6  C   UNL     1      10.780 -59.147 -21.625  1.00  0.00     0.010 A 
ATOM      7  C   UNL     1      11.689 -58.730 -23.821  1.00  0.00     0.056 A 
ATOM      8  C   UNL     1      10.598 -60.493 -21.956  1.00  0.00     0.004 A 
ATOM      9  C   UNL     1      11.436 -60.056 -24.166  1.00  0.00     0.133 A 
ATOM     10  C   UNL     1      10.916 -60.949 -23.235  1.00  0.00     0.047 A 
BRANCH   9  11
ATOM     11  O   UNL     1      11.718 -60.551 -25.448  1.00  0.00    -0.410 OA
BRANCH  11  12
ATOM     12  C   UNL     1      11.143 -59.879 -26.524  1.00  0.00     0.412 C 
ATOM     13  N   UNL     1      12.129 -59.399 -27.336  1.00  0.00    -0.324 N 
ATOM     14  O   UNL     1       9.941 -59.726 -26.712  1.00  0.00    -0.224 OA
ATOM     15  C   UNL     1      11.861 -58.591 -28.494  1.00  0.00     0.146 C 
ATOM     16  H   UNL     1      13.083 -59.525 -27.020  1.00  0.00     0.166 HD
ENDBRANCH  11  12
ENDBRANCH   9  11
ENDBRANCH   4   5
ENDBRANCH   1   4
BRANCH   1  17
ATOM     17  C   UNL     1      10.309 -54.616 -23.022  1.00  0.00     0.265 C 
BRANCH  17  18
ATOM     18  C   UNL     1      11.378 -54.604 -24.118  1.00  0.00     0.103 C 
BRANCH  18  19
ATOM     19  C   UNL     1      12.045 -53.239 -24.293  1.00  0.00     0.235 C 
BRANCH  19  20
ATOM     20  O   UNL     1      12.045 -52.571 -23.026  1.00  0.00    -0.493 OA
BRANCH  20  21
ATOM     21  C   UNL     1      11.809 -51.222 -23.039  1.00  0.00     0.123 A 
ATOM     22  C   UNL     1      10.806 -50.798 -22.159  1.00  0.00     0.047 A 
ATOM     23  C   UNL     1      12.476 -50.281 -23.826  1.00  0.00     0.094 A 
ATOM     24  C   UNL     1      10.475 -49.445 -22.061  1.00  0.00     0.020 A 
ATOM     25  C   UNL     1      12.144 -48.923 -23.731  1.00  0.00     0.142 A 
ATOM     26  C   UNL     1      11.149 -48.512 -22.849  1.00  0.00     0.066 A 
ATOM     27  O   UNL     1      12.849 -48.064 -24.540  1.00  0.00    -0.456 OA
ATOM     28  C   UNL     1      10.825 -47.082 -22.763  1.00  0.00     0.200 A 
ATOM     29  C   UNL     1      12.549 -46.725 -24.484  1.00  0.00     0.138 A 
ATOM     30  C   UNL     1      11.578 -46.179 -23.645  1.00  0.00     0.065 A 
ATOM     31  C   UNL     1      13.278 -45.887 -25.329  1.00  0.00     0.048 A 
ATOM     32  C   UNL     1      11.329 -44.804 -23.641  1.00  0.00     0.016 A 
ATOM     33  C   UNL     1      13.033 -44.511 -25.331  1.00  0.00     0.004 A 
ATOM     34  C   UNL     1      12.061 -43.971 -24.488  1.00  0.00     0.001 A 
ATOM     35  O   UNL     1       9.970 -46.673 -21.990  1.00  0.00    -0.288 OA
ENDBRANCH  20  21
ENDBRANCH  19  20
ENDBRANCH  18  19
ENDBRANCH  17  18
ENDBRANCH   1  17
TORSDOF 9
ENDMDL
MODEL 9
REMARK VINA RESULT:    -9.828      5.633     10.521
REMARK INTER + INTRA:         -16.038
REMARK INTER:                 -13.102
REMARK INTRA:                  -2.937
REMARK UNBOUND:                -1.039
REMARK SMILES CNC(=O)Oc1cccc(C[N@H+](C)CCCOc2ccc3c(=O)c4ccccc4oc3c2)c1
REMARK SMILES IDX 12 1 13 2 11 4 10 5 9 6 33 7 8 8 6 9 7 10 5 11 3 12 2 13
REMARK SMILES IDX 4 14 1 15 14 17 15 18 16 19 17 20 18 21 19 22 32 23 20 24
REMARK SMILES IDX 31 25 21 26 30 27 22 28 29 29 24 30 28 31 25 32 27 33 26 34
REMARK SMILES IDX 23 35
REMARK H PARENT 12 3 2 16
ROOT
ATOM      1  N   UNL     1      17.756 -50.000 -27.618  1.00  0.00    -0.334 N 
ATOM      2  C   UNL     1      18.498 -50.250 -28.899  1.00  0.00     0.333 C 
ATOM      3  H   UNL     1      16.908 -50.587 -27.659  1.00  0.00     0.348 HD
ENDROOT
BRANCH   1   4
ATOM      4  C   UNL     1      18.512 -50.494 -26.396  1.00  0.00     0.298 C 
BRANCH   4   5
ATOM      5  C   UNL     1      17.651 -50.781 -25.196  1.00  0.00     0.010 A 
ATOM      6  C   UNL     1      17.078 -52.047 -24.994  1.00  0.00     0.010 A 
ATOM      7  C   UNL     1      17.466 -49.795 -24.218  1.00  0.00     0.056 A 
ATOM      8  C   UNL     1      16.367 -52.327 -23.824  1.00  0.00     0.004 A 
ATOM      9  C   UNL     1      16.819 -50.107 -23.024  1.00  0.00     0.133 A 
ATOM     10  C   UNL     1      16.245 -51.358 -22.828  1.00  0.00     0.047 A 
BRANCH   9  11
ATOM     11  O   UNL     1      16.695 -49.170 -21.986  1.00  0.00    -0.410 OA
BRANCH  11  12
ATOM     12  C   UNL     1      15.743 -48.168 -22.153  1.00  0.00     0.412 C 
ATOM     13  N   UNL     1      14.621 -48.489 -21.445  1.00  0.00    -0.324 N 
ATOM     14  O   UNL     1      15.877 -47.159 -22.836  1.00  0.00    -0.224 OA
ATOM     15  C   UNL     1      13.425 -47.691 -21.474  1.00  0.00     0.146 C 
ATOM     16  H   UNL     1      14.611 -49.393 -20.989  1.00  0.00     0.166 HD
ENDBRANCH  11  12
ENDBRANCH   9  11
ENDBRANCH   4   5
ENDBRANCH   1   4
BRANCH   1  17
ATOM     17  C   UNL     1      17.258 -48.572 -27.487  1.00  0.00     0.265 C 
BRANCH  17  18
ATOM     18  C   UNL     1      16.047 -48.304 -28.385  1.00  0.00     0.103 C 
BRANCH  18  19
ATOM     19  C   UNL     1      14.723 -48.737 -27.755  1.00  0.00     0.235 C 
BRANCH  19  20
ATOM     20  O   UNL     1      14.813 -50.128 -27.427  1.00  0.00    -0.493 OA
BRANCH  20  21
ATOM     21  C   UNL     1      14.096 -50.555 -26.341  1.00  0.00     0.123 A 
ATOM     22  C   UNL     1      13.847 -49.567 -25.382  1.00  0.00     0.047 A 
ATOM     23  C   UNL     1      13.608 -51.848 -26.139  1.00  0.00     0.094 A 
ATOM     24  C   UNL     1      13.114 -49.864 -24.232  1.00  0.00     0.020 A 
ATOM     25  C   UNL     1      12.873 -52.149 -24.985  1.00  0.00     0.142 A 
ATOM     26  C   UNL     1      12.628 -51.158 -24.040  1.00  0.00     0.066 A 
ATOM     27  O   UNL     1      12.430 -53.445 -24.865  1.00  0.00    -0.456 OA
ATOM     28  C   UNL     1      11.849 -51.498 -22.842  1.00  0.00     0.200 A 
ATOM     29  C   UNL     1      11.713 -53.785 -23.743  1.00  0.00     0.138 A 
ATOM     30  C   UNL     1      11.395 -52.891 -22.722  1.00  0.00     0.065 A 
ATOM     31  C   UNL     1      11.292 -55.112 -23.652  1.00  0.00     0.048 A 
ATOM     32  C   UNL     1      10.659 -53.309 -21.610  1.00  0.00     0.016 A 
ATOM     33  C   UNL     1      10.556 -55.537 -22.542  1.00  0.00     0.004 A 
ATOM     34  C   UNL     1      10.239 -54.637 -21.524  1.00  0.00     0.001 A 
ATOM     35  O   UNL     1      11.595 -50.655 -21.993  1.00  0.00    -0.288 OA
ENDBRANCH  20  21
ENDBRANCH  19  20
ENDBRANCH  18  19
ENDBRANCH  17  18
ENDBRANCH   1  17
TORSDOF 9
ENDMDL
