MODEL 1
REMARK VINA RESULT:   -12.374      0.000      0.000
REMARK INTER + INTRA:         -16.598
REMARK INTER:                 -15.991
REMARK INTRA:                  -0.607
REMARK UNBOUND:                -0.607
REMARK SMILES O=C1C=C(NCCN=c2c3c([nH]c4cc(Cl)ccc24)CCCC3)C(=O)c2ccccc21
REMARK SMILES IDX 7 1 8 2 9 3 12 4 11 5 13 6 10 7 20 8 14 9 19 10 23 11 21 12
REMARK SMILES IDX 15 13 18 14 22 15 17 16 16 18 6 19 5 20 4 22 3 23 24 24 2 25
REMARK SMILES IDX 26 26 31 27 27 28 30 29 28 30 29 31 25 32 1 33
REMARK H PARENT 12 17 5 21
ROOT
ATOM      1  C   UNL     1      10.854 -59.839 -22.538  1.00  0.00     0.164 C 
ENDROOT
BRANCH   1   2
ATOM      2  N   UNL     1      11.237 -60.675 -23.660  1.00  0.00    -0.282 NA
BRANCH   2   3
ATOM      3  C   UNL     1      10.469 -60.999 -24.639  1.00  0.00     0.072 A 
ATOM      4  N   UNL     1       9.396 -62.027 -27.053  1.00  0.00    -0.358 N 
ATOM      5  C   UNL     1       8.812 -62.364 -25.849  1.00  0.00     0.021 A 
ATOM      6  C   UNL     1      10.291 -60.955 -27.140  1.00  0.00     0.049 A 
ATOM      7  C   UNL     1       9.246 -61.901 -24.654  1.00  0.00    -0.003 A 
ATOM      8  C   UNL     1       7.606 -63.279 -25.964  1.00  0.00     0.054 C 
ATOM      9  C   UNL     1      10.701 -60.467 -28.386  1.00  0.00     0.047 A 
ATOM     10  C   UNL     1      10.845 -60.409 -25.973  1.00  0.00     0.024 A 
ATOM     11  C   UNL     1       8.500 -62.181 -23.376  1.00  0.00     0.039 C 
ATOM     12  C   UNL     1       7.097 -63.827 -24.634  1.00  0.00     0.007 C 
ATOM     13  C   UNL     1      11.622 -59.421 -28.461  1.00  0.00     0.043 A 
ATOM     14  C   UNL     1      11.774 -59.361 -26.057  1.00  0.00     0.014 A 
ATOM     15  C   UNL     1       7.087 -62.729 -23.584  1.00  0.00     0.005 C 
ATOM     16  C   UNL     1      12.156 -58.862 -27.303  1.00  0.00     0.021 A 
ATOM     17  H   UNL     1       8.873 -62.256 -27.893  1.00  0.00     0.166 HD
ATOM     18  Cl  UNL     1      12.105 -58.820 -29.999  1.00  0.00    -0.084 Cl
ENDBRANCH   2   3
ENDBRANCH   1   2
BRANCH   1  19
ATOM     19  C   UNL     1      11.624 -58.510 -22.623  1.00  0.00     0.136 C 
BRANCH  19  20
ATOM     20  N   UNL     1      10.779 -57.463 -23.188  1.00  0.00    -0.380 N 
ATOM     21  H   UNL     1      10.464 -57.652 -24.147  1.00  0.00     0.160 HD
BRANCH  20  22
ATOM     22  C   UNL     1      10.978 -56.095 -23.022  1.00  0.00     0.087 C 
ATOM     23  C   UNL     1      10.544 -55.358 -21.992  1.00  0.00     0.082 C 
ATOM     24  C   UNL     1      11.753 -55.425 -24.126  1.00  0.00     0.209 C 
ATOM     25  C   UNL     1      10.774 -53.907 -21.880  1.00  0.00     0.188 C 
ATOM     26  C   UNL     1      11.966 -53.967 -24.058  1.00  0.00     0.035 A 
ATOM     27  C   UNL     1      11.496 -53.235 -22.972  1.00  0.00     0.033 A 
ATOM     28  C   UNL     1      12.656 -53.319 -25.092  1.00  0.00     0.013 A 
ATOM     29  C   UNL     1      11.711 -51.851 -22.914  1.00  0.00     0.013 A 
ATOM     30  C   UNL     1      12.868 -51.940 -25.033  1.00  0.00     0.001 A 
ATOM     31  C   UNL     1      12.396 -51.208 -23.945  1.00  0.00     0.001 A 
ATOM     32  O   UNL     1      12.207 -56.089 -25.057  1.00  0.00    -0.287 OA
ATOM     33  O   UNL     1      10.370 -53.289 -20.903  1.00  0.00    -0.289 OA
ENDBRANCH  20  22
ENDBRANCH  19  20
ENDBRANCH   1  19
TORSDOF 5
ENDMDL
MODEL 2
REMARK VINA RESULT:   -12.039      2.099      3.889
REMARK INTER + INTRA:         -16.165
REMARK INTER:                 -15.671
REMARK INTRA:                  -0.495
REMARK UNBOUND:                -0.607
REMARK SMILES O=C1C=C(NCCN=c2c3c([nH]c4cc(Cl)ccc24)CCCC3)C(=O)c2ccccc21
REMARK SMILES IDX 7 1 8 2 9 3 12 4 11 5 13 6 10 7 20 8 14 9 19 10 23 11 21 12
REMARK SMILES IDX 15 13 18 14 22 15 17 16 16 18 6 19 5 20 4 22 3 23 24 24 2 25
REMARK SMILES IDX 26 26 31 27 27 28 30 29 28 30 29 31 25 32 1 33
REMARK H PARENT 12 17 5 21
ROOT
ATOM      1  C   UNL     1      12.121 -58.275 -23.836  1.00  0.00     0.164 C 
ENDROOT
BRANCH   1   2
ATOM      2  N   UNL     1      11.999 -59.720 -23.876  1.00  0.00    -0.282 NA
BRANCH   2   3
ATOM      3  C   UNL     1      11.412 -60.389 -24.803  1.00  0.00     0.072 A 
ATOM      4  N   UNL     1       9.507 -61.571 -26.539  1.00  0.00    -0.358 N 
ATOM      5  C   UNL     1      10.531 -60.811 -27.067  1.00  0.00     0.021 A 
ATOM      6  C   UNL     1       9.564 -62.033 -25.219  1.00  0.00     0.049 A 
ATOM      7  C   UNL     1      11.493 -60.230 -26.313  1.00  0.00    -0.003 A 
ATOM      8  C   UNL     1      10.522 -60.699 -28.580  1.00  0.00     0.054 C 
ATOM      9  C   UNL     1       8.650 -62.987 -24.758  1.00  0.00     0.047 A 
ATOM     10  C   UNL     1      10.492 -61.481 -24.325  1.00  0.00     0.024 A 
ATOM     11  C   UNL     1      12.670 -59.524 -26.934  1.00  0.00     0.039 C 
ATOM     12  C   UNL     1      11.514 -59.688 -29.147  1.00  0.00     0.007 C 
ATOM     13  C   UNL     1       8.694 -63.414 -23.429  1.00  0.00     0.043 A 
ATOM     14  C   UNL     1      10.526 -61.912 -22.989  1.00  0.00     0.014 A 
ATOM     15  C   UNL     1      12.848 -59.801 -28.428  1.00  0.00     0.005 C 
ATOM     16  C   UNL     1       9.629 -62.885 -22.544  1.00  0.00     0.021 A 
ATOM     17  H   UNL     1       8.968 -62.127 -27.195  1.00  0.00     0.166 HD
ATOM     18  Cl  UNL     1       7.576 -64.601 -22.880  1.00  0.00    -0.084 Cl
ENDBRANCH   2   3
ENDBRANCH   1   2
BRANCH   1  19
ATOM     19  C   UNL     1      11.018 -57.709 -22.925  1.00  0.00     0.136 C 
BRANCH  19  20
ATOM     20  N   UNL     1      10.411 -56.527 -23.528  1.00  0.00    -0.380 N 
ATOM     21  H   UNL     1      10.190 -56.634 -24.526  1.00  0.00     0.160 HD
BRANCH  20  22
ATOM     22  C   UNL     1      10.786 -55.212 -23.270  1.00  0.00     0.087 C 
ATOM     23  C   UNL     1      10.436 -54.492 -22.197  1.00  0.00     0.082 C 
ATOM     24  C   UNL     1      11.661 -54.580 -24.322  1.00  0.00     0.209 C 
ATOM     25  C   UNL     1      10.854 -53.094 -21.986  1.00  0.00     0.188 C 
ATOM     26  C   UNL     1      12.063 -53.171 -24.155  1.00  0.00     0.035 A 
ATOM     27  C   UNL     1      11.677 -52.455 -23.026  1.00  0.00     0.033 A 
ATOM     28  C   UNL     1      12.849 -52.555 -25.138  1.00  0.00     0.013 A 
ATOM     29  C   UNL     1      12.072 -51.119 -22.874  1.00  0.00     0.013 A 
ATOM     30  C   UNL     1      13.241 -51.223 -24.986  1.00  0.00     0.001 A 
ATOM     31  C   UNL     1      12.853 -50.507 -23.855  1.00  0.00     0.001 A 
ATOM     32  O   UNL     1      12.038 -55.237 -25.290  1.00  0.00    -0.287 OA
ATOM     33  O   UNL     1      10.520 -52.494 -20.974  1.00  0.00    -0.289 OA
ENDBRANCH  20  22
ENDBRANCH  19  20
ENDBRANCH   1  19
TORSDOF 5
ENDMDL
MODEL 3
REMARK VINA RESULT:   -10.994      1.150      2.164
REMARK INTER + INTRA:         -14.815
REMARK INTER:                 -14.503
REMARK INTRA:                  -0.312
REMARK UNBOUND:                -0.607
REMARK SMILES O=C1C=C(NCCN=c2c3c([nH]c4cc(Cl)ccc24)CCCC3)C(=O)c2ccccc21
REMARK SMILES IDX 7 1 8 2 9 3 12 4 11 5 13 6 10 7 20 8 14 9 19 10 23 11 21 12
REMARK SMILES IDX 15 13 18 14 22 15 17 16 16 18 6 19 5 20 4 22 3 23 24 24 2 25
REMARK SMILES IDX 26 26 31 27 27 28 30 29 28 30 29 31 25 32 1 33
REMARK H PARENT 12 17 5 21
ROOT
ATOM      1  C   UNL     1      11.040 -58.579 -23.320  1.00  0.00     0.164 C 
ENDROOT
BRANCH   1   2
ATOM      2  N   UNL     1      11.402 -59.722 -24.138  1.00  0.00    -0.282 NA
BRANCH   2   3
ATOM      3  C   UNL     1      10.621 -60.315 -24.969  1.00  0.00     0.072 A 
ATOM      4  N   UNL     1       9.527 -61.965 -26.999  1.00  0.00    -0.358 N 
ATOM      5  C   UNL     1       8.999 -62.010 -25.724  1.00  0.00     0.021 A 
ATOM      6  C   UNL     1      10.362 -60.913 -27.391  1.00  0.00     0.049 A 
ATOM      7  C   UNL     1       9.446 -61.242 -24.704  1.00  0.00    -0.003 A 
ATOM      8  C   UNL     1       7.839 -62.974 -25.552  1.00  0.00     0.054 C 
ATOM      9  C   UNL     1      10.707 -60.741 -28.736  1.00  0.00     0.047 A 
ATOM     10  C   UNL     1      10.924 -60.067 -26.423  1.00  0.00     0.024 A 
ATOM     11  C   UNL     1       8.756 -61.220 -23.365  1.00  0.00     0.039 C 
ATOM     12  C   UNL     1       7.400 -63.188 -24.107  1.00  0.00     0.007 C 
ATOM     13  C   UNL     1      11.570 -59.710 -29.112  1.00  0.00     0.043 A 
ATOM     14  C   UNL     1      11.795 -59.036 -26.809  1.00  0.00     0.014 A 
ATOM     15  C   UNL     1       7.367 -61.861 -23.367  1.00  0.00     0.005 C 
ATOM     16  C   UNL     1      12.111 -58.854 -28.156  1.00  0.00     0.021 A 
ATOM     17  H   UNL     1       8.990 -62.421 -27.730  1.00  0.00     0.166 HD
ATOM     18  Cl  UNL     1      11.973 -59.499 -30.771  1.00  0.00    -0.084 Cl
ENDBRANCH   2   3
ENDBRANCH   1   2
BRANCH   1  19
ATOM     19  C   UNL     1      11.745 -57.329 -23.875  1.00  0.00     0.136 C 
BRANCH  19  20
ATOM     20  N   UNL     1      11.022 -56.120 -23.493  1.00  0.00    -0.380 N 
ATOM     21  H   UNL     1      10.008 -56.172 -23.649  1.00  0.00     0.160 HD
BRANCH  20  22
ATOM     22  C   UNL     1      11.464 -54.818 -23.712  1.00  0.00     0.087 C 
ATOM     23  C   UNL     1      12.173 -54.397 -24.766  1.00  0.00     0.082 C 
ATOM     24  C   UNL     1      11.089 -53.829 -22.639  1.00  0.00     0.209 C 
ATOM     25  C   UNL     1      12.625 -53.004 -24.936  1.00  0.00     0.188 C 
ATOM     26  C   UNL     1      11.560 -52.437 -22.765  1.00  0.00     0.035 A 
ATOM     27  C   UNL     1      12.298 -52.038 -23.875  1.00  0.00     0.033 A 
ATOM     28  C   UNL     1      11.251 -51.508 -21.761  1.00  0.00     0.013 A 
ATOM     29  C   UNL     1      12.734 -50.711 -23.987  1.00  0.00     0.013 A 
ATOM     30  C   UNL     1      11.686 -50.187 -21.874  1.00  0.00     0.001 A 
ATOM     31  C   UNL     1      12.427 -49.789 -22.986  1.00  0.00     0.001 A 
ATOM     32  O   UNL     1      10.394 -54.180 -21.687  1.00  0.00    -0.287 OA
ATOM     33  O   UNL     1      13.254 -52.674 -25.933  1.00  0.00    -0.289 OA
ENDBRANCH  20  22
ENDBRANCH  19  20
ENDBRANCH   1  19
TORSDOF 5
ENDMDL
MODEL 4
REMARK VINA RESULT:   -10.617      5.172     10.780
REMARK INTER + INTRA:         -14.327
REMARK INTER:                 -14.241
REMARK INTRA:                  -0.086
REMARK UNBOUND:                -0.607
REMARK SMILES O=C1C=C(NCCN=c2c3c([nH]c4cc(Cl)ccc24)CCCC3)C(=O)c2ccccc21
REMARK SMILES IDX 7 1 8 2 9 3 12 4 11 5 13 6 10 7 20 8 14 9 19 10 23 11 21 12
REMARK SMILES IDX 15 13 18 14 22 15 17 16 16 18 6 19 5 20 4 22 3 23 24 24 2 25
REMARK SMILES IDX 26 26 31 27 27 28 30 29 28 30 29 31 25 32 1 33
REMARK H PARENT 12 17 5 21
ROOT
ATOM      1  C   UNL     1      10.121 -50.174 -22.002  1.00  0.00     0.164 C 
ENDROOT
BRANCH   1   2
ATOM      2  N   UNL     1      11.526 -49.955 -22.296  1.00  0.00    -0.282 NA
BRANCH   2   3
ATOM      3  C   UNL     1      11.977 -49.283 -23.295  1.00  0.00     0.072 A 
ATOM      4  N   UNL     1      13.318 -47.422 -24.961  1.00  0.00    -0.358 N 
ATOM      5  C   UNL     1      13.494 -48.775 -25.170  1.00  0.00     0.021 A 
ATOM      6  C   UNL     1      12.264 -46.951 -24.170  1.00  0.00     0.049 A 
ATOM      7  C   UNL     1      12.877 -49.730 -24.436  1.00  0.00    -0.003 A 
ATOM      8  C   UNL     1      14.419 -49.123 -26.322  1.00  0.00     0.054 C 
ATOM      9  C   UNL     1      11.945 -45.588 -24.146  1.00  0.00     0.047 A 
ATOM     10  C   UNL     1      11.569 -47.834 -23.332  1.00  0.00     0.024 A 
ATOM     11  C   UNL     1      12.987 -51.191 -24.781  1.00  0.00     0.039 C 
ATOM     12  C   UNL     1      14.787 -50.601 -26.415  1.00  0.00     0.007 C 
ATOM     13  C   UNL     1      10.916 -45.124 -23.325  1.00  0.00     0.043 A 
ATOM     14  C   UNL     1      10.538 -47.359 -22.506  1.00  0.00     0.014 A 
ATOM     15  C   UNL     1      13.560 -51.464 -26.173  1.00  0.00     0.005 C 
ATOM     16  C   UNL     1      10.207 -46.002 -22.510  1.00  0.00     0.021 A 
ATOM     17  H   UNL     1      13.656 -46.801 -25.689  1.00  0.00     0.166 HD
ATOM     18  Cl  UNL     1      10.522 -43.449 -23.319  1.00  0.00    -0.084 Cl
ENDBRANCH   2   3
ENDBRANCH   1   2
BRANCH   1  19
ATOM     19  C   UNL     1       9.761 -51.627 -22.358  1.00  0.00     0.136 C 
BRANCH  19  20
ATOM     20  N   UNL     1      10.808 -52.539 -21.910  1.00  0.00    -0.380 N 
ATOM     21  H   UNL     1      11.675 -52.070 -21.620  1.00  0.00     0.160 HD
BRANCH  20  22
ATOM     22  C   UNL     1      11.113 -53.763 -22.500  1.00  0.00     0.087 C 
ATOM     23  C   UNL     1      11.447 -53.955 -23.781  1.00  0.00     0.082 C 
ATOM     24  C   UNL     1      11.043 -54.951 -21.575  1.00  0.00     0.209 C 
ATOM     25  C   UNL     1      11.745 -55.281 -24.352  1.00  0.00     0.188 C 
ATOM     26  C   UNL     1      11.299 -56.294 -22.128  1.00  0.00     0.035 A 
ATOM     27  C   UNL     1      11.642 -56.453 -23.467  1.00  0.00     0.033 A 
ATOM     28  C   UNL     1      11.207 -57.416 -21.293  1.00  0.00     0.013 A 
ATOM     29  C   UNL     1      11.891 -57.733 -23.980  1.00  0.00     0.013 A 
ATOM     30  C   UNL     1      11.454 -58.690 -21.805  1.00  0.00     0.001 A 
ATOM     31  C   UNL     1      11.796 -58.849 -23.147  1.00  0.00     0.001 A 
ATOM     32  O   UNL     1      10.788 -54.794 -20.382  1.00  0.00    -0.287 OA
ATOM     33  O   UNL     1      12.066 -55.391 -25.528  1.00  0.00    -0.289 OA
ENDBRANCH  20  22
ENDBRANCH  19  20
ENDBRANCH   1  19
TORSDOF 5
ENDMDL
MODEL 5
REMARK VINA RESULT:   -10.556      2.057      4.258
REMARK INTER + INTRA:         -14.249
REMARK INTER:                 -13.693
REMARK INTRA:                  -0.556
REMARK UNBOUND:                -0.607
REMARK SMILES O=C1C=C(NCCN=c2c3c([nH]c4cc(Cl)ccc24)CCCC3)C(=O)c2ccccc21
REMARK SMILES IDX 7 1 8 2 9 3 12 4 11 5 13 6 10 7 20 8 14 9 19 10 23 11 21 12
REMARK SMILES IDX 15 13 18 14 22 15 17 16 16 18 6 19 5 20 4 22 3 23 24 24 2 25
REMARK SMILES IDX 26 26 31 27 27 28 30 29 28 30 29 31 25 32 1 33
REMARK H PARENT 12 17 5 21
ROOT
ATOM      1  C   UNL     1      10.839 -59.177 -23.289  1.00  0.00     0.164 C 
ENDROOT
BRANCH   1   2
ATOM      2  N   UNL     1       9.784 -59.330 -24.274  1.00  0.00    -0.282 NA
BRANCH   2   3
ATOM      3  C   UNL     1       9.849 -60.076 -25.319  1.00  0.00     0.072 A 
ATOM      4  N   UNL     1       9.274 -61.539 -27.678  1.00  0.00    -0.358 N 
ATOM      5  C   UNL     1      10.298 -60.614 -27.682  1.00  0.00     0.021 A 
ATOM      6  C   UNL     1       8.729 -62.000 -26.474  1.00  0.00     0.049 A 
ATOM      7  C   UNL     1      10.652 -59.889 -26.596  1.00  0.00    -0.003 A 
ATOM      8  C   UNL     1      11.034 -60.488 -29.004  1.00  0.00     0.054 C 
ATOM      9  C   UNL     1       7.862 -63.098 -26.459  1.00  0.00     0.047 A 
ATOM     10  C   UNL     1       8.989 -61.311 -25.281  1.00  0.00     0.024 A 
ATOM     11  C   UNL     1      11.861 -58.991 -26.601  1.00  0.00     0.039 C 
ATOM     12  C   UNL     1      12.012 -59.319 -29.076  1.00  0.00     0.007 C 
ATOM     13  C   UNL     1       7.296 -63.526 -25.257  1.00  0.00     0.043 A 
ATOM     14  C   UNL     1       8.411 -61.745 -24.077  1.00  0.00     0.014 A 
ATOM     15  C   UNL     1      12.804 -59.217 -27.784  1.00  0.00     0.005 C 
ATOM     16  C   UNL     1       7.570 -62.859 -24.066  1.00  0.00     0.021 A 
ATOM     17  H   UNL     1       9.228 -62.170 -28.472  1.00  0.00     0.166 HD
ATOM     18  Cl  UNL     1       6.245 -64.889 -25.249  1.00  0.00    -0.084 Cl
ENDBRANCH   2   3
ENDBRANCH   1   2
BRANCH   1  19
ATOM     19  C   UNL     1      10.651 -57.834 -22.565  1.00  0.00     0.136 C 
BRANCH  19  20
ATOM     20  N   UNL     1      10.208 -56.804 -23.499  1.00  0.00    -0.380 N 
ATOM     21  H   UNL     1       9.912 -57.169 -24.413  1.00  0.00     0.160 HD
BRANCH  20  22
ATOM     22  C   UNL     1      10.808 -55.559 -23.665  1.00  0.00     0.087 C 
ATOM     23  C   UNL     1      11.676 -55.227 -24.628  1.00  0.00     0.082 C 
ATOM     24  C   UNL     1      10.418 -54.523 -22.642  1.00  0.00     0.209 C 
ATOM     25  C   UNL     1      12.290 -53.892 -24.742  1.00  0.00     0.188 C 
ATOM     26  C   UNL     1      11.046 -53.190 -22.710  1.00  0.00     0.035 A 
ATOM     27  C   UNL     1      11.947 -52.884 -23.726  1.00  0.00     0.033 A 
ATOM     28  C   UNL     1      10.723 -52.223 -21.749  1.00  0.00     0.013 A 
ATOM     29  C   UNL     1      12.531 -51.612 -23.785  1.00  0.00     0.013 A 
ATOM     30  C   UNL     1      11.306 -50.956 -21.809  1.00  0.00     0.001 A 
ATOM     31  C   UNL     1      12.209 -50.651 -22.826  1.00  0.00     0.001 A 
ATOM     32  O   UNL     1       9.584 -54.788 -21.778  1.00  0.00    -0.287 OA
ATOM     33  O   UNL     1      13.062 -53.642 -25.658  1.00  0.00    -0.289 OA
ENDBRANCH  20  22
ENDBRANCH  19  20
ENDBRANCH   1  19
TORSDOF 5
ENDMDL
MODEL 6
REMARK VINA RESULT:   -10.516      5.688      9.850
REMARK INTER + INTRA:         -14.197
REMARK INTER:                 -13.653
REMARK INTRA:                  -0.544
REMARK UNBOUND:                -0.607
REMARK SMILES O=C1C=C(NCCN=c2c3c([nH]c4cc(Cl)ccc24)CCCC3)C(=O)c2ccccc21
REMARK SMILES IDX 7 1 8 2 9 3 12 4 11 5 13 6 10 7 20 8 14 9 19 10 23 11 21 12
REMARK SMILES IDX 15 13 18 14 22 15 17 16 16 18 6 19 5 20 4 22 3 23 24 24 2 25
REMARK SMILES IDX 26 26 31 27 27 28 30 29 28 30 29 31 25 32 1 33
REMARK H PARENT 12 17 5 21
ROOT
ATOM      1  C   UNL     1       9.897 -50.521 -21.898  1.00  0.00     0.164 C 
ENDROOT
BRANCH   1   2
ATOM      2  N   UNL     1      11.270 -50.990 -21.893  1.00  0.00    -0.282 NA
BRANCH   2   3
ATOM      3  C   UNL     1      11.804 -51.727 -22.801  1.00  0.00     0.072 A 
ATOM      4  N   UNL     1      12.272 -53.460 -24.996  1.00  0.00    -0.358 N 
ATOM      5  C   UNL     1      12.875 -52.219 -24.966  1.00  0.00     0.021 A 
ATOM      6  C   UNL     1      11.702 -54.007 -23.841  1.00  0.00     0.049 A 
ATOM      7  C   UNL     1      12.723 -51.340 -23.948  1.00  0.00    -0.003 A 
ATOM      8  C   UNL     1      13.763 -51.916 -26.159  1.00  0.00     0.054 C 
ATOM      9  C   UNL     1      11.302 -55.348 -23.810  1.00  0.00     0.047 A 
ATOM     10  C   UNL     1      11.455 -53.191 -22.728  1.00  0.00     0.024 A 
ATOM     11  C   UNL     1      13.504 -50.054 -23.887  1.00  0.00     0.039 C 
ATOM     12  C   UNL     1      14.250 -50.473 -26.237  1.00  0.00     0.007 C 
ATOM     13  C   UNL     1      10.701 -55.874 -22.665  1.00  0.00     0.043 A 
ATOM     14  C   UNL     1      10.845 -53.726 -21.583  1.00  0.00     0.014 A 
ATOM     15  C   UNL     1      14.680 -49.989 -24.863  1.00  0.00     0.005 C 
ATOM     16  C   UNL     1      10.475 -55.072 -21.550  1.00  0.00     0.021 A 
ATOM     17  H   UNL     1      12.614 -54.115 -25.692  1.00  0.00     0.166 HD
ATOM     18  Cl  UNL     1      10.230 -57.529 -22.635  1.00  0.00    -0.084 Cl
ENDBRANCH   2   3
ENDBRANCH   1   2
BRANCH   1  19
ATOM     19  C   UNL     1       9.814 -49.238 -22.743  1.00  0.00     0.136 C 
BRANCH  19  20
ATOM     20  N   UNL     1      10.852 -48.293 -22.345  1.00  0.00    -0.380 N 
ATOM     21  H   UNL     1      10.836 -48.051 -21.347  1.00  0.00     0.160 HD
BRANCH  20  22
ATOM     22  C   UNL     1      11.260 -47.189 -23.088  1.00  0.00     0.087 C 
ATOM     23  C   UNL     1      12.121 -47.206 -24.112  1.00  0.00     0.082 C 
ATOM     24  C   UNL     1      10.654 -45.876 -22.663  1.00  0.00     0.209 C 
ATOM     25  C   UNL     1      12.525 -45.997 -24.853  1.00  0.00     0.188 C 
ATOM     26  C   UNL     1      11.069 -44.646 -23.362  1.00  0.00     0.035 A 
ATOM     27  C   UNL     1      11.970 -44.704 -24.421  1.00  0.00     0.033 A 
ATOM     28  C   UNL     1      10.544 -43.410 -22.960  1.00  0.00     0.013 A 
ATOM     29  C   UNL     1      12.352 -43.530 -25.083  1.00  0.00     0.013 A 
ATOM     30  C   UNL     1      10.926 -42.240 -23.619  1.00  0.00     0.001 A 
ATOM     31  C   UNL     1      11.829 -42.301 -24.680  1.00  0.00     0.001 A 
ATOM     32  O   UNL     1       9.822 -45.841 -21.758  1.00  0.00    -0.287 OA
ATOM     33  O   UNL     1      13.302 -46.079 -25.796  1.00  0.00    -0.289 OA
ENDBRANCH  20  22
ENDBRANCH  19  20
ENDBRANCH   1  19
TORSDOF 5
ENDMDL
MODEL 7
REMARK VINA RESULT:   -10.232      7.162      9.992
REMARK INTER + INTRA:         -13.830
REMARK INTER:                 -11.106
REMARK INTRA:                  -2.724
REMARK UNBOUND:                -0.607
REMARK SMILES O=C1C=C(NCCN=c2c3c([nH]c4cc(Cl)ccc24)CCCC3)C(=O)c2ccccc21
REMARK SMILES IDX 7 1 8 2 9 3 12 4 11 5 13 6 10 7 20 8 14 9 19 10 23 11 21 12
REMARK SMILES IDX 15 13 18 14 22 15 17 16 16 18 6 19 5 20 4 22 3 23 24 24 2 25
REMARK SMILES IDX 26 26 31 27 27 28 30 29 28 30 29 31 25 32 1 33
REMARK H PARENT 12 17 5 21
ROOT
ATOM      1  C   UNL     1      13.174 -48.077 -21.485  1.00  0.00     0.164 C 
ENDROOT
BRANCH   1   2
ATOM      2  N   UNL     1      12.488 -48.267 -22.750  1.00  0.00    -0.282 NA
BRANCH   2   3
ATOM      3  C   UNL     1      12.459 -49.364 -23.419  1.00  0.00     0.072 A 
ATOM      4  N   UNL     1      13.127 -51.762 -24.777  1.00  0.00    -0.358 N 
ATOM      5  C   UNL     1      12.191 -51.790 -23.763  1.00  0.00     0.021 A 
ATOM      6  C   UNL     1      13.513 -50.550 -25.361  1.00  0.00     0.049 A 
ATOM      7  C   UNL     1      11.799 -50.690 -23.078  1.00  0.00    -0.003 A 
ATOM      8  C   UNL     1      11.597 -53.159 -23.485  1.00  0.00     0.054 C 
ATOM      9  C   UNL     1      14.277 -50.536 -26.533  1.00  0.00     0.047 A 
ATOM     10  C   UNL     1      13.202 -49.338 -24.729  1.00  0.00     0.024 A 
ATOM     11  C   UNL     1      10.678 -50.738 -22.074  1.00  0.00     0.039 C 
ATOM     12  C   UNL     1      10.734 -53.234 -22.230  1.00  0.00     0.007 C 
ATOM     13  C   UNL     1      14.688 -49.323 -27.087  1.00  0.00     0.043 A 
ATOM     14  C   UNL     1      13.624 -48.122 -25.290  1.00  0.00     0.014 A 
ATOM     15  C   UNL     1       9.835 -52.013 -22.137  1.00  0.00     0.005 C 
ATOM     16  C   UNL     1      14.361 -48.116 -26.475  1.00  0.00     0.021 A 
ATOM     17  H   UNL     1      13.193 -52.592 -25.357  1.00  0.00     0.166 HD
ATOM     18  Cl  UNL     1      15.613 -49.320 -28.539  1.00  0.00    -0.084 Cl
ENDBRANCH   2   3
ENDBRANCH   1   2
BRANCH   1  19
ATOM     19  C   UNL     1      14.612 -47.609 -21.766  1.00  0.00     0.136 C 
BRANCH  19  20
ATOM     20  N   UNL     1      15.530 -48.744 -21.768  1.00  0.00    -0.380 N 
ATOM     21  H   UNL     1      16.069 -48.847 -20.900  1.00  0.00     0.160 HD
BRANCH  20  22
ATOM     22  C   UNL     1      16.306 -49.146 -22.852  1.00  0.00     0.087 C 
ATOM     23  C   UNL     1      17.093 -48.355 -23.590  1.00  0.00     0.082 C 
ATOM     24  C   UNL     1      16.218 -50.612 -23.189  1.00  0.00     0.209 C 
ATOM     25  C   UNL     1      17.882 -48.839 -24.738  1.00  0.00     0.188 C 
ATOM     26  C   UNL     1      16.967 -51.116 -24.355  1.00  0.00     0.035 A 
ATOM     27  C   UNL     1      17.773 -50.261 -25.101  1.00  0.00     0.033 A 
ATOM     28  C   UNL     1      16.873 -52.469 -24.707  1.00  0.00     0.013 A 
ATOM     29  C   UNL     1      18.487 -50.752 -26.202  1.00  0.00     0.013 A 
ATOM     30  C   UNL     1      17.583 -52.957 -25.806  1.00  0.00     0.001 A 
ATOM     31  C   UNL     1      18.390 -52.099 -26.552  1.00  0.00     0.001 A 
ATOM     32  O   UNL     1      15.542 -51.369 -22.495  1.00  0.00    -0.287 OA
ATOM     33  O   UNL     1      18.600 -48.070 -25.363  1.00  0.00    -0.289 OA
ENDBRANCH  20  22
ENDBRANCH  19  20
ENDBRANCH   1  19
TORSDOF 5
ENDMDL
MODEL 8
REMARK VINA RESULT:    -9.995      2.997      7.567
REMARK INTER + INTRA:         -13.523
REMARK INTER:                 -11.711
REMARK INTRA:                  -1.812
REMARK UNBOUND:                -0.607
REMARK SMILES O=C1C=C(NCCN=c2c3c([nH]c4cc(Cl)ccc24)CCCC3)C(=O)c2ccccc21
REMARK SMILES IDX 7 1 8 2 9 3 12 4 11 5 13 6 10 7 20 8 14 9 19 10 23 11 21 12
REMARK SMILES IDX 15 13 18 14 22 15 17 16 16 18 6 19 5 20 4 22 3 23 24 24 2 25
REMARK SMILES IDX 26 26 31 27 27 28 30 29 28 30 29 31 25 32 1 33
REMARK H PARENT 12 17 5 21
ROOT
ATOM      1  C   UNL     1      12.714 -59.946 -26.284  1.00  0.00     0.164 C 
ENDROOT
BRANCH   1   2
ATOM      2  N   UNL     1      13.023 -59.356 -24.995  1.00  0.00    -0.282 NA
BRANCH   2   3
ATOM      3  C   UNL     1      12.154 -58.971 -24.129  1.00  0.00     0.072 A 
ATOM      4  N   UNL     1      10.675 -58.504 -21.756  1.00  0.00    -0.358 N 
ATOM      5  C   UNL     1      11.114 -57.434 -22.508  1.00  0.00     0.021 A 
ATOM      6  C   UNL     1      10.662 -59.797 -22.291  1.00  0.00     0.049 A 
ATOM      7  C   UNL     1      11.806 -57.567 -23.663  1.00  0.00    -0.003 A 
ATOM      8  C   UNL     1      10.730 -56.072 -21.957  1.00  0.00     0.054 C 
ATOM      9  C   UNL     1      10.007 -60.838 -21.623  1.00  0.00     0.047 A 
ATOM     10  C   UNL     1      11.376 -60.076 -23.465  1.00  0.00     0.024 A 
ATOM     11  C   UNL     1      12.148 -56.381 -24.525  1.00  0.00     0.039 C 
ATOM     12  C   UNL     1      11.396 -54.893 -22.660  1.00  0.00     0.007 C 
ATOM     13  C   UNL     1      10.032 -62.132 -22.146  1.00  0.00     0.043 A 
ATOM     14  C   UNL     1      11.400 -61.381 -23.982  1.00  0.00     0.014 A 
ATOM     15  C   UNL     1      11.386 -55.104 -24.164  1.00  0.00     0.005 C 
ATOM     16  C   UNL     1      10.720 -62.408 -23.325  1.00  0.00     0.021 A 
ATOM     17  H   UNL     1       9.994 -58.302 -21.031  1.00  0.00     0.166 HD
ATOM     18  Cl  UNL     1       9.208 -63.399 -21.324  1.00  0.00    -0.084 Cl
ENDBRANCH   2   3
ENDBRANCH   1   2
BRANCH   1  19
ATOM     19  C   UNL     1      11.935 -58.921 -27.125  1.00  0.00     0.136 C 
BRANCH  19  20
ATOM     20  N   UNL     1      10.622 -59.447 -27.489  1.00  0.00    -0.380 N 
ATOM     21  H   UNL     1      10.158 -58.925 -28.242  1.00  0.00     0.160 HD
BRANCH  20  22
ATOM     22  C   UNL     1       9.670 -59.920 -26.590  1.00  0.00     0.087 C 
ATOM     23  C   UNL     1       9.079 -59.206 -25.625  1.00  0.00     0.082 C 
ATOM     24  C   UNL     1       9.307 -61.373 -26.754  1.00  0.00     0.209 C 
ATOM     25  C   UNL     1       8.085 -59.769 -24.693  1.00  0.00     0.188 C 
ATOM     26  C   UNL     1       8.344 -61.972 -25.811  1.00  0.00     0.035 A 
ATOM     27  C   UNL     1       7.752 -61.197 -24.818  1.00  0.00     0.033 A 
ATOM     28  C   UNL     1       8.017 -63.330 -25.924  1.00  0.00     0.013 A 
ATOM     29  C   UNL     1       6.832 -61.774 -23.932  1.00  0.00     0.013 A 
ATOM     30  C   UNL     1       7.102 -63.905 -25.040  1.00  0.00     0.001 A 
ATOM     31  C   UNL     1       6.510 -63.127 -24.046  1.00  0.00     0.001 A 
ATOM     32  O   UNL     1       9.798 -62.037 -27.665  1.00  0.00    -0.287 OA
ATOM     33  O   UNL     1       7.562 -59.060 -23.843  1.00  0.00    -0.289 OA
ENDBRANCH  20  22
ENDBRANCH  19  20
ENDBRANCH   1  19
TORSDOF 5
ENDMDL
MODEL 9
REMARK VINA RESULT:    -9.900      6.290     11.557
REMARK INTER + INTRA:         -13.401
REMARK INTER:                 -11.999
REMARK INTRA:                  -1.402
REMARK UNBOUND:                -0.607
REMARK SMILES O=C1C=C(NCCN=c2c3c([nH]c4cc(Cl)ccc24)CCCC3)C(=O)c2ccccc21
REMARK SMILES IDX 7 1 8 2 9 3 12 4 11 5 13 6 10 7 20 8 14 9 19 10 23 11 21 12
REMARK SMILES IDX 15 13 18 14 22 15 17 16 16 18 6 19 5 20 4 22 3 23 24 24 2 25
REMARK SMILES IDX 26 26 31 27 27 28 30 29 28 30 29 31 25 32 1 33
REMARK H PARENT 12 17 5 21
ROOT
ATOM      1  C   UNL     1      15.637 -49.772 -26.303  1.00  0.00     0.164 C 
ENDROOT
BRANCH   1   2
ATOM      2  N   UNL     1      15.429 -48.482 -25.672  1.00  0.00    -0.282 NA
BRANCH   2   3
ATOM      3  C   UNL     1      15.411 -48.271 -24.405  1.00  0.00     0.072 A 
ATOM      4  N   UNL     1      14.816 -48.299 -21.633  1.00  0.00    -0.358 N 
ATOM      5  C   UNL     1      16.099 -48.578 -22.058  1.00  0.00     0.021 A 
ATOM      6  C   UNL     1      13.891 -47.699 -22.494  1.00  0.00     0.049 A 
ATOM      7  C   UNL     1      16.474 -48.566 -23.358  1.00  0.00    -0.003 A 
ATOM      8  C   UNL     1      17.086 -48.872 -20.943  1.00  0.00     0.054 C 
ATOM      9  C   UNL     1      12.676 -47.206 -22.004  1.00  0.00     0.047 A 
ATOM     10  C   UNL     1      14.143 -47.657 -23.873  1.00  0.00     0.024 A 
ATOM     11  C   UNL     1      17.911 -48.740 -23.772  1.00  0.00     0.039 C 
ATOM     12  C   UNL     1      18.440 -49.393 -21.416  1.00  0.00     0.007 C 
ATOM     13  C   UNL     1      11.745 -46.642 -22.877  1.00  0.00     0.043 A 
ATOM     14  C   UNL     1      13.199 -47.093 -24.745  1.00  0.00     0.014 A 
ATOM     15  C   UNL     1      18.914 -48.604 -22.624  1.00  0.00     0.005 C 
ATOM     16  C   UNL     1      12.002 -46.578 -24.244  1.00  0.00     0.021 A 
ATOM     17  H   UNL     1      14.692 -48.132 -20.639  1.00  0.00     0.166 HD
ATOM     18  Cl  UNL     1      10.263 -46.024 -22.259  1.00  0.00    -0.084 Cl
ENDBRANCH   2   3
ENDBRANCH   1   2
BRANCH   1  19
ATOM     19  C   UNL     1      14.273 -50.344 -26.726  1.00  0.00     0.136 C 
BRANCH  19  20
ATOM     20  N   UNL     1      14.051 -51.649 -26.113  1.00  0.00    -0.380 N 
ATOM     21  H   UNL     1      13.983 -52.421 -26.787  1.00  0.00     0.160 HD
BRANCH  20  22
ATOM     22  C   UNL     1      13.209 -51.895 -25.033  1.00  0.00     0.087 C 
ATOM     23  C   UNL     1      12.886 -51.020 -24.073  1.00  0.00     0.082 C 
ATOM     24  C   UNL     1      12.633 -53.287 -24.978  1.00  0.00     0.209 C 
ATOM     25  C   UNL     1      11.997 -51.346 -22.943  1.00  0.00     0.188 C 
ATOM     26  C   UNL     1      11.771 -53.652 -23.838  1.00  0.00     0.035 A 
ATOM     27  C   UNL     1      11.461 -52.714 -22.858  1.00  0.00     0.033 A 
ATOM     28  C   UNL     1      11.253 -54.951 -23.750  1.00  0.00     0.013 A 
ATOM     29  C   UNL     1      10.634 -53.069 -21.783  1.00  0.00     0.013 A 
ATOM     30  C   UNL     1      10.430 -55.304 -22.678  1.00  0.00     0.001 A 
ATOM     31  C   UNL     1      10.121 -54.364 -21.697  1.00  0.00     0.001 A 
ATOM     32  O   UNL     1      12.873 -54.093 -25.875  1.00  0.00    -0.287 OA
ATOM     33  O   UNL     1      11.722 -50.496 -22.106  1.00  0.00    -0.289 OA
ENDBRANCH  20  22
ENDBRANCH  19  20
ENDBRANCH   1  19
TORSDOF 5
ENDMDL
