MODEL 1
REMARK VINA RESULT:   -12.100      0.000      0.000
REMARK INTER + INTRA:         -16.695
REMARK INTER:                 -15.991
REMARK INTRA:                  -0.704
REMARK UNBOUND:                -0.704
REMARK SMILES OC1=CNc2cc3onc(CC[C@H]4CC[N@@H+](Cc5ccccc5)CC4)c3cc2C1
REMARK SMILES IDX 11 1 10 2 2 3 3 4 29 5 4 6 28 7 5 8 27 9 6 10 26 11 7 12
REMARK SMILES IDX 8 13 9 14 1 16 12 18 13 19 14 20 25 21 15 22 24 23 16 24
REMARK SMILES IDX 17 26 18 27 19 28 23 29 20 30 22 31 21 32
REMARK H PARENT 4 15 1 17 16 25
ROOT
ATOM      1  C   UNL     1       8.385 -62.705 -23.458  1.00  0.00     0.061 C 
ENDROOT
BRANCH   1   2
ATOM      2  C   UNL     1       8.238 -62.843 -24.933  1.00  0.00     0.091 A 
ATOM      3  C   UNL     1      11.840 -59.439 -28.926  1.00  0.00     0.113 C 
ATOM      4  C   UNL     1      11.223 -60.041 -29.948  1.00  0.00     0.125 C 
ATOM      5  C   UNL     1      11.495 -59.794 -27.501  1.00  0.00     0.113 C 
ATOM      6  N   UNL     1      10.267 -61.008 -29.792  1.00  0.00    -0.358 N 
ATOM      7  C   UNL     1      10.386 -60.829 -27.364  1.00  0.00    -0.016 A 
ATOM      8  C   UNL     1       9.792 -61.385 -28.523  1.00  0.00     0.046 A 
ATOM      9  C   UNL     1       9.963 -61.219 -26.076  1.00  0.00     0.020 A 
ATOM     10  C   UNL     1       8.786 -62.352 -28.415  1.00  0.00     0.077 A 
ATOM     11  C   UNL     1       8.944 -62.180 -25.969  1.00  0.00     0.045 A 
ATOM     12  C   UNL     1       8.399 -62.706 -27.126  1.00  0.00     0.169 A 
ATOM     13  O   UNL     1       7.442 -63.615 -26.801  1.00  0.00    -0.356 OA
ATOM     14  N   UNL     1       7.335 -63.706 -25.422  1.00  0.00    -0.084 NA
ATOM     15  H   UNL     1       9.742 -61.286 -30.613  1.00  0.00     0.166 HD
BRANCH   3  16
ATOM     16  O   UNL     1      12.798 -58.472 -29.152  1.00  0.00    -0.510 OA
ATOM     17  H   UNL     1      13.469 -58.522 -28.449  1.00  0.00     0.293 HD
ENDBRANCH   3  16
ENDBRANCH   1   2
BRANCH   1  18
ATOM     18  C   UNL     1       9.494 -61.705 -23.094  1.00  0.00     0.010 C 
BRANCH  18  19
ATOM     19  C   UNL     1       9.086 -60.671 -22.023  1.00  0.00     0.000 C 
ATOM     20  C   UNL     1       8.374 -59.471 -22.670  1.00  0.00     0.065 C 
ATOM     21  C   UNL     1      10.268 -60.147 -21.191  1.00  0.00     0.065 C 
ATOM     22  C   UNL     1       9.312 -58.579 -23.479  1.00  0.00     0.262 C 
ATOM     23  C   UNL     1      11.222 -59.272 -21.995  1.00  0.00     0.262 C 
ATOM     24  N   UNL     1      10.462 -58.123 -22.610  1.00  0.00    -0.331 N 
ATOM     25  H   UNL     1      10.055 -57.573 -21.843  1.00  0.00     0.348 HD
BRANCH  24  26
ATOM     26  C   UNL     1      11.401 -57.182 -23.341  1.00  0.00     0.299 C 
BRANCH  26  27
ATOM     27  C   UNL     1      11.220 -55.743 -22.943  1.00  0.00     0.006 A 
ATOM     28  C   UNL     1      11.456 -54.713 -23.867  1.00  0.00     0.009 A 
ATOM     29  C   UNL     1      10.831 -55.407 -21.637  1.00  0.00     0.009 A 
ATOM     30  C   UNL     1      11.313 -53.378 -23.489  1.00  0.00     0.001 A 
ATOM     31  C   UNL     1      10.689 -54.070 -21.263  1.00  0.00     0.001 A 
ATOM     32  C   UNL     1      10.932 -53.057 -22.188  1.00  0.00     0.000 A 
ENDBRANCH  26  27
ENDBRANCH  24  26
ENDBRANCH  18  19
ENDBRANCH   1  18
TORSDOF 6
ENDMDL
MODEL 2
REMARK VINA RESULT:   -11.906      3.641      8.866
REMARK INTER + INTRA:         -16.438
REMARK INTER:                 -15.921
REMARK INTRA:                  -0.517
REMARK UNBOUND:                -0.704
REMARK SMILES OC1=CNc2cc3onc(CC[C@H]4CC[N@@H+](Cc5ccccc5)CC4)c3cc2C1
REMARK SMILES IDX 11 1 10 2 2 3 3 4 29 5 4 6 28 7 5 8 27 9 6 10 26 11 7 12
REMARK SMILES IDX 8 13 9 14 1 16 12 18 13 19 14 20 25 21 15 22 24 23 16 24
REMARK SMILES IDX 17 26 18 27 19 28 23 29 20 30 22 31 21 32
REMARK H PARENT 4 15 1 17 16 25
ROOT
ATOM      1  C   UNL     1      10.120 -55.865 -23.074  1.00  0.00     0.061 C 
ENDROOT
BRANCH   1   2
ATOM      2  C   UNL     1      10.441 -54.492 -22.596  1.00  0.00     0.091 A 
ATOM      3  C   UNL     1      14.156 -50.611 -26.008  1.00  0.00     0.113 C 
ATOM      4  C   UNL     1      13.992 -49.675 -25.065  1.00  0.00     0.125 C 
ATOM      5  C   UNL     1      13.473 -51.950 -25.889  1.00  0.00     0.113 C 
ATOM      6  N   UNL     1      13.207 -49.845 -23.957  1.00  0.00    -0.358 N 
ATOM      7  C   UNL     1      12.655 -52.127 -24.616  1.00  0.00    -0.016 A 
ATOM      8  C   UNL     1      12.571 -51.069 -23.679  1.00  0.00     0.046 A 
ATOM      9  C   UNL     1      11.992 -53.350 -24.387  1.00  0.00     0.020 A 
ATOM     10  C   UNL     1      11.808 -51.207 -22.513  1.00  0.00     0.077 A 
ATOM     11  C   UNL     1      11.238 -53.494 -23.211  1.00  0.00     0.045 A 
ATOM     12  C   UNL     1      11.172 -52.431 -22.328  1.00  0.00     0.169 A 
ATOM     13  O   UNL     1      10.392 -52.773 -21.267  1.00  0.00    -0.356 OA
ATOM     14  N   UNL     1       9.929 -54.069 -21.430  1.00  0.00    -0.084 NA
ATOM     15  H   UNL     1      13.275 -49.151 -23.223  1.00  0.00     0.166 HD
BRANCH   3  16
ATOM     16  O   UNL     1      14.961 -50.374 -27.103  1.00  0.00    -0.510 OA
ATOM     17  H   UNL     1      14.433 -49.937 -27.793  1.00  0.00     0.293 HD
ENDBRANCH   3  16
ENDBRANCH   1   2
BRANCH   1  18
ATOM     18  C   UNL     1      11.329 -56.804 -22.938  1.00  0.00     0.010 C 
BRANCH  18  19
ATOM     19  C   UNL     1      11.051 -58.077 -22.111  1.00  0.00     0.000 C 
ATOM     20  C   UNL     1      12.126 -59.144 -22.379  1.00  0.00     0.065 C 
ATOM     21  C   UNL     1       9.671 -58.698 -22.378  1.00  0.00     0.065 C 
ATOM     22  C   UNL     1      12.022 -59.768 -23.768  1.00  0.00     0.262 C 
ATOM     23  C   UNL     1       9.549 -59.304 -23.771  1.00  0.00     0.262 C 
ATOM     24  N   UNL     1      10.635 -60.332 -23.973  1.00  0.00    -0.331 N 
ATOM     25  H   UNL     1      10.505 -61.067 -23.266  1.00  0.00     0.348 HD
BRANCH  24  26
ATOM     26  C   UNL     1      10.484 -61.021 -25.316  1.00  0.00     0.299 C 
BRANCH  26  27
ATOM     27  C   UNL     1       9.368 -62.030 -25.338  1.00  0.00     0.006 A 
ATOM     28  C   UNL     1       8.746 -62.379 -26.548  1.00  0.00     0.009 A 
ATOM     29  C   UNL     1       8.919 -62.623 -24.148  1.00  0.00     0.009 A 
ATOM     30  C   UNL     1       7.695 -63.295 -26.563  1.00  0.00     0.001 A 
ATOM     31  C   UNL     1       7.866 -63.539 -24.168  1.00  0.00     0.001 A 
ATOM     32  C   UNL     1       7.253 -63.872 -25.374  1.00  0.00     0.000 A 
ENDBRANCH  26  27
ENDBRANCH  24  26
ENDBRANCH  18  19
ENDBRANCH   1  18
TORSDOF 6
ENDMDL
MODEL 3
REMARK VINA RESULT:   -11.626      3.953      9.438
REMARK INTER + INTRA:         -16.067
REMARK INTER:                 -15.493
REMARK INTRA:                  -0.574
REMARK UNBOUND:                -0.704
REMARK SMILES OC1=CNc2cc3onc(CC[C@H]4CC[N@@H+](Cc5ccccc5)CC4)c3cc2C1
REMARK SMILES IDX 11 1 10 2 2 3 3 4 29 5 4 6 28 7 5 8 27 9 6 10 26 11 7 12
REMARK SMILES IDX 8 13 9 14 1 16 12 18 13 19 14 20 25 21 15 22 24 23 16 24
REMARK SMILES IDX 17 26 18 27 19 28 23 29 20 30 22 31 21 32
REMARK H PARENT 4 15 1 17 16 25
ROOT
ATOM      1  C   UNL     1      10.767 -55.342 -23.232  1.00  0.00     0.061 C 
ENDROOT
BRANCH   1   2
ATOM      2  C   UNL     1      11.589 -54.442 -24.087  1.00  0.00     0.091 A 
ATOM      3  C   UNL     1      12.552 -48.359 -22.483  1.00  0.00     0.113 C 
ATOM      4  C   UNL     1      13.299 -48.218 -23.584  1.00  0.00     0.125 C 
ATOM      5  C   UNL     1      11.933 -49.690 -22.138  1.00  0.00     0.113 C 
ATOM      6  N   UNL     1      13.566 -49.240 -24.453  1.00  0.00    -0.358 N 
ATOM      7  C   UNL     1      12.201 -50.790 -23.156  1.00  0.00    -0.016 A 
ATOM      8  C   UNL     1      12.994 -50.517 -24.298  1.00  0.00     0.046 A 
ATOM      9  C   UNL     1      11.651 -52.071 -22.949  1.00  0.00     0.020 A 
ATOM     10  C   UNL     1      13.268 -51.521 -25.234  1.00  0.00     0.077 A 
ATOM     11  C   UNL     1      11.914 -53.075 -23.896  1.00  0.00     0.045 A 
ATOM     12  C   UNL     1      12.703 -52.769 -24.989  1.00  0.00     0.169 A 
ATOM     13  O   UNL     1      12.838 -53.873 -25.772  1.00  0.00    -0.356 OA
ATOM     14  N   UNL     1      12.139 -54.930 -25.210  1.00  0.00    -0.084 NA
ATOM     15  H   UNL     1      14.000 -49.003 -25.338  1.00  0.00     0.166 HD
BRANCH   3  16
ATOM     16  O   UNL     1      12.322 -47.286 -21.646  1.00  0.00    -0.510 OA
ATOM     17  H   UNL     1      12.222 -46.482 -22.185  1.00  0.00     0.293 HD
ENDBRANCH   3  16
ENDBRANCH   1   2
BRANCH   1  18
ATOM     18  C   UNL     1      11.393 -56.741 -23.125  1.00  0.00     0.010 C 
BRANCH  18  19
ATOM     19  C   UNL     1      10.656 -57.691 -22.157  1.00  0.00     0.000 C 
ATOM     20  C   UNL     1      11.566 -58.861 -21.747  1.00  0.00     0.065 C 
ATOM     21  C   UNL     1       9.351 -58.266 -22.731  1.00  0.00     0.065 C 
ATOM     22  C   UNL     1      11.810 -59.859 -22.877  1.00  0.00     0.262 C 
ATOM     23  C   UNL     1       9.583 -59.246 -23.874  1.00  0.00     0.262 C 
ATOM     24  N   UNL     1      10.488 -60.361 -23.411  1.00  0.00    -0.331 N 
ATOM     25  H   UNL     1      10.017 -60.843 -22.635  1.00  0.00     0.348 HD
BRANCH  24  26
ATOM     26  C   UNL     1      10.663 -61.403 -24.500  1.00  0.00     0.299 C 
BRANCH  26  27
ATOM     27  C   UNL     1       9.455 -62.285 -24.670  1.00  0.00     0.006 A 
ATOM     28  C   UNL     1       8.811 -62.378 -25.913  1.00  0.00     0.009 A 
ATOM     29  C   UNL     1       8.944 -63.011 -23.584  1.00  0.00     0.009 A 
ATOM     30  C   UNL     1       7.676 -63.175 -26.063  1.00  0.00     0.001 A 
ATOM     31  C   UNL     1       7.808 -63.807 -23.738  1.00  0.00     0.001 A 
ATOM     32  C   UNL     1       7.174 -63.887 -24.976  1.00  0.00     0.000 A 
ENDBRANCH  26  27
ENDBRANCH  24  26
ENDBRANCH  18  19
ENDBRANCH   1  18
TORSDOF 6
ENDMDL
MODEL 4
REMARK VINA RESULT:   -11.093      3.256      6.441
REMARK INTER + INTRA:         -15.364
REMARK INTER:                 -14.792
REMARK INTRA:                  -0.572
REMARK UNBOUND:                -0.704
REMARK SMILES OC1=CNc2cc3onc(CC[C@H]4CC[N@@H+](Cc5ccccc5)CC4)c3cc2C1
REMARK SMILES IDX 11 1 10 2 2 3 3 4 29 5 4 6 28 7 5 8 27 9 6 10 26 11 7 12
REMARK SMILES IDX 8 13 9 14 1 16 12 18 13 19 14 20 25 21 15 22 24 23 16 24
REMARK SMILES IDX 17 26 18 27 19 28 23 29 20 30 22 31 21 32
REMARK H PARENT 4 15 1 17 16 25
ROOT
ATOM      1  C   UNL     1      11.437 -56.847 -22.953  1.00  0.00     0.061 C 
ENDROOT
BRANCH   1   2
ATOM      2  C   UNL     1      11.045 -58.080 -22.215  1.00  0.00     0.091 A 
ATOM      3  C   UNL     1       7.933 -62.806 -25.126  1.00  0.00     0.113 C 
ATOM      4  C   UNL     1       7.944 -63.484 -23.973  1.00  0.00     0.125 C 
ATOM      5  C   UNL     1       8.585 -61.450 -25.229  1.00  0.00     0.113 C 
ATOM      6  N   UNL     1       8.541 -63.024 -22.830  1.00  0.00    -0.358 N 
ATOM      7  C   UNL     1       9.188 -60.943 -23.925  1.00  0.00    -0.016 A 
ATOM      8  C   UNL     1       9.122 -61.744 -22.759  1.00  0.00     0.046 A 
ATOM      9  C   UNL     1       9.803 -59.675 -23.897  1.00  0.00     0.020 A 
ATOM     10  C   UNL     1       9.688 -61.303 -21.557  1.00  0.00     0.077 A 
ATOM     11  C   UNL     1      10.359 -59.227 -22.687  1.00  0.00     0.045 A 
ATOM     12  C   UNL     1      10.284 -60.046 -21.576  1.00  0.00     0.169 A 
ATOM     13  O   UNL     1      10.883 -59.431 -20.521  1.00  0.00    -0.356 OA
ATOM     14  N   UNL     1      11.364 -58.192 -20.917  1.00  0.00    -0.084 NA
ATOM     15  H   UNL     1       8.358 -63.526 -21.970  1.00  0.00     0.166 HD
BRANCH   3  16
ATOM     16  O   UNL     1       7.314 -63.328 -26.244  1.00  0.00    -0.510 OA
ATOM     17  H   UNL     1       7.860 -64.051 -26.597  1.00  0.00     0.293 HD
ENDBRANCH   3  16
ENDBRANCH   1   2
BRANCH   1  18
ATOM     18  C   UNL     1      11.034 -55.579 -22.184  1.00  0.00     0.010 C 
BRANCH  18  19
ATOM     19  C   UNL     1      10.147 -54.606 -22.989  1.00  0.00     0.000 C 
ATOM     20  C   UNL     1      10.880 -54.122 -24.251  1.00  0.00     0.065 C 
ATOM     21  C   UNL     1       9.694 -53.376 -22.185  1.00  0.00     0.065 C 
ATOM     22  C   UNL     1      12.027 -53.162 -23.950  1.00  0.00     0.262 C 
ATOM     23  C   UNL     1      10.837 -52.422 -21.861  1.00  0.00     0.262 C 
ATOM     24  N   UNL     1      11.518 -51.994 -23.137  1.00  0.00    -0.331 N 
ATOM     25  H   UNL     1      10.821 -51.510 -23.716  1.00  0.00     0.348 HD
BRANCH  24  26
ATOM     26  C   UNL     1      12.602 -50.970 -22.854  1.00  0.00     0.299 C 
BRANCH  26  27
ATOM     27  C   UNL     1      12.252 -49.591 -23.345  1.00  0.00     0.006 A 
ATOM     28  C   UNL     1      11.144 -48.909 -22.821  1.00  0.00     0.009 A 
ATOM     29  C   UNL     1      13.018 -48.975 -24.347  1.00  0.00     0.009 A 
ATOM     30  C   UNL     1      10.805 -47.642 -23.295  1.00  0.00     0.001 A 
ATOM     31  C   UNL     1      12.675 -47.707 -24.819  1.00  0.00     0.001 A 
ATOM     32  C   UNL     1      11.569 -47.043 -24.295  1.00  0.00     0.000 A 
ENDBRANCH  26  27
ENDBRANCH  24  26
ENDBRANCH  18  19
ENDBRANCH   1  18
TORSDOF 6
ENDMDL
MODEL 5
REMARK VINA RESULT:   -10.804      1.587      3.962
REMARK INTER + INTRA:         -14.982
REMARK INTER:                 -15.527
REMARK INTRA:                   0.545
REMARK UNBOUND:                -0.704
REMARK SMILES OC1=CNc2cc3onc(CC[C@H]4CC[N@@H+](Cc5ccccc5)CC4)c3cc2C1
REMARK SMILES IDX 11 1 10 2 2 3 3 4 29 5 4 6 28 7 5 8 27 9 6 10 26 11 7 12
REMARK SMILES IDX 8 13 9 14 1 16 12 18 13 19 14 20 25 21 15 22 24 23 16 24
REMARK SMILES IDX 17 26 18 27 19 28 23 29 20 30 22 31 21 32
REMARK H PARENT 4 15 1 17 16 25
ROOT
ATOM      1  C   UNL     1      12.134 -58.964 -24.113  1.00  0.00     0.061 C 
ENDROOT
BRANCH   1   2
ATOM      2  C   UNL     1      11.670 -59.434 -25.449  1.00  0.00     0.091 A 
ATOM      3  C   UNL     1       7.160 -63.893 -25.980  1.00  0.00     0.113 C 
ATOM      4  C   UNL     1       7.257 -63.789 -27.311  1.00  0.00     0.125 C 
ATOM      5  C   UNL     1       8.001 -63.026 -25.077  1.00  0.00     0.113 C 
ATOM      6  N   UNL     1       8.091 -62.907 -27.943  1.00  0.00    -0.358 N 
ATOM      7  C   UNL     1       8.960 -62.098 -25.813  1.00  0.00    -0.016 A 
ATOM      8  C   UNL     1       8.986 -62.089 -27.229  1.00  0.00     0.046 A 
ATOM      9  C   UNL     1       9.813 -61.258 -25.069  1.00  0.00     0.020 A 
ATOM     10  C   UNL     1       9.846 -61.229 -27.922  1.00  0.00     0.077 A 
ATOM     11  C   UNL     1      10.686 -60.405 -25.764  1.00  0.00     0.045 A 
ATOM     12  C   UNL     1      10.671 -60.420 -27.147  1.00  0.00     0.169 A 
ATOM     13  O   UNL     1      11.579 -59.522 -27.618  1.00  0.00    -0.356 OA
ATOM     14  N   UNL     1      12.212 -58.899 -26.553  1.00  0.00    -0.084 NA
ATOM     15  H   UNL     1       8.216 -63.014 -28.942  1.00  0.00     0.166 HD
BRANCH   3  16
ATOM     16  O   UNL     1       6.297 -64.803 -25.405  1.00  0.00    -0.510 OA
ATOM     17  H   UNL     1       6.107 -65.507 -26.050  1.00  0.00     0.293 HD
ENDBRANCH   3  16
ENDBRANCH   1   2
BRANCH   1  18
ATOM     18  C   UNL     1      11.834 -60.000 -23.018  1.00  0.00     0.010 C 
BRANCH  18  19
ATOM     19  C   UNL     1      11.048 -59.437 -21.814  1.00  0.00     0.000 C 
ATOM     20  C   UNL     1       9.559 -59.278 -22.164  1.00  0.00     0.065 C 
ATOM     21  C   UNL     1      11.578 -58.085 -21.310  1.00  0.00     0.065 C 
ATOM     22  C   UNL     1       9.289 -58.139 -23.143  1.00  0.00     0.262 C 
ATOM     23  C   UNL     1      11.332 -56.945 -22.291  1.00  0.00     0.262 C 
ATOM     24  N   UNL     1       9.859 -56.849 -22.599  1.00  0.00    -0.331 N 
ATOM     25  H   UNL     1       9.368 -56.656 -21.718  1.00  0.00     0.348 HD
BRANCH  24  26
ATOM     26  C   UNL     1       9.571 -55.664 -23.502  1.00  0.00     0.299 C 
BRANCH  26  27
ATOM     27  C   UNL     1      10.339 -54.429 -23.116  1.00  0.00     0.006 A 
ATOM     28  C   UNL     1      10.057 -53.762 -21.914  1.00  0.00     0.009 A 
ATOM     29  C   UNL     1      11.336 -53.916 -23.960  1.00  0.00     0.009 A 
ATOM     30  C   UNL     1      10.752 -52.602 -21.570  1.00  0.00     0.001 A 
ATOM     31  C   UNL     1      12.029 -52.755 -23.611  1.00  0.00     0.001 A 
ATOM     32  C   UNL     1      11.735 -52.099 -22.419  1.00  0.00     0.000 A 
ENDBRANCH  26  27
ENDBRANCH  24  26
ENDBRANCH  18  19
ENDBRANCH   1  18
TORSDOF 6
ENDMDL
MODEL 6
REMARK VINA RESULT:   -10.517      6.318     11.842
REMARK INTER + INTRA:         -14.602
REMARK INTER:                 -14.031
REMARK INTRA:                  -0.572
REMARK UNBOUND:                -0.704
REMARK SMILES OC1=CNc2cc3onc(CC[C@H]4CC[N@@H+](Cc5ccccc5)CC4)c3cc2C1
REMARK SMILES IDX 11 1 10 2 2 3 3 4 29 5 4 6 28 7 5 8 27 9 6 10 26 11 7 12
REMARK SMILES IDX 8 13 9 14 1 16 12 18 13 19 14 20 25 21 15 22 24 23 16 24
REMARK SMILES IDX 17 26 18 27 19 28 23 29 20 30 22 31 21 32
REMARK H PARENT 4 15 1 17 16 25
ROOT
ATOM      1  C   UNL     1      11.720 -50.896 -22.148  1.00  0.00     0.061 C 
ENDROOT
BRANCH   1   2
ATOM      2  C   UNL     1      12.231 -49.973 -23.199  1.00  0.00     0.091 A 
ATOM      3  C   UNL     1      10.522 -43.844 -23.304  1.00  0.00     0.113 C 
ATOM      4  C   UNL     1      11.294 -43.678 -24.384  1.00  0.00     0.125 C 
ATOM      5  C   UNL     1      10.432 -45.185 -22.621  1.00  0.00     0.113 C 
ATOM      6  N   UNL     1      12.052 -44.676 -24.933  1.00  0.00    -0.358 N 
ATOM      7  C   UNL     1      11.241 -46.287 -23.292  1.00  0.00    -0.016 A 
ATOM      8  C   UNL     1      12.008 -45.995 -24.446  1.00  0.00     0.046 A 
ATOM      9  C   UNL     1      11.211 -47.590 -22.754  1.00  0.00     0.020 A 
ATOM     10  C   UNL     1      12.774 -46.991 -25.065  1.00  0.00     0.077 A 
ATOM     11  C   UNL     1      11.969 -48.592 -23.383  1.00  0.00     0.045 A 
ATOM     12  C   UNL     1      12.713 -48.262 -24.500  1.00  0.00     0.169 A 
ATOM     13  O   UNL     1      13.371 -49.365 -24.946  1.00  0.00    -0.356 OA
ATOM     14  N   UNL     1      13.071 -50.446 -24.132  1.00  0.00    -0.084 NA
ATOM     15  H   UNL     1      12.472 -44.503 -25.839  1.00  0.00     0.166 HD
BRANCH   3  16
ATOM     16  O   UNL     1       9.783 -42.794 -22.798  1.00  0.00    -0.510 OA
ATOM     17  H   UNL     1       8.843 -42.945 -22.998  1.00  0.00     0.293 HD
ENDBRANCH   3  16
ENDBRANCH   1   2
BRANCH   1  18
ATOM     18  C   UNL     1      11.829 -52.364 -22.589  1.00  0.00     0.010 C 
BRANCH  18  19
ATOM     19  C   UNL     1      10.472 -53.037 -22.887  1.00  0.00     0.000 C 
ATOM     20  C   UNL     1       9.904 -53.696 -21.619  1.00  0.00     0.065 C 
ATOM     21  C   UNL     1      10.541 -54.097 -23.998  1.00  0.00     0.065 C 
ATOM     22  C   UNL     1      10.670 -54.945 -21.194  1.00  0.00     0.262 C 
ATOM     23  C   UNL     1      11.323 -55.339 -23.591  1.00  0.00     0.262 C 
ATOM     24  N   UNL     1      10.722 -55.930 -22.340  1.00  0.00    -0.331 N 
ATOM     25  H   UNL     1       9.751 -56.190 -22.552  1.00  0.00     0.348 HD
BRANCH  24  26
ATOM     26  C   UNL     1      11.422 -57.222 -21.961  1.00  0.00     0.299 C 
BRANCH  26  27
ATOM     27  C   UNL     1      10.542 -58.433 -22.107  1.00  0.00     0.006 A 
ATOM     28  C   UNL     1      10.779 -59.583 -21.338  1.00  0.00     0.009 A 
ATOM     29  C   UNL     1       9.483 -58.438 -23.028  1.00  0.00     0.009 A 
ATOM     30  C   UNL     1       9.978 -60.714 -21.494  1.00  0.00     0.001 A 
ATOM     31  C   UNL     1       8.685 -59.573 -23.181  1.00  0.00     0.001 A 
ATOM     32  C   UNL     1       8.934 -60.710 -22.416  1.00  0.00     0.000 A 
ENDBRANCH  26  27
ENDBRANCH  24  26
ENDBRANCH  18  19
ENDBRANCH   1  18
TORSDOF 6
ENDMDL
MODEL 7
REMARK VINA RESULT:   -10.119      7.819     13.211
REMARK INTER + INTRA:         -14.077
REMARK INTER:                 -13.509
REMARK INTRA:                  -0.568
REMARK UNBOUND:                -0.704
REMARK SMILES OC1=CNc2cc3onc(CC[C@H]4CC[N@@H+](Cc5ccccc5)CC4)c3cc2C1
REMARK SMILES IDX 11 1 10 2 2 3 3 4 29 5 4 6 28 7 5 8 27 9 6 10 26 11 7 12
REMARK SMILES IDX 8 13 9 14 1 16 12 18 13 19 14 20 25 21 15 22 24 23 16 24
REMARK SMILES IDX 17 26 18 27 19 28 23 29 20 30 22 31 21 32
REMARK H PARENT 4 15 1 17 16 25
ROOT
ATOM      1  C   UNL     1      12.025 -48.885 -23.510  1.00  0.00     0.061 C 
ENDROOT
BRANCH   1   2
ATOM      2  C   UNL     1      11.301 -47.653 -23.091  1.00  0.00     0.091 A 
ATOM      3  C   UNL     1      12.442 -42.056 -25.896  1.00  0.00     0.113 C 
ATOM      4  C   UNL     1      11.522 -41.502 -25.097  1.00  0.00     0.125 C 
ATOM      5  C   UNL     1      12.738 -43.533 -25.821  1.00  0.00     0.113 C 
ATOM      6  N   UNL     1      10.788 -42.209 -24.184  1.00  0.00    -0.358 N 
ATOM      7  C   UNL     1      11.946 -44.278 -24.754  1.00  0.00    -0.016 A 
ATOM      8  C   UNL     1      11.011 -43.580 -23.953  1.00  0.00     0.046 A 
ATOM      9  C   UNL     1      12.160 -45.661 -24.577  1.00  0.00     0.020 A 
ATOM     10  C   UNL     1      10.260 -44.252 -22.982  1.00  0.00     0.077 A 
ATOM     11  C   UNL     1      11.416 -46.333 -23.593  1.00  0.00     0.045 A 
ATOM     12  C   UNL     1      10.504 -45.615 -22.841  1.00  0.00     0.169 A 
ATOM     13  O   UNL     1       9.892 -46.449 -21.958  1.00  0.00    -0.356 OA
ATOM     14  N   UNL     1      10.389 -47.734 -22.110  1.00  0.00    -0.084 NA
ATOM     15  H   UNL     1      10.239 -41.683 -23.515  1.00  0.00     0.166 HD
BRANCH   3  16
ATOM     16  O   UNL     1      13.147 -41.286 -26.798  1.00  0.00    -0.510 OA
ATOM     17  H   UNL     1      12.711 -40.420 -26.881  1.00  0.00     0.293 HD
ENDBRANCH   3  16
ENDBRANCH   1   2
BRANCH   1  18
ATOM     18  C   UNL     1      11.273 -50.154 -23.077  1.00  0.00     0.010 C 
BRANCH  18  19
ATOM     19  C   UNL     1      12.155 -51.196 -22.355  1.00  0.00     0.000 C 
ATOM     20  C   UNL     1      12.738 -52.202 -23.361  1.00  0.00     0.065 C 
ATOM     21  C   UNL     1      11.414 -51.976 -21.257  1.00  0.00     0.065 C 
ATOM     22  C   UNL     1      11.695 -53.163 -23.925  1.00  0.00     0.262 C 
ATOM     23  C   UNL     1      10.355 -52.922 -21.810  1.00  0.00     0.262 C 
ATOM     24  N   UNL     1      10.988 -53.874 -22.793  1.00  0.00    -0.331 N 
ATOM     25  H   UNL     1      11.702 -54.414 -22.290  1.00  0.00     0.348 HD
BRANCH  24  26
ATOM     26  C   UNL     1       9.976 -54.889 -23.291  1.00  0.00     0.299 C 
BRANCH  26  27
ATOM     27  C   UNL     1      10.242 -56.282 -22.786  1.00  0.00     0.006 A 
ATOM     28  C   UNL     1       9.495 -57.369 -23.266  1.00  0.00     0.009 A 
ATOM     29  C   UNL     1      11.228 -56.511 -21.814  1.00  0.00     0.009 A 
ATOM     30  C   UNL     1       9.726 -58.655 -22.778  1.00  0.00     0.001 A 
ATOM     31  C   UNL     1      11.454 -57.800 -21.327  1.00  0.00     0.001 A 
ATOM     32  C   UNL     1      10.702 -58.869 -21.807  1.00  0.00     0.000 A 
ENDBRANCH  26  27
ENDBRANCH  24  26
ENDBRANCH  18  19
ENDBRANCH   1  18
TORSDOF 6
ENDMDL
MODEL 8
REMARK VINA RESULT:   -10.013      3.774      8.678
REMARK INTER + INTRA:         -13.937
REMARK INTER:                 -13.485
REMARK INTRA:                  -0.451
REMARK UNBOUND:                -0.704
REMARK SMILES OC1=CNc2cc3onc(CC[C@H]4CC[N@@H+](Cc5ccccc5)CC4)c3cc2C1
REMARK SMILES IDX 11 1 10 2 2 3 3 4 29 5 4 6 28 7 5 8 27 9 6 10 26 11 7 12
REMARK SMILES IDX 8 13 9 14 1 16 12 18 13 19 14 20 25 21 15 22 24 23 16 24
REMARK SMILES IDX 17 26 18 27 19 28 23 29 20 30 22 31 21 32
REMARK H PARENT 4 15 1 17 16 25
ROOT
ATOM      1  C   UNL     1       9.665 -55.143 -23.339  1.00  0.00     0.061 C 
ENDROOT
BRANCH   1   2
ATOM      2  C   UNL     1      10.205 -53.859 -22.812  1.00  0.00     0.091 A 
ATOM      3  C   UNL     1      14.986 -50.853 -25.747  1.00  0.00     0.113 C 
ATOM      4  C   UNL     1      14.914 -49.894 -24.817  1.00  0.00     0.125 C 
ATOM      5  C   UNL     1      14.035 -52.024 -25.721  1.00  0.00     0.113 C 
ATOM      6  N   UNL     1      13.993 -49.889 -23.804  1.00  0.00    -0.358 N 
ATOM      7  C   UNL     1      13.064 -52.017 -24.548  1.00  0.00    -0.016 A 
ATOM      8  C   UNL     1      13.094 -50.954 -23.612  1.00  0.00     0.046 A 
ATOM      9  C   UNL     1      12.144 -53.077 -24.408  1.00  0.00     0.020 A 
ATOM     10  C   UNL     1      12.195 -50.921 -22.539  1.00  0.00     0.077 A 
ATOM     11  C   UNL     1      11.251 -53.051 -23.323  1.00  0.00     0.045 A 
ATOM     12  C   UNL     1      11.307 -51.988 -22.440  1.00  0.00     0.169 A 
ATOM     13  O   UNL     1      10.362 -52.152 -21.476  1.00  0.00    -0.356 OA
ATOM     14  N   UNL     1       9.665 -53.329 -21.704  1.00  0.00    -0.084 NA
ATOM     15  H   UNL     1      14.120 -49.215 -23.058  1.00  0.00     0.166 HD
BRANCH   3  16
ATOM     16  O   UNL     1      15.938 -50.797 -26.744  1.00  0.00    -0.510 OA
ATOM     17  H   UNL     1      16.340 -51.677 -26.844  1.00  0.00     0.293 HD
ENDBRANCH   3  16
ENDBRANCH   1   2
BRANCH   1  18
ATOM     18  C   UNL     1       9.792 -56.272 -22.305  1.00  0.00     0.010 C 
BRANCH  18  19
ATOM     19  C   UNL     1      11.234 -56.786 -22.104  1.00  0.00     0.000 C 
ATOM     20  C   UNL     1      11.945 -56.948 -23.458  1.00  0.00     0.065 C 
ATOM     21  C   UNL     1      11.313 -58.122 -21.348  1.00  0.00     0.065 C 
ATOM     22  C   UNL     1      11.416 -58.121 -24.279  1.00  0.00     0.262 C 
ATOM     23  C   UNL     1      10.766 -59.295 -22.152  1.00  0.00     0.262 C 
ATOM     24  N   UNL     1      11.497 -59.393 -23.467  1.00  0.00    -0.331 N 
ATOM     25  H   UNL     1      12.492 -59.551 -23.261  1.00  0.00     0.348 HD
BRANCH  24  26
ATOM     26  C   UNL     1      11.039 -60.609 -24.251  1.00  0.00     0.299 C 
BRANCH  26  27
ATOM     27  C   UNL     1      11.290 -60.485 -25.730  1.00  0.00     0.006 A 
ATOM     28  C   UNL     1      12.562 -60.139 -26.210  1.00  0.00     0.009 A 
ATOM     29  C   UNL     1      10.250 -60.693 -26.650  1.00  0.00     0.009 A 
ATOM     30  C   UNL     1      12.786 -59.998 -27.580  1.00  0.00     0.001 A 
ATOM     31  C   UNL     1      10.479 -60.551 -28.019  1.00  0.00     0.001 A 
ATOM     32  C   UNL     1      11.745 -60.202 -28.482  1.00  0.00     0.000 A 
ENDBRANCH  26  27
ENDBRANCH  24  26
ENDBRANCH  18  19
ENDBRANCH   1  18
TORSDOF 6
ENDMDL
MODEL 9
REMARK VINA RESULT:    -9.996      6.412     11.770
REMARK INTER + INTRA:         -13.914
REMARK INTER:                 -13.587
REMARK INTRA:                  -0.327
REMARK UNBOUND:                -0.704
REMARK SMILES OC1=CNc2cc3onc(CC[C@H]4CC[N@@H+](Cc5ccccc5)CC4)c3cc2C1
REMARK SMILES IDX 11 1 10 2 2 3 3 4 29 5 4 6 28 7 5 8 27 9 6 10 26 11 7 12
REMARK SMILES IDX 8 13 9 14 1 16 12 18 13 19 14 20 25 21 15 22 24 23 16 24
REMARK SMILES IDX 17 26 18 27 19 28 23 29 20 30 22 31 21 32
REMARK H PARENT 4 15 1 17 16 25
ROOT
ATOM      1  C   UNL     1      12.482 -51.010 -23.612  1.00  0.00     0.061 C 
ENDROOT
BRANCH   1   2
ATOM      2  C   UNL     1      11.707 -49.806 -23.204  1.00  0.00     0.091 A 
ATOM      3  C   UNL     1      12.991 -44.081 -25.670  1.00  0.00     0.113 C 
ATOM      4  C   UNL     1      12.000 -43.573 -24.929  1.00  0.00     0.125 C 
ATOM      5  C   UNL     1      13.302 -45.556 -25.632  1.00  0.00     0.113 C 
ATOM      6  N   UNL     1      11.203 -44.327 -24.111  1.00  0.00    -0.358 N 
ATOM      7  C   UNL     1      12.436 -46.355 -24.667  1.00  0.00    -0.016 A 
ATOM      8  C   UNL     1      11.427 -45.703 -23.919  1.00  0.00     0.046 A 
ATOM      9  C   UNL     1      12.656 -47.742 -24.530  1.00  0.00     0.020 A 
ATOM     10  C   UNL     1      10.608 -46.425 -23.042  1.00  0.00     0.077 A 
ATOM     11  C   UNL     1      11.843 -48.464 -23.640  1.00  0.00     0.045 A 
ATOM     12  C   UNL     1      10.861 -47.789 -22.938  1.00  0.00     0.169 A 
ATOM     13  O   UNL     1      10.190 -48.667 -22.144  1.00  0.00    -0.356 OA
ATOM     14  N   UNL     1      10.718 -49.938 -22.307  1.00  0.00    -0.084 NA
ATOM     15  H   UNL     1      10.592 -43.836 -23.469  1.00  0.00     0.166 HD
BRANCH   3  16
ATOM     16  O   UNL     1      13.757 -43.265 -26.477  1.00  0.00    -0.510 OA
ATOM     17  H   UNL     1      13.182 -42.858 -27.148  1.00  0.00     0.293 HD
ENDBRANCH   3  16
ENDBRANCH   1   2
BRANCH   1  18
ATOM     18  C   UNL     1      12.076 -52.244 -22.791  1.00  0.00     0.010 C 
BRANCH  18  19
ATOM     19  C   UNL     1      10.778 -52.926 -23.275  1.00  0.00     0.000 C 
ATOM     20  C   UNL     1       9.952 -53.431 -22.079  1.00  0.00     0.065 C 
ATOM     21  C   UNL     1      11.020 -54.103 -24.233  1.00  0.00     0.065 C 
ATOM     22  C   UNL     1      10.577 -54.637 -21.383  1.00  0.00     0.262 C 
ATOM     23  C   UNL     1      11.664 -55.304 -23.551  1.00  0.00     0.262 C 
ATOM     24  N   UNL     1      10.812 -55.743 -22.386  1.00  0.00    -0.331 N 
ATOM     25  H   UNL     1       9.891 -56.010 -22.755  1.00  0.00     0.348 HD
BRANCH  24  26
ATOM     26  C   UNL     1      11.380 -56.995 -21.743  1.00  0.00     0.299 C 
BRANCH  26  27
ATOM     27  C   UNL     1      10.551 -58.222 -22.012  1.00  0.00     0.006 A 
ATOM     28  C   UNL     1      10.774 -59.405 -21.291  1.00  0.00     0.009 A 
ATOM     29  C   UNL     1       9.556 -58.207 -23.002  1.00  0.00     0.009 A 
ATOM     30  C   UNL     1      10.023 -60.549 -21.560  1.00  0.00     0.001 A 
ATOM     31  C   UNL     1       8.807 -59.355 -23.268  1.00  0.00     0.001 A 
ATOM     32  C   UNL     1       9.042 -60.524 -22.550  1.00  0.00     0.000 A 
ENDBRANCH  26  27
ENDBRANCH  24  26
ENDBRANCH  18  19
ENDBRANCH   1  18
TORSDOF 6
ENDMDL
