MODEL 1
REMARK VINA RESULT:    -8.886      0.000      0.000
REMARK INTER + INTRA:          -9.146
REMARK INTER:                  -9.146
REMARK INTRA:                   0.000
REMARK UNBOUND:                 0.000
REMARK SMILES Nc1c2c(nc3cc(Cl)ccc13)[C@@H]1CC[C@H]2C1
REMARK SMILES IDX 2 1 3 2 4 3 5 4 6 5 7 6 8 7 9 8 10 9 11 10 12 11 13 12 14 13
REMARK SMILES IDX 15 14 16 15 17 16 1 17
REMARK H PARENT 1 18 1 19
ROOT
ATOM      1  C   UNL     1      11.430 -58.476 -22.298  1.00  0.00     0.046 A 
ATOM      2  C   UNL     1      11.759 -59.232 -23.401  1.00  0.00     0.001 A 
ATOM      3  C   UNL     1      12.077 -58.606 -24.603  1.00  0.00     0.050 A 
ATOM      4  N   UNL     1      12.070 -57.290 -24.823  1.00  0.00    -0.252 NA
ATOM      5  C   UNL     1      11.696 -56.535 -23.778  1.00  0.00     0.074 A 
ATOM      6  C   UNL     1      11.640 -55.165 -23.978  1.00  0.00     0.049 A 
ATOM      7  C   UNL     1      11.233 -54.301 -22.966  1.00  0.00     0.043 A 
ATOM      8  Cl  UNL     1      11.174 -52.607 -23.258  1.00  0.00    -0.084 Cl
ATOM      9  C   UNL     1      10.866 -54.797 -21.722  1.00  0.00     0.021 A 
ATOM     10  C   UNL     1      10.918 -56.172 -21.490  1.00  0.00     0.014 A 
ATOM     11  C   UNL     1      11.342 -57.069 -22.497  1.00  0.00     0.024 A 
ATOM     12  C   UNL     1      12.351 -59.702 -25.620  1.00  0.00     0.039 C 
ATOM     13  C   UNL     1      11.005 -60.388 -25.923  1.00  0.00     0.010 C 
ATOM     14  C   UNL     1      10.652 -61.089 -24.580  1.00  0.00     0.009 C 
ATOM     15  C   UNL     1      11.833 -60.717 -23.661  1.00  0.00     0.024 C 
ATOM     16  C   UNL     1      12.997 -60.722 -24.670  1.00  0.00     0.018 C 
ENDROOT
BRANCH   1  17
ATOM     17  N   UNL     1      11.000 -59.108 -21.120  1.00  0.00    -0.398 N 
ATOM     18  H   UNL     1      10.018 -59.358 -21.121  1.00  0.00     0.156 HD
ATOM     19  H   UNL     1      11.250 -58.605 -20.274  1.00  0.00     0.156 HD
ENDBRANCH   1  17
TORSDOF 1
ENDMDL
MODEL 2
REMARK VINA RESULT:    -8.826      2.511      3.630
REMARK INTER + INTRA:          -9.084
REMARK INTER:                  -9.084
REMARK INTRA:                   0.000
REMARK UNBOUND:                 0.000
REMARK SMILES Nc1c2c(nc3cc(Cl)ccc13)[C@@H]1CC[C@H]2C1
REMARK SMILES IDX 2 1 3 2 4 3 5 4 6 5 7 6 8 7 9 8 10 9 11 10 12 11 13 12 14 13
REMARK SMILES IDX 15 14 16 15 17 16 1 17
REMARK H PARENT 1 18 1 19
ROOT
ATOM      1  C   UNL     1      10.835 -60.501 -23.817  1.00  0.00     0.046 A 
ATOM      2  C   UNL     1       9.720 -61.262 -24.084  1.00  0.00     0.001 A 
ATOM      3  C   UNL     1       8.458 -60.674 -24.068  1.00  0.00     0.050 A 
ATOM      4  N   UNL     1       8.195 -59.399 -23.780  1.00  0.00    -0.252 NA
ATOM      5  C   UNL     1       9.263 -58.651 -23.460  1.00  0.00     0.074 A 
ATOM      6  C   UNL     1       9.027 -57.329 -23.118  1.00  0.00     0.049 A 
ATOM      7  C   UNL     1      10.064 -56.482 -22.740  1.00  0.00     0.043 A 
ATOM      8  Cl  UNL     1       9.726 -54.848 -22.319  1.00  0.00    -0.084 Cl
ATOM      9  C   UNL     1      11.371 -56.947 -22.692  1.00  0.00     0.021 A 
ATOM     10  C   UNL     1      11.640 -58.272 -23.036  1.00  0.00     0.014 A 
ATOM     11  C   UNL     1      10.606 -59.149 -23.438  1.00  0.00     0.024 A 
ATOM     12  C   UNL     1       7.448 -61.773 -24.359  1.00  0.00     0.039 C 
ATOM     13  C   UNL     1       7.421 -62.704 -23.131  1.00  0.00     0.010 C 
ATOM     14  C   UNL     1       8.831 -63.362 -23.152  1.00  0.00     0.009 C 
ATOM     15  C   UNL     1       9.505 -62.726 -24.385  1.00  0.00     0.024 C 
ATOM     16  C   UNL     1       8.300 -62.596 -25.338  1.00  0.00     0.018 C 
ENDROOT
BRANCH   1  17
ATOM     17  N   UNL     1      12.095 -61.116 -23.722  1.00  0.00    -0.398 N 
ATOM     18  H   UNL     1      12.853 -60.565 -24.104  1.00  0.00     0.156 HD
ATOM     19  H   UNL     1      12.112 -62.065 -24.083  1.00  0.00     0.156 HD
ENDBRANCH   1  17
TORSDOF 1
ENDMDL
MODEL 3
REMARK VINA RESULT:    -8.819      3.709      5.650
REMARK INTER + INTRA:          -9.077
REMARK INTER:                  -9.077
REMARK INTRA:                   0.000
REMARK UNBOUND:                 0.000
REMARK SMILES Nc1c2c(nc3cc(Cl)ccc13)[C@@H]1CC[C@H]2C1
REMARK SMILES IDX 2 1 3 2 4 3 5 4 6 5 7 6 8 7 9 8 10 9 11 10 12 11 13 12 14 13
REMARK SMILES IDX 15 14 16 15 17 16 1 17
REMARK H PARENT 1 18 1 19
ROOT
ATOM      1  C   UNL     1      12.032 -54.328 -24.881  1.00  0.00     0.046 A 
ATOM      2  C   UNL     1      11.231 -54.603 -23.794  1.00  0.00     0.001 A 
ATOM      3  C   UNL     1      10.922 -53.592 -22.888  1.00  0.00     0.050 A 
ATOM      4  N   UNL     1      11.359 -52.333 -22.942  1.00  0.00    -0.252 NA
ATOM      5  C   UNL     1      12.187 -52.058 -23.962  1.00  0.00     0.074 A 
ATOM      6  C   UNL     1      12.693 -50.769 -24.033  1.00  0.00     0.049 A 
ATOM      7  C   UNL     1      13.584 -50.395 -25.034  1.00  0.00     0.043 A 
ATOM      8  Cl  UNL     1      14.191 -48.785 -25.082  1.00  0.00    -0.084 Cl
ATOM      9  C   UNL     1      13.995 -51.312 -25.991  1.00  0.00     0.021 A 
ATOM     10  C   UNL     1      13.498 -52.615 -25.948  1.00  0.00     0.014 A 
ATOM     11  C   UNL     1      12.580 -53.017 -24.951  1.00  0.00     0.024 A 
ATOM     12  C   UNL     1      10.066 -54.216 -21.797  1.00  0.00     0.039 C 
ATOM     13  C   UNL     1      10.979 -55.155 -20.984  1.00  0.00     0.010 C 
ATOM     14  C   UNL     1      11.323 -56.284 -21.996  1.00  0.00     0.009 C 
ATOM     15  C   UNL     1      10.573 -55.858 -23.276  1.00  0.00     0.024 C 
ATOM     16  C   UNL     1       9.305 -55.226 -22.670  1.00  0.00     0.018 C 
ENDROOT
BRANCH   1  17
ATOM     17  N   UNL     1      12.437 -55.371 -25.731  1.00  0.00    -0.398 N 
ATOM     18  H   UNL     1      13.441 -55.501 -25.775  1.00  0.00     0.156 HD
ATOM     19  H   UNL     1      12.033 -55.317 -26.661  1.00  0.00     0.156 HD
ENDBRANCH   1  17
TORSDOF 1
ENDMDL
MODEL 4
REMARK VINA RESULT:    -8.728      4.312      7.058
REMARK INTER + INTRA:          -8.983
REMARK INTER:                  -8.983
REMARK INTRA:                   0.000
REMARK UNBOUND:                 0.000
REMARK SMILES Nc1c2c(nc3cc(Cl)ccc13)[C@@H]1CC[C@H]2C1
REMARK SMILES IDX 2 1 3 2 4 3 5 4 6 5 7 6 8 7 9 8 10 9 11 10 12 11 13 12 14 13
REMARK SMILES IDX 15 14 16 15 17 16 1 17
REMARK H PARENT 1 18 1 19
ROOT
ATOM      1  C   UNL     1      12.032 -51.458 -22.717  1.00  0.00     0.046 A 
ATOM      2  C   UNL     1      12.865 -51.168 -23.775  1.00  0.00     0.001 A 
ATOM      3  C   UNL     1      13.013 -52.083 -24.813  1.00  0.00     0.050 A 
ATOM      4  N   UNL     1      12.431 -53.281 -24.886  1.00  0.00    -0.252 NA
ATOM      5  C   UNL     1      11.659 -53.609 -23.837  1.00  0.00     0.074 A 
ATOM      6  C   UNL     1      11.067 -54.862 -23.858  1.00  0.00     0.049 A 
ATOM      7  C   UNL     1      10.276 -55.307 -22.803  1.00  0.00     0.043 A 
ATOM      8  Cl  UNL     1       9.562 -56.871 -22.868  1.00  0.00    -0.084 Cl
ATOM      9  C   UNL     1      10.064 -54.501 -21.693  1.00  0.00     0.021 A 
ATOM     10  C   UNL     1      10.643 -53.233 -21.646  1.00  0.00     0.014 A 
ATOM     11  C   UNL     1      11.439 -52.751 -22.712  1.00  0.00     0.024 A 
ATOM     12  C   UNL     1      14.014 -51.492 -25.792  1.00  0.00     0.039 C 
ATOM     13  C   UNL     1      15.392 -51.514 -25.101  1.00  0.00     0.010 C 
ATOM     14  C   UNL     1      15.226 -50.489 -23.943  1.00  0.00     0.009 C 
ATOM     15  C   UNL     1      13.770 -50.005 -24.099  1.00  0.00     0.024 C 
ATOM     16  C   UNL     1      13.625 -50.014 -25.633  1.00  0.00     0.018 C 
ENDROOT
BRANCH   1  17
ATOM     17  N   UNL     1      11.971 -50.587 -21.616  1.00  0.00    -0.398 N 
ATOM     18  H   UNL     1      12.857 -50.453 -21.145  1.00  0.00     0.156 HD
ATOM     19  H   UNL     1      11.235 -50.817 -20.955  1.00  0.00     0.156 HD
ENDBRANCH   1  17
TORSDOF 1
ENDMDL
MODEL 5
REMARK VINA RESULT:    -8.232      3.650      6.250
REMARK INTER + INTRA:          -8.472
REMARK INTER:                  -8.472
REMARK INTRA:                   0.000
REMARK UNBOUND:                 0.000
REMARK SMILES Nc1c2c(nc3cc(Cl)ccc13)[C@@H]1CC[C@H]2C1
REMARK SMILES IDX 2 1 3 2 4 3 5 4 6 5 7 6 8 7 9 8 10 9 11 10 12 11 13 12 14 13
REMARK SMILES IDX 15 14 16 15 17 16 1 17
REMARK H PARENT 1 18 1 19
ROOT
ATOM      1  C   UNL     1      11.476 -59.464 -25.982  1.00  0.00     0.046 A 
ATOM      2  C   UNL     1      11.378 -59.352 -24.613  1.00  0.00     0.001 A 
ATOM      3  C   UNL     1      10.568 -60.233 -23.900  1.00  0.00     0.050 A 
ATOM      4  N   UNL     1       9.818 -61.202 -24.426  1.00  0.00    -0.252 NA
ATOM      5  C   UNL     1       9.853 -61.293 -25.765  1.00  0.00     0.074 A 
ATOM      6  C   UNL     1       9.058 -62.264 -26.352  1.00  0.00     0.049 A 
ATOM      7  C   UNL     1       9.001 -62.415 -27.734  1.00  0.00     0.043 A 
ATOM      8  Cl  UNL     1       7.997 -63.632 -28.422  1.00  0.00    -0.084 Cl
ATOM      9  C   UNL     1       9.743 -61.587 -28.565  1.00  0.00     0.021 A 
ATOM     10  C   UNL     1      10.557 -60.604 -28.002  1.00  0.00     0.014 A 
ATOM     11  C   UNL     1      10.644 -60.439 -26.600  1.00  0.00     0.024 A 
ATOM     12  C   UNL     1      10.644 -59.827 -22.438  1.00  0.00     0.039 C 
ATOM     13  C   UNL     1       9.909 -58.479 -22.301  1.00  0.00     0.010 C 
ATOM     14  C   UNL     1      10.815 -57.496 -23.095  1.00  0.00     0.009 C 
ATOM     15  C   UNL     1      11.961 -58.396 -23.602  1.00  0.00     0.024 C 
ATOM     16  C   UNL     1      12.111 -59.369 -22.416  1.00  0.00     0.018 C 
ENDROOT
BRANCH   1  17
ATOM     17  N   UNL     1      12.201 -58.507 -26.712  1.00  0.00    -0.398 N 
ATOM     18  H   UNL     1      12.148 -58.627 -27.716  1.00  0.00     0.156 HD
ATOM     19  H   UNL     1      13.163 -58.405 -26.404  1.00  0.00     0.156 HD
ENDBRANCH   1  17
TORSDOF 1
ENDMDL
MODEL 6
REMARK VINA RESULT:    -8.062      1.804      2.181
REMARK INTER + INTRA:          -8.298
REMARK INTER:                  -8.298
REMARK INTRA:                   0.000
REMARK UNBOUND:                 0.000
REMARK SMILES Nc1c2c(nc3cc(Cl)ccc13)[C@@H]1CC[C@H]2C1
REMARK SMILES IDX 2 1 3 2 4 3 5 4 6 5 7 6 8 7 9 8 10 9 11 10 12 11 13 12 14 13
REMARK SMILES IDX 15 14 16 15 17 16 1 17
REMARK H PARENT 1 18 1 19
ROOT
ATOM      1  C   UNL     1      11.252 -57.811 -21.313  1.00  0.00     0.046 A 
ATOM      2  C   UNL     1      10.772 -58.796 -22.147  1.00  0.00     0.001 A 
ATOM      3  C   UNL     1      10.006 -58.453 -23.258  1.00  0.00     0.050 A 
ATOM      4  N   UNL     1       9.645 -57.217 -23.605  1.00  0.00    -0.252 NA
ATOM      5  C   UNL     1      10.053 -56.245 -22.774  1.00  0.00     0.074 A 
ATOM      6  C   UNL     1       9.665 -54.950 -23.080  1.00  0.00     0.049 A 
ATOM      7  C   UNL     1      10.011 -53.878 -22.262  1.00  0.00     0.043 A 
ATOM      8  Cl  UNL     1       9.505 -52.287 -22.678  1.00  0.00    -0.084 Cl
ATOM      9  C   UNL     1      10.755 -54.084 -21.109  1.00  0.00     0.021 A 
ATOM     10  C   UNL     1      11.164 -55.376 -20.778  1.00  0.00     0.014 A 
ATOM     11  C   UNL     1      10.839 -56.480 -21.600  1.00  0.00     0.024 A 
ATOM     12  C   UNL     1       9.603 -59.750 -23.941  1.00  0.00     0.039 C 
ATOM     13  C   UNL     1       8.592 -60.456 -23.018  1.00  0.00     0.010 C 
ATOM     14  C   UNL     1       9.448 -60.841 -21.778  1.00  0.00     0.009 C 
ATOM     15  C   UNL     1      10.851 -60.303 -22.131  1.00  0.00     0.024 C 
ATOM     16  C   UNL     1      10.881 -60.553 -23.652  1.00  0.00     0.018 C 
ENDROOT
BRANCH   1  17
ATOM     17  N   UNL     1      11.926 -58.162 -20.131  1.00  0.00    -0.398 N 
ATOM     18  H   UNL     1      11.331 -58.575 -19.423  1.00  0.00     0.156 HD
ATOM     19  H   UNL     1      12.489 -57.410 -19.745  1.00  0.00     0.156 HD
ENDBRANCH   1  17
TORSDOF 1
ENDMDL
MODEL 7
REMARK VINA RESULT:    -7.996      4.758      8.584
REMARK INTER + INTRA:          -8.229
REMARK INTER:                  -8.229
REMARK INTRA:                   0.000
REMARK UNBOUND:                 0.000
REMARK SMILES Nc1c2c(nc3cc(Cl)ccc13)[C@@H]1CC[C@H]2C1
REMARK SMILES IDX 2 1 3 2 4 3 5 4 6 5 7 6 8 7 9 8 10 9 11 10 12 11 13 12 14 13
REMARK SMILES IDX 15 14 16 15 17 16 1 17
REMARK H PARENT 1 18 1 19
ROOT
ATOM      1  C   UNL     1      13.210 -51.183 -24.914  1.00  0.00     0.046 A 
ATOM      2  C   UNL     1      13.099 -50.028 -24.172  1.00  0.00     0.001 A 
ATOM      3  C   UNL     1      12.418 -50.046 -22.958  1.00  0.00     0.050 A 
ATOM      4  N   UNL     1      11.808 -51.103 -22.420  1.00  0.00    -0.252 NA
ATOM      5  C   UNL     1      11.853 -52.226 -23.154  1.00  0.00     0.074 A 
ATOM      6  C   UNL     1      11.198 -53.337 -22.648  1.00  0.00     0.049 A 
ATOM      7  C   UNL     1      11.161 -54.539 -23.349  1.00  0.00     0.043 A 
ATOM      8  Cl  UNL     1      10.332 -55.892 -22.685  1.00  0.00    -0.084 Cl
ATOM      9  C   UNL     1      11.781 -54.652 -24.585  1.00  0.00     0.021 A 
ATOM     10  C   UNL     1      12.453 -53.552 -25.118  1.00  0.00     0.014 A 
ATOM     11  C   UNL     1      12.519 -52.324 -24.419  1.00  0.00     0.024 A 
ATOM     12  C   UNL     1      12.439 -48.627 -22.412  1.00  0.00     0.039 C 
ATOM     13  C   UNL     1      11.527 -47.778 -23.318  1.00  0.00     0.010 C 
ATOM     14  C   UNL     1      12.289 -47.757 -24.673  1.00  0.00     0.009 C 
ATOM     15  C   UNL     1      13.547 -48.603 -24.390  1.00  0.00     0.024 C 
ATOM     16  C   UNL     1      13.829 -48.219 -22.924  1.00  0.00     0.018 C 
ENDROOT
BRANCH   1  17
ATOM     17  N   UNL     1      13.796 -51.141 -26.190  1.00  0.00    -0.398 N 
ATOM     18  H   UNL     1      14.808 -51.185 -26.181  1.00  0.00     0.156 HD
ATOM     19  H   UNL     1      13.467 -50.369 -26.763  1.00  0.00     0.156 HD
ENDBRANCH   1  17
TORSDOF 1
ENDMDL
MODEL 8
REMARK VINA RESULT:    -7.887      4.022      6.339
REMARK INTER + INTRA:          -8.118
REMARK INTER:                  -8.118
REMARK INTRA:                   0.000
REMARK UNBOUND:                 0.000
REMARK SMILES Nc1c2c(nc3cc(Cl)ccc13)[C@@H]1CC[C@H]2C1
REMARK SMILES IDX 2 1 3 2 4 3 5 4 6 5 7 6 8 7 9 8 10 9 11 10 12 11 13 12 14 13
REMARK SMILES IDX 15 14 16 15 17 16 1 17
REMARK H PARENT 1 18 1 19
ROOT
ATOM      1  C   UNL     1       8.346 -61.015 -23.756  1.00  0.00     0.046 A 
ATOM      2  C   UNL     1       9.289 -60.047 -23.493  1.00  0.00     0.001 A 
ATOM      3  C   UNL     1      10.208 -59.686 -24.475  1.00  0.00     0.050 A 
ATOM      4  N   UNL     1      10.298 -60.222 -25.693  1.00  0.00    -0.252 NA
ATOM      5  C   UNL     1       9.426 -61.210 -25.952  1.00  0.00     0.074 A 
ATOM      6  C   UNL     1       9.513 -61.818 -27.194  1.00  0.00     0.049 A 
ATOM      7  C   UNL     1       8.674 -62.872 -27.545  1.00  0.00     0.043 A 
ATOM      8  Cl  UNL     1       8.819 -63.601 -29.096  1.00  0.00    -0.084 Cl
ATOM      9  C   UNL     1       7.726 -63.346 -26.649  1.00  0.00     0.021 A 
ATOM     10  C   UNL     1       7.612 -62.749 -25.393  1.00  0.00     0.014 A 
ATOM     11  C   UNL     1       8.441 -61.667 -25.017  1.00  0.00     0.024 A 
ATOM     12  C   UNL     1      11.123 -58.636 -23.868  1.00  0.00     0.039 C 
ATOM     13  C   UNL     1      11.993 -59.345 -22.812  1.00  0.00     0.010 C 
ATOM     14  C   UNL     1      10.966 -59.745 -21.714  1.00  0.00     0.009 C 
ATOM     15  C   UNL     1       9.625 -59.225 -22.272  1.00  0.00     0.024 C 
ATOM     16  C   UNL     1      10.087 -57.934 -22.977  1.00  0.00     0.018 C 
ENDROOT
BRANCH   1  17
ATOM     17  N   UNL     1       7.495 -61.459 -22.731  1.00  0.00    -0.398 N 
ATOM     18  H   UNL     1       6.669 -60.886 -22.603  1.00  0.00     0.156 HD
ATOM     19  H   UNL     1       7.970 -61.620 -21.848  1.00  0.00     0.156 HD
ENDBRANCH   1  17
TORSDOF 1
ENDMDL
MODEL 9
REMARK VINA RESULT:    -7.604      3.510      5.487
REMARK INTER + INTRA:          -7.826
REMARK INTER:                  -7.826
REMARK INTRA:                   0.000
REMARK UNBOUND:                 0.000
REMARK SMILES Nc1c2c(nc3cc(Cl)ccc13)[C@@H]1CC[C@H]2C1
REMARK SMILES IDX 2 1 3 2 4 3 5 4 6 5 7 6 8 7 9 8 10 9 11 10 12 11 13 12 14 13
REMARK SMILES IDX 15 14 16 15 17 16 1 17
REMARK H PARENT 1 18 1 19
ROOT
ATOM      1  C   UNL     1      11.683 -59.977 -24.630  1.00  0.00     0.046 A 
ATOM      2  C   UNL     1      10.436 -59.761 -24.086  1.00  0.00     0.001 A 
ATOM      3  C   UNL     1       9.325 -59.654 -24.918  1.00  0.00     0.050 A 
ATOM      4  N   UNL     1       9.339 -59.712 -26.250  1.00  0.00    -0.252 NA
ATOM      5  C   UNL     1      10.552 -59.865 -26.805  1.00  0.00     0.074 A 
ATOM      6  C   UNL     1      10.613 -59.892 -28.190  1.00  0.00     0.049 A 
ATOM      7  C   UNL     1      11.827 -60.014 -28.859  1.00  0.00     0.043 A 
ATOM      8  Cl  UNL     1      11.857 -60.041 -30.579  1.00  0.00    -0.084 Cl
ATOM      9  C   UNL     1      13.016 -60.108 -28.150  1.00  0.00     0.021 A 
ATOM     10  C   UNL     1      12.985 -60.088 -26.755  1.00  0.00     0.014 A 
ATOM     11  C   UNL     1      11.764 -59.980 -26.050  1.00  0.00     0.024 A 
ATOM     12  C   UNL     1       8.124 -59.382 -24.027  1.00  0.00     0.039 C 
ATOM     13  C   UNL     1       8.286 -57.955 -23.468  1.00  0.00     0.010 C 
ATOM     14  C   UNL     1       9.526 -58.076 -22.537  1.00  0.00     0.009 C 
ATOM     15  C   UNL     1       9.936 -59.557 -22.677  1.00  0.00     0.024 C 
ATOM     16  C   UNL     1       8.555 -60.226 -22.818  1.00  0.00     0.018 C 
ENDROOT
BRANCH   1  17
ATOM     17  N   UNL     1      12.817 -59.970 -23.802  1.00  0.00    -0.398 N 
ATOM     18  H   UNL     1      13.539 -59.323 -24.095  1.00  0.00     0.156 HD
ATOM     19  H   UNL     1      13.201 -60.895 -23.631  1.00  0.00     0.156 HD
ENDBRANCH   1  17
TORSDOF 1
ENDMDL
