MODEL 1
REMARK VINA RESULT:   -11.727      0.000      0.000
REMARK INTER + INTRA:         -16.590
REMARK INTER:                 -15.841
REMARK INTRA:                  -0.750
REMARK UNBOUND:                -0.750
REMARK SMILES COc1cc2c(cc1OC)C(=O)/C(=C/c1cc[n+](Cc3cccc(Br)c3)cc1)C2
REMARK SMILES IDX 15 1 16 2 17 3 18 4 27 5 28 6 14 7 13 8 3 9 4 10 8 11 5 12
REMARK SMILES IDX 7 13 6 14 29 15 11 16 12 17 2 18 1 19 9 20 10 21 19 22 20 23
REMARK SMILES IDX 21 24 26 25 22 26 24 27 23 28 25 29
REMARK H PARENT
ROOT
ATOM      1  C   UNL     1      10.520 -57.204 -22.946  1.00  0.00    -0.013 A 
ATOM      2  C   UNL     1       9.390 -57.849 -23.440  1.00  0.00     0.079 A 
ATOM      3  C   UNL     1       9.523 -59.079 -24.075  1.00  0.00     0.309 A 
ATOM      4  N   UNL     1      10.741 -59.650 -24.228  1.00  0.00    -0.201 N 
ATOM      5  C   UNL     1      11.852 -59.034 -23.760  1.00  0.00     0.309 A 
ATOM      6  C   UNL     1      11.765 -57.804 -23.116  1.00  0.00     0.079 A 
ENDROOT
BRANCH   1   7
ATOM      7  C   UNL     1      10.377 -55.888 -22.327  1.00  0.00     0.016 C 
BRANCH   7   8
ATOM      8  C   UNL     1      10.899 -54.746 -22.799  1.00  0.00     0.005 C 
ATOM      9  C   UNL     1      12.906 -50.834 -24.486  1.00  0.00     0.161 A 
ATOM     10  C   UNL     1      12.720 -52.188 -24.806  1.00  0.00     0.055 A 
ATOM     11  C   UNL     1      12.369 -50.296 -23.281  1.00  0.00     0.161 A 
ATOM     12  C   UNL     1      12.006 -52.986 -23.928  1.00  0.00    -0.028 A 
ATOM     13  C   UNL     1      11.651 -51.113 -22.404  1.00  0.00     0.063 A 
ATOM     14  C   UNL     1      11.488 -52.441 -22.754  1.00  0.00     0.030 A 
ATOM     15  C   UNL     1      11.678 -54.444 -24.055  1.00  0.00     0.076 C 
ATOM     16  C   UNL     1      10.786 -53.483 -22.004  1.00  0.00     0.189 C 
ATOM     17  O   UNL     1      10.223 -53.350 -20.937  1.00  0.00    -0.289 OA
BRANCH   9  18
ATOM     18  O   UNL     1      13.595 -49.944 -25.275  1.00  0.00    -0.493 OA
ATOM     19  C   UNL     1      14.137 -50.416 -26.499  1.00  0.00     0.278 C 
ENDBRANCH   9  18
BRANCH  11  20
ATOM     20  O   UNL     1      12.610 -48.960 -23.067  1.00  0.00    -0.493 OA
ATOM     21  C   UNL     1      11.491 -48.116 -22.832  1.00  0.00     0.278 C 
ENDBRANCH  11  20
ENDBRANCH   7   8
ENDBRANCH   1   7
BRANCH   4  22
ATOM     22  C   UNL     1      10.853 -60.963 -24.913  1.00  0.00     0.393 C 
BRANCH  22  23
ATOM     23  C   UNL     1       9.952 -61.990 -24.274  1.00  0.00     0.018 A 
ATOM     24  C   UNL     1      10.211 -62.448 -22.972  1.00  0.00     0.010 A 
ATOM     25  C   UNL     1       8.847 -62.509 -24.968  1.00  0.00     0.026 A 
ATOM     26  C   UNL     1       9.375 -63.395 -22.374  1.00  0.00     0.002 A 
ATOM     27  C   UNL     1       8.016 -63.453 -24.361  1.00  0.00     0.018 A 
ATOM     28  C   UNL     1       8.274 -63.896 -23.067  1.00  0.00     0.016 A 
ATOM     29  Br  UNL     1       6.529 -64.132 -25.309  1.00  0.00    -0.051 Br
ENDBRANCH  22  23
ENDBRANCH   4  22
TORSDOF 6
ENDMDL
MODEL 2
REMARK VINA RESULT:   -11.300      1.223      1.688
REMARK INTER + INTRA:         -16.013
REMARK INTER:                 -15.506
REMARK INTRA:                  -0.507
REMARK UNBOUND:                -0.750
REMARK SMILES COc1cc2c(cc1OC)C(=O)/C(=C/c1cc[n+](Cc3cccc(Br)c3)cc1)C2
REMARK SMILES IDX 15 1 16 2 17 3 18 4 27 5 28 6 14 7 13 8 3 9 4 10 8 11 5 12
REMARK SMILES IDX 7 13 6 14 29 15 11 16 12 17 2 18 1 19 9 20 10 21 19 22 20 23
REMARK SMILES IDX 21 24 26 25 22 26 24 27 23 28 25 29
REMARK H PARENT
ROOT
ATOM      1  C   UNL     1      10.121 -56.961 -22.772  1.00  0.00    -0.013 A 
ATOM      2  C   UNL     1      11.388 -57.469 -22.499  1.00  0.00     0.079 A 
ATOM      3  C   UNL     1      11.617 -58.837 -22.598  1.00  0.00     0.309 A 
ATOM      4  N   UNL     1      10.617 -59.681 -22.946  1.00  0.00    -0.201 N 
ATOM      5  C   UNL     1       9.377 -59.207 -23.208  1.00  0.00     0.309 A 
ATOM      6  C   UNL     1       9.105 -57.845 -23.125  1.00  0.00     0.079 A 
ENDROOT
BRANCH   1   7
ATOM      7  C   UNL     1       9.878 -55.529 -22.615  1.00  0.00     0.016 C 
BRANCH   7   8
ATOM      8  C   UNL     1      10.656 -54.551 -23.102  1.00  0.00     0.005 C 
ATOM      9  C   UNL     1      13.536 -51.254 -24.839  1.00  0.00     0.161 A 
ATOM     10  C   UNL     1      13.044 -52.536 -25.133  1.00  0.00     0.055 A 
ATOM     11  C   UNL     1      13.124 -50.576 -23.655  1.00  0.00     0.161 A 
ATOM     12  C   UNL     1      12.155 -53.125 -24.250  1.00  0.00    -0.028 A 
ATOM     13  C   UNL     1      12.226 -51.183 -22.773  1.00  0.00     0.063 A 
ATOM     14  C   UNL     1      11.764 -52.445 -23.097  1.00  0.00     0.030 A 
ATOM     15  C   UNL     1      11.498 -54.469 -24.351  1.00  0.00     0.076 C 
ATOM     16  C   UNL     1      10.830 -53.277 -22.337  1.00  0.00     0.189 C 
ATOM     17  O   UNL     1      10.301 -52.990 -21.283  1.00  0.00    -0.289 OA
BRANCH   9  18
ATOM     18  O   UNL     1      14.421 -50.567 -25.635  1.00  0.00    -0.493 OA
ATOM     19  C   UNL     1      15.786 -50.955 -25.606  1.00  0.00     0.278 C 
ENDBRANCH   9  18
BRANCH  11  20
ATOM     20  O   UNL     1      13.666 -49.328 -23.466  1.00  0.00    -0.493 OA
ATOM     21  C   UNL     1      12.920 -48.393 -22.696  1.00  0.00     0.278 C 
ENDBRANCH  11  20
ENDBRANCH   7   8
ENDBRANCH   1   7
BRANCH   4  22
ATOM     22  C   UNL     1      10.890 -61.139 -23.041  1.00  0.00     0.393 C 
BRANCH  22  23
ATOM     23  C   UNL     1       9.882 -61.825 -23.927  1.00  0.00     0.018 A 
ATOM     24  C   UNL     1       8.887 -62.644 -23.369  1.00  0.00     0.010 A 
ATOM     25  C   UNL     1       9.924 -61.666 -25.322  1.00  0.00     0.026 A 
ATOM     26  C   UNL     1       7.947 -63.277 -24.186  1.00  0.00     0.002 A 
ATOM     27  C   UNL     1       8.979 -62.302 -26.131  1.00  0.00     0.018 A 
ATOM     28  C   UNL     1       7.990 -63.103 -25.568  1.00  0.00     0.016 A 
ATOM     29  Br  UNL     1       9.048 -62.066 -28.004  1.00  0.00    -0.051 Br
ENDBRANCH  22  23
ENDBRANCH   4  22
TORSDOF 6
ENDMDL
MODEL 3
REMARK VINA RESULT:   -10.589      2.561      3.906
REMARK INTER + INTRA:         -15.053
REMARK INTER:                 -14.559
REMARK INTRA:                  -0.494
REMARK UNBOUND:                -0.750
REMARK SMILES COc1cc2c(cc1OC)C(=O)/C(=C/c1cc[n+](Cc3cccc(Br)c3)cc1)C2
REMARK SMILES IDX 15 1 16 2 17 3 18 4 27 5 28 6 14 7 13 8 3 9 4 10 8 11 5 12
REMARK SMILES IDX 7 13 6 14 29 15 11 16 12 17 2 18 1 19 9 20 10 21 19 22 20 23
REMARK SMILES IDX 21 24 26 25 22 26 24 27 23 28 25 29
REMARK H PARENT
ROOT
ATOM      1  C   UNL     1      10.678 -53.534 -22.237  1.00  0.00    -0.013 A 
ATOM      2  C   UNL     1      11.011 -53.762 -23.569  1.00  0.00     0.079 A 
ATOM      3  C   UNL     1      11.352 -55.045 -23.983  1.00  0.00     0.309 A 
ATOM      4  N   UNL     1      11.375 -56.072 -23.100  1.00  0.00    -0.201 N 
ATOM      5  C   UNL     1      11.061 -55.868 -21.800  1.00  0.00     0.309 A 
ATOM      6  C   UNL     1      10.710 -54.601 -21.344  1.00  0.00     0.079 A 
ENDROOT
BRANCH   1   7
ATOM      7  C   UNL     1      10.372 -52.173 -21.801  1.00  0.00     0.016 C 
BRANCH   7   8
ATOM      8  C   UNL     1      10.860 -51.052 -22.354  1.00  0.00     0.005 C 
ATOM      9  C   UNL     1      12.748 -47.152 -24.197  1.00  0.00     0.161 A 
ATOM     10  C   UNL     1      13.016 -48.521 -24.037  1.00  0.00     0.055 A 
ATOM     11  C   UNL     1      11.541 -46.587 -23.694  1.00  0.00     0.161 A 
ATOM     12  C   UNL     1      12.083 -49.306 -23.380  1.00  0.00    -0.028 A 
ATOM     13  C   UNL     1      10.609 -47.392 -23.033  1.00  0.00     0.063 A 
ATOM     14  C   UNL     1      10.908 -48.735 -22.895  1.00  0.00     0.030 A 
ATOM     15  C   UNL     1      12.145 -50.777 -23.096  1.00  0.00     0.076 C 
ATOM     16  C   UNL     1      10.100 -49.768 -22.245  1.00  0.00     0.189 C 
ATOM     17  O   UNL     1       9.020 -49.611 -21.713  1.00  0.00    -0.289 OA
BRANCH   9  18
ATOM     18  O   UNL     1      13.594 -46.271 -24.829  1.00  0.00    -0.493 OA
ATOM     19  C   UNL     1      14.869 -46.743 -25.234  1.00  0.00     0.278 C 
ENDBRANCH   9  18
BRANCH  11  20
ATOM     20  O   UNL     1      11.381 -45.239 -23.906  1.00  0.00    -0.493 OA
ATOM     21  C   UNL     1      11.474 -44.377 -22.779  1.00  0.00     0.278 C 
ENDBRANCH  11  20
ENDBRANCH   7   8
ENDBRANCH   1   7
BRANCH   4  22
ATOM     22  C   UNL     1      11.746 -57.432 -23.570  1.00  0.00     0.393 C 
BRANCH  22  23
ATOM     23  C   UNL     1      10.807 -58.474 -23.019  1.00  0.00     0.018 A 
ATOM     24  C   UNL     1      11.275 -59.450 -22.124  1.00  0.00     0.010 A 
ATOM     25  C   UNL     1       9.453 -58.494 -23.393  1.00  0.00     0.026 A 
ATOM     26  C   UNL     1      10.406 -60.414 -21.606  1.00  0.00     0.002 A 
ATOM     27  C   UNL     1       8.592 -59.460 -22.869  1.00  0.00     0.018 A 
ATOM     28  C   UNL     1       9.062 -60.418 -21.975  1.00  0.00     0.016 A 
ATOM     29  Br  UNL     1       6.773 -59.461 -23.378  1.00  0.00    -0.051 Br
ENDBRANCH  22  23
ENDBRANCH   4  22
TORSDOF 6
ENDMDL
MODEL 4
REMARK VINA RESULT:   -10.238      4.910     10.527
REMARK INTER + INTRA:         -14.579
REMARK INTER:                 -13.994
REMARK INTRA:                  -0.585
REMARK UNBOUND:                -0.750
REMARK SMILES COc1cc2c(cc1OC)C(=O)/C(=C/c1cc[n+](Cc3cccc(Br)c3)cc1)C2
REMARK SMILES IDX 15 1 16 2 17 3 18 4 27 5 28 6 14 7 13 8 3 9 4 10 8 11 5 12
REMARK SMILES IDX 7 13 6 14 29 15 11 16 12 17 2 18 1 19 9 20 10 21 19 22 20 23
REMARK SMILES IDX 21 24 26 25 22 26 24 27 23 28 25 29
REMARK H PARENT
ROOT
ATOM      1  C   UNL     1      11.001 -55.978 -22.235  1.00  0.00    -0.013 A 
ATOM      2  C   UNL     1      10.551 -55.334 -23.384  1.00  0.00     0.079 A 
ATOM      3  C   UNL     1      10.141 -54.007 -23.314  1.00  0.00     0.309 A 
ATOM      4  N   UNL     1      10.164 -53.339 -22.137  1.00  0.00    -0.201 N 
ATOM      5  C   UNL     1      10.593 -53.949 -21.008  1.00  0.00     0.309 A 
ATOM      6  C   UNL     1      11.015 -55.274 -21.033  1.00  0.00     0.079 A 
ENDROOT
BRANCH   1   7
ATOM      7  C   UNL     1      11.381 -57.387 -22.308  1.00  0.00     0.016 C 
BRANCH   7   8
ATOM      8  C   UNL     1      10.693 -58.344 -22.948  1.00  0.00     0.005 C 
ATOM      9  C   UNL     1       8.293 -61.820 -25.030  1.00  0.00     0.161 A 
ATOM     10  C   UNL     1       8.310 -61.065 -23.847  1.00  0.00     0.055 A 
ATOM     11  C   UNL     1       9.255 -61.582 -26.054  1.00  0.00     0.161 A 
ATOM     12  C   UNL     1       9.280 -60.088 -23.697  1.00  0.00    -0.028 A 
ATOM     13  C   UNL     1      10.228 -60.593 -25.889  1.00  0.00     0.063 A 
ATOM     14  C   UNL     1      10.212 -59.870 -24.710  1.00  0.00     0.030 A 
ATOM     15  C   UNL     1       9.493 -59.162 -22.537  1.00  0.00     0.076 C 
ATOM     16  C   UNL     1      11.122 -58.796 -24.309  1.00  0.00     0.189 C 
ATOM     17  O   UNL     1      12.053 -58.359 -24.954  1.00  0.00    -0.289 OA
BRANCH   9  18
ATOM     18  O   UNL     1       7.382 -62.815 -25.295  1.00  0.00    -0.493 OA
ATOM     19  C   UNL     1       7.160 -63.801 -24.299  1.00  0.00     0.278 C 
ENDBRANCH   9  18
BRANCH  11  20
ATOM     20  O   UNL     1       9.146 -62.378 -27.169  1.00  0.00    -0.493 OA
ATOM     21  C   UNL     1       9.444 -61.793 -28.430  1.00  0.00     0.278 C 
ENDBRANCH  11  20
ENDBRANCH   7   8
ENDBRANCH   1   7
BRANCH   4  22
ATOM     22  C   UNL     1       9.717 -51.922 -22.091  1.00  0.00     0.393 C 
BRANCH  22  23
ATOM     23  C   UNL     1      10.829 -50.987 -22.493  1.00  0.00     0.018 A 
ATOM     24  C   UNL     1      12.111 -51.487 -22.774  1.00  0.00     0.010 A 
ATOM     25  C   UNL     1      10.607 -49.603 -22.587  1.00  0.00     0.026 A 
ATOM     26  C   UNL     1      13.142 -50.624 -23.153  1.00  0.00     0.002 A 
ATOM     27  C   UNL     1      11.643 -48.749 -22.968  1.00  0.00     0.018 A 
ATOM     28  C   UNL     1      12.909 -49.253 -23.254  1.00  0.00     0.016 A 
ATOM     29  Br  UNL     1      11.320 -46.892 -23.098  1.00  0.00    -0.051 Br
ENDBRANCH  22  23
ENDBRANCH   4  22
TORSDOF 6
ENDMDL
MODEL 5
REMARK VINA RESULT:   -10.138      4.811     10.209
REMARK INTER + INTRA:         -14.444
REMARK INTER:                 -13.652
REMARK INTRA:                  -0.792
REMARK UNBOUND:                -0.750
REMARK SMILES COc1cc2c(cc1OC)C(=O)/C(=C/c1cc[n+](Cc3cccc(Br)c3)cc1)C2
REMARK SMILES IDX 15 1 16 2 17 3 18 4 27 5 28 6 14 7 13 8 3 9 4 10 8 11 5 12
REMARK SMILES IDX 7 13 6 14 29 15 11 16 12 17 2 18 1 19 9 20 10 21 19 22 20 23
REMARK SMILES IDX 21 24 26 25 22 26 24 27 23 28 25 29
REMARK H PARENT
ROOT
ATOM      1  C   UNL     1      10.781 -54.466 -22.962  1.00  0.00    -0.013 A 
ATOM      2  C   UNL     1      10.983 -53.226 -22.364  1.00  0.00     0.079 A 
ATOM      3  C   UNL     1      11.775 -52.276 -23.000  1.00  0.00     0.309 A 
ATOM      4  N   UNL     1      12.362 -52.550 -24.189  1.00  0.00    -0.201 N 
ATOM      5  C   UNL     1      12.182 -53.753 -24.783  1.00  0.00     0.309 A 
ATOM      6  C   UNL     1      11.395 -54.731 -24.184  1.00  0.00     0.079 A 
ENDROOT
BRANCH   1   7
ATOM      7  C   UNL     1       9.989 -55.476 -22.262  1.00  0.00     0.016 C 
BRANCH   7   8
ATOM      8  C   UNL     1       9.719 -56.706 -22.722  1.00  0.00     0.005 C 
ATOM      9  C   UNL     1       8.581 -61.008 -24.265  1.00  0.00     0.161 A 
ATOM     10  C   UNL     1       8.128 -59.680 -24.308  1.00  0.00     0.055 A 
ATOM     11  C   UNL     1       9.774 -61.342 -23.560  1.00  0.00     0.161 A 
ATOM     12  C   UNL     1       8.864 -58.706 -23.654  1.00  0.00    -0.028 A 
ATOM     13  C   UNL     1      10.505 -60.349 -22.904  1.00  0.00     0.063 A 
ATOM     14  C   UNL     1      10.028 -59.053 -22.971  1.00  0.00     0.030 A 
ATOM     15  C   UNL     1       8.585 -57.235 -23.565  1.00  0.00     0.076 C 
ATOM     16  C   UNL     1      10.611 -57.854 -22.367  1.00  0.00     0.189 C 
ATOM     17  O   UNL     1      11.624 -57.801 -21.700  1.00  0.00    -0.289 OA
BRANCH   9  18
ATOM     18  O   UNL     1       7.940 -62.061 -24.873  1.00  0.00    -0.493 OA
ATOM     19  C   UNL     1       6.823 -62.635 -24.212  1.00  0.00     0.278 C 
ENDBRANCH   9  18
BRANCH  11  20
ATOM     20  O   UNL     1      10.124 -62.671 -23.582  1.00  0.00    -0.493 OA
ATOM     21  C   UNL     1       9.850 -63.446 -22.422  1.00  0.00     0.278 C 
ENDBRANCH  11  20
ENDBRANCH   7   8
ENDBRANCH   1   7
BRANCH   4  22
ATOM     22  C   UNL     1      13.205 -51.517 -24.844  1.00  0.00     0.393 C 
BRANCH  22  23
ATOM     23  C   UNL     1      14.670 -51.767 -24.588  1.00  0.00     0.018 A 
ATOM     24  C   UNL     1      15.408 -52.602 -25.443  1.00  0.00     0.010 A 
ATOM     25  C   UNL     1      15.319 -51.179 -23.490  1.00  0.00     0.026 A 
ATOM     26  C   UNL     1      16.767 -52.831 -25.213  1.00  0.00     0.002 A 
ATOM     27  C   UNL     1      16.678 -51.412 -23.269  1.00  0.00     0.018 A 
ATOM     28  C   UNL     1      17.405 -52.233 -24.127  1.00  0.00     0.016 A 
ATOM     29  Br  UNL     1      17.534 -50.603 -21.792  1.00  0.00    -0.051 Br
ENDBRANCH  22  23
ENDBRANCH   4  22
TORSDOF 6
ENDMDL
MODEL 6
REMARK VINA RESULT:    -9.776      4.601     10.138
REMARK INTER + INTRA:         -13.955
REMARK INTER:                 -13.258
REMARK INTRA:                  -0.696
REMARK UNBOUND:                -0.750
REMARK SMILES COc1cc2c(cc1OC)C(=O)/C(=C/c1cc[n+](Cc3cccc(Br)c3)cc1)C2
REMARK SMILES IDX 15 1 16 2 17 3 18 4 27 5 28 6 14 7 13 8 3 9 4 10 8 11 5 12
REMARK SMILES IDX 7 13 6 14 29 15 11 16 12 17 2 18 1 19 9 20 10 21 19 22 20 23
REMARK SMILES IDX 21 24 26 25 22 26 24 27 23 28 25 29
REMARK H PARENT
ROOT
ATOM      1  C   UNL     1      10.950 -57.004 -22.309  1.00  0.00    -0.013 A 
ATOM      2  C   UNL     1      10.224 -56.405 -23.335  1.00  0.00     0.079 A 
ATOM      3  C   UNL     1       9.897 -55.056 -23.250  1.00  0.00     0.309 A 
ATOM      4  N   UNL     1      10.267 -54.323 -22.174  1.00  0.00    -0.201 N 
ATOM      5  C   UNL     1      10.967 -54.889 -21.164  1.00  0.00     0.309 A 
ATOM      6  C   UNL     1      11.319 -56.234 -21.209  1.00  0.00     0.079 A 
ENDROOT
BRANCH   1   7
ATOM      7  C   UNL     1      11.245 -58.434 -22.384  1.00  0.00     0.016 C 
BRANCH   7   8
ATOM      8  C   UNL     1      10.777 -59.275 -23.318  1.00  0.00     0.005 C 
ATOM      9  C   UNL     1       9.127 -62.074 -26.727  1.00  0.00     0.161 A 
ATOM     10  C   UNL     1      10.133 -61.124 -26.489  1.00  0.00     0.055 A 
ATOM     11  C   UNL     1       8.210 -62.429 -25.696  1.00  0.00     0.161 A 
ATOM     12  C   UNL     1      10.214 -60.544 -25.234  1.00  0.00    -0.028 A 
ATOM     13  C   UNL     1       8.304 -61.835 -24.435  1.00  0.00     0.063 A 
ATOM     14  C   UNL     1       9.308 -60.905 -24.238  1.00  0.00     0.030 A 
ATOM     15  C   UNL     1      11.196 -59.520 -24.747  1.00  0.00     0.076 C 
ATOM     16  C   UNL     1       9.603 -60.153 -23.018  1.00  0.00     0.189 C 
ATOM     17  O   UNL     1       9.004 -60.223 -21.965  1.00  0.00    -0.289 OA
BRANCH   9  18
ATOM     18  O   UNL     1       8.944 -62.718 -27.927  1.00  0.00    -0.493 OA
ATOM     19  C   UNL     1       9.372 -62.061 -29.110  1.00  0.00     0.278 C 
ENDBRANCH   9  18
BRANCH  11  20
ATOM     20  O   UNL     1       7.266 -63.368 -26.038  1.00  0.00    -0.493 OA
ATOM     21  C   UNL     1       6.720 -64.166 -24.995  1.00  0.00     0.278 C 
ENDBRANCH  11  20
ENDBRANCH   7   8
ENDBRANCH   1   7
BRANCH   4  22
ATOM     22  C   UNL     1       9.901 -52.884 -22.109  1.00  0.00     0.393 C 
BRANCH  22  23
ATOM     23  C   UNL     1      11.010 -52.015 -22.644  1.00  0.00     0.018 A 
ATOM     24  C   UNL     1      11.273 -50.762 -22.065  1.00  0.00     0.010 A 
ATOM     25  C   UNL     1      11.794 -52.435 -23.731  1.00  0.00     0.026 A 
ATOM     26  C   UNL     1      12.304 -49.956 -22.554  1.00  0.00     0.002 A 
ATOM     27  C   UNL     1      12.824 -51.624 -24.211  1.00  0.00     0.018 A 
ATOM     28  C   UNL     1      13.083 -50.388 -23.626  1.00  0.00     0.016 A 
ATOM     29  Br  UNL     1      13.871 -52.213 -25.668  1.00  0.00    -0.051 Br
ENDBRANCH  22  23
ENDBRANCH   4  22
TORSDOF 6
ENDMDL
MODEL 7
REMARK VINA RESULT:    -9.362      2.821      5.412
REMARK INTER + INTRA:         -13.396
REMARK INTER:                 -12.913
REMARK INTRA:                  -0.483
REMARK UNBOUND:                -0.750
REMARK SMILES COc1cc2c(cc1OC)C(=O)/C(=C/c1cc[n+](Cc3cccc(Br)c3)cc1)C2
REMARK SMILES IDX 15 1 16 2 17 3 18 4 27 5 28 6 14 7 13 8 3 9 4 10 8 11 5 12
REMARK SMILES IDX 7 13 6 14 29 15 11 16 12 17 2 18 1 19 9 20 10 21 19 22 20 23
REMARK SMILES IDX 21 24 26 25 22 26 24 27 23 28 25 29
REMARK H PARENT
ROOT
ATOM      1  C   UNL     1      12.017 -52.581 -23.081  1.00  0.00    -0.013 A 
ATOM      2  C   UNL     1      11.087 -52.753 -22.059  1.00  0.00     0.079 A 
ATOM      3  C   UNL     1      10.188 -53.812 -22.119  1.00  0.00     0.309 A 
ATOM      4  N   UNL     1      10.200 -54.670 -23.166  1.00  0.00    -0.201 N 
ATOM      5  C   UNL     1      11.092 -54.515 -24.172  1.00  0.00     0.309 A 
ATOM      6  C   UNL     1      12.012 -53.471 -24.151  1.00  0.00     0.079 A 
ENDROOT
BRANCH   1   7
ATOM      7  C   UNL     1      12.924 -51.435 -23.034  1.00  0.00     0.016 C 
BRANCH   7   8
ATOM      8  C   UNL     1      12.570 -50.157 -23.233  1.00  0.00     0.005 C 
ATOM      9  C   UNL     1      11.144 -45.731 -23.979  1.00  0.00     0.161 A 
ATOM     10  C   UNL     1      10.784 -46.887 -23.267  1.00  0.00     0.055 A 
ATOM     11  C   UNL     1      12.308 -45.721 -24.800  1.00  0.00     0.161 A 
ATOM     12  C   UNL     1      11.583 -48.012 -23.381  1.00  0.00    -0.028 A 
ATOM     13  C   UNL     1      13.104 -46.865 -24.905  1.00  0.00     0.063 A 
ATOM     14  C   UNL     1      12.718 -47.982 -24.189  1.00  0.00     0.030 A 
ATOM     15  C   UNL     1      11.405 -49.347 -22.721  1.00  0.00     0.076 C 
ATOM     16  C   UNL     1      13.381 -49.287 -24.142  1.00  0.00     0.189 C 
ATOM     17  O   UNL     1      14.392 -49.604 -24.733  1.00  0.00    -0.289 OA
BRANCH   9  18
ATOM     18  O   UNL     1      10.434 -44.555 -23.947  1.00  0.00    -0.493 OA
ATOM     19  C   UNL     1      10.646 -43.675 -22.854  1.00  0.00     0.278 C 
ENDBRANCH   9  18
BRANCH  11  20
ATOM     20  O   UNL     1      12.567 -44.539 -25.451  1.00  0.00    -0.493 OA
ATOM     21  C   UNL     1      13.774 -43.859 -25.132  1.00  0.00     0.278 C 
ENDBRANCH  11  20
ENDBRANCH   7   8
ENDBRANCH   1   7
BRANCH   4  22
ATOM     22  C   UNL     1       9.225 -55.791 -23.205  1.00  0.00     0.393 C 
BRANCH  22  23
ATOM     23  C   UNL     1       9.853 -57.076 -22.730  1.00  0.00     0.018 A 
ATOM     24  C   UNL     1      11.012 -57.049 -21.937  1.00  0.00     0.010 A 
ATOM     25  C   UNL     1       9.299 -58.319 -23.076  1.00  0.00     0.026 A 
ATOM     26  C   UNL     1      11.594 -58.238 -21.489  1.00  0.00     0.002 A 
ATOM     27  C   UNL     1       9.886 -59.502 -22.622  1.00  0.00     0.018 A 
ATOM     28  C   UNL     1      11.029 -59.467 -21.829  1.00  0.00     0.016 A 
ATOM     29  Br  UNL     1       9.118 -61.163 -23.091  1.00  0.00    -0.051 Br
ENDBRANCH  22  23
ENDBRANCH   4  22
TORSDOF 6
ENDMDL
MODEL 8
REMARK VINA RESULT:    -9.132      2.893      5.313
REMARK INTER + INTRA:         -13.085
REMARK INTER:                 -12.851
REMARK INTRA:                  -0.234
REMARK UNBOUND:                -0.750
REMARK SMILES COc1cc2c(cc1OC)C(=O)/C(=C/c1cc[n+](Cc3cccc(Br)c3)cc1)C2
REMARK SMILES IDX 15 1 16 2 17 3 18 4 27 5 28 6 14 7 13 8 3 9 4 10 8 11 5 12
REMARK SMILES IDX 7 13 6 14 29 15 11 16 12 17 2 18 1 19 9 20 10 21 19 22 20 23
REMARK SMILES IDX 21 24 26 25 22 26 24 27 23 28 25 29
REMARK H PARENT
ROOT
ATOM      1  C   UNL     1      11.936 -52.403 -23.280  1.00  0.00    -0.013 A 
ATOM      2  C   UNL     1      10.846 -52.506 -22.421  1.00  0.00     0.079 A 
ATOM      3  C   UNL     1      10.025 -53.627 -22.482  1.00  0.00     0.309 A 
ATOM      4  N   UNL     1      10.269 -54.614 -23.376  1.00  0.00    -0.201 N 
ATOM      5  C   UNL     1      11.320 -54.528 -24.224  1.00  0.00     0.309 A 
ATOM      6  C   UNL     1      12.169 -53.427 -24.195  1.00  0.00     0.079 A 
ENDROOT
BRANCH   1   7
ATOM      7  C   UNL     1      12.762 -51.198 -23.244  1.00  0.00     0.016 C 
BRANCH   7   8
ATOM      8  C   UNL     1      13.232 -50.546 -24.317  1.00  0.00     0.005 C 
ATOM      9  C   UNL     1      15.042 -48.378 -28.086  1.00  0.00     0.161 A 
ATOM     10  C   UNL     1      14.737 -49.663 -27.610  1.00  0.00     0.055 A 
ATOM     11  C   UNL     1      14.776 -47.229 -27.286  1.00  0.00     0.161 A 
ATOM     12  C   UNL     1      14.174 -49.789 -26.351  1.00  0.00    -0.028 A 
ATOM     13  C   UNL     1      14.208 -47.371 -26.017  1.00  0.00     0.063 A 
ATOM     14  C   UNL     1      13.921 -48.653 -25.584  1.00  0.00     0.030 A 
ATOM     15  C   UNL     1      13.762 -51.043 -25.640  1.00  0.00     0.076 C 
ATOM     16  C   UNL     1      13.333 -49.053 -24.305  1.00  0.00     0.189 C 
ATOM     17  O   UNL     1      12.997 -48.314 -23.402  1.00  0.00    -0.289 OA
BRANCH   9  18
ATOM     18  O   UNL     1      15.602 -48.124 -29.315  1.00  0.00    -0.493 OA
ATOM     19  C   UNL     1      14.771 -48.225 -30.461  1.00  0.00     0.278 C 
ENDBRANCH   9  18
BRANCH  11  20
ATOM     20  O   UNL     1      15.114 -46.022 -27.848  1.00  0.00    -0.493 OA
ATOM     21  C   UNL     1      15.711 -45.044 -27.006  1.00  0.00     0.278 C 
ENDBRANCH  11  20
ENDBRANCH   7   8
ENDBRANCH   1   7
BRANCH   4  22
ATOM     22  C   UNL     1       9.373 -55.799 -23.421  1.00  0.00     0.393 C 
BRANCH  22  23
ATOM     23  C   UNL     1       9.993 -56.977 -22.713  1.00  0.00     0.018 A 
ATOM     24  C   UNL     1      11.045 -56.786 -21.803  1.00  0.00     0.010 A 
ATOM     25  C   UNL     1       9.536 -58.283 -22.955  1.00  0.00     0.026 A 
ATOM     26  C   UNL     1      11.618 -57.874 -21.141  1.00  0.00     0.002 A 
ATOM     27  C   UNL     1      10.113 -59.365 -22.287  1.00  0.00     0.018 A 
ATOM     28  C   UNL     1      11.150 -59.166 -21.380  1.00  0.00     0.016 A 
ATOM     29  Br  UNL     1       9.477 -61.112 -22.620  1.00  0.00    -0.051 Br
ENDBRANCH  22  23
ENDBRANCH   4  22
TORSDOF 6
ENDMDL
MODEL 9
REMARK VINA RESULT:    -8.788      4.742     10.657
REMARK INTER + INTRA:         -12.620
REMARK INTER:                 -12.361
REMARK INTRA:                  -0.259
REMARK UNBOUND:                -0.750
REMARK SMILES COc1cc2c(cc1OC)C(=O)/C(=C/c1cc[n+](Cc3cccc(Br)c3)cc1)C2
REMARK SMILES IDX 15 1 16 2 17 3 18 4 27 5 28 6 14 7 13 8 3 9 4 10 8 11 5 12
REMARK SMILES IDX 7 13 6 14 29 15 11 16 12 17 2 18 1 19 9 20 10 21 19 22 20 23
REMARK SMILES IDX 21 24 26 25 22 26 24 27 23 28 25 29
REMARK H PARENT
ROOT
ATOM      1  C   UNL     1      11.971 -51.776 -23.126  1.00  0.00    -0.013 A 
ATOM      2  C   UNL     1      13.088 -52.198 -23.842  1.00  0.00     0.079 A 
ATOM      3  C   UNL     1      14.138 -51.313 -24.064  1.00  0.00     0.309 A 
ATOM      4  N   UNL     1      14.079 -50.042 -23.601  1.00  0.00    -0.201 N 
ATOM      5  C   UNL     1      12.999 -49.612 -22.909  1.00  0.00     0.309 A 
ATOM      6  C   UNL     1      11.928 -50.464 -22.661  1.00  0.00     0.079 A 
ENDROOT
BRANCH   1   7
ATOM      7  C   UNL     1      10.852 -52.697 -22.943  1.00  0.00     0.016 C 
BRANCH   7   8
ATOM      8  C   UNL     1      10.955 -54.028 -22.816  1.00  0.00     0.005 C 
ATOM      9  C   UNL     1      11.433 -58.674 -22.208  1.00  0.00     0.161 A 
ATOM     10  C   UNL     1      11.083 -57.513 -21.501  1.00  0.00     0.055 A 
ATOM     11  C   UNL     1      11.788 -58.601 -23.586  1.00  0.00     0.161 A 
ATOM     12  C   UNL     1      11.092 -56.300 -22.170  1.00  0.00    -0.028 A 
ATOM     13  C   UNL     1      11.793 -57.370 -24.248  1.00  0.00     0.063 A 
ATOM     14  C   UNL     1      11.442 -56.250 -23.517  1.00  0.00     0.030 A 
ATOM     15  C   UNL     1      10.754 -54.942 -21.632  1.00  0.00     0.076 C 
ATOM     16  C   UNL     1      11.377 -54.864 -23.984  1.00  0.00     0.189 C 
ATOM     17  O   UNL     1      11.625 -54.466 -25.103  1.00  0.00    -0.289 OA
BRANCH   9  18
ATOM     18  O   UNL     1      11.461 -59.933 -21.657  1.00  0.00    -0.493 OA
ATOM     19  C   UNL     1      10.226 -60.539 -21.311  1.00  0.00     0.278 C 
ENDBRANCH   9  18
BRANCH  11  20
ATOM     20  O   UNL     1      12.113 -59.797 -24.181  1.00  0.00    -0.493 OA
ATOM     21  C   UNL     1      11.410 -60.160 -25.362  1.00  0.00     0.278 C 
ENDBRANCH  11  20
ENDBRANCH   7   8
ENDBRANCH   1   7
BRANCH   4  22
ATOM     22  C   UNL     1      15.214 -49.117 -23.856  1.00  0.00     0.393 C 
BRANCH  22  23
ATOM     23  C   UNL     1      15.509 -49.011 -25.331  1.00  0.00     0.018 A 
ATOM     24  C   UNL     1      14.573 -48.431 -26.202  1.00  0.00     0.010 A 
ATOM     25  C   UNL     1      16.718 -49.493 -25.860  1.00  0.00     0.026 A 
ATOM     26  C   UNL     1      14.846 -48.324 -27.569  1.00  0.00     0.002 A 
ATOM     27  C   UNL     1      16.982 -49.381 -27.227  1.00  0.00     0.018 A 
ATOM     28  C   UNL     1      16.053 -48.796 -28.082  1.00  0.00     0.016 A 
ATOM     29  Br  UNL     1      18.618 -50.028 -27.915  1.00  0.00    -0.051 Br
ENDBRANCH  22  23
ENDBRANCH   4  22
TORSDOF 6
ENDMDL
