MODEL 1
REMARK VINA RESULT:   -13.090      0.000      0.000
REMARK INTER + INTRA:         -18.110
REMARK INTER:                 -17.682
REMARK INTRA:                  -0.428
REMARK UNBOUND:                -0.428
REMARK SMILES O=C(CC[C@H]1CC[N@H+](Cc2ccccc2)CC1)c1cc2c3c(c1)CC(=O)N3CCC2
REMARK SMILES IDX 4 1 5 2 7 3 8 4 6 5 16 6 17 7 9 9 10 10 11 11 15 12 12 13
REMARK SMILES IDX 14 14 13 15 3 16 2 17 1 18 18 19 19 20 23 21 20 22 22 23
REMARK SMILES IDX 21 24 30 25 24 26 27 27 29 28 25 29 28 30 26 31
REMARK H PARENT 8 8
ROOT
ATOM      1  C   UNL     1      11.017 -56.147 -21.827  1.00  0.00     0.012 C 
ENDROOT
BRANCH   1   2
ATOM      2  C   UNL     1      10.819 -57.552 -22.433  1.00  0.00     0.000 C 
ATOM      3  C   UNL     1      11.540 -59.099 -24.304  1.00  0.00     0.262 C 
ATOM      4  N   UNL     1      11.775 -60.185 -23.281  1.00  0.00    -0.331 N 
ATOM      5  C   UNL     1      11.733 -57.735 -23.654  1.00  0.00     0.065 C 
ATOM      6  C   UNL     1      10.857 -60.052 -22.093  1.00  0.00     0.262 C 
ATOM      7  C   UNL     1      11.052 -58.691 -21.436  1.00  0.00     0.065 C 
ATOM      8  H   UNL     1      12.741 -60.079 -22.946  1.00  0.00     0.348 HD
BRANCH   4   9
ATOM      9  C   UNL     1      11.692 -61.575 -23.881  1.00  0.00     0.299 C 
BRANCH   9  10
ATOM     10  C   UNL     1      10.313 -62.170 -23.801  1.00  0.00     0.006 A 
ATOM     11  C   UNL     1       9.961 -63.009 -22.730  1.00  0.00     0.009 A 
ATOM     12  C   UNL     1       9.365 -61.914 -24.804  1.00  0.00     0.009 A 
ATOM     13  C   UNL     1       8.690 -63.581 -22.671  1.00  0.00     0.001 A 
ATOM     14  C   UNL     1       8.096 -62.490 -24.739  1.00  0.00     0.001 A 
ATOM     15  C   UNL     1       7.760 -63.324 -23.675  1.00  0.00     0.000 A 
ENDBRANCH   9  10
ENDBRANCH   4   9
ENDBRANCH   1   2
BRANCH   1  16
ATOM     16  C   UNL     1      10.290 -54.977 -22.503  1.00  0.00     0.081 C 
BRANCH  16  17
ATOM     17  C   UNL     1      10.648 -53.603 -21.953  1.00  0.00     0.162 C 
ATOM     18  O   UNL     1      10.388 -53.277 -20.796  1.00  0.00    -0.294 OA
BRANCH  17  19
ATOM     19  C   UNL     1      11.383 -52.641 -22.831  1.00  0.00     0.018 A 
ATOM     20  C   UNL     1      11.352 -51.266 -22.475  1.00  0.00     0.017 A 
ATOM     21  C   UNL     1      12.095 -53.073 -23.968  1.00  0.00     0.018 A 
ATOM     22  C   UNL     1      12.026 -50.315 -23.242  1.00  0.00    -0.023 A 
ATOM     23  C   UNL     1      12.746 -52.120 -24.728  1.00  0.00    -0.014 A 
ATOM     24  C   UNL     1      12.694 -50.787 -24.352  1.00  0.00     0.051 A 
ATOM     25  C   UNL     1      12.021 -48.838 -22.976  1.00  0.00     0.039 C 
ATOM     26  C   UNL     1      13.558 -52.230 -25.987  1.00  0.00     0.138 C 
ATOM     27  N   UNL     1      13.410 -50.000 -25.240  1.00  0.00    -0.312 N 
ATOM     28  C   UNL     1      13.231 -48.145 -23.631  1.00  0.00     0.027 C 
ATOM     29  C   UNL     1      13.932 -50.761 -26.279  1.00  0.00     0.231 C 
ATOM     30  C   UNL     1      13.415 -48.559 -25.097  1.00  0.00     0.126 C 
ATOM     31  O   UNL     1      14.562 -50.362 -27.244  1.00  0.00    -0.274 OA
ENDBRANCH  17  19
ENDBRANCH  16  17
ENDBRANCH   1  16
TORSDOF 6
ENDMDL
MODEL 2
REMARK VINA RESULT:   -12.909      0.994      2.059
REMARK INTER + INTRA:         -17.865
REMARK INTER:                 -17.480
REMARK INTRA:                  -0.385
REMARK UNBOUND:                -0.428
REMARK SMILES O=C(CC[C@H]1CC[N@H+](Cc2ccccc2)CC1)c1cc2c3c(c1)CC(=O)N3CCC2
REMARK SMILES IDX 4 1 5 2 7 3 8 4 6 5 16 6 17 7 9 9 10 10 11 11 15 12 12 13
REMARK SMILES IDX 14 14 13 15 3 16 2 17 1 18 18 19 19 20 23 21 20 22 22 23
REMARK SMILES IDX 21 24 30 25 24 26 27 27 29 28 25 29 28 30 26 31
REMARK H PARENT 8 8
ROOT
ATOM      1  C   UNL     1      11.011 -55.970 -21.818  1.00  0.00     0.012 C 
ENDROOT
BRANCH   1   2
ATOM      2  C   UNL     1      10.895 -57.383 -22.427  1.00  0.00     0.000 C 
ATOM      3  C   UNL     1      11.658 -58.864 -24.333  1.00  0.00     0.262 C 
ATOM      4  N   UNL     1      12.011 -59.933 -23.328  1.00  0.00    -0.331 N 
ATOM      5  C   UNL     1      11.774 -57.492 -23.681  1.00  0.00     0.065 C 
ATOM      6  C   UNL     1      11.130 -59.875 -22.106  1.00  0.00     0.262 C 
ATOM      7  C   UNL     1      11.249 -58.505 -21.447  1.00  0.00     0.065 C 
ATOM      8  H   UNL     1      12.978 -59.758 -23.028  1.00  0.00     0.348 HD
BRANCH   4   9
ATOM      9  C   UNL     1      12.008 -61.323 -23.935  1.00  0.00     0.299 C 
BRANCH   9  10
ATOM     10  C   UNL     1      10.664 -61.995 -23.864  1.00  0.00     0.006 A 
ATOM     11  C   UNL     1      10.342 -62.831 -22.783  1.00  0.00     0.009 A 
ATOM     12  C   UNL     1       9.721 -61.812 -24.887  1.00  0.00     0.009 A 
ATOM     13  C   UNL     1       9.105 -63.474 -22.732  1.00  0.00     0.001 A 
ATOM     14  C   UNL     1       8.485 -62.458 -24.831  1.00  0.00     0.001 A 
ATOM     15  C   UNL     1       8.179 -63.290 -23.756  1.00  0.00     0.000 A 
ENDBRANCH   9  10
ENDBRANCH   4   9
ENDBRANCH   1   2
BRANCH   1  16
ATOM     16  C   UNL     1      10.593 -54.784 -22.699  1.00  0.00     0.081 C 
BRANCH  16  17
ATOM     17  C   UNL     1      10.682 -53.425 -22.019  1.00  0.00     0.162 C 
ATOM     18  O   UNL     1      10.263 -53.239 -20.878  1.00  0.00    -0.294 OA
BRANCH  17  19
ATOM     19  C   UNL     1      11.346 -52.296 -22.742  1.00  0.00     0.018 A 
ATOM     20  C   UNL     1      12.225 -52.622 -23.809  1.00  0.00     0.017 A 
ATOM     21  C   UNL     1      11.105 -50.952 -22.393  1.00  0.00     0.018 A 
ATOM     22  C   UNL     1      12.868 -51.618 -24.535  1.00  0.00    -0.023 A 
ATOM     23  C   UNL     1      11.759 -49.968 -23.109  1.00  0.00    -0.014 A 
ATOM     24  C   UNL     1      12.610 -50.321 -24.144  1.00  0.00     0.051 A 
ATOM     25  C   UNL     1      13.845 -51.857 -25.649  1.00  0.00     0.039 C 
ATOM     26  C   UNL     1      11.749 -48.471 -22.989  1.00  0.00     0.138 C 
ATOM     27  N   UNL     1      13.160 -49.193 -24.733  1.00  0.00    -0.312 N 
ATOM     28  C   UNL     1      13.961 -50.626 -26.568  1.00  0.00     0.027 C 
ATOM     29  C   UNL     1      12.741 -48.035 -24.088  1.00  0.00     0.231 C 
ATOM     30  C   UNL     1      14.155 -49.326 -25.776  1.00  0.00     0.126 C 
ATOM     31  O   UNL     1      13.084 -46.889 -24.329  1.00  0.00    -0.274 OA
ENDBRANCH  17  19
ENDBRANCH  16  17
ENDBRANCH   1  16
TORSDOF 6
ENDMDL
MODEL 3
REMARK VINA RESULT:   -12.015      2.754     11.247
REMARK INTER + INTRA:         -16.658
REMARK INTER:                 -15.917
REMARK INTRA:                  -0.740
REMARK UNBOUND:                -0.428
REMARK SMILES O=C(CC[C@H]1CC[N@H+](Cc2ccccc2)CC1)c1cc2c3c(c1)CC(=O)N3CCC2
REMARK SMILES IDX 4 1 5 2 7 3 8 4 6 5 16 6 17 7 9 9 10 10 11 11 15 12 12 13
REMARK SMILES IDX 14 14 13 15 3 16 2 17 1 18 18 19 19 20 23 21 20 22 22 23
REMARK SMILES IDX 21 24 30 25 24 26 27 27 29 28 25 29 28 30 26 31
REMARK H PARENT 8 8
ROOT
ATOM      1  C   UNL     1      11.170 -54.128 -24.017  1.00  0.00     0.012 C 
ENDROOT
BRANCH   1   2
ATOM      2  C   UNL     1      11.781 -52.933 -23.255  1.00  0.00     0.000 C 
ATOM      3  C   UNL     1      13.177 -50.835 -23.510  1.00  0.00     0.262 C 
ATOM      4  N   UNL     1      12.128 -50.074 -22.736  1.00  0.00    -0.331 N 
ATOM      5  C   UNL     1      12.527 -52.010 -24.231  1.00  0.00     0.065 C 
ATOM      6  C   UNL     1      11.413 -50.950 -21.739  1.00  0.00     0.262 C 
ATOM      7  C   UNL     1      10.756 -52.123 -22.457  1.00  0.00     0.065 C 
ATOM      8  H   UNL     1      11.434 -49.739 -23.416  1.00  0.00     0.348 HD
BRANCH   4   9
ATOM      9  C   UNL     1      12.688 -48.833 -22.068  1.00  0.00     0.299 C 
BRANCH   9  10
ATOM     10  C   UNL     1      12.060 -47.561 -22.568  1.00  0.00     0.006 A 
ATOM     11  C   UNL     1      11.478 -47.508 -23.845  1.00  0.00     0.009 A 
ATOM     12  C   UNL     1      12.066 -46.402 -21.776  1.00  0.00     0.009 A 
ATOM     13  C   UNL     1      10.920 -46.320 -24.318  1.00  0.00     0.001 A 
ATOM     14  C   UNL     1      11.507 -45.217 -22.254  1.00  0.00     0.001 A 
ATOM     15  C   UNL     1      10.937 -45.175 -23.524  1.00  0.00     0.000 A 
ENDBRANCH   9  10
ENDBRANCH   4   9
ENDBRANCH   1   2
BRANCH   1  16
ATOM     16  C   UNL     1      10.067 -54.927 -23.309  1.00  0.00     0.081 C 
BRANCH  16  17
ATOM     17  C   UNL     1      10.561 -56.130 -22.519  1.00  0.00     0.162 C 
ATOM     18  O   UNL     1      11.359 -56.016 -21.591  1.00  0.00    -0.294 OA
BRANCH  17  19
ATOM     19  C   UNL     1      10.021 -57.485 -22.850  1.00  0.00     0.018 A 
ATOM     20  C   UNL     1      10.949 -58.554 -22.976  1.00  0.00     0.017 A 
ATOM     21  C   UNL     1       8.640 -57.708 -23.023  1.00  0.00     0.018 A 
ATOM     22  C   UNL     1      10.513 -59.845 -23.271  1.00  0.00    -0.023 A 
ATOM     23  C   UNL     1       8.222 -58.989 -23.330  1.00  0.00    -0.014 A 
ATOM     24  C   UNL     1       9.155 -60.008 -23.445  1.00  0.00     0.051 A 
ATOM     25  C   UNL     1      11.413 -61.031 -23.465  1.00  0.00     0.039 C 
ATOM     26  C   UNL     1       6.858 -59.558 -23.597  1.00  0.00     0.138 C 
ATOM     27  N   UNL     1       8.534 -61.208 -23.753  1.00  0.00    -0.312 N 
ATOM     28  C   UNL     1      10.654 -62.354 -23.250  1.00  0.00     0.027 C 
ATOM     29  C   UNL     1       7.163 -61.039 -23.907  1.00  0.00     0.231 C 
ATOM     30  C   UNL     1       9.324 -62.393 -24.015  1.00  0.00     0.126 C 
ATOM     31  O   UNL     1       6.345 -61.885 -24.228  1.00  0.00    -0.274 OA
ENDBRANCH  17  19
ENDBRANCH  16  17
ENDBRANCH   1  16
TORSDOF 6
ENDMDL
MODEL 4
REMARK VINA RESULT:   -11.511      2.002      3.433
REMARK INTER + INTRA:         -15.976
REMARK INTER:                 -16.410
REMARK INTRA:                   0.434
REMARK UNBOUND:                -0.428
REMARK SMILES O=C(CC[C@H]1CC[N@H+](Cc2ccccc2)CC1)c1cc2c3c(c1)CC(=O)N3CCC2
REMARK SMILES IDX 4 1 5 2 7 3 8 4 6 5 16 6 17 7 9 9 10 10 11 11 15 12 12 13
REMARK SMILES IDX 14 14 13 15 3 16 2 17 1 18 18 19 19 20 23 21 20 22 22 23
REMARK SMILES IDX 21 24 30 25 24 26 27 27 29 28 25 29 28 30 26 31
REMARK H PARENT 8 8
ROOT
ATOM      1  C   UNL     1      10.706 -58.217 -21.861  1.00  0.00     0.012 C 
ENDROOT
BRANCH   1   2
ATOM      2  C   UNL     1      10.194 -59.328 -22.802  1.00  0.00     0.000 C 
ATOM      3  C   UNL     1      10.064 -61.835 -23.135  1.00  0.00     0.262 C 
ATOM      4  N   UNL     1       8.585 -61.697 -23.405  1.00  0.00    -0.331 N 
ATOM      5  C   UNL     1      10.522 -60.710 -22.216  1.00  0.00     0.065 C 
ATOM      6  C   UNL     1       8.244 -60.365 -24.022  1.00  0.00     0.262 C 
ATOM      7  C   UNL     1       8.695 -59.236 -23.102  1.00  0.00     0.065 C 
ATOM      8  H   UNL     1       8.106 -61.756 -22.498  1.00  0.00     0.348 HD
BRANCH   4   9
ATOM      9  C   UNL     1       8.039 -62.840 -24.239  1.00  0.00     0.299 C 
BRANCH   9  10
ATOM     10  C   UNL     1       8.357 -62.705 -25.703  1.00  0.00     0.006 A 
ATOM     11  C   UNL     1       9.331 -61.792 -26.140  1.00  0.00     0.009 A 
ATOM     12  C   UNL     1       7.670 -63.474 -26.656  1.00  0.00     0.009 A 
ATOM     13  C   UNL     1       9.605 -61.650 -27.499  1.00  0.00     0.001 A 
ATOM     14  C   UNL     1       7.950 -63.327 -28.015  1.00  0.00     0.001 A 
ATOM     15  C   UNL     1       8.914 -62.414 -28.436  1.00  0.00     0.000 A 
ENDBRANCH   9  10
ENDBRANCH   4   9
ENDBRANCH   1   2
BRANCH   1  16
ATOM     16  C   UNL     1      11.392 -57.005 -22.507  1.00  0.00     0.081 C 
BRANCH  16  17
ATOM     17  C   UNL     1      10.458 -55.849 -22.837  1.00  0.00     0.162 C 
ATOM     18  O   UNL     1       9.236 -55.983 -22.851  1.00  0.00    -0.294 OA
BRANCH  17  19
ATOM     19  C   UNL     1      11.044 -54.499 -23.102  1.00  0.00     0.018 A 
ATOM     20  C   UNL     1      11.910 -54.363 -24.220  1.00  0.00     0.017 A 
ATOM     21  C   UNL     1      10.746 -53.390 -22.284  1.00  0.00     0.018 A 
ATOM     22  C   UNL     1      12.482 -53.129 -24.533  1.00  0.00    -0.023 A 
ATOM     23  C   UNL     1      11.331 -52.177 -22.596  1.00  0.00    -0.014 A 
ATOM     24  C   UNL     1      12.171 -52.080 -23.694  1.00  0.00     0.051 A 
ATOM     25  C   UNL     1      13.440 -52.891 -25.664  1.00  0.00     0.039 C 
ATOM     26  C   UNL     1      11.249 -50.830 -21.937  1.00  0.00     0.138 C 
ATOM     27  N   UNL     1      12.648 -50.787 -23.834  1.00  0.00    -0.312 N 
ATOM     28  C   UNL     1      13.470 -51.405 -26.071  1.00  0.00     0.027 C 
ATOM     29  C   UNL     1      12.189 -49.969 -22.808  1.00  0.00     0.231 C 
ATOM     30  C   UNL     1      13.620 -50.474 -24.860  1.00  0.00     0.126 C 
ATOM     31  O   UNL     1      12.468 -48.797 -22.615  1.00  0.00    -0.274 OA
ENDBRANCH  17  19
ENDBRANCH  16  17
ENDBRANCH   1  16
TORSDOF 6
ENDMDL
MODEL 5
REMARK VINA RESULT:   -11.501      1.875      3.035
REMARK INTER + INTRA:         -15.963
REMARK INTER:                 -16.670
REMARK INTRA:                   0.707
REMARK UNBOUND:                -0.428
REMARK SMILES O=C(CC[C@H]1CC[N@H+](Cc2ccccc2)CC1)c1cc2c3c(c1)CC(=O)N3CCC2
REMARK SMILES IDX 4 1 5 2 7 3 8 4 6 5 16 6 17 7 9 9 10 10 11 11 15 12 12 13
REMARK SMILES IDX 14 14 13 15 3 16 2 17 1 18 18 19 19 20 23 21 20 22 22 23
REMARK SMILES IDX 21 24 30 25 24 26 27 27 29 28 25 29 28 30 26 31
REMARK H PARENT 8 8
ROOT
ATOM      1  C   UNL     1      10.629 -58.569 -21.641  1.00  0.00     0.012 C 
ENDROOT
BRANCH   1   2
ATOM      2  C   UNL     1      10.082 -59.558 -22.692  1.00  0.00     0.000 C 
ATOM      3  C   UNL     1      10.148 -61.965 -23.474  1.00  0.00     0.262 C 
ATOM      4  N   UNL     1       8.638 -61.972 -23.497  1.00  0.00    -0.331 N 
ATOM      5  C   UNL     1      10.637 -60.966 -22.433  1.00  0.00     0.065 C 
ATOM      6  C   UNL     1       8.070 -60.608 -23.794  1.00  0.00     0.262 C 
ATOM      7  C   UNL     1       8.553 -59.607 -22.751  1.00  0.00     0.065 C 
ATOM      8  H   UNL     1       8.323 -62.248 -22.558  1.00  0.00     0.348 HD
BRANCH   4   9
ATOM      9  C   UNL     1       8.078 -63.014 -24.446  1.00  0.00     0.299 C 
BRANCH   9  10
ATOM     10  C   UNL     1       8.409 -62.737 -25.887  1.00  0.00     0.006 A 
ATOM     11  C   UNL     1       9.300 -61.707 -26.228  1.00  0.00     0.009 A 
ATOM     12  C   UNL     1       7.815 -63.489 -26.913  1.00  0.00     0.009 A 
ATOM     13  C   UNL     1       9.585 -61.434 -27.566  1.00  0.00     0.001 A 
ATOM     14  C   UNL     1       8.104 -63.211 -28.250  1.00  0.00     0.001 A 
ATOM     15  C   UNL     1       8.986 -62.184 -28.575  1.00  0.00     0.000 A 
ENDBRANCH   9  10
ENDBRANCH   4   9
ENDBRANCH   1   2
BRANCH   1  16
ATOM     16  C   UNL     1      11.357 -57.320 -22.157  1.00  0.00     0.081 C 
BRANCH  16  17
ATOM     17  C   UNL     1      10.464 -56.315 -22.871  1.00  0.00     0.162 C 
ATOM     18  O   UNL     1       9.286 -56.556 -23.125  1.00  0.00    -0.294 OA
BRANCH  17  19
ATOM     19  C   UNL     1      11.025 -54.975 -23.228  1.00  0.00     0.018 A 
ATOM     20  C   UNL     1      10.739 -53.887 -22.361  1.00  0.00     0.017 A 
ATOM     21  C   UNL     1      11.820 -54.790 -24.377  1.00  0.00     0.018 A 
ATOM     22  C   UNL     1      11.240 -52.613 -22.627  1.00  0.00    -0.023 A 
ATOM     23  C   UNL     1      12.298 -53.519 -24.638  1.00  0.00    -0.014 A 
ATOM     24  C   UNL     1      12.000 -52.481 -23.770  1.00  0.00     0.051 A 
ATOM     25  C   UNL     1      10.963 -51.392 -21.799  1.00  0.00     0.039 C 
ATOM     26  C   UNL     1      13.136 -52.978 -25.761  1.00  0.00     0.138 C 
ATOM     27  N   UNL     1      12.573 -51.297 -24.207  1.00  0.00    -0.312 N 
ATOM     28  C   UNL     1      12.036 -50.309 -22.017  1.00  0.00     0.027 C 
ATOM     29  C   UNL     1      13.241 -51.478 -25.413  1.00  0.00     0.231 C 
ATOM     30  C   UNL     1      12.314 -50.057 -23.506  1.00  0.00     0.126 C 
ATOM     31  O   UNL     1      13.803 -50.627 -26.082  1.00  0.00    -0.274 OA
ENDBRANCH  17  19
ENDBRANCH  16  17
ENDBRANCH   1  16
TORSDOF 6
ENDMDL
MODEL 6
REMARK VINA RESULT:   -11.469      2.557     10.767
REMARK INTER + INTRA:         -15.919
REMARK INTER:                 -15.858
REMARK INTRA:                  -0.061
REMARK UNBOUND:                -0.428
REMARK SMILES O=C(CC[C@H]1CC[N@H+](Cc2ccccc2)CC1)c1cc2c3c(c1)CC(=O)N3CCC2
REMARK SMILES IDX 4 1 5 2 7 3 8 4 6 5 16 6 17 7 9 9 10 10 11 11 15 12 12 13
REMARK SMILES IDX 14 14 13 15 3 16 2 17 1 18 18 19 19 20 23 21 20 22 22 23
REMARK SMILES IDX 21 24 30 25 24 26 27 27 29 28 25 29 28 30 26 31
REMARK H PARENT 8 8
ROOT
ATOM      1  C   UNL     1       9.923 -54.123 -21.796  1.00  0.00     0.012 C 
ENDROOT
BRANCH   1   2
ATOM      2  C   UNL     1      10.588 -52.730 -21.799  1.00  0.00     0.000 C 
ATOM      3  C   UNL     1      12.515 -51.380 -22.735  1.00  0.00     0.262 C 
ATOM      4  N   UNL     1      11.536 -50.297 -23.120  1.00  0.00    -0.331 N 
ATOM      5  C   UNL     1      11.808 -52.730 -22.733  1.00  0.00     0.065 C 
ATOM      6  C   UNL     1      10.351 -50.249 -22.189  1.00  0.00     0.262 C 
ATOM      7  C   UNL     1       9.637 -51.595 -22.189  1.00  0.00     0.065 C 
ATOM      8  H   UNL     1      11.189 -50.523 -24.060  1.00  0.00     0.348 HD
BRANCH   4   9
ATOM      9  C   UNL     1      12.194 -48.936 -23.235  1.00  0.00     0.299 C 
BRANCH   9  10
ATOM     10  C   UNL     1      13.060 -48.801 -24.457  1.00  0.00     0.006 A 
ATOM     11  C   UNL     1      13.529 -47.541 -24.864  1.00  0.00     0.009 A 
ATOM     12  C   UNL     1      13.396 -49.930 -25.221  1.00  0.00     0.009 A 
ATOM     13  C   UNL     1      14.310 -47.415 -26.012  1.00  0.00     0.001 A 
ATOM     14  C   UNL     1      14.178 -49.798 -26.370  1.00  0.00     0.001 A 
ATOM     15  C   UNL     1      14.632 -48.542 -26.766  1.00  0.00     0.000 A 
ENDBRANCH   9  10
ENDBRANCH   4   9
ENDBRANCH   1   2
BRANCH   1  16
ATOM     16  C   UNL     1      10.845 -55.347 -21.710  1.00  0.00     0.081 C 
BRANCH  16  17
ATOM     17  C   UNL     1      11.020 -56.103 -23.019  1.00  0.00     0.162 C 
ATOM     18  O   UNL     1      11.727 -55.674 -23.929  1.00  0.00    -0.294 OA
BRANCH  17  19
ATOM     19  C   UNL     1      10.352 -57.431 -23.182  1.00  0.00     0.018 A 
ATOM     20  C   UNL     1      11.182 -58.580 -23.285  1.00  0.00     0.017 A 
ATOM     21  C   UNL     1       8.948 -57.552 -23.223  1.00  0.00     0.018 A 
ATOM     22  C   UNL     1      10.625 -59.851 -23.426  1.00  0.00    -0.023 A 
ATOM     23  C   UNL     1       8.409 -58.815 -23.379  1.00  0.00    -0.014 A 
ATOM     24  C   UNL     1       9.248 -59.914 -23.475  1.00  0.00     0.051 A 
ATOM     25  C   UNL     1      11.412 -61.119 -23.584  1.00  0.00     0.039 C 
ATOM     26  C   UNL     1       6.988 -59.289 -23.482  1.00  0.00     0.138 C 
ATOM     27  N   UNL     1       8.514 -61.080 -23.622  1.00  0.00    -0.312 N 
ATOM     28  C   UNL     1      10.577 -62.352 -23.190  1.00  0.00     0.027 C 
ATOM     29  C   UNL     1       7.151 -60.811 -23.681  1.00  0.00     0.231 C 
ATOM     30  C   UNL     1       9.186 -62.344 -23.839  1.00  0.00     0.126 C 
ATOM     31  O   UNL     1       6.247 -61.610 -23.857  1.00  0.00    -0.274 OA
ENDBRANCH  17  19
ENDBRANCH  16  17
ENDBRANCH   1  16
TORSDOF 6
ENDMDL
MODEL 7
REMARK VINA RESULT:   -11.160      1.294      1.848
REMARK INTER + INTRA:         -15.502
REMARK INTER:                 -15.332
REMARK INTRA:                  -0.171
REMARK UNBOUND:                -0.428
REMARK SMILES O=C(CC[C@H]1CC[N@H+](Cc2ccccc2)CC1)c1cc2c3c(c1)CC(=O)N3CCC2
REMARK SMILES IDX 4 1 5 2 7 3 8 4 6 5 16 6 17 7 9 9 10 10 11 11 15 12 12 13
REMARK SMILES IDX 14 14 13 15 3 16 2 17 1 18 18 19 19 20 23 21 20 22 22 23
REMARK SMILES IDX 21 24 30 25 24 26 27 27 29 28 25 29 28 30 26 31
REMARK H PARENT 8 8
ROOT
ATOM      1  C   UNL     1       9.845 -55.462 -22.960  1.00  0.00     0.012 C 
ENDROOT
BRANCH   1   2
ATOM      2  C   UNL     1       9.990 -56.987 -23.149  1.00  0.00     0.000 C 
ATOM      3  C   UNL     1      11.175 -59.056 -22.297  1.00  0.00     0.262 C 
ATOM      4  N   UNL     1       9.840 -59.755 -22.213  1.00  0.00    -0.331 N 
ATOM      5  C   UNL     1      10.977 -57.556 -22.119  1.00  0.00     0.065 C 
ATOM      6  C   UNL     1       8.868 -59.245 -23.246  1.00  0.00     0.262 C 
ATOM      7  C   UNL     1       8.662 -57.745 -23.067  1.00  0.00     0.065 C 
ATOM      8  H   UNL     1       9.450 -59.552 -21.285  1.00  0.00     0.348 HD
BRANCH   4   9
ATOM      9  C   UNL     1       9.971 -61.265 -22.288  1.00  0.00     0.299 C 
BRANCH   9  10
ATOM     10  C   UNL     1       9.327 -61.852 -23.513  1.00  0.00     0.006 A 
ATOM     11  C   UNL     1       9.885 -61.638 -24.784  1.00  0.00     0.009 A 
ATOM     12  C   UNL     1       8.147 -62.606 -23.407  1.00  0.00     0.009 A 
ATOM     13  C   UNL     1       9.271 -62.162 -25.922  1.00  0.00     0.001 A 
ATOM     14  C   UNL     1       7.538 -63.127 -24.549  1.00  0.00     0.001 A 
ATOM     15  C   UNL     1       8.098 -62.903 -25.805  1.00  0.00     0.000 A 
ENDBRANCH   9  10
ENDBRANCH   4   9
ENDBRANCH   1   2
BRANCH   1  16
ATOM     16  C   UNL     1      11.134 -54.639 -22.840  1.00  0.00     0.081 C 
BRANCH  16  17
ATOM     17  C   UNL     1      10.984 -53.330 -22.077  1.00  0.00     0.162 C 
ATOM     18  O   UNL     1      10.531 -53.291 -20.934  1.00  0.00    -0.294 OA
BRANCH  17  19
ATOM     19  C   UNL     1      11.448 -52.061 -22.718  1.00  0.00     0.018 A 
ATOM     20  C   UNL     1      10.847 -50.847 -22.291  1.00  0.00     0.017 A 
ATOM     21  C   UNL     1      12.453 -52.057 -23.707  1.00  0.00     0.018 A 
ATOM     22  C   UNL     1      11.241 -49.625 -22.838  1.00  0.00    -0.023 A 
ATOM     23  C   UNL     1      12.824 -50.842 -24.252  1.00  0.00    -0.014 A 
ATOM     24  C   UNL     1      12.217 -49.677 -23.811  1.00  0.00     0.051 A 
ATOM     25  C   UNL     1      10.641 -48.295 -22.486  1.00  0.00     0.039 C 
ATOM     26  C   UNL     1      13.822 -50.488 -25.316  1.00  0.00     0.138 C 
ATOM     27  N   UNL     1      12.729 -48.576 -24.477  1.00  0.00    -0.312 N 
ATOM     28  C   UNL     1      11.600 -47.139 -22.828  1.00  0.00     0.027 C 
ATOM     29  C   UNL     1      13.667 -48.956 -25.430  1.00  0.00     0.231 C 
ATOM     30  C   UNL     1      12.174 -47.259 -24.246  1.00  0.00     0.126 C 
ATOM     31  O   UNL     1      14.260 -48.234 -26.214  1.00  0.00    -0.274 OA
ENDBRANCH  17  19
ENDBRANCH  16  17
ENDBRANCH   1  16
TORSDOF 6
ENDMDL
MODEL 8
REMARK VINA RESULT:   -11.111      2.565     10.911
REMARK INTER + INTRA:         -15.436
REMARK INTER:                 -14.956
REMARK INTRA:                  -0.480
REMARK UNBOUND:                -0.428
REMARK SMILES O=C(CC[C@H]1CC[N@H+](Cc2ccccc2)CC1)c1cc2c3c(c1)CC(=O)N3CCC2
REMARK SMILES IDX 4 1 5 2 7 3 8 4 6 5 16 6 17 7 9 9 10 10 11 11 15 12 12 13
REMARK SMILES IDX 14 14 13 15 3 16 2 17 1 18 18 19 19 20 23 21 20 22 22 23
REMARK SMILES IDX 21 24 30 25 24 26 27 27 29 28 25 29 28 30 26 31
REMARK H PARENT 8 8
ROOT
ATOM      1  C   UNL     1      12.124 -53.447 -23.854  1.00  0.00     0.012 C 
ENDROOT
BRANCH   1   2
ATOM      2  C   UNL     1      12.362 -51.924 -23.783  1.00  0.00     0.000 C 
ATOM      3  C   UNL     1      12.152 -49.882 -22.300  1.00  0.00     0.262 C 
ATOM      4  N   UNL     1      13.582 -49.527 -22.630  1.00  0.00    -0.331 N 
ATOM      5  C   UNL     1      11.966 -51.391 -22.398  1.00  0.00     0.065 C 
ATOM      6  C   UNL     1      13.980 -50.000 -24.004  1.00  0.00     0.262 C 
ATOM      7  C   UNL     1      13.801 -51.511 -24.104  1.00  0.00     0.065 C 
ATOM      8  H   UNL     1      14.178 -50.008 -21.945  1.00  0.00     0.348 HD
BRANCH   4   9
ATOM      9  C   UNL     1      13.864 -48.046 -22.461  1.00  0.00     0.299 C 
BRANCH   9  10
ATOM     10  C   UNL     1      12.684 -47.178 -22.803  1.00  0.00     0.006 A 
ATOM     11  C   UNL     1      12.213 -47.105 -24.124  1.00  0.00     0.009 A 
ATOM     12  C   UNL     1      12.050 -46.413 -21.812  1.00  0.00     0.009 A 
ATOM     13  C   UNL     1      11.136 -46.279 -24.444  1.00  0.00     0.001 A 
ATOM     14  C   UNL     1      10.973 -45.589 -22.139  1.00  0.00     0.001 A 
ATOM     15  C   UNL     1      10.518 -45.520 -23.454  1.00  0.00     0.000 A 
ENDBRANCH   9  10
ENDBRANCH   4   9
ENDBRANCH   1   2
BRANCH   1  16
ATOM     16  C   UNL     1      10.685 -53.947 -23.667  1.00  0.00     0.081 C 
BRANCH  16  17
ATOM     17  C   UNL     1      10.489 -54.890 -22.488  1.00  0.00     0.162 C 
ATOM     18  O   UNL     1      10.416 -54.480 -21.332  1.00  0.00    -0.294 OA
BRANCH  17  19
ATOM     19  C   UNL     1      10.330 -56.354 -22.751  1.00  0.00     0.018 A 
ATOM     20  C   UNL     1       9.018 -56.842 -22.997  1.00  0.00     0.017 A 
ATOM     21  C   UNL     1      11.437 -57.226 -22.767  1.00  0.00     0.018 A 
ATOM     22  C   UNL     1       8.799 -58.194 -23.262  1.00  0.00    -0.023 A 
ATOM     23  C   UNL     1      11.205 -58.566 -23.016  1.00  0.00    -0.014 A 
ATOM     24  C   UNL     1       9.913 -59.008 -23.252  1.00  0.00     0.051 A 
ATOM     25  C   UNL     1       7.452 -58.816 -23.493  1.00  0.00     0.039 C 
ATOM     26  C   UNL     1      12.133 -59.745 -23.082  1.00  0.00     0.138 C 
ATOM     27  N   UNL     1       9.897 -60.374 -23.481  1.00  0.00    -0.312 N 
ATOM     28  C   UNL     1       7.572 -60.147 -24.258  1.00  0.00     0.027 C 
ATOM     29  C   UNL     1      11.169 -60.919 -23.360  1.00  0.00     0.231 C 
ATOM     30  C   UNL     1       8.639 -61.071 -23.656  1.00  0.00     0.126 C 
ATOM     31  O   UNL     1      11.483 -62.095 -23.450  1.00  0.00    -0.274 OA
ENDBRANCH  17  19
ENDBRANCH  16  17
ENDBRANCH   1  16
TORSDOF 6
ENDMDL
MODEL 9
REMARK VINA RESULT:   -10.849      2.905     11.258
REMARK INTER + INTRA:         -15.083
REMARK INTER:                 -14.391
REMARK INTRA:                  -0.692
REMARK UNBOUND:                -0.428
REMARK SMILES O=C(CC[C@H]1CC[N@H+](Cc2ccccc2)CC1)c1cc2c3c(c1)CC(=O)N3CCC2
REMARK SMILES IDX 4 1 5 2 7 3 8 4 6 5 16 6 17 7 9 9 10 10 11 11 15 12 12 13
REMARK SMILES IDX 14 14 13 15 3 16 2 17 1 18 18 19 19 20 23 21 20 22 22 23
REMARK SMILES IDX 21 24 30 25 24 26 27 27 29 28 25 29 28 30 26 31
REMARK H PARENT 8 8
ROOT
ATOM      1  C   UNL     1      11.868 -53.870 -23.870  1.00  0.00     0.012 C 
ENDROOT
BRANCH   1   2
ATOM      2  C   UNL     1      11.806 -52.340 -23.680  1.00  0.00     0.000 C 
ATOM      3  C   UNL     1      11.611 -50.493 -21.960  1.00  0.00     0.262 C 
ATOM      4  N   UNL     1      12.791 -49.805 -22.602  1.00  0.00    -0.331 N 
ATOM      5  C   UNL     1      11.711 -51.996 -22.187  1.00  0.00     0.065 C 
ATOM      6  C   UNL     1      12.879 -50.091 -24.079  1.00  0.00     0.262 C 
ATOM      7  C   UNL     1      12.986 -51.594 -24.310  1.00  0.00     0.065 C 
ATOM      8  H   UNL     1      13.638 -50.180 -22.157  1.00  0.00     0.348 HD
BRANCH   4   9
ATOM      9  C   UNL     1      12.807 -48.312 -22.335  1.00  0.00     0.299 C 
BRANCH   9  10
ATOM     10  C   UNL     1      13.991 -47.872 -21.517  1.00  0.00     0.006 A 
ATOM     11  C   UNL     1      13.805 -47.162 -20.319  1.00  0.00     0.009 A 
ATOM     12  C   UNL     1      15.298 -48.146 -21.949  1.00  0.00     0.009 A 
ATOM     13  C   UNL     1      14.904 -46.733 -19.576  1.00  0.00     0.001 A 
ATOM     14  C   UNL     1      16.394 -47.714 -21.201  1.00  0.00     0.001 A 
ATOM     15  C   UNL     1      16.197 -47.006 -20.017  1.00  0.00     0.000 A 
ENDBRANCH   9  10
ENDBRANCH   4   9
ENDBRANCH   1   2
BRANCH   1  16
ATOM     16  C   UNL     1      10.565 -54.659 -23.678  1.00  0.00     0.081 C 
BRANCH  16  17
ATOM     17  C   UNL     1      10.624 -55.727 -22.595  1.00  0.00     0.162 C 
ATOM     18  O   UNL     1      11.054 -55.489 -21.468  1.00  0.00    -0.294 OA
BRANCH  17  19
ATOM     19  C   UNL     1      10.096 -57.094 -22.897  1.00  0.00     0.018 A 
ATOM     20  C   UNL     1      11.039 -58.144 -23.064  1.00  0.00     0.017 A 
ATOM     21  C   UNL     1       8.713 -57.345 -23.004  1.00  0.00     0.018 A 
ATOM     22  C   UNL     1      10.615 -59.445 -23.335  1.00  0.00    -0.023 A 
ATOM     23  C   UNL     1       8.307 -58.636 -23.287  1.00  0.00    -0.014 A 
ATOM     24  C   UNL     1       9.253 -59.636 -23.444  1.00  0.00     0.051 A 
ATOM     25  C   UNL     1      11.529 -60.613 -23.569  1.00  0.00     0.039 C 
ATOM     26  C   UNL     1       6.944 -59.232 -23.487  1.00  0.00     0.138 C 
ATOM     27  N   UNL     1       8.643 -60.849 -23.719  1.00  0.00    -0.312 N 
ATOM     28  C   UNL     1      10.808 -61.950 -23.315  1.00  0.00     0.027 C 
ATOM     29  C   UNL     1       7.264 -60.708 -23.808  1.00  0.00     0.231 C 
ATOM     30  C   UNL     1       9.444 -62.018 -24.016  1.00  0.00     0.126 C 
ATOM     31  O   UNL     1       6.448 -61.572 -24.088  1.00  0.00    -0.274 OA
ENDBRANCH  17  19
ENDBRANCH  16  17
ENDBRANCH   1  16
TORSDOF 6
ENDMDL
