MODEL 1
REMARK VINA RESULT:   -12.509      0.000      0.000
REMARK INTER + INTRA:         -16.113
REMARK INTER:                 -15.434
REMARK INTRA:                  -0.678
REMARK UNBOUND:                -0.678
REMARK SMILES Cc1cccc(C(=O)Nc2ccc3c(c2)CN(C(=O)c2cccc(C)c2)C(=O)C3)c1
REMARK SMILES IDX 10 1 11 2 12 3 13 4 14 5 15 6 16 7 17 8 27 9 28 10 29 11
REMARK SMILES IDX 9 12 7 13 8 14 6 16 2 17 3 18 30 19 4 20 5 21 1 22 18 23
REMARK SMILES IDX 19 24 20 25 21 26 26 27 22 28 24 29 23 30 25 31
REMARK H PARENT 9 15
ROOT
ATOM      1  C   UNL     1      11.033 -56.346 -22.072  1.00  0.00     0.041 A 
ATOM      2  C   UNL     1      11.528 -56.973 -20.929  1.00  0.00     0.026 A 
ATOM      3  C   UNL     1      11.384 -58.353 -20.754  1.00  0.00     0.007 A 
ATOM      4  C   UNL     1      10.731 -59.124 -21.720  1.00  0.00    -0.033 A 
ATOM      5  C   UNL     1      10.236 -58.508 -22.872  1.00  0.00    -0.022 A 
ATOM      6  C   UNL     1      10.395 -57.125 -23.047  1.00  0.00     0.032 A 
ATOM      7  C   UNL     1       9.596 -59.368 -23.923  1.00  0.00     0.164 C 
ATOM      8  N   UNL     1       8.869 -60.486 -23.337  1.00  0.00    -0.274 N 
ATOM      9  C   UNL     1       9.464 -61.254 -22.351  1.00  0.00     0.234 C 
ATOM     10  O   UNL     1       9.179 -62.435 -22.142  1.00  0.00    -0.274 OA
ATOM     11  C   UNL     1      10.604 -60.616 -21.567  1.00  0.00     0.136 C 
ENDROOT
BRANCH   1  12
ATOM     12  N   UNL     1      11.145 -54.963 -22.324  1.00  0.00    -0.322 N 
ATOM     13  C   UNL     1      10.242 -53.971 -21.980  1.00  0.00     0.255 C 
ATOM     14  O   UNL     1       9.153 -54.121 -21.444  1.00  0.00    -0.269 OA
ATOM     15  H   UNL     1      11.940 -54.678 -22.881  1.00  0.00     0.170 HD
BRANCH  13  16
ATOM     16  C   UNL     1      10.661 -52.591 -22.357  1.00  0.00     0.040 A 
ATOM     17  C   UNL     1      12.246 -51.153 -23.515  1.00  0.00    -0.050 A 
ATOM     18  C   UNL     1      11.511 -50.036 -23.099  1.00  0.00     0.003 A 
ATOM     19  C   UNL     1      11.817 -52.431 -23.133  1.00  0.00     0.017 A 
ATOM     20  C   UNL     1      10.347 -50.193 -22.344  1.00  0.00     0.001 A 
ATOM     21  C   UNL     1       9.915 -51.468 -21.977  1.00  0.00     0.014 A 
ATOM     22  C   UNL     1      13.506 -50.984 -24.312  1.00  0.00     0.044 C 
ENDBRANCH  13  16
ENDBRANCH   1  12
BRANCH   8  23
ATOM     23  C   UNL     1       7.643 -60.894 -23.841  1.00  0.00     0.260 C 
ATOM     24  O   UNL     1       6.571 -60.381 -23.532  1.00  0.00    -0.269 OA
BRANCH  23  25
ATOM     25  C   UNL     1       7.644 -61.910 -24.925  1.00  0.00     0.040 A 
ATOM     26  C   UNL     1       6.908 -63.086 -24.755  1.00  0.00     0.014 A 
ATOM     27  C   UNL     1       8.402 -61.715 -26.088  1.00  0.00     0.017 A 
ATOM     28  C   UNL     1       6.902 -64.051 -25.761  1.00  0.00     0.001 A 
ATOM     29  C   UNL     1       8.388 -62.676 -27.107  1.00  0.00    -0.050 A 
ATOM     30  C   UNL     1       7.637 -63.845 -26.931  1.00  0.00     0.003 A 
ATOM     31  C   UNL     1       9.228 -62.492 -28.338  1.00  0.00     0.044 C 
ENDBRANCH  23  25
ENDBRANCH   8  23
TORSDOF 4
ENDMDL
MODEL 2
REMARK VINA RESULT:   -11.968      3.036     10.285
REMARK INTER + INTRA:         -15.445
REMARK INTER:                 -14.883
REMARK INTRA:                  -0.562
REMARK UNBOUND:                -0.678
REMARK SMILES Cc1cccc(C(=O)Nc2ccc3c(c2)CN(C(=O)c2cccc(C)c2)C(=O)C3)c1
REMARK SMILES IDX 10 1 11 2 12 3 13 4 14 5 15 6 16 7 17 8 27 9 28 10 29 11
REMARK SMILES IDX 9 12 7 13 8 14 6 16 2 17 3 18 30 19 4 20 5 21 1 22 18 23
REMARK SMILES IDX 19 24 20 25 21 26 26 27 22 28 24 29 23 30 25 31
REMARK H PARENT 9 15
ROOT
ATOM      1  C   UNL     1      11.057 -55.676 -22.396  1.00  0.00     0.041 A 
ATOM      2  C   UNL     1      10.686 -55.170 -21.150  1.00  0.00     0.026 A 
ATOM      3  C   UNL     1      10.677 -53.791 -20.915  1.00  0.00     0.007 A 
ATOM      4  C   UNL     1      11.050 -52.899 -21.924  1.00  0.00    -0.033 A 
ATOM      5  C   UNL     1      11.417 -53.394 -23.178  1.00  0.00    -0.022 A 
ATOM      6  C   UNL     1      11.413 -54.777 -23.411  1.00  0.00     0.032 A 
ATOM      7  C   UNL     1      11.752 -52.411 -24.263  1.00  0.00     0.164 C 
ATOM      8  N   UNL     1      12.415 -51.227 -23.734  1.00  0.00    -0.274 N 
ATOM      9  C   UNL     1      11.901 -50.590 -22.618  1.00  0.00     0.234 C 
ATOM     10  O   UNL     1      12.061 -49.390 -22.385  1.00  0.00    -0.274 OA
ATOM     11  C   UNL     1      11.005 -51.411 -21.701  1.00  0.00     0.136 C 
ENDROOT
BRANCH   1  12
ATOM     12  N   UNL     1      11.085 -57.050 -22.713  1.00  0.00    -0.322 N 
ATOM     13  C   UNL     1      11.278 -58.108 -21.841  1.00  0.00     0.255 C 
ATOM     14  O   UNL     1      11.516 -58.041 -20.642  1.00  0.00    -0.269 OA
ATOM     15  H   UNL     1      11.030 -57.278 -23.697  1.00  0.00     0.170 HD
BRANCH  13  16
ATOM     16  C   UNL     1      11.222 -59.455 -22.476  1.00  0.00     0.040 A 
ATOM     17  C   UNL     1      10.254 -61.687 -22.512  1.00  0.00    -0.050 A 
ATOM     18  C   UNL     1      11.066 -62.005 -23.608  1.00  0.00     0.003 A 
ATOM     19  C   UNL     1      10.343 -60.409 -21.945  1.00  0.00     0.017 A 
ATOM     20  C   UNL     1      11.928 -61.050 -24.153  1.00  0.00     0.001 A 
ATOM     21  C   UNL     1      12.004 -59.774 -23.594  1.00  0.00     0.014 A 
ATOM     22  C   UNL     1       9.340 -62.717 -21.916  1.00  0.00     0.044 C 
ENDBRANCH  13  16
ENDBRANCH   1  12
BRANCH   8  23
ATOM     23  C   UNL     1      13.473 -50.633 -24.405  1.00  0.00     0.260 C 
ATOM     24  O   UNL     1      13.378 -49.590 -25.048  1.00  0.00    -0.269 OA
BRANCH  23  25
ATOM     25  C   UNL     1      14.828 -51.214 -24.214  1.00  0.00     0.040 A 
ATOM     26  C   UNL     1      15.324 -52.110 -25.165  1.00  0.00     0.014 A 
ATOM     27  C   UNL     1      15.586 -50.900 -23.077  1.00  0.00     0.017 A 
ATOM     28  C   UNL     1      16.590 -52.666 -24.998  1.00  0.00     0.001 A 
ATOM     29  C   UNL     1      16.866 -51.446 -22.913  1.00  0.00    -0.050 A 
ATOM     30  C   UNL     1      17.358 -52.334 -23.879  1.00  0.00     0.003 A 
ATOM     31  C   UNL     1      17.668 -51.146 -21.680  1.00  0.00     0.044 C 
ENDBRANCH  23  25
ENDBRANCH   8  23
TORSDOF 4
ENDMDL
MODEL 3
REMARK VINA RESULT:   -11.594      2.987     10.791
REMARK INTER + INTRA:         -14.983
REMARK INTER:                 -14.400
REMARK INTRA:                  -0.583
REMARK UNBOUND:                -0.678
REMARK SMILES Cc1cccc(C(=O)Nc2ccc3c(c2)CN(C(=O)c2cccc(C)c2)C(=O)C3)c1
REMARK SMILES IDX 10 1 11 2 12 3 13 4 14 5 15 6 16 7 17 8 27 9 28 10 29 11
REMARK SMILES IDX 9 12 7 13 8 14 6 16 2 17 3 18 30 19 4 20 5 21 1 22 18 23
REMARK SMILES IDX 19 24 20 25 21 26 26 27 22 28 24 29 23 30 25 31
REMARK H PARENT 9 15
ROOT
ATOM      1  C   UNL     1      10.853 -55.460 -22.909  1.00  0.00     0.041 A 
ATOM      2  C   UNL     1      10.028 -54.911 -21.927  1.00  0.00     0.026 A 
ATOM      3  C   UNL     1       9.980 -53.527 -21.730  1.00  0.00     0.007 A 
ATOM      4  C   UNL     1      10.765 -52.674 -22.509  1.00  0.00    -0.033 A 
ATOM      5  C   UNL     1      11.590 -53.212 -23.500  1.00  0.00    -0.022 A 
ATOM      6  C   UNL     1      11.625 -54.600 -23.701  1.00  0.00     0.032 A 
ATOM      7  C   UNL     1      12.375 -52.268 -24.366  1.00  0.00     0.164 C 
ATOM      8  N   UNL     1      12.814 -51.094 -23.625  1.00  0.00    -0.274 N 
ATOM      9  C   UNL     1      11.917 -50.412 -22.820  1.00  0.00     0.234 C 
ATOM     10  O   UNL     1      12.017 -49.212 -22.554  1.00  0.00    -0.274 OA
ATOM     11  C   UNL     1      10.694 -51.180 -22.338  1.00  0.00     0.136 C 
ENDROOT
BRANCH   1  12
ATOM     12  N   UNL     1      10.951 -56.842 -23.173  1.00  0.00    -0.322 N 
ATOM     13  C   UNL     1      11.185 -57.856 -22.260  1.00  0.00     0.255 C 
ATOM     14  O   UNL     1      11.404 -57.733 -21.062  1.00  0.00    -0.269 OA
ATOM     15  H   UNL     1      10.920 -57.109 -24.148  1.00  0.00     0.170 HD
BRANCH  13  16
ATOM     16  C   UNL     1      11.203 -59.227 -22.844  1.00  0.00     0.040 A 
ATOM     17  C   UNL     1      10.395 -61.521 -22.764  1.00  0.00    -0.050 A 
ATOM     18  C   UNL     1      11.188 -61.823 -23.878  1.00  0.00     0.003 A 
ATOM     19  C   UNL     1      10.412 -60.219 -22.247  1.00  0.00     0.017 A 
ATOM     20  C   UNL     1      11.960 -60.832 -24.488  1.00  0.00     0.001 A 
ATOM     21  C   UNL     1      11.966 -59.533 -23.979  1.00  0.00     0.014 A 
ATOM     22  C   UNL     1       9.579 -62.589 -22.097  1.00  0.00     0.044 C 
ENDBRANCH  13  16
ENDBRANCH   1  12
BRANCH   8  23
ATOM     23  C   UNL     1      14.076 -50.552 -23.814  1.00  0.00     0.260 C 
ATOM     24  O   UNL     1      15.041 -50.795 -23.094  1.00  0.00    -0.269 OA
BRANCH  23  25
ATOM     25  C   UNL     1      14.307 -49.747 -25.042  1.00  0.00     0.040 A 
ATOM     26  C   UNL     1      14.685 -50.398 -26.220  1.00  0.00     0.014 A 
ATOM     27  C   UNL     1      14.185 -48.351 -25.015  1.00  0.00     0.017 A 
ATOM     28  C   UNL     1      14.909 -49.657 -27.379  1.00  0.00     0.001 A 
ATOM     29  C   UNL     1      14.397 -47.604 -26.182  1.00  0.00    -0.050 A 
ATOM     30  C   UNL     1      14.763 -48.267 -27.360  1.00  0.00     0.003 A 
ATOM     31  C   UNL     1      14.307 -46.105 -26.151  1.00  0.00     0.044 C 
ENDBRANCH  23  25
ENDBRANCH   8  23
TORSDOF 4
ENDMDL
MODEL 4
REMARK VINA RESULT:   -11.485      3.253     11.595
REMARK INTER + INTRA:         -14.849
REMARK INTER:                 -15.392
REMARK INTRA:                   0.543
REMARK UNBOUND:                -0.678
REMARK SMILES Cc1cccc(C(=O)Nc2ccc3c(c2)CN(C(=O)c2cccc(C)c2)C(=O)C3)c1
REMARK SMILES IDX 10 1 11 2 12 3 13 4 14 5 15 6 16 7 17 8 27 9 28 10 29 11
REMARK SMILES IDX 9 12 7 13 8 14 6 16 2 17 3 18 30 19 4 20 5 21 1 22 18 23
REMARK SMILES IDX 19 24 20 25 21 26 26 27 22 28 24 29 23 30 25 31
REMARK H PARENT 9 15
ROOT
ATOM      1  C   UNL     1      11.780 -54.418 -24.097  1.00  0.00     0.041 A 
ATOM      2  C   UNL     1      12.460 -54.178 -25.291  1.00  0.00     0.026 A 
ATOM      3  C   UNL     1      12.943 -52.901 -25.592  1.00  0.00     0.007 A 
ATOM      4  C   UNL     1      12.745 -51.842 -24.702  1.00  0.00    -0.033 A 
ATOM      5  C   UNL     1      12.071 -52.071 -23.499  1.00  0.00    -0.022 A 
ATOM      6  C   UNL     1      11.599 -53.357 -23.198  1.00  0.00     0.032 A 
ATOM      7  C   UNL     1      11.928 -50.930 -22.534  1.00  0.00     0.164 C 
ATOM      8  N   UNL     1      11.758 -49.658 -23.221  1.00  0.00    -0.274 N 
ATOM      9  C   UNL     1      12.595 -49.326 -24.272  1.00  0.00     0.234 C 
ATOM     10  O   UNL     1      12.864 -48.164 -24.589  1.00  0.00    -0.274 OA
ATOM     11  C   UNL     1      13.295 -50.471 -24.992  1.00  0.00     0.136 C 
ENDROOT
BRANCH   1  12
ATOM     12  N   UNL     1      11.269 -55.677 -23.718  1.00  0.00    -0.322 N 
ATOM     13  C   UNL     1      11.056 -56.144 -22.433  1.00  0.00     0.255 C 
ATOM     14  O   UNL     1      11.325 -55.570 -21.386  1.00  0.00    -0.269 OA
ATOM     15  H   UNL     1      11.111 -56.334 -24.471  1.00  0.00     0.170 HD
BRANCH  13  16
ATOM     16  C   UNL     1      10.472 -57.514 -22.358  1.00  0.00     0.040 A 
ATOM     17  C   UNL     1       8.731 -59.062 -23.059  1.00  0.00    -0.050 A 
ATOM     18  C   UNL     1       9.316 -60.055 -22.263  1.00  0.00     0.003 A 
ATOM     19  C   UNL     1       9.313 -57.788 -23.096  1.00  0.00     0.017 A 
ATOM     20  C   UNL     1      10.483 -59.791 -21.542  1.00  0.00     0.001 A 
ATOM     21  C   UNL     1      11.067 -58.525 -21.592  1.00  0.00     0.014 A 
ATOM     22  C   UNL     1       7.468 -59.340 -23.819  1.00  0.00     0.044 C 
ENDBRANCH  13  16
ENDBRANCH   1  12
BRANCH   8  23
ATOM     23  C   UNL     1      10.867 -48.701 -22.759  1.00  0.00     0.260 C 
ATOM     24  O   UNL     1       9.685 -48.929 -22.512  1.00  0.00    -0.269 OA
BRANCH  23  25
ATOM     25  C   UNL     1      11.409 -47.363 -22.406  1.00  0.00     0.040 A 
ATOM     26  C   UNL     1      12.518 -47.281 -21.561  1.00  0.00     0.014 A 
ATOM     27  C   UNL     1      10.796 -46.195 -22.882  1.00  0.00     0.017 A 
ATOM     28  C   UNL     1      13.036 -46.034 -21.217  1.00  0.00     0.001 A 
ATOM     29  C   UNL     1      11.321 -44.940 -22.550  1.00  0.00    -0.050 A 
ATOM     30  C   UNL     1      12.441 -44.869 -21.711  1.00  0.00     0.003 A 
ATOM     31  C   UNL     1      10.648 -43.684 -23.023  1.00  0.00     0.044 C 
ENDBRANCH  23  25
ENDBRANCH   8  23
TORSDOF 4
ENDMDL
MODEL 5
REMARK VINA RESULT:   -11.428      2.213      3.407
REMARK INTER + INTRA:         -14.779
REMARK INTER:                 -13.858
REMARK INTRA:                  -0.921
REMARK UNBOUND:                -0.678
REMARK SMILES Cc1cccc(C(=O)Nc2ccc3c(c2)CN(C(=O)c2cccc(C)c2)C(=O)C3)c1
REMARK SMILES IDX 10 1 11 2 12 3 13 4 14 5 15 6 16 7 17 8 27 9 28 10 29 11
REMARK SMILES IDX 9 12 7 13 8 14 6 16 2 17 3 18 30 19 4 20 5 21 1 22 18 23
REMARK SMILES IDX 19 24 20 25 21 26 26 27 22 28 24 29 23 30 25 31
REMARK H PARENT 9 15
ROOT
ATOM      1  C   UNL     1      11.143 -54.925 -23.818  1.00  0.00     0.041 A 
ATOM      2  C   UNL     1       9.886 -54.898 -23.214  1.00  0.00     0.026 A 
ATOM      3  C   UNL     1       9.332 -56.061 -22.671  1.00  0.00     0.007 A 
ATOM      4  C   UNL     1      10.026 -57.272 -22.733  1.00  0.00    -0.033 A 
ATOM      5  C   UNL     1      11.289 -57.310 -23.330  1.00  0.00    -0.022 A 
ATOM      6  C   UNL     1      11.845 -56.137 -23.863  1.00  0.00     0.032 A 
ATOM      7  C   UNL     1      12.041 -58.610 -23.327  1.00  0.00     0.164 C 
ATOM      8  N   UNL     1      11.147 -59.752 -23.462  1.00  0.00    -0.274 N 
ATOM      9  C   UNL     1      10.005 -59.828 -22.684  1.00  0.00     0.234 C 
ATOM     10  O   UNL     1       9.469 -60.892 -22.364  1.00  0.00    -0.274 OA
ATOM     11  C   UNL     1       9.463 -58.524 -22.116  1.00  0.00     0.136 C 
ENDROOT
BRANCH   1  12
ATOM     12  N   UNL     1      11.771 -53.795 -24.382  1.00  0.00    -0.322 N 
ATOM     13  C   UNL     1      12.113 -52.617 -23.740  1.00  0.00     0.255 C 
ATOM     14  O   UNL     1      11.881 -52.319 -22.575  1.00  0.00    -0.269 OA
ATOM     15  H   UNL     1      11.921 -53.825 -25.382  1.00  0.00     0.170 HD
BRANCH  13  16
ATOM     16  C   UNL     1      12.799 -51.614 -24.602  1.00  0.00     0.040 A 
ATOM     17  C   UNL     1      13.404 -49.290 -24.993  1.00  0.00    -0.050 A 
ATOM     18  C   UNL     1      14.058 -49.675 -26.171  1.00  0.00     0.003 A 
ATOM     19  C   UNL     1      12.769 -50.267 -24.215  1.00  0.00     0.017 A 
ATOM     20  C   UNL     1      14.107 -51.019 -26.548  1.00  0.00     0.001 A 
ATOM     21  C   UNL     1      13.485 -51.991 -25.764  1.00  0.00     0.014 A 
ATOM     22  C   UNL     1      13.336 -47.845 -24.597  1.00  0.00     0.044 C 
ENDBRANCH  13  16
ENDBRANCH   1  12
BRANCH   8  23
ATOM     23  C   UNL     1      11.483 -60.841 -24.252  1.00  0.00     0.260 C 
ATOM     24  O   UNL     1      12.071 -61.835 -23.833  1.00  0.00    -0.269 OA
BRANCH  23  25
ATOM     25  C   UNL     1      10.973 -60.867 -25.648  1.00  0.00     0.040 A 
ATOM     26  C   UNL     1       9.862 -61.659 -25.950  1.00  0.00     0.014 A 
ATOM     27  C   UNL     1      11.618 -60.140 -26.658  1.00  0.00     0.017 A 
ATOM     28  C   UNL     1       9.374 -61.698 -27.255  1.00  0.00     0.001 A 
ATOM     29  C   UNL     1      11.122 -60.165 -27.968  1.00  0.00    -0.050 A 
ATOM     30  C   UNL     1      10.000 -60.953 -28.258  1.00  0.00     0.003 A 
ATOM     31  C   UNL     1      11.830 -59.420 -29.063  1.00  0.00     0.044 C 
ENDBRANCH  23  25
ENDBRANCH   8  23
TORSDOF 4
ENDMDL
MODEL 6
REMARK VINA RESULT:   -11.342      3.395     10.881
REMARK INTER + INTRA:         -14.673
REMARK INTER:                 -14.403
REMARK INTRA:                  -0.270
REMARK UNBOUND:                -0.678
REMARK SMILES Cc1cccc(C(=O)Nc2ccc3c(c2)CN(C(=O)c2cccc(C)c2)C(=O)C3)c1
REMARK SMILES IDX 10 1 11 2 12 3 13 4 14 5 15 6 16 7 17 8 27 9 28 10 29 11
REMARK SMILES IDX 9 12 7 13 8 14 6 16 2 17 3 18 30 19 4 20 5 21 1 22 18 23
REMARK SMILES IDX 19 24 20 25 21 26 26 27 22 28 24 29 23 30 25 31
REMARK H PARENT 9 15
ROOT
ATOM      1  C   UNL     1      10.947 -54.109 -22.453  1.00  0.00     0.041 A 
ATOM      2  C   UNL     1      10.530 -53.086 -21.602  1.00  0.00     0.026 A 
ATOM      3  C   UNL     1      10.903 -51.760 -21.846  1.00  0.00     0.007 A 
ATOM      4  C   UNL     1      11.708 -51.442 -22.944  1.00  0.00    -0.033 A 
ATOM      5  C   UNL     1      12.126 -52.459 -23.807  1.00  0.00    -0.022 A 
ATOM      6  C   UNL     1      11.739 -53.785 -23.563  1.00  0.00     0.032 A 
ATOM      7  C   UNL     1      12.936 -52.082 -25.013  1.00  0.00     0.164 C 
ATOM      8  N   UNL     1      13.824 -50.960 -24.739  1.00  0.00    -0.274 N 
ATOM      9  C   UNL     1      13.339 -49.840 -24.088  1.00  0.00     0.234 C 
ATOM     10  O   UNL     1      13.814 -48.711 -24.228  1.00  0.00    -0.274 OA
ATOM     11  C   UNL     1      12.083 -50.016 -23.245  1.00  0.00     0.136 C 
ENDROOT
BRANCH   1  12
ATOM     12  N   UNL     1      10.608 -55.467 -22.278  1.00  0.00    -0.322 N 
ATOM     13  C   UNL     1      11.044 -56.544 -23.030  1.00  0.00     0.255 C 
ATOM     14  O   UNL     1      11.761 -56.509 -24.021  1.00  0.00    -0.269 OA
ATOM     15  H   UNL     1       9.912 -55.661 -21.570  1.00  0.00     0.170 HD
BRANCH  13  16
ATOM     16  C   UNL     1      10.531 -57.868 -22.576  1.00  0.00     0.040 A 
ATOM     17  C   UNL     1       8.845 -59.612 -22.774  1.00  0.00    -0.050 A 
ATOM     18  C   UNL     1       9.504 -60.340 -21.775  1.00  0.00     0.003 A 
ATOM     19  C   UNL     1       9.362 -58.370 -23.166  1.00  0.00     0.017 A 
ATOM     20  C   UNL     1      10.680 -59.852 -21.201  1.00  0.00     0.001 A 
ATOM     21  C   UNL     1      11.199 -58.621 -21.602  1.00  0.00     0.014 A 
ATOM     22  C   UNL     1       7.573 -60.127 -23.379  1.00  0.00     0.044 C 
ENDBRANCH  13  16
ENDBRANCH   1  12
BRANCH   8  23
ATOM     23  C   UNL     1      15.117 -50.925 -25.241  1.00  0.00     0.260 C 
ATOM     24  O   UNL     1      15.385 -50.858 -26.438  1.00  0.00    -0.269 OA
BRANCH  23  25
ATOM     25  C   UNL     1      16.234 -50.814 -24.267  1.00  0.00     0.040 A 
ATOM     26  C   UNL     1      16.173 -51.544 -23.077  1.00  0.00     0.014 A 
ATOM     27  C   UNL     1      17.318 -49.961 -24.518  1.00  0.00     0.017 A 
ATOM     28  C   UNL     1      17.211 -51.448 -22.152  1.00  0.00     0.001 A 
ATOM     29  C   UNL     1      18.371 -49.873 -23.596  1.00  0.00    -0.050 A 
ATOM     30  C   UNL     1      18.305 -50.618 -22.412  1.00  0.00     0.003 A 
ATOM     31  C   UNL     1      19.516 -48.933 -23.838  1.00  0.00     0.044 C 
ENDBRANCH  23  25
ENDBRANCH   8  23
TORSDOF 4
ENDMDL
MODEL 7
REMARK VINA RESULT:   -10.852      1.766      2.271
REMARK INTER + INTRA:         -14.068
REMARK INTER:                 -15.532
REMARK INTRA:                   1.464
REMARK UNBOUND:                -0.678
REMARK SMILES Cc1cccc(C(=O)Nc2ccc3c(c2)CN(C(=O)c2cccc(C)c2)C(=O)C3)c1
REMARK SMILES IDX 10 1 11 2 12 3 13 4 14 5 15 6 16 7 17 8 27 9 28 10 29 11
REMARK SMILES IDX 9 12 7 13 8 14 6 16 2 17 3 18 30 19 4 20 5 21 1 22 18 23
REMARK SMILES IDX 19 24 20 25 21 26 26 27 22 28 24 29 23 30 25 31
REMARK H PARENT 9 15
ROOT
ATOM      1  C   UNL     1      11.349 -55.917 -22.596  1.00  0.00     0.041 A 
ATOM      2  C   UNL     1      11.228 -56.636 -21.406  1.00  0.00     0.026 A 
ATOM      3  C   UNL     1      11.310 -58.032 -21.406  1.00  0.00     0.007 A 
ATOM      4  C   UNL     1      11.506 -58.729 -22.601  1.00  0.00    -0.033 A 
ATOM      5  C   UNL     1      11.635 -58.019 -23.798  1.00  0.00    -0.022 A 
ATOM      6  C   UNL     1      11.563 -56.618 -23.790  1.00  0.00     0.032 A 
ATOM      7  C   UNL     1      11.908 -58.790 -25.058  1.00  0.00     0.164 C 
ATOM      8  N   UNL     1      11.238 -60.083 -25.057  1.00  0.00    -0.274 N 
ATOM      9  C   UNL     1      11.315 -60.898 -23.942  1.00  0.00     0.234 C 
ATOM     10  O   UNL     1      11.225 -62.127 -23.989  1.00  0.00    -0.274 OA
ATOM     11  C   UNL     1      11.639 -60.228 -22.613  1.00  0.00     0.136 C 
ENDROOT
BRANCH   1  12
ATOM     12  N   UNL     1      11.284 -54.510 -22.677  1.00  0.00    -0.322 N 
ATOM     13  C   UNL     1      10.734 -53.641 -21.752  1.00  0.00     0.255 C 
ATOM     14  O   UNL     1      10.151 -53.938 -20.717  1.00  0.00    -0.269 OA
ATOM     15  H   UNL     1      11.612 -54.102 -23.543  1.00  0.00     0.170 HD
BRANCH  13  16
ATOM     16  C   UNL     1      10.847 -52.198 -22.109  1.00  0.00     0.040 A 
ATOM     17  C   UNL     1      12.195 -50.395 -23.032  1.00  0.00    -0.050 A 
ATOM     18  C   UNL     1      11.138 -49.507 -22.799  1.00  0.00     0.003 A 
ATOM     19  C   UNL     1      12.044 -51.742 -22.677  1.00  0.00     0.017 A 
ATOM     20  C   UNL     1       9.935 -49.962 -22.252  1.00  0.00     0.001 A 
ATOM     21  C   UNL     1       9.784 -51.307 -21.912  1.00  0.00     0.014 A 
ATOM     22  C   UNL     1      13.492 -49.904 -23.603  1.00  0.00     0.044 C 
ENDBRANCH  13  16
ENDBRANCH   1  12
BRANCH   8  23
ATOM     23  C   UNL     1      10.638 -60.585 -26.202  1.00  0.00     0.260 C 
ATOM     24  O   UNL     1      11.067 -60.398 -27.338  1.00  0.00    -0.269 OA
BRANCH  23  25
ATOM     25  C   UNL     1       9.497 -61.522 -26.032  1.00  0.00     0.040 A 
ATOM     26  C   UNL     1       9.153 -62.373 -27.086  1.00  0.00     0.014 A 
ATOM     27  C   UNL     1       8.749 -61.529 -24.847  1.00  0.00     0.017 A 
ATOM     28  C   UNL     1       8.084 -63.255 -26.944  1.00  0.00     0.001 A 
ATOM     29  C   UNL     1       7.681 -62.424 -24.694  1.00  0.00    -0.050 A 
ATOM     30  C   UNL     1       7.353 -63.281 -25.753  1.00  0.00     0.003 A 
ATOM     31  C   UNL     1       6.851 -62.411 -23.444  1.00  0.00     0.044 C 
ENDBRANCH  23  25
ENDBRANCH   8  23
TORSDOF 4
ENDMDL
MODEL 8
REMARK VINA RESULT:   -10.448      3.358     11.045
REMARK INTER + INTRA:         -13.569
REMARK INTER:                 -13.319
REMARK INTRA:                  -0.250
REMARK UNBOUND:                -0.678
REMARK SMILES Cc1cccc(C(=O)Nc2ccc3c(c2)CN(C(=O)c2cccc(C)c2)C(=O)C3)c1
REMARK SMILES IDX 10 1 11 2 12 3 13 4 14 5 15 6 16 7 17 8 27 9 28 10 29 11
REMARK SMILES IDX 9 12 7 13 8 14 6 16 2 17 3 18 30 19 4 20 5 21 1 22 18 23
REMARK SMILES IDX 19 24 20 25 21 26 26 27 22 28 24 29 23 30 25 31
REMARK H PARENT 9 15
ROOT
ATOM      1  C   UNL     1      10.865 -53.382 -22.340  1.00  0.00     0.041 A 
ATOM      2  C   UNL     1      10.025 -52.399 -21.818  1.00  0.00     0.026 A 
ATOM      3  C   UNL     1      10.270 -51.045 -22.073  1.00  0.00     0.007 A 
ATOM      4  C   UNL     1      11.366 -50.657 -22.847  1.00  0.00    -0.033 A 
ATOM      5  C   UNL     1      12.211 -51.634 -23.381  1.00  0.00    -0.022 A 
ATOM      6  C   UNL     1      11.953 -52.991 -23.132  1.00  0.00     0.032 A 
ATOM      7  C   UNL     1      13.344 -51.194 -24.263  1.00  0.00     0.164 C 
ATOM      8  N   UNL     1      13.901 -49.919 -23.830  1.00  0.00    -0.274 N 
ATOM      9  C   UNL     1      13.057 -48.865 -23.529  1.00  0.00     0.234 C 
ATOM     10  O   UNL     1      13.385 -47.680 -23.627  1.00  0.00    -0.274 OA
ATOM     11  C   UNL     1      11.618 -49.208 -23.165  1.00  0.00     0.136 C 
ENDROOT
BRANCH   1  12
ATOM     12  N   UNL     1      10.682 -54.766 -22.135  1.00  0.00    -0.322 N 
ATOM     13  C   UNL     1      10.970 -55.791 -23.020  1.00  0.00     0.255 C 
ATOM     14  O   UNL     1      11.385 -55.679 -24.166  1.00  0.00    -0.269 OA
ATOM     15  H   UNL     1      10.222 -55.027 -21.273  1.00  0.00     0.170 HD
BRANCH  13  16
ATOM     16  C   UNL     1      10.694 -57.159 -22.498  1.00  0.00     0.040 A 
ATOM     17  C   UNL     1       9.363 -59.192 -22.625  1.00  0.00    -0.050 A 
ATOM     18  C   UNL     1      10.113 -59.730 -21.571  1.00  0.00     0.003 A 
ATOM     19  C   UNL     1       9.656 -57.900 -23.081  1.00  0.00     0.017 A 
ATOM     20  C   UNL     1      11.161 -59.002 -21.003  1.00  0.00     0.001 A 
ATOM     21  C   UNL     1      11.459 -57.721 -21.467  1.00  0.00     0.014 A 
ATOM     22  C   UNL     1       8.226 -59.966 -23.224  1.00  0.00     0.044 C 
ENDBRANCH  13  16
ENDBRANCH   1  12
BRANCH   8  23
ATOM     23  C   UNL     1      15.268 -49.687 -23.846  1.00  0.00     0.260 C 
ATOM     24  O   UNL     1      15.977 -49.704 -22.843  1.00  0.00    -0.269 OA
BRANCH  23  25
ATOM     25  C   UNL     1      15.932 -49.555 -25.169  1.00  0.00     0.040 A 
ATOM     26  C   UNL     1      17.327 -49.614 -25.238  1.00  0.00     0.014 A 
ATOM     27  C   UNL     1      15.176 -49.336 -26.329  1.00  0.00     0.017 A 
ATOM     28  C   UNL     1      17.965 -49.488 -26.470  1.00  0.00     0.001 A 
ATOM     29  C   UNL     1      15.813 -49.223 -27.572  1.00  0.00    -0.050 A 
ATOM     30  C   UNL     1      17.211 -49.296 -27.632  1.00  0.00     0.003 A 
ATOM     31  C   UNL     1      15.015 -48.949 -28.813  1.00  0.00     0.044 C 
ENDBRANCH  23  25
ENDBRANCH   8  23
TORSDOF 4
ENDMDL
MODEL 9
REMARK VINA RESULT:    -9.786      2.314      3.778
REMARK INTER + INTRA:         -12.753
REMARK INTER:                 -13.613
REMARK INTRA:                   0.860
REMARK UNBOUND:                -0.678
REMARK SMILES Cc1cccc(C(=O)Nc2ccc3c(c2)CN(C(=O)c2cccc(C)c2)C(=O)C3)c1
REMARK SMILES IDX 10 1 11 2 12 3 13 4 14 5 15 6 16 7 17 8 27 9 28 10 29 11
REMARK SMILES IDX 9 12 7 13 8 14 6 16 2 17 3 18 30 19 4 20 5 21 1 22 18 23
REMARK SMILES IDX 19 24 20 25 21 26 26 27 22 28 24 29 23 30 25 31
REMARK H PARENT 9 15
ROOT
ATOM      1  C   UNL     1       8.321 -57.977 -23.264  1.00  0.00     0.041 A 
ATOM      2  C   UNL     1       7.063 -58.269 -22.738  1.00  0.00     0.026 A 
ATOM      3  C   UNL     1       6.489 -59.531 -22.925  1.00  0.00     0.007 A 
ATOM      4  C   UNL     1       7.165 -60.516 -23.649  1.00  0.00    -0.033 A 
ATOM      5  C   UNL     1       8.429 -60.237 -24.174  1.00  0.00    -0.022 A 
ATOM      6  C   UNL     1       9.005 -58.973 -23.974  1.00  0.00     0.032 A 
ATOM      7  C   UNL     1       9.161 -61.333 -24.893  1.00  0.00     0.164 C 
ATOM      8  N   UNL     1       8.250 -62.197 -25.632  1.00  0.00    -0.274 N 
ATOM      9  C   UNL     1       7.104 -62.674 -25.019  1.00  0.00     0.234 C 
ATOM     10  O   UNL     1       6.551 -63.729 -25.337  1.00  0.00    -0.274 OA
ATOM     11  C   UNL     1       6.580 -61.892 -23.823  1.00  0.00     0.136 C 
ENDROOT
BRANCH   1  12
ATOM     12  N   UNL     1       8.969 -56.733 -23.113  1.00  0.00    -0.322 N 
ATOM     13  C   UNL     1      10.273 -56.510 -22.706  1.00  0.00     0.255 C 
ATOM     14  O   UNL     1      11.088 -57.351 -22.349  1.00  0.00    -0.269 OA
ATOM     15  H   UNL     1       8.391 -55.914 -23.248  1.00  0.00     0.170 HD
BRANCH  13  16
ATOM     16  C   UNL     1      10.680 -55.076 -22.676  1.00  0.00     0.040 A 
ATOM     17  C   UNL     1      11.851 -53.235 -23.751  1.00  0.00    -0.050 A 
ATOM     18  C   UNL     1      11.484 -52.401 -22.687  1.00  0.00     0.003 A 
ATOM     19  C   UNL     1      11.449 -54.577 -23.735  1.00  0.00     0.017 A 
ATOM     20  C   UNL     1      10.700 -52.891 -21.640  1.00  0.00     0.001 A 
ATOM     21  C   UNL     1      10.291 -54.225 -21.634  1.00  0.00     0.014 A 
ATOM     22  C   UNL     1      12.708 -52.714 -24.867  1.00  0.00     0.044 C 
ENDBRANCH  13  16
ENDBRANCH   1  12
BRANCH   8  23
ATOM     23  C   UNL     1       8.572 -62.674 -26.893  1.00  0.00     0.260 C 
ATOM     24  O   UNL     1       8.081 -63.686 -27.389  1.00  0.00    -0.269 OA
BRANCH  23  25
ATOM     25  C   UNL     1       9.450 -61.833 -27.748  1.00  0.00     0.040 A 
ATOM     26  C   UNL     1       9.396 -61.987 -29.136  1.00  0.00     0.014 A 
ATOM     27  C   UNL     1      10.349 -60.925 -27.173  1.00  0.00     0.017 A 
ATOM     28  C   UNL     1      10.215 -61.209 -29.951  1.00  0.00     0.001 A 
ATOM     29  C   UNL     1      11.165 -60.130 -27.990  1.00  0.00    -0.050 A 
ATOM     30  C   UNL     1      11.094 -60.284 -29.380  1.00  0.00     0.003 A 
ATOM     31  C   UNL     1      12.158 -59.183 -27.381  1.00  0.00     0.044 C 
ENDBRANCH  23  25
ENDBRANCH   8  23
TORSDOF 4
ENDMDL
