MODEL 1
REMARK VINA RESULT:   -10.095      0.000      0.000
REMARK INTER + INTRA:         -17.005
REMARK INTER:                 -15.996
REMARK INTRA:                  -1.008
REMARK UNBOUND:                -1.008
REMARK SMILES O=C(C[n+]1ccccc1)N/N=C/c1ccc(/C=N/NC(=O)C[n+]2ccccc2)cc1
REMARK SMILES IDX 13 1 14 2 15 3 16 4 29 5 30 6 12 7 11 8 10 9 2 10 1 11 3 13
REMARK SMILES IDX 4 14 5 15 9 16 6 17 8 18 7 19 17 20 18 21 19 22 20 23 21 25
REMARK SMILES IDX 22 26 23 27 24 28 28 29 25 30 27 31 26 32
REMARK H PARENT 10 12 19 24
ROOT
ATOM      1  C   UNL     1      11.328 -55.979 -23.022  1.00  0.00    -0.005 A 
ATOM      2  C   UNL     1      11.337 -54.977 -23.999  1.00  0.00     0.010 A 
ATOM      3  C   UNL     1      11.002 -53.663 -23.653  1.00  0.00     0.010 A 
ATOM      4  C   UNL     1      10.659 -53.355 -22.332  1.00  0.00    -0.005 A 
ATOM      5  C   UNL     1      10.651 -54.358 -21.357  1.00  0.00     0.010 A 
ATOM      6  C   UNL     1      10.986 -55.670 -21.703  1.00  0.00     0.010 A 
ENDROOT
BRANCH   1   7
ATOM      7  C   UNL     1      11.689 -57.361 -23.414  1.00  0.00     0.141 C 
BRANCH   7   8
ATOM      8  N   UNL     1      12.046 -57.650 -24.626  1.00  0.00    -0.181 NA
BRANCH   8   9
ATOM      9  N   UNL     1      11.918 -58.937 -25.076  1.00  0.00    -0.242 N 
ATOM     10  C   UNL     1      10.714 -59.636 -25.140  1.00  0.00     0.305 C 
ATOM     11  O   UNL     1       9.595 -59.165 -24.950  1.00  0.00    -0.266 OA
ATOM     12  H   UNL     1      12.791 -59.453 -24.975  1.00  0.00     0.193 HD
BRANCH  10  13
ATOM     13  C   UNL     1      10.902 -61.104 -25.474  1.00  0.00     0.458 C 
BRANCH  13  14
ATOM     14  N   UNL     1      10.113 -61.959 -24.559  1.00  0.00    -0.196 N 
ATOM     15  C   UNL     1       8.904 -62.428 -24.956  1.00  0.00     0.308 A 
ATOM     16  C   UNL     1      10.613 -62.290 -23.346  1.00  0.00     0.308 A 
ATOM     17  C   UNL     1       8.146 -63.232 -24.115  1.00  0.00     0.071 A 
ATOM     18  C   UNL     1       9.886 -63.092 -22.474  1.00  0.00     0.071 A 
ATOM     19  C   UNL     1       8.640 -63.565 -22.861  1.00  0.00     0.012 A 
ENDBRANCH  13  14
ENDBRANCH  10  13
ENDBRANCH   8   9
ENDBRANCH   7   8
ENDBRANCH   1   7
BRANCH   4  20
ATOM     20  C   UNL     1      10.308 -51.958 -21.991  1.00  0.00     0.141 C 
BRANCH  20  21
ATOM     21  N   UNL     1      11.107 -51.208 -21.299  1.00  0.00    -0.181 NA
BRANCH  21  22
ATOM     22  N   UNL     1      12.211 -50.667 -21.904  1.00  0.00    -0.242 N 
ATOM     23  C   UNL     1      12.185 -49.568 -22.761  1.00  0.00     0.305 C 
ATOM     24  H   UNL     1      12.957 -51.356 -21.996  1.00  0.00     0.193 HD
ATOM     25  O   UNL     1      11.215 -48.846 -22.979  1.00  0.00    -0.266 OA
BRANCH  23  26
ATOM     26  C   UNL     1      13.516 -49.325 -23.447  1.00  0.00     0.458 C 
BRANCH  26  27
ATOM     27  N   UNL     1      13.956 -50.528 -24.189  1.00  0.00    -0.196 N 
ATOM     28  C   UNL     1      13.154 -51.054 -25.146  1.00  0.00     0.308 A 
ATOM     29  C   UNL     1      15.165 -51.077 -23.927  1.00  0.00     0.308 A 
ATOM     30  C   UNL     1      13.545 -52.183 -25.857  1.00  0.00     0.071 A 
ATOM     31  C   UNL     1      15.595 -52.207 -24.614  1.00  0.00     0.071 A 
ATOM     32  C   UNL     1      14.776 -52.766 -25.585  1.00  0.00     0.012 A 
ENDBRANCH  26  27
ENDBRANCH  23  26
ENDBRANCH  21  22
ENDBRANCH  20  21
ENDBRANCH   4  20
TORSDOF 10
ENDMDL
MODEL 2
REMARK VINA RESULT:   -10.000      0.187      9.967
REMARK INTER + INTRA:         -16.854
REMARK INTER:                 -15.833
REMARK INTRA:                  -1.021
REMARK UNBOUND:                -1.008
REMARK SMILES O=C(C[n+]1ccccc1)N/N=C/c1ccc(/C=N/NC(=O)C[n+]2ccccc2)cc1
REMARK SMILES IDX 13 1 14 2 15 3 16 4 29 5 30 6 12 7 11 8 10 9 2 10 1 11 3 13
REMARK SMILES IDX 4 14 5 15 9 16 6 17 8 18 7 19 17 20 18 21 19 22 20 23 21 25
REMARK SMILES IDX 22 26 23 27 24 28 28 29 25 30 27 31 26 32
REMARK H PARENT 10 12 19 24
ROOT
ATOM      1  C   UNL     1      10.600 -53.261 -22.365  1.00  0.00    -0.005 A 
ATOM      2  C   UNL     1      10.558 -54.277 -21.403  1.00  0.00     0.010 A 
ATOM      3  C   UNL     1      10.929 -55.581 -21.748  1.00  0.00     0.010 A 
ATOM      4  C   UNL     1      11.341 -55.866 -23.055  1.00  0.00    -0.005 A 
ATOM      5  C   UNL     1      11.383 -54.850 -24.015  1.00  0.00     0.010 A 
ATOM      6  C   UNL     1      11.013 -53.547 -23.670  1.00  0.00     0.010 A 
ENDROOT
BRANCH   1   7
ATOM      7  C   UNL     1      10.205 -51.889 -21.973  1.00  0.00     0.141 C 
BRANCH   7   8
ATOM      8  N   UNL     1      10.954 -51.163 -21.202  1.00  0.00    -0.181 NA
BRANCH   8   9
ATOM      9  N   UNL     1      12.116 -50.635 -21.699  1.00  0.00    -0.242 N 
ATOM     10  C   UNL     1      12.183 -49.548 -22.568  1.00  0.00     0.305 C 
ATOM     11  O   UNL     1      11.244 -48.824 -22.891  1.00  0.00    -0.266 OA
ATOM     12  H   UNL     1      12.863 -51.328 -21.706  1.00  0.00     0.193 HD
BRANCH  10  13
ATOM     13  C   UNL     1      13.578 -49.319 -23.118  1.00  0.00     0.458 C 
BRANCH  13  14
ATOM     14  N   UNL     1      13.991 -50.440 -23.992  1.00  0.00    -0.196 N 
ATOM     15  C   UNL     1      13.180 -50.836 -25.003  1.00  0.00     0.308 A 
ATOM     16  C   UNL     1      15.186 -51.044 -23.793  1.00  0.00     0.308 A 
ATOM     17  C   UNL     1      13.547 -51.885 -25.837  1.00  0.00     0.071 A 
ATOM     18  C   UNL     1      15.591 -52.099 -24.604  1.00  0.00     0.071 A 
ATOM     19  C   UNL     1      14.762 -52.524 -25.633  1.00  0.00     0.012 A 
ENDBRANCH  13  14
ENDBRANCH  10  13
ENDBRANCH   8   9
ENDBRANCH   7   8
ENDBRANCH   1   7
BRANCH   4  20
ATOM     20  C   UNL     1      11.727 -57.254 -23.396  1.00  0.00     0.141 C 
BRANCH  20  21
ATOM     21  N   UNL     1      12.010 -57.598 -24.613  1.00  0.00    -0.181 NA
BRANCH  21  22
ATOM     22  N   UNL     1      11.997 -58.924 -24.957  1.00  0.00    -0.242 N 
ATOM     23  C   UNL     1      10.845 -59.699 -25.076  1.00  0.00     0.305 C 
ATOM     24  H   UNL     1      12.881 -59.374 -24.723  1.00  0.00     0.193 HD
ATOM     25  O   UNL     1       9.689 -59.284 -25.040  1.00  0.00    -0.266 OA
BRANCH  23  26
ATOM     26  C   UNL     1      11.144 -61.176 -25.256  1.00  0.00     0.458 C 
BRANCH  26  27
ATOM     27  N   UNL     1      10.212 -62.004 -24.459  1.00  0.00    -0.196 N 
ATOM     28  C   UNL     1       9.040 -62.409 -25.006  1.00  0.00     0.308 A 
ATOM     29  C   UNL     1      10.547 -62.376 -23.201  1.00  0.00     0.308 A 
ATOM     30  C   UNL     1       8.148 -63.188 -24.278  1.00  0.00     0.071 A 
ATOM     31  C   UNL     1       9.684 -63.154 -22.438  1.00  0.00     0.071 A 
ATOM     32  C   UNL     1       8.473 -63.561 -22.981  1.00  0.00     0.012 A 
ENDBRANCH  26  27
ENDBRANCH  23  26
ENDBRANCH  21  22
ENDBRANCH  20  21
ENDBRANCH   4  20
TORSDOF 10
ENDMDL
MODEL 3
REMARK VINA RESULT:    -9.762      1.716      2.990
REMARK INTER + INTRA:         -16.477
REMARK INTER:                 -16.148
REMARK INTRA:                  -0.330
REMARK UNBOUND:                -1.008
REMARK SMILES O=C(C[n+]1ccccc1)N/N=C/c1ccc(/C=N/NC(=O)C[n+]2ccccc2)cc1
REMARK SMILES IDX 13 1 14 2 15 3 16 4 29 5 30 6 12 7 11 8 10 9 2 10 1 11 3 13
REMARK SMILES IDX 4 14 5 15 9 16 6 17 8 18 7 19 17 20 18 21 19 22 20 23 21 25
REMARK SMILES IDX 22 26 23 27 24 28 28 29 25 30 27 31 26 32
REMARK H PARENT 10 12 19 24
ROOT
ATOM      1  C   UNL     1      11.249 -56.048 -22.989  1.00  0.00    -0.005 A 
ATOM      2  C   UNL     1      11.392 -55.085 -23.994  1.00  0.00     0.010 A 
ATOM      3  C   UNL     1      11.213 -53.730 -23.693  1.00  0.00     0.010 A 
ATOM      4  C   UNL     1      10.891 -53.343 -22.387  1.00  0.00    -0.005 A 
ATOM      5  C   UNL     1      10.749 -54.307 -21.384  1.00  0.00     0.010 A 
ATOM      6  C   UNL     1      10.928 -55.660 -21.685  1.00  0.00     0.010 A 
ENDROOT
BRANCH   1   7
ATOM      7  C   UNL     1      11.446 -57.475 -23.334  1.00  0.00     0.141 C 
BRANCH   7   8
ATOM      8  N   UNL     1      12.109 -57.831 -24.390  1.00  0.00    -0.181 NA
BRANCH   8   9
ATOM      9  N   UNL     1      11.847 -59.043 -24.971  1.00  0.00    -0.242 N 
ATOM     10  C   UNL     1      10.582 -59.624 -25.053  1.00  0.00     0.305 C 
ATOM     11  O   UNL     1       9.519 -59.082 -24.760  1.00  0.00    -0.266 OA
ATOM     12  H   UNL     1      12.672 -59.640 -24.968  1.00  0.00     0.193 HD
BRANCH  10  13
ATOM     13  C   UNL     1      10.624 -61.056 -25.554  1.00  0.00     0.458 C 
BRANCH  13  14
ATOM     14  N   UNL     1       9.945 -61.966 -24.604  1.00  0.00    -0.196 N 
ATOM     15  C   UNL     1       8.745 -62.505 -24.934  1.00  0.00     0.308 A 
ATOM     16  C   UNL     1      10.537 -62.277 -23.428  1.00  0.00     0.308 A 
ATOM     17  C   UNL     1       8.090 -63.363 -24.060  1.00  0.00     0.071 A 
ATOM     18  C   UNL     1       9.914 -63.131 -22.524  1.00  0.00     0.071 A 
ATOM     19  C   UNL     1       8.679 -63.676 -22.842  1.00  0.00     0.012 A 
ENDBRANCH  13  14
ENDBRANCH  10  13
ENDBRANCH   8   9
ENDBRANCH   7   8
ENDBRANCH   1   7
BRANCH   4  20
ATOM     20  C   UNL     1      10.706 -51.904 -22.094  1.00  0.00     0.141 C 
BRANCH  20  21
ATOM     21  N   UNL     1      11.428 -51.295 -21.205  1.00  0.00    -0.181 NA
BRANCH  21  22
ATOM     22  N   UNL     1      11.980 -50.078 -21.507  1.00  0.00    -0.242 N 
ATOM     23  C   UNL     1      12.973 -49.876 -22.465  1.00  0.00     0.305 C 
ATOM     24  H   UNL     1      11.903 -49.433 -20.722  1.00  0.00     0.193 HD
ATOM     25  O   UNL     1      13.384 -50.712 -23.266  1.00  0.00    -0.266 OA
BRANCH  23  26
ATOM     26  C   UNL     1      13.543 -48.471 -22.434  1.00  0.00     0.458 C 
BRANCH  26  27
ATOM     27  N   UNL     1      12.515 -47.476 -22.815  1.00  0.00    -0.196 N 
ATOM     28  C   UNL     1      12.130 -46.534 -21.920  1.00  0.00     0.308 A 
ATOM     29  C   UNL     1      11.987 -47.496 -24.061  1.00  0.00     0.308 A 
ATOM     30  C   UNL     1      11.168 -45.589 -22.254  1.00  0.00     0.071 A 
ATOM     31  C   UNL     1      11.021 -46.569 -24.437  1.00  0.00     0.071 A 
ATOM     32  C   UNL     1      10.606 -45.609 -23.524  1.00  0.00     0.012 A 
ENDBRANCH  26  27
ENDBRANCH  23  26
ENDBRANCH  21  22
ENDBRANCH  20  21
ENDBRANCH   4  20
TORSDOF 10
ENDMDL
MODEL 4
REMARK VINA RESULT:    -9.742      1.812     11.203
REMARK INTER + INTRA:         -16.445
REMARK INTER:                 -15.889
REMARK INTRA:                  -0.556
REMARK UNBOUND:                -1.008
REMARK SMILES O=C(C[n+]1ccccc1)N/N=C/c1ccc(/C=N/NC(=O)C[n+]2ccccc2)cc1
REMARK SMILES IDX 13 1 14 2 15 3 16 4 29 5 30 6 12 7 11 8 10 9 2 10 1 11 3 13
REMARK SMILES IDX 4 14 5 15 9 16 6 17 8 18 7 19 17 20 18 21 19 22 20 23 21 25
REMARK SMILES IDX 22 26 23 27 24 28 28 29 25 30 27 31 26 32
REMARK H PARENT 10 12 19 24
ROOT
ATOM      1  C   UNL     1      10.861 -53.151 -22.274  1.00  0.00    -0.005 A 
ATOM      2  C   UNL     1      11.228 -53.539 -23.567  1.00  0.00     0.010 A 
ATOM      3  C   UNL     1      11.391 -54.896 -23.869  1.00  0.00     0.010 A 
ATOM      4  C   UNL     1      11.186 -55.860 -22.876  1.00  0.00    -0.005 A 
ATOM      5  C   UNL     1      10.818 -55.470 -21.584  1.00  0.00     0.010 A 
ATOM      6  C   UNL     1      10.656 -54.116 -21.283  1.00  0.00     0.010 A 
ENDROOT
BRANCH   1   7
ATOM      7  C   UNL     1      10.693 -51.709 -21.981  1.00  0.00     0.141 C 
BRANCH   7   8
ATOM      8  N   UNL     1      11.542 -51.065 -21.242  1.00  0.00    -0.181 NA
BRANCH   8   9
ATOM      9  N   UNL     1      12.101 -49.907 -21.714  1.00  0.00    -0.242 N 
ATOM     10  C   UNL     1      13.157 -49.852 -22.622  1.00  0.00     0.305 C 
ATOM     11  O   UNL     1      13.631 -50.804 -23.236  1.00  0.00    -0.266 OA
ATOM     12  H   UNL     1      11.962 -49.137 -21.061  1.00  0.00     0.193 HD
BRANCH  10  13
ATOM     13  C   UNL     1      13.707 -48.449 -22.800  1.00  0.00     0.458 C 
BRANCH  13  14
ATOM     14  N   UNL     1      12.611 -47.473 -22.996  1.00  0.00    -0.196 N 
ATOM     15  C   UNL     1      11.975 -47.410 -24.191  1.00  0.00     0.308 A 
ATOM     16  C   UNL     1      12.233 -46.670 -21.974  1.00  0.00     0.308 A 
ATOM     17  C   UNL     1      10.943 -46.504 -24.398  1.00  0.00     0.071 A 
ATOM     18  C   UNL     1      11.206 -45.748 -22.139  1.00  0.00     0.071 A 
ATOM     19  C   UNL     1      10.558 -45.663 -23.363  1.00  0.00     0.012 A 
ENDBRANCH  13  14
ENDBRANCH  10  13
ENDBRANCH   8   9
ENDBRANCH   7   8
ENDBRANCH   1   7
BRANCH   4  20
ATOM     20  C   UNL     1      11.365 -57.289 -23.220  1.00  0.00     0.141 C 
BRANCH  20  21
ATOM     21  N   UNL     1      10.434 -57.964 -23.818  1.00  0.00    -0.181 NA
BRANCH  21  22
ATOM     22  N   UNL     1      10.716 -59.212 -24.306  1.00  0.00    -0.242 N 
ATOM     23  C   UNL     1       9.953 -59.879 -25.262  1.00  0.00     0.305 C 
ATOM     24  H   UNL     1      11.268 -59.752 -23.640  1.00  0.00     0.193 HD
ATOM     25  O   UNL     1       9.023 -59.399 -25.906  1.00  0.00    -0.266 OA
BRANCH  23  26
ATOM     26  C   UNL     1      10.379 -61.323 -25.453  1.00  0.00     0.458 C 
BRANCH  26  27
ATOM     27  N   UNL     1       9.591 -62.224 -24.582  1.00  0.00    -0.196 N 
ATOM     28  C   UNL     1      10.087 -62.590 -23.375  1.00  0.00     0.308 A 
ATOM     29  C   UNL     1       8.372 -62.654 -24.983  1.00  0.00     0.308 A 
ATOM     30  C   UNL     1       9.367 -63.435 -22.539  1.00  0.00     0.071 A 
ATOM     31  C   UNL     1       7.618 -63.500 -24.178  1.00  0.00     0.071 A 
ATOM     32  C   UNL     1       8.122 -63.897 -22.947  1.00  0.00     0.012 A 
ENDBRANCH  26  27
ENDBRANCH  23  26
ENDBRANCH  21  22
ENDBRANCH  20  21
ENDBRANCH   4  20
TORSDOF 10
ENDMDL
MODEL 5
REMARK VINA RESULT:    -9.527      3.121      4.520
REMARK INTER + INTRA:         -16.105
REMARK INTER:                 -15.740
REMARK INTRA:                  -0.365
REMARK UNBOUND:                -1.008
REMARK SMILES O=C(C[n+]1ccccc1)N/N=C/c1ccc(/C=N/NC(=O)C[n+]2ccccc2)cc1
REMARK SMILES IDX 13 1 14 2 15 3 16 4 29 5 30 6 12 7 11 8 10 9 2 10 1 11 3 13
REMARK SMILES IDX 4 14 5 15 9 16 6 17 8 18 7 19 17 20 18 21 19 22 20 23 21 25
REMARK SMILES IDX 22 26 23 27 24 28 28 29 25 30 27 31 26 32
REMARK H PARENT 10 12 19 24
ROOT
ATOM      1  C   UNL     1      11.026 -54.750 -22.680  1.00  0.00    -0.005 A 
ATOM      2  C   UNL     1      10.628 -54.170 -21.470  1.00  0.00     0.010 A 
ATOM      3  C   UNL     1      10.786 -52.793 -21.271  1.00  0.00     0.010 A 
ATOM      4  C   UNL     1      11.340 -52.002 -22.283  1.00  0.00    -0.005 A 
ATOM      5  C   UNL     1      11.737 -52.584 -23.491  1.00  0.00     0.010 A 
ATOM      6  C   UNL     1      11.579 -53.958 -23.690  1.00  0.00     0.010 A 
ENDROOT
BRANCH   1   7
ATOM      7  C   UNL     1      10.846 -56.208 -22.866  1.00  0.00     0.141 C 
BRANCH   7   8
ATOM      8  N   UNL     1      11.352 -56.828 -23.886  1.00  0.00    -0.181 NA
BRANCH   8   9
ATOM      9  N   UNL     1      11.820 -58.106 -23.732  1.00  0.00    -0.242 N 
ATOM     10  C   UNL     1      12.075 -58.987 -24.782  1.00  0.00     0.305 C 
ATOM     11  O   UNL     1      12.064 -58.706 -25.978  1.00  0.00    -0.266 OA
ATOM     12  H   UNL     1      11.583 -58.478 -22.814  1.00  0.00     0.193 HD
BRANCH  10  13
ATOM     13  C   UNL     1      12.379 -60.396 -24.308  1.00  0.00     0.458 C 
BRANCH  13  14
ATOM     14  N   UNL     1      11.167 -61.243 -24.362  1.00  0.00    -0.196 N 
ATOM     15  C   UNL     1      10.846 -62.022 -23.300  1.00  0.00     0.308 A 
ATOM     16  C   UNL     1      10.372 -61.214 -25.457  1.00  0.00     0.308 A 
ATOM     17  C   UNL     1       9.713 -62.825 -23.327  1.00  0.00     0.071 A 
ATOM     18  C   UNL     1       9.229 -62.003 -25.525  1.00  0.00     0.071 A 
ATOM     19  C   UNL     1       8.899 -62.818 -24.451  1.00  0.00     0.012 A 
ENDBRANCH  13  14
ENDBRANCH  10  13
ENDBRANCH   8   9
ENDBRANCH   7   8
ENDBRANCH   1   7
BRANCH   4  20
ATOM     20  C   UNL     1      11.498 -50.549 -22.048  1.00  0.00     0.141 C 
BRANCH  20  21
ATOM     21  N   UNL     1      10.626 -49.694 -22.485  1.00  0.00    -0.181 NA
BRANCH  21  22
ATOM     22  N   UNL     1      11.055 -48.587 -23.169  1.00  0.00    -0.242 N 
ATOM     23  C   UNL     1      10.750 -47.273 -22.818  1.00  0.00     0.305 C 
ATOM     24  H   UNL     1      11.260 -48.811 -24.142  1.00  0.00     0.193 HD
ATOM     25  O   UNL     1      10.191 -46.914 -21.784  1.00  0.00    -0.266 OA
BRANCH  23  26
ATOM     26  C   UNL     1      11.178 -46.268 -23.871  1.00  0.00     0.458 C 
BRANCH  26  27
ATOM     27  N   UNL     1      11.502 -44.963 -23.253  1.00  0.00    -0.196 N 
ATOM     28  C   UNL     1      12.684 -44.801 -22.611  1.00  0.00     0.308 A 
ATOM     29  C   UNL     1      10.630 -43.932 -23.358  1.00  0.00     0.308 A 
ATOM     30  C   UNL     1      13.012 -43.585 -22.024  1.00  0.00     0.071 A 
ATOM     31  C   UNL     1      10.919 -42.699 -22.785  1.00  0.00     0.071 A 
ATOM     32  C   UNL     1      12.119 -42.525 -22.110  1.00  0.00     0.012 A 
ENDBRANCH  26  27
ENDBRANCH  23  26
ENDBRANCH  21  22
ENDBRANCH  20  21
ENDBRANCH   4  20
TORSDOF 10
ENDMDL
MODEL 6
REMARK VINA RESULT:    -9.438      2.704     11.808
REMARK INTER + INTRA:         -15.963
REMARK INTER:                 -15.632
REMARK INTRA:                  -0.331
REMARK UNBOUND:                -1.008
REMARK SMILES O=C(C[n+]1ccccc1)N/N=C/c1ccc(/C=N/NC(=O)C[n+]2ccccc2)cc1
REMARK SMILES IDX 13 1 14 2 15 3 16 4 29 5 30 6 12 7 11 8 10 9 2 10 1 11 3 13
REMARK SMILES IDX 4 14 5 15 9 16 6 17 8 18 7 19 17 20 18 21 19 22 20 23 21 25
REMARK SMILES IDX 22 26 23 27 24 28 28 29 25 30 27 31 26 32
REMARK H PARENT 10 12 19 24
ROOT
ATOM      1  C   UNL     1      11.112 -52.607 -22.261  1.00  0.00    -0.005 A 
ATOM      2  C   UNL     1      10.710 -53.471 -21.236  1.00  0.00     0.010 A 
ATOM      3  C   UNL     1      10.639 -54.848 -21.472  1.00  0.00     0.010 A 
ATOM      4  C   UNL     1      10.972 -55.358 -22.733  1.00  0.00    -0.005 A 
ATOM      5  C   UNL     1      11.375 -54.493 -23.755  1.00  0.00     0.010 A 
ATOM      6  C   UNL     1      11.445 -53.117 -23.519  1.00  0.00     0.010 A 
ENDROOT
BRANCH   1   7
ATOM      7  C   UNL     1      11.181 -51.153 -21.984  1.00  0.00     0.141 C 
BRANCH   7   8
ATOM      8  N   UNL     1      12.115 -50.411 -22.491  1.00  0.00    -0.181 NA
BRANCH   8   9
ATOM      9  N   UNL     1      12.336 -49.162 -21.975  1.00  0.00    -0.242 N 
ATOM     10  C   UNL     1      11.741 -47.994 -22.449  1.00  0.00     0.305 C 
ATOM     11  O   UNL     1      10.838 -47.930 -23.280  1.00  0.00    -0.266 OA
ATOM     12  H   UNL     1      13.241 -49.109 -21.509  1.00  0.00     0.193 HD
BRANCH  10  13
ATOM     13  C   UNL     1      12.330 -46.740 -21.830  1.00  0.00     0.458 C 
BRANCH  13  14
ATOM     14  N   UNL     1      11.996 -45.546 -22.639  1.00  0.00    -0.196 N 
ATOM     15  C   UNL     1      10.797 -44.937 -22.471  1.00  0.00     0.308 A 
ATOM     16  C   UNL     1      12.899 -45.054 -23.519  1.00  0.00     0.308 A 
ATOM     17  C   UNL     1      10.461 -43.814 -23.217  1.00  0.00     0.071 A 
ATOM     18  C   UNL     1      12.603 -43.933 -24.286  1.00  0.00     0.071 A 
ATOM     19  C   UNL     1      11.372 -43.310 -24.136  1.00  0.00     0.012 A 
ENDBRANCH  13  14
ENDBRANCH  10  13
ENDBRANCH   8   9
ENDBRANCH   7   8
ENDBRANCH   1   7
BRANCH   4  20
ATOM     20  C   UNL     1      10.888 -56.818 -22.958  1.00  0.00     0.141 C 
BRANCH  20  21
ATOM     21  N   UNL     1      11.725 -57.433 -23.735  1.00  0.00    -0.181 NA
BRANCH  21  22
ATOM     22  N   UNL     1      11.329 -58.575 -24.379  1.00  0.00    -0.242 N 
ATOM     23  C   UNL     1      12.118 -59.714 -24.526  1.00  0.00     0.305 C 
ATOM     24  H   UNL     1      10.600 -58.379 -25.064  1.00  0.00     0.193 HD
ATOM     25  O   UNL     1      13.203 -59.915 -23.985  1.00  0.00    -0.266 OA
BRANCH  23  26
ATOM     26  C   UNL     1      11.505 -60.738 -25.463  1.00  0.00     0.458 C 
BRANCH  26  27
ATOM     27  N   UNL     1      10.571 -61.626 -24.735  1.00  0.00    -0.196 N 
ATOM     28  C   UNL     1       9.406 -61.996 -25.320  1.00  0.00     0.308 A 
ATOM     29  C   UNL     1      10.897 -62.085 -23.504  1.00  0.00     0.308 A 
ATOM     30  C   UNL     1       8.513 -62.829 -24.658  1.00  0.00     0.071 A 
ATOM     31  C   UNL     1      10.032 -62.920 -22.806  1.00  0.00     0.071 A 
ATOM     32  C   UNL     1       8.828 -63.293 -23.387  1.00  0.00     0.012 A 
ENDBRANCH  26  27
ENDBRANCH  23  26
ENDBRANCH  21  22
ENDBRANCH  20  21
ENDBRANCH   4  20
TORSDOF 10
ENDMDL
MODEL 7
REMARK VINA RESULT:    -9.438      2.377      3.967
REMARK INTER + INTRA:         -15.963
REMARK INTER:                 -14.950
REMARK INTRA:                  -1.013
REMARK UNBOUND:                -1.008
REMARK SMILES O=C(C[n+]1ccccc1)N/N=C/c1ccc(/C=N/NC(=O)C[n+]2ccccc2)cc1
REMARK SMILES IDX 13 1 14 2 15 3 16 4 29 5 30 6 12 7 11 8 10 9 2 10 1 11 3 13
REMARK SMILES IDX 4 14 5 15 9 16 6 17 8 18 7 19 17 20 18 21 19 22 20 23 21 25
REMARK SMILES IDX 22 26 23 27 24 28 28 29 25 30 27 31 26 32
REMARK H PARENT 10 12 19 24
ROOT
ATOM      1  C   UNL     1      11.831 -59.781 -23.479  1.00  0.00    -0.005 A 
ATOM      2  C   UNL     1      11.381 -59.346 -22.227  1.00  0.00     0.010 A 
ATOM      3  C   UNL     1      11.137 -57.986 -22.007  1.00  0.00     0.010 A 
ATOM      4  C   UNL     1      11.342 -57.064 -23.041  1.00  0.00    -0.005 A 
ATOM      5  C   UNL     1      11.790 -57.501 -24.291  1.00  0.00     0.010 A 
ATOM      6  C   UNL     1      12.035 -58.859 -24.511  1.00  0.00     0.010 A 
ENDROOT
BRANCH   1   7
ATOM      7  C   UNL     1      12.080 -61.226 -23.687  1.00  0.00     0.141 C 
BRANCH   7   8
ATOM      8  N   UNL     1      11.292 -62.127 -23.187  1.00  0.00    -0.181 NA
BRANCH   8   9
ATOM      9  N   UNL     1       9.968 -62.129 -23.535  1.00  0.00    -0.242 N 
ATOM     10  C   UNL     1       9.489 -61.925 -24.828  1.00  0.00     0.305 C 
ATOM     11  O   UNL     1      10.171 -61.865 -25.848  1.00  0.00    -0.266 OA
ATOM     12  H   UNL     1       9.376 -61.892 -22.739  1.00  0.00     0.193 HD
BRANCH  10  13
ATOM     13  C   UNL     1       7.981 -61.768 -24.880  1.00  0.00     0.458 C 
BRANCH  13  14
ATOM     14  N   UNL     1       7.559 -60.504 -24.235  1.00  0.00    -0.196 N 
ATOM     15  C   UNL     1       8.234 -59.359 -24.500  1.00  0.00     0.308 A 
ATOM     16  C   UNL     1       6.488 -60.494 -23.407  1.00  0.00     0.308 A 
ATOM     17  C   UNL     1       7.857 -58.160 -23.908  1.00  0.00     0.071 A 
ATOM     18  C   UNL     1       6.078 -59.316 -22.793  1.00  0.00     0.071 A 
ATOM     19  C   UNL     1       6.770 -58.140 -23.044  1.00  0.00     0.012 A 
ENDBRANCH  13  14
ENDBRANCH  10  13
ENDBRANCH   8   9
ENDBRANCH   7   8
ENDBRANCH   1   7
BRANCH   4  20
ATOM     20  C   UNL     1      11.077 -55.631 -22.783  1.00  0.00     0.141 C 
BRANCH  20  21
ATOM     21  N   UNL     1      10.777 -55.200 -21.598  1.00  0.00    -0.181 NA
BRANCH  21  22
ATOM     22  N   UNL     1      11.124 -53.924 -21.239  1.00  0.00    -0.242 N 
ATOM     23  C   UNL     1      10.442 -52.777 -21.642  1.00  0.00     0.305 C 
ATOM     24  H   UNL     1      12.114 -53.862 -21.005  1.00  0.00     0.193 HD
ATOM     25  O   UNL     1       9.369 -52.748 -22.240  1.00  0.00    -0.266 OA
BRANCH  23  26
ATOM     26  C   UNL     1      11.171 -51.499 -21.273  1.00  0.00     0.458 C 
BRANCH  26  27
ATOM     27  N   UNL     1      11.820 -50.899 -22.460  1.00  0.00    -0.196 N 
ATOM     28  C   UNL     1      11.775 -49.557 -22.641  1.00  0.00     0.308 A 
ATOM     29  C   UNL     1      12.476 -51.690 -23.342  1.00  0.00     0.308 A 
ATOM     30  C   UNL     1      12.377 -48.970 -23.748  1.00  0.00     0.071 A 
ATOM     31  C   UNL     1      13.091 -51.144 -24.463  1.00  0.00     0.071 A 
ATOM     32  C   UNL     1      13.038 -49.772 -24.668  1.00  0.00     0.012 A 
ENDBRANCH  26  27
ENDBRANCH  23  26
ENDBRANCH  21  22
ENDBRANCH  20  21
ENDBRANCH   4  20
TORSDOF 10
ENDMDL
MODEL 8
REMARK VINA RESULT:    -9.405      2.722      5.417
REMARK INTER + INTRA:         -15.911
REMARK INTER:                 -14.172
REMARK INTRA:                  -1.739
REMARK UNBOUND:                -1.008
REMARK SMILES O=C(C[n+]1ccccc1)N/N=C/c1ccc(/C=N/NC(=O)C[n+]2ccccc2)cc1
REMARK SMILES IDX 13 1 14 2 15 3 16 4 29 5 30 6 12 7 11 8 10 9 2 10 1 11 3 13
REMARK SMILES IDX 4 14 5 15 9 16 6 17 8 18 7 19 17 20 18 21 19 22 20 23 21 25
REMARK SMILES IDX 22 26 23 27 24 28 28 29 25 30 27 31 26 32
REMARK H PARENT 10 12 19 24
ROOT
ATOM      1  C   UNL     1      10.353 -62.112 -22.372  1.00  0.00    -0.005 A 
ATOM      2  C   UNL     1      10.051 -61.116 -21.436  1.00  0.00     0.010 A 
ATOM      3  C   UNL     1      10.505 -59.808 -21.638  1.00  0.00     0.010 A 
ATOM      4  C   UNL     1      11.260 -59.499 -22.776  1.00  0.00    -0.005 A 
ATOM      5  C   UNL     1      11.559 -60.496 -23.710  1.00  0.00     0.010 A 
ATOM      6  C   UNL     1      11.106 -61.802 -23.508  1.00  0.00     0.010 A 
ENDROOT
BRANCH   1   7
ATOM      7  C   UNL     1       9.858 -63.488 -22.136  1.00  0.00     0.141 C 
BRANCH   7   8
ATOM      8  N   UNL     1       8.879 -63.982 -22.827  1.00  0.00    -0.181 NA
BRANCH   8   9
ATOM      9  N   UNL     1       7.762 -63.221 -23.049  1.00  0.00    -0.242 N 
ATOM     10  C   UNL     1       7.321 -62.812 -24.306  1.00  0.00     0.305 C 
ATOM     11  O   UNL     1       7.771 -63.188 -25.386  1.00  0.00    -0.266 OA
ATOM     12  H   UNL     1       7.526 -62.662 -22.230  1.00  0.00     0.193 HD
BRANCH  10  13
ATOM     13  C   UNL     1       6.187 -61.807 -24.234  1.00  0.00     0.458 C 
BRANCH  13  14
ATOM     14  N   UNL     1       6.703 -60.447 -23.959  1.00  0.00    -0.196 N 
ATOM     15  C   UNL     1       6.048 -59.646 -23.083  1.00  0.00     0.308 A 
ATOM     16  C   UNL     1       7.839 -60.023 -24.560  1.00  0.00     0.308 A 
ATOM     17  C   UNL     1       6.514 -58.366 -22.808  1.00  0.00     0.071 A 
ATOM     18  C   UNL     1       8.339 -58.749 -24.314  1.00  0.00     0.071 A 
ATOM     19  C   UNL     1       7.669 -57.913 -23.432  1.00  0.00     0.012 A 
ENDBRANCH  13  14
ENDBRANCH  10  13
ENDBRANCH   8   9
ENDBRANCH   7   8
ENDBRANCH   1   7
BRANCH   4  20
ATOM     20  C   UNL     1      11.730 -58.109 -22.966  1.00  0.00     0.141 C 
BRANCH  20  21
ATOM     21  N   UNL     1      11.345 -57.151 -22.181  1.00  0.00    -0.181 NA
BRANCH  21  22
ATOM     22  N   UNL     1      10.959 -55.953 -22.723  1.00  0.00    -0.242 N 
ATOM     23  C   UNL     1      10.670 -54.807 -21.984  1.00  0.00     0.305 C 
ATOM     24  H   UNL     1      10.522 -56.084 -23.635  1.00  0.00     0.193 HD
ATOM     25  O   UNL     1      10.859 -54.659 -20.779  1.00  0.00    -0.266 OA
BRANCH  23  26
ATOM     26  C   UNL     1      10.065 -53.700 -22.827  1.00  0.00     0.458 C 
BRANCH  26  27
ATOM     27  N   UNL     1      10.996 -52.555 -22.941  1.00  0.00    -0.196 N 
ATOM     28  C   UNL     1      12.030 -52.617 -23.814  1.00  0.00     0.308 A 
ATOM     29  C   UNL     1      10.793 -51.444 -22.194  1.00  0.00     0.308 A 
ATOM     30  C   UNL     1      12.917 -51.554 -23.940  1.00  0.00     0.071 A 
ATOM     31  C   UNL     1      11.656 -50.359 -22.288  1.00  0.00     0.071 A 
ATOM     32  C   UNL     1      12.729 -50.416 -23.167  1.00  0.00     0.012 A 
ENDBRANCH  26  27
ENDBRANCH  23  26
ENDBRANCH  21  22
ENDBRANCH  20  21
ENDBRANCH   4  20
TORSDOF 10
ENDMDL
MODEL 9
REMARK VINA RESULT:    -9.340      3.150      4.481
REMARK INTER + INTRA:         -15.809
REMARK INTER:                 -15.137
REMARK INTRA:                  -0.672
REMARK UNBOUND:                -1.008
REMARK SMILES O=C(C[n+]1ccccc1)N/N=C/c1ccc(/C=N/NC(=O)C[n+]2ccccc2)cc1
REMARK SMILES IDX 13 1 14 2 15 3 16 4 29 5 30 6 12 7 11 8 10 9 2 10 1 11 3 13
REMARK SMILES IDX 4 14 5 15 9 16 6 17 8 18 7 19 17 20 18 21 19 22 20 23 21 25
REMARK SMILES IDX 22 26 23 27 24 28 28 29 25 30 27 31 26 32
REMARK H PARENT 10 12 19 24
ROOT
ATOM      1  C   UNL     1      10.773 -54.798 -22.707  1.00  0.00    -0.005 A 
ATOM      2  C   UNL     1      10.468 -54.229 -21.465  1.00  0.00     0.010 A 
ATOM      3  C   UNL     1      10.791 -52.891 -21.213  1.00  0.00     0.010 A 
ATOM      4  C   UNL     1      11.417 -52.126 -22.203  1.00  0.00    -0.005 A 
ATOM      5  C   UNL     1      11.720 -52.696 -23.444  1.00  0.00     0.010 A 
ATOM      6  C   UNL     1      11.398 -54.032 -23.696  1.00  0.00     0.010 A 
ENDROOT
BRANCH   1   7
ATOM      7  C   UNL     1      10.420 -56.215 -22.950  1.00  0.00     0.141 C 
BRANCH   7   8
ATOM      8  N   UNL     1       9.313 -56.545 -23.540  1.00  0.00    -0.181 NA
BRANCH   8   9
ATOM      9  N   UNL     1       8.622 -57.645 -23.107  1.00  0.00    -0.242 N 
ATOM     10  C   UNL     1       8.329 -58.757 -23.896  1.00  0.00     0.305 C 
ATOM     11  O   UNL     1       8.766 -58.976 -25.023  1.00  0.00    -0.266 OA
ATOM     12  H   UNL     1       8.014 -57.414 -22.322  1.00  0.00     0.193 HD
BRANCH  10  13
ATOM     13  C   UNL     1       7.374 -59.722 -23.220  1.00  0.00     0.458 C 
BRANCH  13  14
ATOM     14  N   UNL     1       7.962 -61.078 -23.141  1.00  0.00    -0.196 N 
ATOM     15  C   UNL     1       9.130 -61.265 -22.477  1.00  0.00     0.308 A 
ATOM     16  C   UNL     1       7.319 -62.126 -23.707  1.00  0.00     0.308 A 
ATOM     17  C   UNL     1       9.701 -62.528 -22.389  1.00  0.00     0.071 A 
ATOM     18  C   UNL     1       7.857 -63.407 -23.642  1.00  0.00     0.071 A 
ATOM     19  C   UNL     1       9.060 -63.608 -22.980  1.00  0.00     0.012 A 
ENDBRANCH  13  14
ENDBRANCH  10  13
ENDBRANCH   8   9
ENDBRANCH   7   8
ENDBRANCH   1   7
BRANCH   4  20
ATOM     20  C   UNL     1      11.749 -50.713 -21.912  1.00  0.00     0.141 C 
BRANCH  20  21
ATOM     21  N   UNL     1      11.544 -49.775 -22.783  1.00  0.00    -0.181 NA
BRANCH  21  22
ATOM     22  N   UNL     1      10.926 -48.617 -22.391  1.00  0.00    -0.242 N 
ATOM     23  C   UNL     1      10.946 -47.426 -23.115  1.00  0.00     0.305 C 
ATOM     24  H   UNL     1      10.807 -48.587 -21.379  1.00  0.00     0.193 HD
ATOM     25  O   UNL     1      11.381 -47.281 -24.254  1.00  0.00    -0.266 OA
BRANCH  23  26
ATOM     26  C   UNL     1      10.363 -46.258 -22.341  1.00  0.00     0.458 C 
BRANCH  26  27
ATOM     27  N   UNL     1      11.362 -45.176 -22.188  1.00  0.00    -0.196 N 
ATOM     28  C   UNL     1      11.035 -43.908 -22.537  1.00  0.00     0.308 A 
ATOM     29  C   UNL     1      12.584 -45.454 -21.675  1.00  0.00     0.308 A 
ATOM     30  C   UNL     1      11.955 -42.875 -22.401  1.00  0.00     0.071 A 
ATOM     31  C   UNL     1      13.534 -44.451 -21.523  1.00  0.00     0.071 A 
ATOM     32  C   UNL     1      13.217 -43.151 -21.892  1.00  0.00     0.012 A 
ENDBRANCH  26  27
ENDBRANCH  23  26
ENDBRANCH  21  22
ENDBRANCH  20  21
ENDBRANCH   4  20
TORSDOF 10
ENDMDL
