MODEL 1
REMARK VINA RESULT:    -9.876      0.000      0.000
REMARK INTER + INTRA:         -15.114
REMARK INTER:                 -13.629
REMARK INTRA:                  -1.485
REMARK UNBOUND:                -1.485
REMARK SMILES COc1ccc([C@@H]2CC(c3cc(F)ccc3F)=NN2c2ccc(S(N)(=O)=O)cc2)cc1OC
REMARK SMILES IDX 20 1 21 2 22 3 23 4 28 5 29 6 19 7 7 8 8 9 9 10 18 11 6 12
REMARK SMILES IDX 3 13 4 14 31 15 5 16 30 17 2 18 1 19 32 20 33 21 10 22 11 23
REMARK SMILES IDX 16 24 12 25 15 26 14 27 17 28 13 29 24 30 26 31 27 32 25 33
REMARK H PARENT 25 34 25 35
ROOT
ATOM      1  C   UNL     1      10.454 -57.954 -23.140  1.00  0.00     0.060 A 
ATOM      2  C   UNL     1      11.411 -57.444 -22.248  1.00  0.00     0.029 A 
ATOM      3  C   UNL     1      11.357 -56.123 -21.783  1.00  0.00     0.024 A 
ATOM      4  C   UNL     1      10.326 -55.288 -22.207  1.00  0.00     0.082 A 
ATOM      5  C   UNL     1       9.365 -55.754 -23.101  1.00  0.00     0.024 A 
ATOM      6  C   UNL     1       9.434 -57.075 -23.553  1.00  0.00     0.029 A 
ENDROOT
BRANCH   1   7
ATOM      7  N   UNL     1      10.495 -59.265 -23.613  1.00  0.00    -0.257 N 
ATOM      8  C   UNL     1      11.617 -59.894 -24.318  1.00  0.00     0.144 C 
ATOM      9  C   UNL     1      11.235 -61.375 -24.300  1.00  0.00     0.091 C 
ATOM     10  C   UNL     1       9.805 -61.282 -23.847  1.00  0.00     0.074 C 
ATOM     11  N   UNL     1       9.432 -60.106 -23.444  1.00  0.00    -0.176 NA
BRANCH   8  12
ATOM     12  C   UNL     1      11.796 -59.394 -25.743  1.00  0.00    -0.019 A 
ATOM     13  C   UNL     1      12.163 -58.380 -28.369  1.00  0.00     0.160 A 
ATOM     14  C   UNL     1      11.848 -59.729 -28.152  1.00  0.00     0.051 A 
ATOM     15  C   UNL     1      12.336 -57.543 -27.255  1.00  0.00     0.161 A 
ATOM     16  C   UNL     1      11.675 -60.230 -26.857  1.00  0.00     0.010 A 
ATOM     17  C   UNL     1      12.134 -58.051 -25.962  1.00  0.00     0.056 A 
BRANCH  13  18
ATOM     18  O   UNL     1      12.302 -57.832 -29.615  1.00  0.00    -0.493 OA
ATOM     19  C   UNL     1      12.157 -58.692 -30.739  1.00  0.00     0.278 C 
ENDBRANCH  13  18
BRANCH  15  20
ATOM     20  O   UNL     1      12.652 -56.208 -27.255  1.00  0.00    -0.493 OA
ATOM     21  C   UNL     1      12.824 -55.587 -25.987  1.00  0.00     0.278 C 
ENDBRANCH  15  20
ENDBRANCH   8  12
BRANCH  10  22
ATOM     22  C   UNL     1       8.897 -62.451 -23.838  1.00  0.00     0.037 A 
ATOM     23  C   UNL     1       8.115 -62.704 -24.974  1.00  0.00     0.052 A 
ATOM     24  C   UNL     1       8.790 -63.304 -22.736  1.00  0.00     0.132 A 
ATOM     25  C   UNL     1       7.257 -63.798 -24.988  1.00  0.00     0.124 A 
ATOM     26  C   UNL     1       7.926 -64.399 -22.759  1.00  0.00     0.043 A 
ATOM     27  C   UNL     1       7.155 -64.649 -23.893  1.00  0.00     0.042 A 
ATOM     28  F   UNL     1       9.502 -63.094 -21.621  1.00  0.00    -0.206 F 
ATOM     29  F   UNL     1       6.514 -64.037 -26.076  1.00  0.00    -0.207 F 
ENDBRANCH  10  22
ENDBRANCH   1   7
BRANCH   4  30
ATOM     30  S   UNL     1      10.237 -53.617 -21.629  1.00  0.00     0.238 S 
ATOM     31  O   UNL     1       8.998 -53.033 -22.087  1.00  0.00    -0.207 OA
ATOM     32  O   UNL     1      10.646 -53.586 -20.245  1.00  0.00    -0.207 OA
BRANCH  30  33
ATOM     33  N   UNL     1      11.445 -52.881 -22.546  1.00  0.00    -0.225 NA
ATOM     34  H   UNL     1      12.069 -52.299 -21.988  1.00  0.00     0.137 HD
ATOM     35  H   UNL     1      11.953 -53.604 -23.058  1.00  0.00     0.137 HD
ENDBRANCH  30  33
ENDBRANCH   4  30
TORSDOF 7
ENDMDL
MODEL 2
REMARK VINA RESULT:    -9.371      7.406     11.364
REMARK INTER + INTRA:         -14.417
REMARK INTER:                 -12.976
REMARK INTRA:                  -1.442
REMARK UNBOUND:                -1.485
REMARK SMILES COc1ccc([C@@H]2CC(c3cc(F)ccc3F)=NN2c2ccc(S(N)(=O)=O)cc2)cc1OC
REMARK SMILES IDX 20 1 21 2 22 3 23 4 28 5 29 6 19 7 7 8 8 9 9 10 18 11 6 12
REMARK SMILES IDX 3 13 4 14 31 15 5 16 30 17 2 18 1 19 32 20 33 21 10 22 11 23
REMARK SMILES IDX 16 24 12 25 15 26 14 27 17 28 13 29 24 30 26 31 27 32 25 33
REMARK H PARENT 25 34 25 35
ROOT
ATOM      1  C   UNL     1      12.053 -52.221 -23.805  1.00  0.00     0.060 A 
ATOM      2  C   UNL     1      12.322 -53.249 -24.724  1.00  0.00     0.029 A 
ATOM      3  C   UNL     1      11.940 -54.575 -24.481  1.00  0.00     0.024 A 
ATOM      4  C   UNL     1      11.269 -54.891 -23.302  1.00  0.00     0.082 A 
ATOM      5  C   UNL     1      10.997 -53.902 -22.360  1.00  0.00     0.024 A 
ATOM      6  C   UNL     1      11.384 -52.584 -22.620  1.00  0.00     0.029 A 
ENDROOT
BRANCH   1   7
ATOM      7  N   UNL     1      12.428 -50.898 -24.031  1.00  0.00    -0.257 N 
ATOM      8  C   UNL     1      13.309 -50.422 -25.103  1.00  0.00     0.144 C 
ATOM      9  C   UNL     1      13.104 -48.906 -25.056  1.00  0.00     0.091 C 
ATOM     10  C   UNL     1      12.366 -48.772 -23.753  1.00  0.00     0.074 C 
ATOM     11  N   UNL     1      11.978 -49.893 -23.225  1.00  0.00    -0.176 NA
BRANCH   8  12
ATOM     12  C   UNL     1      14.772 -50.781 -24.894  1.00  0.00    -0.019 A 
ATOM     13  C   UNL     1      17.519 -51.425 -24.591  1.00  0.00     0.160 A 
ATOM     14  C   UNL     1      16.651 -51.427 -23.491  1.00  0.00     0.051 A 
ATOM     15  C   UNL     1      17.012 -51.055 -25.847  1.00  0.00     0.161 A 
ATOM     16  C   UNL     1      15.298 -51.103 -23.639  1.00  0.00     0.010 A 
ATOM     17  C   UNL     1      15.648 -50.757 -25.989  1.00  0.00     0.056 A 
BRANCH  13  18
ATOM     18  O   UNL     1      18.840 -51.774 -24.507  1.00  0.00    -0.493 OA
ATOM     19  C   UNL     1      19.774 -50.759 -24.160  1.00  0.00     0.278 C 
ENDBRANCH  13  18
BRANCH  15  20
ATOM     20  O   UNL     1      17.695 -50.982 -27.035  1.00  0.00    -0.493 OA
ATOM     21  C   UNL     1      18.186 -49.704 -27.418  1.00  0.00     0.278 C 
ENDBRANCH  15  20
ENDBRANCH   8  12
BRANCH  10  22
ATOM     22  C   UNL     1      12.080 -47.459 -23.134  1.00  0.00     0.037 A 
ATOM     23  C   UNL     1      11.195 -46.588 -23.784  1.00  0.00     0.052 A 
ATOM     24  C   UNL     1      12.663 -47.060 -21.929  1.00  0.00     0.132 A 
ATOM     25  C   UNL     1      10.909 -45.350 -23.219  1.00  0.00     0.124 A 
ATOM     26  C   UNL     1      12.371 -45.815 -21.369  1.00  0.00     0.043 A 
ATOM     27  C   UNL     1      11.487 -44.955 -22.018  1.00  0.00     0.042 A 
ATOM     28  F   UNL     1      13.529 -47.849 -21.278  1.00  0.00    -0.206 F 
ATOM     29  F   UNL     1      10.061 -44.522 -23.842  1.00  0.00    -0.207 F 
ENDBRANCH  10  22
ENDBRANCH   1   7
BRANCH   4  30
ATOM     30  S   UNL     1      10.775 -56.560 -22.977  1.00  0.00     0.238 S 
ATOM     31  O   UNL     1      11.294 -56.955 -21.688  1.00  0.00    -0.207 OA
ATOM     32  O   UNL     1       9.384 -56.706 -23.333  1.00  0.00    -0.207 OA
BRANCH  30  33
ATOM     33  N   UNL     1      11.693 -57.408 -24.108  1.00  0.00    -0.225 NA
ATOM     34  H   UNL     1      11.158 -57.680 -24.932  1.00  0.00     0.137 HD
ATOM     35  H   UNL     1      12.511 -56.847 -24.351  1.00  0.00     0.137 HD
ENDBRANCH  30  33
ENDBRANCH   4  30
TORSDOF 7
ENDMDL
MODEL 3
REMARK VINA RESULT:    -9.136      7.950     12.016
REMARK INTER + INTRA:         -14.092
REMARK INTER:                 -12.883
REMARK INTRA:                  -1.210
REMARK UNBOUND:                -1.485
REMARK SMILES COc1ccc([C@@H]2CC(c3cc(F)ccc3F)=NN2c2ccc(S(N)(=O)=O)cc2)cc1OC
REMARK SMILES IDX 20 1 21 2 22 3 23 4 28 5 29 6 19 7 7 8 8 9 9 10 18 11 6 12
REMARK SMILES IDX 3 13 4 14 31 15 5 16 30 17 2 18 1 19 32 20 33 21 10 22 11 23
REMARK SMILES IDX 16 24 12 25 15 26 14 27 17 28 13 29 24 30 26 31 27 32 25 33
REMARK H PARENT 25 34 25 35
ROOT
ATOM      1  C   UNL     1      12.140 -51.771 -23.633  1.00  0.00     0.060 A 
ATOM      2  C   UNL     1      11.478 -52.146 -22.452  1.00  0.00     0.029 A 
ATOM      3  C   UNL     1      11.076 -53.468 -22.219  1.00  0.00     0.024 A 
ATOM      4  C   UNL     1      11.342 -54.445 -23.176  1.00  0.00     0.082 A 
ATOM      5  C   UNL     1      11.984 -54.110 -24.365  1.00  0.00     0.024 A 
ATOM      6  C   UNL     1      12.379 -52.785 -24.580  1.00  0.00     0.029 A 
ENDROOT
BRANCH   1   7
ATOM      7  N   UNL     1      12.545 -50.460 -23.880  1.00  0.00    -0.257 N 
ATOM      8  C   UNL     1      13.767 -50.051 -24.579  1.00  0.00     0.144 C 
ATOM      9  C   UNL     1      13.528 -48.561 -24.830  1.00  0.00     0.091 C 
ATOM     10  C   UNL     1      12.330 -48.327 -23.951  1.00  0.00     0.074 C 
ATOM     11  N   UNL     1      11.789 -49.402 -23.463  1.00  0.00    -0.176 NA
BRANCH   8  12
ATOM     12  C   UNL     1      15.035 -50.271 -23.768  1.00  0.00    -0.019 A 
ATOM     13  C   UNL     1      17.392 -50.594 -22.220  1.00  0.00     0.160 A 
ATOM     14  C   UNL     1      16.812 -51.680 -22.890  1.00  0.00     0.051 A 
ATOM     15  C   UNL     1      16.758 -49.343 -22.294  1.00  0.00     0.161 A 
ATOM     16  C   UNL     1      15.646 -51.522 -23.647  1.00  0.00     0.010 A 
ATOM     17  C   UNL     1      15.604 -49.190 -23.078  1.00  0.00     0.056 A 
BRANCH  13  18
ATOM     18  O   UNL     1      18.553 -50.687 -21.501  1.00  0.00    -0.493 OA
ATOM     19  C   UNL     1      18.455 -51.027 -20.124  1.00  0.00     0.278 C 
ENDBRANCH  13  18
BRANCH  15  20
ATOM     20  O   UNL     1      17.158 -48.168 -21.708  1.00  0.00    -0.493 OA
ATOM     21  C   UNL     1      16.556 -47.832 -20.465  1.00  0.00     0.278 C 
ENDBRANCH  15  20
ENDBRANCH   8  12
BRANCH  10  22
ATOM     22  C   UNL     1      11.793 -46.975 -23.684  1.00  0.00     0.037 A 
ATOM     23  C   UNL     1      12.302 -45.893 -24.416  1.00  0.00     0.052 A 
ATOM     24  C   UNL     1      10.803 -46.740 -22.726  1.00  0.00     0.132 A 
ATOM     25  C   UNL     1      11.810 -44.613 -24.184  1.00  0.00     0.124 A 
ATOM     26  C   UNL     1      10.316 -45.453 -22.499  1.00  0.00     0.043 A 
ATOM     27  C   UNL     1      10.821 -44.382 -23.233  1.00  0.00     0.042 A 
ATOM     28  F   UNL     1      10.298 -47.738 -21.988  1.00  0.00    -0.206 F 
ATOM     29  F   UNL     1      12.297 -43.583 -24.887  1.00  0.00    -0.207 F 
ENDBRANCH  10  22
ENDBRANCH   1   7
BRANCH   4  30
ATOM     30  S   UNL     1      10.845 -56.121 -22.900  1.00  0.00     0.238 S 
ATOM     31  O   UNL     1      11.343 -56.547 -21.612  1.00  0.00    -0.207 OA
ATOM     32  O   UNL     1       9.461 -56.261 -23.283  1.00  0.00    -0.207 OA
BRANCH  30  33
ATOM     33  N   UNL     1      11.784 -56.940 -24.035  1.00  0.00    -0.225 NA
ATOM     34  H   UNL     1      11.796 -57.950 -23.890  1.00  0.00     0.137 HD
ATOM     35  H   UNL     1      11.456 -56.693 -24.971  1.00  0.00     0.137 HD
ENDBRANCH  30  33
ENDBRANCH   4  30
TORSDOF 7
ENDMDL
MODEL 4
REMARK VINA RESULT:    -9.080      7.874     12.280
REMARK INTER + INTRA:         -14.016
REMARK INTER:                 -12.667
REMARK INTRA:                  -1.349
REMARK UNBOUND:                -1.485
REMARK SMILES COc1ccc([C@@H]2CC(c3cc(F)ccc3F)=NN2c2ccc(S(N)(=O)=O)cc2)cc1OC
REMARK SMILES IDX 20 1 21 2 22 3 23 4 28 5 29 6 19 7 7 8 8 9 9 10 18 11 6 12
REMARK SMILES IDX 3 13 4 14 31 15 5 16 30 17 2 18 1 19 32 20 33 21 10 22 11 23
REMARK SMILES IDX 16 24 12 25 15 26 14 27 17 28 13 29 24 30 26 31 27 32 25 33
REMARK H PARENT 25 34 25 35
ROOT
ATOM      1  C   UNL     1      13.022 -51.494 -24.381  1.00  0.00     0.060 A 
ATOM      2  C   UNL     1      12.333 -51.348 -23.165  1.00  0.00     0.029 A 
ATOM      3  C   UNL     1      11.543 -52.377 -22.635  1.00  0.00     0.024 A 
ATOM      4  C   UNL     1      11.437 -53.584 -23.323  1.00  0.00     0.082 A 
ATOM      5  C   UNL     1      12.094 -53.762 -24.538  1.00  0.00     0.024 A 
ATOM      6  C   UNL     1      12.880 -52.724 -25.050  1.00  0.00     0.029 A 
ENDROOT
BRANCH   1   7
ATOM      7  N   UNL     1      13.811 -50.479 -24.921  1.00  0.00    -0.257 N 
ATOM      8  C   UNL     1      14.338 -49.318 -24.196  1.00  0.00     0.144 C 
ATOM      9  C   UNL     1      15.361 -48.746 -25.180  1.00  0.00     0.091 C 
ATOM     10  C   UNL     1      15.007 -49.520 -26.420  1.00  0.00     0.074 C 
ATOM     11  N   UNL     1      14.167 -50.494 -26.238  1.00  0.00    -0.176 NA
BRANCH   8  12
ATOM     12  C   UNL     1      13.279 -48.285 -23.848  1.00  0.00    -0.019 A 
ATOM     13  C   UNL     1      11.344 -46.341 -23.117  1.00  0.00     0.160 A 
ATOM     14  C   UNL     1      11.381 -46.872 -24.414  1.00  0.00     0.051 A 
ATOM     15  C   UNL     1      12.314 -46.759 -22.192  1.00  0.00     0.161 A 
ATOM     16  C   UNL     1      12.339 -47.825 -24.776  1.00  0.00     0.010 A 
ATOM     17  C   UNL     1      13.254 -47.735 -22.558  1.00  0.00     0.056 A 
BRANCH  13  18
ATOM     18  O   UNL     1      10.402 -45.439 -22.701  1.00  0.00    -0.493 OA
ATOM     19  C   UNL     1      10.634 -44.063 -22.979  1.00  0.00     0.278 C 
ENDBRANCH  13  18
BRANCH  15  20
ATOM     20  O   UNL     1      12.452 -46.355 -20.887  1.00  0.00    -0.493 OA
ATOM     21  C   UNL     1      13.634 -46.762 -20.210  1.00  0.00     0.278 C 
ENDBRANCH  15  20
ENDBRANCH   8  12
BRANCH  10  22
ATOM     22  C   UNL     1      15.591 -49.210 -27.743  1.00  0.00     0.037 A 
ATOM     23  C   UNL     1      14.786 -48.582 -28.704  1.00  0.00     0.052 A 
ATOM     24  C   UNL     1      16.913 -49.526 -28.068  1.00  0.00     0.132 A 
ATOM     25  C   UNL     1      15.316 -48.280 -29.954  1.00  0.00     0.124 A 
ATOM     26  C   UNL     1      17.436 -49.220 -29.325  1.00  0.00     0.043 A 
ATOM     27  C   UNL     1      16.633 -48.591 -30.273  1.00  0.00     0.042 A 
ATOM     28  F   UNL     1      17.718 -50.143 -27.191  1.00  0.00    -0.206 F 
ATOM     29  F   UNL     1      14.544 -47.677 -30.867  1.00  0.00    -0.207 F 
ENDBRANCH  10  22
ENDBRANCH   1   7
BRANCH   4  30
ATOM     30  S   UNL     1      10.447 -54.898 -22.670  1.00  0.00     0.238 S 
ATOM     31  O   UNL     1       9.594 -55.402 -23.722  1.00  0.00    -0.207 OA
ATOM     32  O   UNL     1      11.289 -55.757 -21.873  1.00  0.00    -0.207 OA
BRANCH  30  33
ATOM     33  N   UNL     1       9.423 -54.059 -21.627  1.00  0.00    -0.225 NA
ATOM     34  H   UNL     1       8.566 -53.740 -22.080  1.00  0.00     0.137 HD
ATOM     35  H   UNL     1       9.229 -54.648 -20.815  1.00  0.00     0.137 HD
ENDBRANCH  30  33
ENDBRANCH   4  30
TORSDOF 7
ENDMDL
MODEL 5
REMARK VINA RESULT:    -9.022      7.692     10.514
REMARK INTER + INTRA:         -13.936
REMARK INTER:                 -12.371
REMARK INTRA:                  -1.565
REMARK UNBOUND:                -1.485
REMARK SMILES COc1ccc([C@@H]2CC(c3cc(F)ccc3F)=NN2c2ccc(S(N)(=O)=O)cc2)cc1OC
REMARK SMILES IDX 20 1 21 2 22 3 23 4 28 5 29 6 19 7 7 8 8 9 9 10 18 11 6 12
REMARK SMILES IDX 3 13 4 14 31 15 5 16 30 17 2 18 1 19 32 20 33 21 10 22 11 23
REMARK SMILES IDX 16 24 12 25 15 26 14 27 17 28 13 29 24 30 26 31 27 32 25 33
REMARK H PARENT 25 34 25 35
ROOT
ATOM      1  C   UNL     1      12.741 -47.671 -23.630  1.00  0.00     0.060 A 
ATOM      2  C   UNL     1      13.663 -46.664 -23.301  1.00  0.00     0.029 A 
ATOM      3  C   UNL     1      13.310 -45.308 -23.311  1.00  0.00     0.024 A 
ATOM      4  C   UNL     1      12.010 -44.940 -23.647  1.00  0.00     0.082 A 
ATOM      5  C   UNL     1      11.070 -45.909 -23.992  1.00  0.00     0.024 A 
ATOM      6  C   UNL     1      11.440 -47.257 -23.976  1.00  0.00     0.029 A 
ENDROOT
BRANCH   1   7
ATOM      7  N   UNL     1      13.077 -49.024 -23.627  1.00  0.00    -0.257 N 
ATOM      8  C   UNL     1      14.428 -49.578 -23.766  1.00  0.00     0.144 C 
ATOM      9  C   UNL     1      14.231 -51.044 -23.375  1.00  0.00     0.091 C 
ATOM     10  C   UNL     1      12.730 -51.126 -23.376  1.00  0.00     0.074 C 
ATOM     11  N   UNL     1      12.118 -49.986 -23.487  1.00  0.00    -0.176 NA
BRANCH   8  12
ATOM     12  C   UNL     1      14.992 -49.460 -25.173  1.00  0.00    -0.019 A 
ATOM     13  C   UNL     1      16.131 -49.229 -27.763  1.00  0.00     0.160 A 
ATOM     14  C   UNL     1      14.794 -49.612 -27.593  1.00  0.00     0.051 A 
ATOM     15  C   UNL     1      16.915 -49.001 -26.621  1.00  0.00     0.161 A 
ATOM     16  C   UNL     1      14.234 -49.733 -26.316  1.00  0.00     0.010 A 
ATOM     17  C   UNL     1      16.337 -49.100 -25.346  1.00  0.00     0.056 A 
BRANCH  13  18
ATOM     18  O   UNL     1      16.713 -49.057 -28.990  1.00  0.00    -0.493 OA
ATOM     19  C   UNL     1      15.898 -48.566 -30.048  1.00  0.00     0.278 C 
ENDBRANCH  13  18
BRANCH  15  20
ATOM     20  O   UNL     1      18.236 -48.630 -26.576  1.00  0.00    -0.493 OA
ATOM     21  C   UNL     1      19.193 -49.674 -26.451  1.00  0.00     0.278 C 
ENDBRANCH  15  20
ENDBRANCH   8  12
BRANCH  10  22
ATOM     22  C   UNL     1      12.004 -52.407 -23.234  1.00  0.00     0.037 A 
ATOM     23  C   UNL     1      11.311 -52.658 -22.041  1.00  0.00     0.052 A 
ATOM     24  C   UNL     1      11.989 -53.373 -24.244  1.00  0.00     0.132 A 
ATOM     25  C   UNL     1      10.619 -53.855 -21.886  1.00  0.00     0.124 A 
ATOM     26  C   UNL     1      11.293 -54.571 -24.080  1.00  0.00     0.043 A 
ATOM     27  C   UNL     1      10.603 -54.813 -22.894  1.00  0.00     0.042 A 
ATOM     28  F   UNL     1      12.650 -53.187 -25.395  1.00  0.00    -0.206 F 
ATOM     29  F   UNL     1       9.958 -54.090 -20.747  1.00  0.00    -0.207 F 
ENDBRANCH  10  22
ENDBRANCH   1   7
BRANCH   4  30
ATOM     30  S   UNL     1      11.542 -43.233 -23.662  1.00  0.00     0.238 S 
ATOM     31  O   UNL     1      10.953 -42.901 -22.385  1.00  0.00    -0.207 OA
ATOM     32  O   UNL     1      12.617 -42.466 -24.245  1.00  0.00    -0.207 OA
BRANCH  30  33
ATOM     33  N   UNL     1      10.259 -43.246 -24.756  1.00  0.00    -0.225 NA
ATOM     34  H   UNL     1       9.684 -44.085 -24.686  1.00  0.00     0.137 HD
ATOM     35  H   UNL     1       9.710 -42.395 -24.627  1.00  0.00     0.137 HD
ENDBRANCH  30  33
ENDBRANCH   4  30
TORSDOF 7
ENDMDL
MODEL 6
REMARK VINA RESULT:    -8.970      7.282     11.238
REMARK INTER + INTRA:         -13.864
REMARK INTER:                 -12.747
REMARK INTRA:                  -1.117
REMARK UNBOUND:                -1.485
REMARK SMILES COc1ccc([C@@H]2CC(c3cc(F)ccc3F)=NN2c2ccc(S(N)(=O)=O)cc2)cc1OC
REMARK SMILES IDX 20 1 21 2 22 3 23 4 28 5 29 6 19 7 7 8 8 9 9 10 18 11 6 12
REMARK SMILES IDX 3 13 4 14 31 15 5 16 30 17 2 18 1 19 32 20 33 21 10 22 11 23
REMARK SMILES IDX 16 24 12 25 15 26 14 27 17 28 13 29 24 30 26 31 27 32 25 33
REMARK H PARENT 25 34 25 35
ROOT
ATOM      1  C   UNL     1      12.126 -52.548 -23.923  1.00  0.00     0.060 A 
ATOM      2  C   UNL     1      12.365 -53.572 -24.854  1.00  0.00     0.029 A 
ATOM      3  C   UNL     1      11.981 -54.897 -24.609  1.00  0.00     0.024 A 
ATOM      4  C   UNL     1      11.338 -55.216 -23.415  1.00  0.00     0.082 A 
ATOM      5  C   UNL     1      11.096 -54.231 -22.461  1.00  0.00     0.024 A 
ATOM      6  C   UNL     1      11.485 -52.913 -22.724  1.00  0.00     0.029 A 
ENDROOT
BRANCH   1   7
ATOM      7  N   UNL     1      12.503 -51.226 -24.151  1.00  0.00    -0.257 N 
ATOM      8  C   UNL     1      13.338 -50.745 -25.257  1.00  0.00     0.144 C 
ATOM      9  C   UNL     1      13.151 -49.228 -25.184  1.00  0.00     0.091 C 
ATOM     10  C   UNL     1      12.475 -49.103 -23.847  1.00  0.00     0.074 C 
ATOM     11  N   UNL     1      12.101 -50.226 -23.313  1.00  0.00    -0.176 NA
BRANCH   8  12
ATOM     12  C   UNL     1      14.805 -51.121 -25.120  1.00  0.00    -0.019 A 
ATOM     13  C   UNL     1      17.560 -51.738 -24.826  1.00  0.00     0.160 A 
ATOM     14  C   UNL     1      16.636 -52.720 -25.210  1.00  0.00     0.051 A 
ATOM     15  C   UNL     1      17.089 -50.445 -24.546  1.00  0.00     0.161 A 
ATOM     16  C   UNL     1      15.277 -52.417 -25.348  1.00  0.00     0.010 A 
ATOM     17  C   UNL     1      15.728 -50.146 -24.713  1.00  0.00     0.056 A 
BRANCH  13  18
ATOM     18  O   UNL     1      18.904 -51.973 -24.717  1.00  0.00    -0.493 OA
ATOM     19  C   UNL     1      19.691 -51.885 -25.899  1.00  0.00     0.278 C 
ENDBRANCH  13  18
BRANCH  15  20
ATOM     20  O   UNL     1      17.825 -49.356 -24.151  1.00  0.00    -0.493 OA
ATOM     21  C   UNL     1      17.876 -48.255 -25.049  1.00  0.00     0.278 C 
ENDBRANCH  15  20
ENDBRANCH   8  12
BRANCH  10  22
ATOM     22  C   UNL     1      12.231 -47.795 -23.200  1.00  0.00     0.037 A 
ATOM     23  C   UNL     1      12.877 -47.514 -21.988  1.00  0.00     0.052 A 
ATOM     24  C   UNL     1      11.378 -46.836 -23.752  1.00  0.00     0.132 A 
ATOM     25  C   UNL     1      12.665 -46.289 -21.363  1.00  0.00     0.124 A 
ATOM     26  C   UNL     1      11.170 -45.611 -23.118  1.00  0.00     0.043 A 
ATOM     27  C   UNL     1      11.819 -45.335 -21.916  1.00  0.00     0.042 A 
ATOM     28  F   UNL     1      10.723 -47.064 -24.900  1.00  0.00    -0.206 F 
ATOM     29  F   UNL     1      13.286 -46.025 -20.207  1.00  0.00    -0.207 F 
ENDBRANCH  10  22
ENDBRANCH   1   7
BRANCH   4  30
ATOM     30  S   UNL     1      10.842 -56.883 -23.087  1.00  0.00     0.238 S 
ATOM     31  O   UNL     1      11.308 -57.727 -24.163  1.00  0.00    -0.207 OA
ATOM     32  O   UNL     1      11.105 -57.177 -21.699  1.00  0.00    -0.207 OA
BRANCH  30  33
ATOM     33  N   UNL     1       9.171 -56.782 -23.290  1.00  0.00    -0.225 NA
ATOM     34  H   UNL     1       8.902 -56.294 -24.144  1.00  0.00     0.137 HD
ATOM     35  H   UNL     1       8.779 -57.724 -23.248  1.00  0.00     0.137 HD
ENDBRANCH  30  33
ENDBRANCH   4  30
TORSDOF 7
ENDMDL
MODEL 7
REMARK VINA RESULT:    -8.753      7.762     11.993
REMARK INTER + INTRA:         -13.564
REMARK INTER:                 -12.042
REMARK INTRA:                  -1.522
REMARK UNBOUND:                -1.485
REMARK SMILES COc1ccc([C@@H]2CC(c3cc(F)ccc3F)=NN2c2ccc(S(N)(=O)=O)cc2)cc1OC
REMARK SMILES IDX 20 1 21 2 22 3 23 4 28 5 29 6 19 7 7 8 8 9 9 10 18 11 6 12
REMARK SMILES IDX 3 13 4 14 31 15 5 16 30 17 2 18 1 19 32 20 33 21 10 22 11 23
REMARK SMILES IDX 16 24 12 25 15 26 14 27 17 28 13 29 24 30 26 31 27 32 25 33
REMARK H PARENT 25 34 25 35
ROOT
ATOM      1  C   UNL     1      13.332 -52.101 -24.895  1.00  0.00     0.060 A 
ATOM      2  C   UNL     1      12.983 -53.372 -25.379  1.00  0.00     0.029 A 
ATOM      3  C   UNL     1      12.026 -54.170 -24.736  1.00  0.00     0.024 A 
ATOM      4  C   UNL     1      11.394 -53.693 -23.590  1.00  0.00     0.082 A 
ATOM      5  C   UNL     1      11.723 -52.443 -23.072  1.00  0.00     0.024 A 
ATOM      6  C   UNL     1      12.679 -51.661 -23.727  1.00  0.00     0.029 A 
ENDROOT
BRANCH   1   7
ATOM      7  N   UNL     1      14.283 -51.296 -25.522  1.00  0.00    -0.257 N 
ATOM      8  C   UNL     1      15.738 -51.418 -25.390  1.00  0.00     0.144 C 
ATOM      9  C   UNL     1      16.253 -50.518 -26.516  1.00  0.00     0.091 C 
ATOM     10  C   UNL     1      14.984 -49.805 -26.894  1.00  0.00     0.074 C 
ATOM     11  N   UNL     1      13.905 -50.279 -26.350  1.00  0.00    -0.176 NA
BRANCH   8  12
ATOM     12  C   UNL     1      16.268 -50.959 -24.040  1.00  0.00    -0.019 A 
ATOM     13  C   UNL     1      17.214 -50.020 -21.535  1.00  0.00     0.160 A 
ATOM     14  C   UNL     1      17.346 -51.367 -21.898  1.00  0.00     0.051 A 
ATOM     15  C   UNL     1      16.563 -49.146 -22.420  1.00  0.00     0.161 A 
ATOM     16  C   UNL     1      16.873 -51.832 -23.130  1.00  0.00     0.010 A 
ATOM     17  C   UNL     1      16.116 -49.616 -23.664  1.00  0.00     0.056 A 
BRANCH  13  18
ATOM     18  O   UNL     1      17.696 -49.508 -20.360  1.00  0.00    -0.493 OA
ATOM     19  C   UNL     1      18.585 -50.317 -19.599  1.00  0.00     0.278 C 
ENDBRANCH  13  18
BRANCH  15  20
ATOM     20  O   UNL     1      16.329 -47.804 -22.246  1.00  0.00    -0.493 OA
ATOM     21  C   UNL     1      15.149 -47.444 -21.539  1.00  0.00     0.278 C 
ENDBRANCH  15  20
ENDBRANCH   8  12
BRANCH  10  22
ATOM     22  C   UNL     1      14.965 -48.665 -27.838  1.00  0.00     0.037 A 
ATOM     23  C   UNL     1      15.120 -48.924 -29.207  1.00  0.00     0.052 A 
ATOM     24  C   UNL     1      14.801 -47.345 -27.410  1.00  0.00     0.132 A 
ATOM     25  C   UNL     1      15.103 -47.868 -30.112  1.00  0.00     0.124 A 
ATOM     26  C   UNL     1      14.785 -46.292 -28.325  1.00  0.00     0.043 A 
ATOM     27  C   UNL     1      14.936 -46.555 -29.685  1.00  0.00     0.042 A 
ATOM     28  F   UNL     1      14.666 -47.045 -26.111  1.00  0.00    -0.206 F 
ATOM     29  F   UNL     1      15.250 -48.119 -31.419  1.00  0.00    -0.207 F 
ENDBRANCH  10  22
ENDBRANCH   1   7
BRANCH   4  30
ATOM     30  S   UNL     1      10.181 -54.683 -22.764  1.00  0.00     0.238 S 
ATOM     31  O   UNL     1       9.513 -53.869 -21.775  1.00  0.00    -0.207 OA
ATOM     32  O   UNL     1       9.462 -55.450 -23.753  1.00  0.00    -0.207 OA
BRANCH  30  33
ATOM     33  N   UNL     1      11.153 -55.745 -21.888  1.00  0.00    -0.225 NA
ATOM     34  H   UNL     1      10.839 -55.871 -20.926  1.00  0.00     0.137 HD
ATOM     35  H   UNL     1      11.207 -56.631 -22.392  1.00  0.00     0.137 HD
ENDBRANCH  30  33
ENDBRANCH   4  30
TORSDOF 7
ENDMDL
MODEL 8
REMARK VINA RESULT:    -8.240      7.877     11.025
REMARK INTER + INTRA:         -12.856
REMARK INTER:                 -11.311
REMARK INTRA:                  -1.545
REMARK UNBOUND:                -1.485
REMARK SMILES COc1ccc([C@@H]2CC(c3cc(F)ccc3F)=NN2c2ccc(S(N)(=O)=O)cc2)cc1OC
REMARK SMILES IDX 20 1 21 2 22 3 23 4 28 5 29 6 19 7 7 8 8 9 9 10 18 11 6 12
REMARK SMILES IDX 3 13 4 14 31 15 5 16 30 17 2 18 1 19 32 20 33 21 10 22 11 23
REMARK SMILES IDX 16 24 12 25 15 26 14 27 17 28 13 29 24 30 26 31 27 32 25 33
REMARK H PARENT 25 34 25 35
ROOT
ATOM      1  C   UNL     1      16.803 -51.381 -25.059  1.00  0.00     0.060 A 
ATOM      2  C   UNL     1      17.621 -52.323 -25.706  1.00  0.00     0.029 A 
ATOM      3  C   UNL     1      19.018 -52.271 -25.618  1.00  0.00     0.024 A 
ATOM      4  C   UNL     1      19.621 -51.265 -24.865  1.00  0.00     0.082 A 
ATOM      5  C   UNL     1      18.845 -50.306 -24.220  1.00  0.00     0.024 A 
ATOM      6  C   UNL     1      17.451 -50.374 -24.318  1.00  0.00     0.029 A 
ENDROOT
BRANCH   1   7
ATOM      7  N   UNL     1      15.411 -51.419 -25.138  1.00  0.00    -0.257 N 
ATOM      8  C   UNL     1      14.598 -50.956 -26.267  1.00  0.00     0.144 C 
ATOM      9  C   UNL     1      13.216 -51.526 -25.940  1.00  0.00     0.091 C 
ATOM     10  C   UNL     1      13.431 -51.959 -24.517  1.00  0.00     0.074 C 
ATOM     11  N   UNL     1      14.663 -51.917 -24.110  1.00  0.00    -0.176 NA
BRANCH   8  12
ATOM     12  C   UNL     1      14.546 -49.442 -26.399  1.00  0.00    -0.019 A 
ATOM     13  C   UNL     1      14.470 -46.625 -26.737  1.00  0.00     0.160 A 
ATOM     14  C   UNL     1      14.041 -47.221 -25.544  1.00  0.00     0.051 A 
ATOM     15  C   UNL     1      14.901 -47.453 -27.786  1.00  0.00     0.161 A 
ATOM     16  C   UNL     1      14.072 -48.611 -25.380  1.00  0.00     0.010 A 
ATOM     17  C   UNL     1      14.952 -48.844 -27.601  1.00  0.00     0.056 A 
BRANCH  13  18
ATOM     18  O   UNL     1      14.498 -45.270 -26.932  1.00  0.00    -0.493 OA
ATOM     19  C   UNL     1      13.395 -44.508 -26.458  1.00  0.00     0.278 C 
ENDBRANCH  13  18
BRANCH  15  20
ATOM     20  O   UNL     1      15.347 -47.067 -29.025  1.00  0.00    -0.493 OA
ATOM     21  C   UNL     1      15.155 -47.986 -30.093  1.00  0.00     0.278 C 
ENDBRANCH  15  20
ENDBRANCH   8  12
BRANCH  10  22
ATOM     22  C   UNL     1      12.324 -52.424 -23.652  1.00  0.00     0.037 A 
ATOM     23  C   UNL     1      11.691 -53.635 -23.964  1.00  0.00     0.052 A 
ATOM     24  C   UNL     1      11.888 -51.697 -22.542  1.00  0.00     0.132 A 
ATOM     25  C   UNL     1      10.649 -54.093 -23.164  1.00  0.00     0.124 A 
ATOM     26  C   UNL     1      10.842 -52.163 -21.745  1.00  0.00     0.043 A 
ATOM     27  C   UNL     1      10.219 -53.370 -22.057  1.00  0.00     0.042 A 
ATOM     28  F   UNL     1      12.449 -50.525 -22.212  1.00  0.00    -0.206 F 
ATOM     29  F   UNL     1      10.049 -55.251 -23.465  1.00  0.00    -0.207 F 
ENDBRANCH  10  22
ENDBRANCH   1   7
BRANCH   4  30
ATOM     30  S   UNL     1      21.385 -51.183 -24.739  1.00  0.00     0.238 S 
ATOM     31  O   UNL     1      21.873 -50.205 -25.684  1.00  0.00    -0.207 OA
ATOM     32  O   UNL     1      21.746 -51.162 -23.342  1.00  0.00    -0.207 OA
BRANCH  30  33
ATOM     33  N   UNL     1      21.837 -52.679 -25.370  1.00  0.00    -0.225 NA
ATOM     34  H   UNL     1      22.097 -53.353 -24.651  1.00  0.00     0.137 HD
ATOM     35  H   UNL     1      21.080 -53.026 -25.963  1.00  0.00     0.137 HD
ENDBRANCH  30  33
ENDBRANCH   4  30
TORSDOF 7
ENDMDL
MODEL 9
REMARK VINA RESULT:    -8.015      8.344     12.552
REMARK INTER + INTRA:         -12.546
REMARK INTER:                 -11.077
REMARK INTRA:                  -1.469
REMARK UNBOUND:                -1.485
REMARK SMILES COc1ccc([C@@H]2CC(c3cc(F)ccc3F)=NN2c2ccc(S(N)(=O)=O)cc2)cc1OC
REMARK SMILES IDX 20 1 21 2 22 3 23 4 28 5 29 6 19 7 7 8 8 9 9 10 18 11 6 12
REMARK SMILES IDX 3 13 4 14 31 15 5 16 30 17 2 18 1 19 32 20 33 21 10 22 11 23
REMARK SMILES IDX 16 24 12 25 15 26 14 27 17 28 13 29 24 30 26 31 27 32 25 33
REMARK H PARENT 25 34 25 35
ROOT
ATOM      1  C   UNL     1      15.353 -49.036 -26.525  1.00  0.00     0.060 A 
ATOM      2  C   UNL     1      16.696 -49.448 -26.521  1.00  0.00     0.029 A 
ATOM      3  C   UNL     1      17.427 -49.593 -27.707  1.00  0.00     0.024 A 
ATOM      4  C   UNL     1      16.815 -49.317 -28.928  1.00  0.00     0.082 A 
ATOM      5  C   UNL     1      15.482 -48.919 -28.974  1.00  0.00     0.024 A 
ATOM      6  C   UNL     1      14.768 -48.778 -27.779  1.00  0.00     0.029 A 
ENDROOT
BRANCH   1   7
ATOM      7  N   UNL     1      14.612 -48.889 -25.353  1.00  0.00    -0.257 N 
ATOM      8  C   UNL     1      14.608 -49.810 -24.212  1.00  0.00     0.144 C 
ATOM      9  C   UNL     1      13.893 -49.000 -23.129  1.00  0.00     0.091 C 
ATOM     10  C   UNL     1      13.348 -47.867 -23.953  1.00  0.00     0.074 C 
ATOM     11  N   UNL     1      13.789 -47.814 -25.174  1.00  0.00    -0.176 NA
BRANCH   8  12
ATOM     12  C   UNL     1      13.879 -51.116 -24.487  1.00  0.00    -0.019 A 
ATOM     13  C   UNL     1      12.456 -53.531 -24.934  1.00  0.00     0.160 A 
ATOM     14  C   UNL     1      13.481 -53.126 -25.799  1.00  0.00     0.051 A 
ATOM     15  C   UNL     1      12.114 -52.695 -23.859  1.00  0.00     0.161 A 
ATOM     16  C   UNL     1      14.178 -51.932 -25.583  1.00  0.00     0.010 A 
ATOM     17  C   UNL     1      12.837 -51.512 -23.636  1.00  0.00     0.056 A 
BRANCH  13  18
ATOM     18  O   UNL     1      11.773 -54.708 -25.078  1.00  0.00    -0.493 OA
ATOM     19  C   UNL     1      12.523 -55.877 -25.388  1.00  0.00     0.278 C 
ENDBRANCH  13  18
BRANCH  15  20
ATOM     20  O   UNL     1      11.142 -52.907 -22.913  1.00  0.00    -0.493 OA
ATOM     21  C   UNL     1      11.007 -51.920 -21.898  1.00  0.00     0.278 C 
ENDBRANCH  15  20
ENDBRANCH   8  12
BRANCH  10  22
ATOM     22  C   UNL     1      12.401 -46.871 -23.406  1.00  0.00     0.037 A 
ATOM     23  C   UNL     1      12.800 -45.528 -23.342  1.00  0.00     0.052 A 
ATOM     24  C   UNL     1      11.129 -47.223 -22.949  1.00  0.00     0.132 A 
ATOM     25  C   UNL     1      11.925 -44.574 -22.834  1.00  0.00     0.124 A 
ATOM     26  C   UNL     1      10.258 -46.259 -22.440  1.00  0.00     0.043 A 
ATOM     27  C   UNL     1      10.658 -44.925 -22.383  1.00  0.00     0.042 A 
ATOM     28  F   UNL     1      10.707 -48.495 -22.972  1.00  0.00    -0.206 F 
ATOM     29  F   UNL     1      12.310 -43.293 -22.777  1.00  0.00    -0.207 F 
ENDBRANCH  10  22
ENDBRANCH   1   7
BRANCH   4  30
ATOM     30  S   UNL     1      17.722 -49.491 -30.439  1.00  0.00     0.238 S 
ATOM     31  O   UNL     1      16.806 -49.357 -31.548  1.00  0.00    -0.207 OA
ATOM     32  O   UNL     1      18.938 -48.719 -30.338  1.00  0.00    -0.207 OA
BRANCH  30  33
ATOM     33  N   UNL     1      18.137 -51.124 -30.395  1.00  0.00    -0.225 NA
ATOM     34  H   UNL     1      17.597 -51.690 -31.049  1.00  0.00     0.137 HD
ATOM     35  H   UNL     1      19.142 -51.210 -30.553  1.00  0.00     0.137 HD
ENDBRANCH  30  33
ENDBRANCH   4  30
TORSDOF 7
ENDMDL
