MODEL 1
REMARK VINA RESULT:   -10.074      0.000      0.000
REMARK INTER + INTRA:         -10.368
REMARK INTER:                 -10.368
REMARK INTRA:                   0.000
REMARK UNBOUND:                 0.000
REMARK SMILES CC1=C[C@@H]2Cc3nc4cc(Cl)ccc4c(N)c3[C@H](C1)C2
REMARK SMILES IDX 1 1 2 2 3 3 4 4 5 5 6 6 7 7 8 8 9 9 10 10 11 11 12 12 13 13
REMARK SMILES IDX 14 14 15 15 17 16 18 17 19 18 20 19 16 20
REMARK H PARENT 16 21 16 22
ROOT
ATOM      1  C   UNL     1       7.125 -58.254 -23.315  1.00  0.00     0.039 C 
ATOM      2  C   UNL     1       8.577 -58.582 -23.107  1.00  0.00    -0.076 C 
ATOM      3  C   UNL     1       9.512 -57.632 -23.160  1.00  0.00    -0.024 C 
ATOM      4  C   UNL     1      11.944 -58.930 -22.155  1.00  0.00     0.018 C 
ATOM      5  C   UNL     1      11.255 -58.352 -23.345  1.00  0.00     0.064 C 
ATOM      6  C   UNL     1      10.473 -59.525 -23.808  1.00  0.00     0.047 A 
ATOM      7  N   UNL     1      10.472 -59.749 -25.133  1.00  0.00    -0.252 NA
ATOM      8  C   UNL     1       9.806 -60.775 -25.683  1.00  0.00     0.074 A 
ATOM      9  C   UNL     1       9.857 -60.933 -27.056  1.00  0.00     0.049 A 
ATOM     10  C   UNL     1       9.169 -61.989 -27.601  1.00  0.00     0.043 A 
ATOM     11  Cl  UNL     1       9.125 -62.339 -29.330  1.00  0.00    -0.084 Cl
ATOM     12  C   UNL     1       8.441 -62.876 -26.817  1.00  0.00     0.021 A 
ATOM     13  C   UNL     1       8.385 -62.724 -25.455  1.00  0.00     0.014 A 
ATOM     14  C   UNL     1       9.081 -61.660 -24.922  1.00  0.00     0.024 A 
ATOM     15  C   UNL     1       9.083 -61.431 -23.572  1.00  0.00     0.046 A 
ATOM     16  C   UNL     1       9.768 -60.377 -23.002  1.00  0.00     0.001 A 
ATOM     17  C   UNL     1       9.823 -60.056 -21.546  1.00  0.00     0.028 C 
ATOM     18  C   UNL     1       9.028 -59.990 -22.832  1.00  0.00     0.039 C 
ATOM     19  C   UNL     1      10.969 -59.183 -21.030  1.00  0.00     0.017 C 
ENDROOT
BRANCH  15  20
ATOM     20  N   UNL     1       8.373 -62.275 -22.674  1.00  0.00    -0.398 N 
ATOM     21  H   UNL     1       7.545 -62.606 -23.255  1.00  0.00     0.156 HD
ATOM     22  H   UNL     1       8.361 -62.671 -21.711  1.00  0.00     0.156 HD
ENDBRANCH  15  20
TORSDOF 1
ENDMDL
MODEL 2
REMARK VINA RESULT:    -9.145      2.273      3.211
REMARK INTER + INTRA:          -9.413
REMARK INTER:                  -9.413
REMARK INTRA:                   0.000
REMARK UNBOUND:                 0.000
REMARK SMILES CC1=C[C@@H]2Cc3nc4cc(Cl)ccc4c(N)c3[C@H](C1)C2
REMARK SMILES IDX 1 1 2 2 3 3 4 4 5 5 6 6 7 7 8 8 9 9 10 10 11 11 12 12 13 13
REMARK SMILES IDX 14 14 15 15 17 16 18 17 19 18 20 19 16 20
REMARK H PARENT 16 21 16 22
ROOT
ATOM      1  C   UNL     1       6.884 -59.929 -23.976  1.00  0.00     0.039 C 
ATOM      2  C   UNL     1       7.952 -60.926 -23.625  1.00  0.00    -0.076 C 
ATOM      3  C   UNL     1       8.705 -60.776 -22.535  1.00  0.00    -0.024 C 
ATOM      4  C   UNL     1      10.137 -63.322 -22.266  1.00  0.00     0.018 C 
ATOM      5  C   UNL     1      10.253 -61.867 -22.577  1.00  0.00     0.064 C 
ATOM      6  C   UNL     1       9.934 -61.868 -24.026  1.00  0.00     0.047 A 
ATOM      7  N   UNL     1      10.716 -61.101 -24.804  1.00  0.00    -0.252 NA
ATOM      8  C   UNL     1      10.536 -61.012 -26.130  1.00  0.00     0.074 A 
ATOM      9  C   UNL     1      11.386 -60.199 -26.857  1.00  0.00     0.049 A 
ATOM     10  C   UNL     1      11.186 -60.119 -28.213  1.00  0.00     0.043 A 
ATOM     11  Cl  UNL     1      12.174 -59.132 -29.290  1.00  0.00    -0.084 Cl
ATOM     12  C   UNL     1      10.171 -60.824 -28.849  1.00  0.00     0.021 A 
ATOM     13  C   UNL     1       9.323 -61.632 -28.134  1.00  0.00     0.014 A 
ATOM     14  C   UNL     1       9.536 -61.702 -26.774  1.00  0.00     0.024 A 
ATOM     15  C   UNL     1       8.741 -62.483 -25.980  1.00  0.00     0.046 A 
ATOM     16  C   UNL     1       8.923 -62.578 -24.615  1.00  0.00     0.001 A 
ATOM     17  C   UNL     1       8.105 -63.403 -23.680  1.00  0.00     0.028 C 
ATOM     18  C   UNL     1       8.210 -62.130 -24.490  1.00  0.00     0.039 C 
ATOM     19  C   UNL     1       8.699 -63.778 -22.320  1.00  0.00     0.017 C 
ENDROOT
BRANCH  15  20
ATOM     20  N   UNL     1       7.672 -63.248 -26.524  1.00  0.00    -0.398 N 
ATOM     21  H   UNL     1       8.095 -63.665 -27.407  1.00  0.00     0.156 HD
ATOM     22  H   UNL     1       6.681 -63.538 -26.388  1.00  0.00     0.156 HD
ENDBRANCH  15  20
TORSDOF 1
ENDMDL
MODEL 3
REMARK VINA RESULT:    -9.080      2.475      3.393
REMARK INTER + INTRA:          -9.345
REMARK INTER:                  -9.345
REMARK INTRA:                   0.000
REMARK UNBOUND:                 0.000
REMARK SMILES CC1=C[C@@H]2Cc3nc4cc(Cl)ccc4c(N)c3[C@H](C1)C2
REMARK SMILES IDX 1 1 2 2 3 3 4 4 5 5 6 6 7 7 8 8 9 9 10 10 11 11 12 12 13 13
REMARK SMILES IDX 14 14 15 15 17 16 18 17 19 18 20 19 16 20
REMARK H PARENT 16 21 16 22
ROOT
ATOM      1  C   UNL     1      11.627 -59.378 -25.842  1.00  0.00     0.039 C 
ATOM      2  C   UNL     1      11.418 -59.084 -24.383  1.00  0.00    -0.076 C 
ATOM      3  C   UNL     1      12.436 -59.112 -23.522  1.00  0.00    -0.024 C 
ATOM      4  C   UNL     1      11.356 -57.942 -21.058  1.00  0.00     0.018 C 
ATOM      5  C   UNL     1      11.850 -59.183 -21.722  1.00  0.00     0.064 C 
ATOM      6  C   UNL     1      10.609 -59.655 -22.385  1.00  0.00     0.047 A 
ATOM      7  N   UNL     1      10.354 -60.971 -22.294  1.00  0.00    -0.252 NA
ATOM      8  C   UNL     1       9.267 -61.527 -22.849  1.00  0.00     0.074 A 
ATOM      9  C   UNL     1       9.080 -62.890 -22.709  1.00  0.00     0.049 A 
ATOM     10  C   UNL     1       7.961 -63.442 -23.283  1.00  0.00     0.043 A 
ATOM     11  Cl  UNL     1       7.567 -65.159 -23.203  1.00  0.00    -0.084 Cl
ATOM     12  C   UNL     1       7.039 -62.673 -23.984  1.00  0.00     0.021 A 
ATOM     13  C   UNL     1       7.218 -61.320 -24.128  1.00  0.00     0.014 A 
ATOM     14  C   UNL     1       8.346 -60.781 -23.545  1.00  0.00     0.024 A 
ATOM     15  C   UNL     1       8.607 -59.440 -23.636  1.00  0.00     0.046 A 
ATOM     16  C   UNL     1       9.725 -58.864 -23.067  1.00  0.00     0.001 A 
ATOM     17  C   UNL     1      10.084 -57.417 -23.118  1.00  0.00     0.028 C 
ATOM     18  C   UNL     1      10.057 -58.745 -23.842  1.00  0.00     0.039 C 
ATOM     19  C   UNL     1      11.055 -56.865 -22.073  1.00  0.00     0.017 C 
ENDROOT
BRANCH  15  20
ATOM     20  N   UNL     1       7.731 -58.559 -24.329  1.00  0.00    -0.398 N 
ATOM     21  H   UNL     1       7.607 -59.032 -25.274  1.00  0.00     0.156 HD
ATOM     22  H   UNL     1       7.194 -57.669 -24.260  1.00  0.00     0.156 HD
ENDBRANCH  15  20
TORSDOF 1
ENDMDL
MODEL 4
REMARK VINA RESULT:    -8.980      8.182     10.449
REMARK INTER + INTRA:          -9.243
REMARK INTER:                  -9.243
REMARK INTRA:                   0.000
REMARK UNBOUND:                 0.000
REMARK SMILES CC1=C[C@@H]2Cc3nc4cc(Cl)ccc4c(N)c3[C@H](C1)C2
REMARK SMILES IDX 1 1 2 2 3 3 4 4 5 5 6 6 7 7 8 8 9 9 10 10 11 11 12 12 13 13
REMARK SMILES IDX 14 14 15 15 17 16 18 17 19 18 20 19 16 20
REMARK H PARENT 16 21 16 22
ROOT
ATOM      1  C   UNL     1      15.950 -50.807 -22.953  1.00  0.00     0.039 C 
ATOM      2  C   UNL     1      14.720 -50.031 -23.334  1.00  0.00    -0.076 C 
ATOM      3  C   UNL     1      14.275 -49.029 -22.575  1.00  0.00    -0.024 C 
ATOM      4  C   UNL     1      12.223 -47.716 -24.210  1.00  0.00     0.018 C 
ATOM      5  C   UNL     1      12.492 -48.546 -23.000  1.00  0.00     0.064 C 
ATOM      6  C   UNL     1      12.509 -49.905 -23.595  1.00  0.00     0.047 A 
ATOM      7  N   UNL     1      11.858 -50.859 -22.907  1.00  0.00    -0.252 NA
ATOM      8  C   UNL     1      11.796 -52.129 -23.333  1.00  0.00     0.074 A 
ATOM      9  C   UNL     1      11.106 -53.048 -22.565  1.00  0.00     0.049 A 
ATOM     10  C   UNL     1      11.053 -54.344 -23.017  1.00  0.00     0.043 A 
ATOM     11  Cl  UNL     1      10.219 -55.643 -22.164  1.00  0.00    -0.084 Cl
ATOM     12  C   UNL     1      11.665 -54.735 -24.202  1.00  0.00     0.021 A 
ATOM     13  C   UNL     1      12.351 -53.828 -24.969  1.00  0.00     0.014 A 
ATOM     14  C   UNL     1      12.396 -52.532 -24.503  1.00  0.00     0.024 A 
ATOM     15  C   UNL     1      13.057 -51.559 -25.202  1.00  0.00     0.046 A 
ATOM     16  C   UNL     1      13.124 -50.250 -24.767  1.00  0.00     0.001 A 
ATOM     17  C   UNL     1      13.821 -49.132 -25.466  1.00  0.00     0.028 C 
ATOM     18  C   UNL     1      13.949 -50.354 -24.584  1.00  0.00     0.039 C 
ATOM     19  C   UNL     1      13.417 -47.694 -25.133  1.00  0.00     0.017 C 
ENDROOT
BRANCH  15  20
ATOM     20  N   UNL     1      13.719 -51.846 -26.429  1.00  0.00    -0.398 N 
ATOM     21  H   UNL     1      13.801 -50.890 -26.890  1.00  0.00     0.156 HD
ATOM     22  H   UNL     1      14.131 -52.603 -27.013  1.00  0.00     0.156 HD
ENDBRANCH  15  20
TORSDOF 1
ENDMDL
MODEL 5
REMARK VINA RESULT:    -8.250      1.812      3.428
REMARK INTER + INTRA:          -8.491
REMARK INTER:                  -8.491
REMARK INTRA:                   0.000
REMARK UNBOUND:                 0.000
REMARK SMILES CC1=C[C@@H]2Cc3nc4cc(Cl)ccc4c(N)c3[C@H](C1)C2
REMARK SMILES IDX 1 1 2 2 3 3 4 4 5 5 6 6 7 7 8 8 9 9 10 10 11 11 12 12 13 13
REMARK SMILES IDX 14 14 15 15 17 16 18 17 19 18 20 19 16 20
REMARK H PARENT 16 21 16 22
ROOT
ATOM      1  C   UNL     1      13.551 -61.058 -24.268  1.00  0.00     0.039 C 
ATOM      2  C   UNL     1      12.513 -60.050 -23.863  1.00  0.00    -0.076 C 
ATOM      3  C   UNL     1      12.356 -59.697 -22.587  1.00  0.00    -0.024 C 
ATOM      4  C   UNL     1      10.569 -57.372 -22.675  1.00  0.00     0.018 C 
ATOM      5  C   UNL     1      10.710 -58.806 -22.288  1.00  0.00     0.064 C 
ATOM      6  C   UNL     1      10.379 -59.473 -23.571  1.00  0.00     0.047 A 
ATOM      7  N   UNL     1       9.568 -60.542 -23.488  1.00  0.00    -0.252 NA
ATOM      8  C   UNL     1       9.190 -61.235 -24.572  1.00  0.00     0.074 A 
ATOM      9  C   UNL     1       8.353 -62.322 -24.400  1.00  0.00     0.049 A 
ATOM     10  C   UNL     1       7.977 -63.021 -25.521  1.00  0.00     0.043 A 
ATOM     11  Cl  UNL     1       6.918 -64.431 -25.484  1.00  0.00    -0.084 Cl
ATOM     12  C   UNL     1       8.412 -62.662 -26.791  1.00  0.00     0.021 A 
ATOM     13  C   UNL     1       9.243 -61.585 -26.970  1.00  0.00     0.014 A 
ATOM     14  C   UNL     1       9.612 -60.894 -25.836  1.00  0.00     0.024 A 
ATOM     15  C   UNL     1      10.437 -59.805 -25.917  1.00  0.00     0.046 A 
ATOM     16  C   UNL     1      10.828 -59.088 -24.804  1.00  0.00     0.001 A 
ATOM     17  C   UNL     1      11.722 -57.894 -24.805  1.00  0.00     0.028 C 
ATOM     18  C   UNL     1      11.617 -59.401 -24.881  1.00  0.00     0.039 C 
ATOM     19  C   UNL     1      11.680 -56.946 -23.604  1.00  0.00     0.017 C 
ENDROOT
BRANCH  15  20
ATOM     20  N   UNL     1      10.942 -59.348 -27.166  1.00  0.00    -0.398 N 
ATOM     21  H   UNL     1      11.084 -58.306 -27.005  1.00  0.00     0.156 HD
ATOM     22  H   UNL     1      11.211 -59.638 -28.130  1.00  0.00     0.156 HD
ENDBRANCH  15  20
TORSDOF 1
ENDMDL
MODEL 6
REMARK VINA RESULT:    -8.152      9.904     12.281
REMARK INTER + INTRA:          -8.391
REMARK INTER:                  -8.391
REMARK INTRA:                   0.000
REMARK UNBOUND:                 0.000
REMARK SMILES CC1=C[C@@H]2Cc3nc4cc(Cl)ccc4c(N)c3[C@H](C1)C2
REMARK SMILES IDX 1 1 2 2 3 3 4 4 5 5 6 6 7 7 8 8 9 9 10 10 11 11 12 12 13 13
REMARK SMILES IDX 14 14 15 15 17 16 18 17 19 18 20 19 16 20
REMARK H PARENT 16 21 16 22
ROOT
ATOM      1  C   UNL     1      14.482 -47.719 -21.301  1.00  0.00     0.039 C 
ATOM      2  C   UNL     1      13.259 -47.326 -22.081  1.00  0.00    -0.076 C 
ATOM      3  C   UNL     1      12.375 -46.458 -21.585  1.00  0.00    -0.024 C 
ATOM      4  C   UNL     1      10.615 -45.821 -23.844  1.00  0.00     0.018 C 
ATOM      5  C   UNL     1      10.728 -46.500 -22.520  1.00  0.00     0.064 C 
ATOM      6  C   UNL     1      11.259 -47.823 -22.933  1.00  0.00     0.047 A 
ATOM      7  N   UNL     1      10.703 -48.893 -22.340  1.00  0.00    -0.252 NA
ATOM      8  C   UNL     1      11.090 -50.146 -22.622  1.00  0.00     0.074 A 
ATOM      9  C   UNL     1      10.466 -51.192 -21.967  1.00  0.00     0.049 A 
ATOM     10  C   UNL     1      10.875 -52.468 -22.268  1.00  0.00     0.043 A 
ATOM     11  Cl  UNL     1      10.190 -53.914 -21.527  1.00  0.00    -0.084 Cl
ATOM     12  C   UNL     1      11.880 -52.718 -23.196  1.00  0.00     0.021 A 
ATOM     13  C   UNL     1      12.503 -51.685 -23.849  1.00  0.00     0.014 A 
ATOM     14  C   UNL     1      12.082 -50.411 -23.537  1.00  0.00     0.024 A 
ATOM     15  C   UNL     1      12.646 -49.319 -24.140  1.00  0.00     0.046 A 
ATOM     16  C   UNL     1      12.251 -48.028 -23.853  1.00  0.00     0.001 A 
ATOM     17  C   UNL     1      12.811 -46.787 -24.461  1.00  0.00     0.028 C 
ATOM     18  C   UNL     1      12.987 -47.894 -23.446  1.00  0.00     0.039 C 
ATOM     19  C   UNL     1      11.977 -45.505 -24.412  1.00  0.00     0.017 C 
ENDROOT
BRANCH  15  20
ATOM     20  N   UNL     1      13.682 -49.457 -25.105  1.00  0.00    -0.398 N 
ATOM     21  H   UNL     1      14.404 -50.055 -24.604  1.00  0.00     0.156 HD
ATOM     22  H   UNL     1      13.981 -49.204 -26.071  1.00  0.00     0.156 HD
ENDBRANCH  15  20
TORSDOF 1
ENDMDL
MODEL 7
REMARK VINA RESULT:    -7.899     10.419     12.843
REMARK INTER + INTRA:          -8.130
REMARK INTER:                  -8.130
REMARK INTRA:                   0.000
REMARK UNBOUND:                 0.000
REMARK SMILES CC1=C[C@@H]2Cc3nc4cc(Cl)ccc4c(N)c3[C@H](C1)C2
REMARK SMILES IDX 1 1 2 2 3 3 4 4 5 5 6 6 7 7 8 8 9 9 10 10 11 11 12 12 13 13
REMARK SMILES IDX 14 14 15 15 17 16 18 17 19 18 20 19 16 20
REMARK H PARENT 16 21 16 22
ROOT
ATOM      1  C   UNL     1      15.658 -49.080 -22.243  1.00  0.00     0.039 C 
ATOM      2  C   UNL     1      14.894 -49.651 -23.404  1.00  0.00    -0.076 C 
ATOM      3  C   UNL     1      15.465 -49.796 -24.601  1.00  0.00    -0.024 C 
ATOM      4  C   UNL     1      13.563 -51.415 -26.139  1.00  0.00     0.018 C 
ATOM      5  C   UNL     1      14.190 -50.071 -25.975  1.00  0.00     0.064 C 
ATOM      6  C   UNL     1      13.297 -49.473 -24.952  1.00  0.00     0.047 A 
ATOM      7  N   UNL     1      12.930 -48.198 -25.162  1.00  0.00    -0.252 NA
ATOM      8  C   UNL     1      12.126 -47.539 -24.315  1.00  0.00     0.074 A 
ATOM      9  C   UNL     1      11.795 -46.228 -24.606  1.00  0.00     0.049 A 
ATOM     10  C   UNL     1      10.971 -45.568 -23.727  1.00  0.00     0.043 A 
ATOM     11  Cl  UNL     1      10.452 -43.896 -23.942  1.00  0.00    -0.084 Cl
ATOM     12  C   UNL     1      10.477 -46.181 -22.581  1.00  0.00     0.021 A 
ATOM     13  C   UNL     1      10.801 -47.481 -22.286  1.00  0.00     0.014 A 
ATOM     14  C   UNL     1      11.629 -48.130 -23.177  1.00  0.00     0.024 A 
ATOM     15  C   UNL     1      12.004 -49.429 -22.965  1.00  0.00     0.046 A 
ATOM     16  C   UNL     1      12.831 -50.111 -23.835  1.00  0.00     0.001 A 
ATOM     17  C   UNL     1      13.288 -51.523 -23.679  1.00  0.00     0.028 C 
ATOM     18  C   UNL     1      13.460 -50.080 -23.260  1.00  0.00     0.039 C 
ATOM     19  C   UNL     1      13.785 -52.273 -24.917  1.00  0.00     0.017 C 
ENDROOT
BRANCH  15  20
ATOM     20  N   UNL     1      11.558 -50.154 -21.826  1.00  0.00    -0.398 N 
ATOM     21  H   UNL     1      10.554 -49.824 -21.705  1.00  0.00     0.156 HD
ATOM     22  H   UNL     1      11.833 -50.852 -21.103  1.00  0.00     0.156 HD
ENDBRANCH  15  20
TORSDOF 1
ENDMDL
MODEL 8
REMARK VINA RESULT:    -7.761      2.916      3.943
REMARK INTER + INTRA:          -7.988
REMARK INTER:                  -7.988
REMARK INTRA:                   0.000
REMARK UNBOUND:                 0.000
REMARK SMILES CC1=C[C@@H]2Cc3nc4cc(Cl)ccc4c(N)c3[C@H](C1)C2
REMARK SMILES IDX 1 1 2 2 3 3 4 4 5 5 6 6 7 7 8 8 9 9 10 10 11 11 12 12 13 13
REMARK SMILES IDX 14 14 15 15 17 16 18 17 19 18 20 19 16 20
REMARK H PARENT 16 21 16 22
ROOT
ATOM      1  C   UNL     1      10.334 -60.397 -20.103  1.00  0.00     0.039 C 
ATOM      2  C   UNL     1      10.649 -59.691 -21.391  1.00  0.00    -0.076 C 
ATOM      3  C   UNL     1      11.279 -58.515 -21.397  1.00  0.00    -0.024 C 
ATOM      4  C   UNL     1      11.979 -58.063 -24.210  1.00  0.00     0.018 C 
ATOM      5  C   UNL     1      11.127 -57.629 -23.065  1.00  0.00     0.064 C 
ATOM      6  C   UNL     1       9.984 -58.566 -23.200  1.00  0.00     0.047 A 
ATOM      7  N   UNL     1       8.761 -58.032 -23.048  1.00  0.00    -0.252 NA
ATOM      8  C   UNL     1       7.644 -58.768 -23.145  1.00  0.00     0.074 A 
ATOM      9  C   UNL     1       6.424 -58.140 -22.975  1.00  0.00     0.049 A 
ATOM     10  C   UNL     1       5.291 -58.909 -23.078  1.00  0.00     0.043 A 
ATOM     11  Cl  UNL     1       3.657 -58.272 -22.889  1.00  0.00    -0.084 Cl
ATOM     12  C   UNL     1       5.350 -60.272 -23.342  1.00  0.00     0.021 A 
ATOM     13  C   UNL     1       6.557 -60.903 -23.511  1.00  0.00     0.014 A 
ATOM     14  C   UNL     1       7.685 -60.117 -23.406  1.00  0.00     0.024 A 
ATOM     15  C   UNL     1       8.932 -60.660 -23.560  1.00  0.00     0.046 A 
ATOM     16  C   UNL     1      10.084 -59.906 -23.462  1.00  0.00     0.001 A 
ATOM     17  C   UNL     1      11.477 -60.416 -23.616  1.00  0.00     0.028 C 
ATOM     18  C   UNL     1      10.266 -60.283 -22.720  1.00  0.00     0.039 C 
ATOM     19  C   UNL     1      12.590 -59.420 -23.951  1.00  0.00     0.017 C 
ENDROOT
BRANCH  15  20
ATOM     20  N   UNL     1       9.111 -62.044 -23.835  1.00  0.00    -0.398 N 
ATOM     21  H   UNL     1       9.070 -62.491 -22.870  1.00  0.00     0.156 HD
ATOM     22  H   UNL     1       9.259 -62.748 -24.588  1.00  0.00     0.156 HD
ENDBRANCH  15  20
TORSDOF 1
ENDMDL
MODEL 9
REMARK VINA RESULT:    -7.629      9.572     11.886
REMARK INTER + INTRA:          -7.852
REMARK INTER:                  -7.852
REMARK INTRA:                   0.000
REMARK UNBOUND:                 0.000
REMARK SMILES CC1=C[C@@H]2Cc3nc4cc(Cl)ccc4c(N)c3[C@H](C1)C2
REMARK SMILES IDX 1 1 2 2 3 3 4 4 5 5 6 6 7 7 8 8 9 9 10 10 11 11 12 12 13 13
REMARK SMILES IDX 14 14 15 15 17 16 18 17 19 18 20 19 16 20
REMARK H PARENT 16 21 16 22
ROOT
ATOM      1  C   UNL     1      14.379 -49.910 -27.369  1.00  0.00     0.039 C 
ATOM      2  C   UNL     1      14.091 -50.428 -25.988  1.00  0.00    -0.076 C 
ATOM      3  C   UNL     1      13.369 -49.716 -25.121  1.00  0.00    -0.024 C 
ATOM      4  C   UNL     1      12.815 -51.572 -22.917  1.00  0.00     0.018 C 
ATOM      5  C   UNL     1      13.554 -50.349 -23.344  1.00  0.00     0.064 C 
ATOM      6  C   UNL     1      14.775 -50.954 -23.931  1.00  0.00     0.047 A 
ATOM      7  N   UNL     1      15.939 -50.363 -23.613  1.00  0.00    -0.252 NA
ATOM      8  C   UNL     1      17.116 -50.810 -24.076  1.00  0.00     0.074 A 
ATOM      9  C   UNL     1      18.268 -50.143 -23.700  1.00  0.00     0.049 A 
ATOM     10  C   UNL     1      19.464 -50.615 -24.184  1.00  0.00     0.043 A 
ATOM     11  Cl  UNL     1      21.025 -49.886 -23.807  1.00  0.00    -0.084 Cl
ATOM     12  C   UNL     1      19.533 -51.722 -25.022  1.00  0.00     0.021 A 
ATOM     13  C   UNL     1      18.394 -52.388 -25.399  1.00  0.00     0.014 A 
ATOM     14  C   UNL     1      17.202 -51.903 -24.906  1.00  0.00     0.024 A 
ATOM     15  C   UNL     1      16.015 -52.504 -25.228  1.00  0.00     0.046 A 
ATOM     16  C   UNL     1      14.802 -52.048 -24.754  1.00  0.00     0.001 A 
ATOM     17  C   UNL     1      13.467 -52.642 -25.055  1.00  0.00     0.028 C 
ATOM     18  C   UNL     1      14.604 -51.767 -25.533  1.00  0.00     0.039 C 
ATOM     19  C   UNL     1      12.301 -52.342 -24.110  1.00  0.00     0.017 C 
ENDROOT
BRANCH  15  20
ATOM     20  N   UNL     1      15.967 -53.644 -26.078  1.00  0.00    -0.398 N 
ATOM     21  H   UNL     1      16.941 -53.670 -26.506  1.00  0.00     0.156 HD
ATOM     22  H   UNL     1      15.365 -54.423 -26.419  1.00  0.00     0.156 HD
ENDBRANCH  15  20
TORSDOF 1
ENDMDL
