MODEL 1
REMARK VINA RESULT:   -11.269      0.000      0.000
REMARK INTER + INTRA:         -18.013
REMARK INTER:                 -17.197
REMARK INTRA:                  -0.816
REMARK UNBOUND:                -0.816
REMARK SMILES COc1cc2cc(C(=O)CCc3cc[n+](Cc4ccc([N+](=O)[O-])o4)cc3)sc2cc1OC
REMARK SMILES IDX 11 1 10 2 8 3 9 4 7 5 3 6 4 7 30 8 5 9 29 10 6 11 28 12
REMARK SMILES IDX 27 13 2 14 1 15 31 16 32 17 12 18 13 19 26 20 14 21 25 22
REMARK SMILES IDX 15 23 16 24 17 25 18 26 24 27 19 28 20 29 21 30 22 31 23 32
REMARK H PARENT
ROOT
ATOM      1  C   UNL     1      11.016 -56.011 -21.784  1.00  0.00     0.044 C 
ENDROOT
BRANCH   1   2
ATOM      2  C   UNL     1      10.208 -54.979 -22.525  1.00  0.00     0.087 C 
BRANCH   2   3
ATOM      3  C   UNL     1      10.977 -53.700 -22.439  1.00  0.00     0.173 C 
ATOM      4  O   UNL     1      10.441 -53.441 -21.295  1.00  0.00    -0.293 OA
BRANCH   3   5
ATOM      5  C   UNL     1      11.812 -53.575 -23.685  1.00  0.00     0.071 A 
ATOM      6  C   UNL     1      13.501 -49.150 -25.151  1.00  0.00     0.161 A 
ATOM      7  C   UNL     1      12.779 -49.765 -24.180  1.00  0.00     0.060 A 
ATOM      8  C   UNL     1      14.073 -49.813 -26.199  1.00  0.00     0.162 A 
ATOM      9  C   UNL     1      12.516 -51.109 -24.100  1.00  0.00    -0.003 A 
ATOM     10  C   UNL     1      13.900 -51.185 -26.266  1.00  0.00     0.070 A 
ATOM     11  C   UNL     1      11.869 -52.131 -23.381  1.00  0.00     0.032 A 
ATOM     12  C   UNL     1      13.143 -51.631 -25.199  1.00  0.00     0.039 A 
ATOM     13  S   UNL     1      12.821 -53.423 -25.187  1.00  0.00    -0.132 S 
BRANCH   6  14
ATOM     14  O   UNL     1      13.638 -47.786 -25.034  1.00  0.00    -0.493 OA
ATOM     15  C   UNL     1      12.689 -47.014 -24.346  1.00  0.00     0.278 C 
ENDBRANCH   6  14
BRANCH   8  16
ATOM     16  O   UNL     1      14.800 -49.187 -27.181  1.00  0.00    -0.493 OA
ATOM     17  C   UNL     1      16.201 -49.370 -27.240  1.00  0.00     0.278 C 
ENDBRANCH   8  16
ENDBRANCH   3   5
ENDBRANCH   2   3
ENDBRANCH   1   2
BRANCH   1  18
ATOM     18  C   UNL     1      11.313 -57.229 -22.546  1.00  0.00    -0.036 A 
ATOM     19  C   UNL     1      11.714 -57.482 -23.842  1.00  0.00     0.074 A 
ATOM     20  C   UNL     1      11.110 -58.374 -21.755  1.00  0.00     0.074 A 
ATOM     21  C   UNL     1      11.892 -58.754 -24.290  1.00  0.00     0.309 A 
ATOM     22  C   UNL     1      11.307 -59.639 -22.261  1.00  0.00     0.309 A 
ATOM     23  N   UNL     1      11.703 -59.848 -23.542  1.00  0.00    -0.198 N 
BRANCH  23  24
ATOM     24  C   UNL     1      11.897 -61.219 -23.958  1.00  0.00     0.432 C 
BRANCH  24  25
ATOM     25  C   UNL     1      10.632 -62.022 -23.870  1.00  0.00     0.176 A 
ATOM     26  C   UNL     1      10.239 -62.855 -22.847  1.00  0.00     0.060 A 
ATOM     27  O   UNL     1       9.690 -62.056 -24.776  1.00  0.00    -0.399 OA
ATOM     28  C   UNL     1       8.994 -63.399 -23.186  1.00  0.00     0.134 A 
ATOM     29  C   UNL     1       8.711 -62.855 -24.409  1.00  0.00     0.433 A 
BRANCH  29  30
ATOM     30  N   UNL     1       7.525 -63.149 -25.118  1.00  0.00     0.102 N 
ATOM     31  O   UNL     1       7.277 -63.773 -26.149  1.00  0.00    -0.256 OA
ATOM     32  O   UNL     1       6.319 -62.682 -24.631  1.00  0.00    -0.256 OA
ENDBRANCH  29  30
ENDBRANCH  24  25
ENDBRANCH  23  24
ENDBRANCH   1  18
TORSDOF 9
ENDMDL
MODEL 2
REMARK VINA RESULT:   -11.002      1.234      1.665
REMARK INTER + INTRA:         -17.606
REMARK INTER:                 -16.935
REMARK INTRA:                  -0.671
REMARK UNBOUND:                -0.816
REMARK SMILES COc1cc2cc(C(=O)CCc3cc[n+](Cc4ccc([N+](=O)[O-])o4)cc3)sc2cc1OC
REMARK SMILES IDX 11 1 10 2 8 3 9 4 7 5 3 6 4 7 30 8 5 9 29 10 6 11 28 12
REMARK SMILES IDX 27 13 2 14 1 15 31 16 32 17 12 18 13 19 26 20 14 21 25 22
REMARK SMILES IDX 15 23 16 24 17 25 18 26 24 27 19 28 20 29 21 30 22 31 23 32
REMARK H PARENT
ROOT
ATOM      1  C   UNL     1      11.010 -55.719 -21.769  1.00  0.00     0.044 C 
ENDROOT
BRANCH   1   2
ATOM      2  C   UNL     1      10.393 -54.611 -22.580  1.00  0.00     0.087 C 
BRANCH   2   3
ATOM      3  C   UNL     1      10.930 -53.332 -22.025  1.00  0.00     0.173 C 
ATOM      4  O   UNL     1      10.305 -53.537 -20.915  1.00  0.00    -0.293 OA
BRANCH   3   5
ATOM      5  C   UNL     1      11.790 -52.690 -23.081  1.00  0.00     0.071 A 
ATOM      6  C   UNL     1      12.011 -47.754 -23.492  1.00  0.00     0.161 A 
ATOM      7  C   UNL     1      11.450 -48.755 -22.767  1.00  0.00     0.060 A 
ATOM      8  C   UNL     1      12.872 -47.967 -24.530  1.00  0.00     0.162 A 
ATOM      9  C   UNL     1      11.652 -50.099 -22.957  1.00  0.00    -0.003 A 
ATOM     10  C   UNL     1      13.182 -49.277 -24.854  1.00  0.00     0.070 A 
ATOM     11  C   UNL     1      11.324 -51.400 -22.533  1.00  0.00     0.032 A 
ATOM     12  C   UNL     1      12.521 -50.153 -24.012  1.00  0.00     0.039 A 
ATOM     13  S   UNL     1      12.827 -51.915 -24.353  1.00  0.00    -0.132 S 
BRANCH   6  14
ATOM     14  O   UNL     1      11.666 -46.474 -23.127  1.00  0.00    -0.493 OA
ATOM     15  C   UNL     1      10.536 -46.220 -22.334  1.00  0.00     0.278 C 
ENDBRANCH   6  14
BRANCH   8  16
ATOM     16  O   UNL     1      13.435 -46.951 -25.263  1.00  0.00    -0.493 OA
ATOM     17  C   UNL     1      14.544 -46.244 -24.743  1.00  0.00     0.278 C 
ENDBRANCH   8  16
ENDBRANCH   3   5
ENDBRANCH   2   3
ENDBRANCH   1   2
BRANCH   1  18
ATOM     18  C   UNL     1      11.347 -56.929 -22.528  1.00  0.00    -0.036 A 
ATOM     19  C   UNL     1      11.747 -57.172 -23.827  1.00  0.00     0.074 A 
ATOM     20  C   UNL     1      11.194 -58.076 -21.731  1.00  0.00     0.074 A 
ATOM     21  C   UNL     1      11.969 -58.439 -24.270  1.00  0.00     0.309 A 
ATOM     22  C   UNL     1      11.434 -59.336 -22.232  1.00  0.00     0.309 A 
ATOM     23  N   UNL     1      11.827 -59.536 -23.515  1.00  0.00    -0.198 N 
BRANCH  23  24
ATOM     24  C   UNL     1      12.069 -60.900 -23.928  1.00  0.00     0.432 C 
BRANCH  24  25
ATOM     25  C   UNL     1      10.820 -61.732 -23.893  1.00  0.00     0.176 A 
ATOM     26  C   UNL     1      10.450 -62.650 -22.935  1.00  0.00     0.060 A 
ATOM     27  O   UNL     1       9.870 -61.713 -24.792  1.00  0.00    -0.399 OA
ATOM     28  C   UNL     1       9.213 -63.190 -23.307  1.00  0.00     0.134 A 
ATOM     29  C   UNL     1       8.909 -62.557 -24.482  1.00  0.00     0.433 A 
BRANCH  29  30
ATOM     30  N   UNL     1       7.723 -62.817 -25.203  1.00  0.00     0.102 N 
ATOM     31  O   UNL     1       7.484 -63.219 -26.341  1.00  0.00    -0.256 OA
ATOM     32  O   UNL     1       6.504 -62.611 -24.586  1.00  0.00    -0.256 OA
ENDBRANCH  29  30
ENDBRANCH  24  25
ENDBRANCH  23  24
ENDBRANCH   1  18
TORSDOF 9
ENDMDL
MODEL 3
REMARK VINA RESULT:   -10.629      1.409      2.418
REMARK INTER + INTRA:         -17.037
REMARK INTER:                 -16.284
REMARK INTRA:                  -0.753
REMARK UNBOUND:                -0.816
REMARK SMILES COc1cc2cc(C(=O)CCc3cc[n+](Cc4ccc([N+](=O)[O-])o4)cc3)sc2cc1OC
REMARK SMILES IDX 11 1 10 2 8 3 9 4 7 5 3 6 4 7 30 8 5 9 29 10 6 11 28 12
REMARK SMILES IDX 27 13 2 14 1 15 31 16 32 17 12 18 13 19 26 20 14 21 25 22
REMARK SMILES IDX 15 23 16 24 17 25 18 26 24 27 19 28 20 29 21 30 22 31 23 32
REMARK H PARENT
ROOT
ATOM      1  C   UNL     1      11.306 -55.865 -21.999  1.00  0.00     0.044 C 
ENDROOT
BRANCH   1   2
ATOM      2  C   UNL     1       9.972 -55.206 -22.224  1.00  0.00     0.087 C 
BRANCH   2   3
ATOM      3  C   UNL     1      10.198 -54.131 -23.237  1.00  0.00     0.173 C 
ATOM      4  O   UNL     1       9.872 -54.941 -24.187  1.00  0.00    -0.293 OA
BRANCH   3   5
ATOM      5  C   UNL     1      10.640 -52.890 -22.509  1.00  0.00     0.071 A 
ATOM      6  C   UNL     1      14.262 -50.046 -24.345  1.00  0.00     0.161 A 
ATOM      7  C   UNL     1      13.537 -51.168 -24.590  1.00  0.00     0.060 A 
ATOM      8  C   UNL     1      14.077 -49.255 -23.247  1.00  0.00     0.162 A 
ATOM      9  C   UNL     1      12.536 -51.670 -23.798  1.00  0.00    -0.003 A 
ATOM     10  C   UNL     1      13.097 -49.625 -22.342  1.00  0.00     0.070 A 
ATOM     11  C   UNL     1      11.595 -52.700 -23.619  1.00  0.00     0.032 A 
ATOM     12  C   UNL     1      12.469 -50.785 -22.756  1.00  0.00     0.039 A 
ATOM     13  S   UNL     1      11.172 -51.392 -21.632  1.00  0.00    -0.132 S 
BRANCH   6  14
ATOM     14  O   UNL     1      15.222 -49.728 -25.277  1.00  0.00    -0.493 OA
ATOM     15  C   UNL     1      16.231 -50.640 -25.626  1.00  0.00     0.278 C 
ENDBRANCH   6  14
BRANCH   8  16
ATOM     16  O   UNL     1      14.815 -48.123 -23.002  1.00  0.00    -0.493 OA
ATOM     17  C   UNL     1      14.184 -46.856 -23.031  1.00  0.00     0.278 C 
ENDBRANCH   8  16
ENDBRANCH   3   5
ENDBRANCH   2   3
ENDBRANCH   1   2
BRANCH   1  18
ATOM     18  C   UNL     1      11.338 -57.308 -22.265  1.00  0.00    -0.036 A 
ATOM     19  C   UNL     1      11.078 -58.433 -21.508  1.00  0.00     0.074 A 
ATOM     20  C   UNL     1      11.749 -57.564 -23.584  1.00  0.00     0.074 A 
ATOM     21  C   UNL     1      11.220 -59.681 -22.030  1.00  0.00     0.309 A 
ATOM     22  C   UNL     1      11.874 -58.850 -24.060  1.00  0.00     0.309 A 
ATOM     23  N   UNL     1      11.609 -59.932 -23.286  1.00  0.00    -0.198 N 
BRANCH  23  24
ATOM     24  C   UNL     1      11.756 -61.234 -23.898  1.00  0.00     0.432 C 
BRANCH  24  25
ATOM     25  C   UNL     1      10.503 -62.054 -23.791  1.00  0.00     0.176 A 
ATOM     26  C   UNL     1      10.191 -62.984 -22.824  1.00  0.00     0.060 A 
ATOM     27  O   UNL     1       9.494 -62.011 -24.622  1.00  0.00    -0.399 OA
ATOM     28  C   UNL     1       8.925 -63.505 -23.118  1.00  0.00     0.134 A 
ATOM     29  C   UNL     1       8.548 -62.850 -24.259  1.00  0.00     0.433 A 
BRANCH  29  30
ATOM     30  N   UNL     1       7.312 -63.087 -24.901  1.00  0.00     0.102 N 
ATOM     31  O   UNL     1       6.153 -62.737 -24.681  1.00  0.00    -0.256 OA
ATOM     32  O   UNL     1       7.286 -63.871 -26.038  1.00  0.00    -0.256 OA
ENDBRANCH  29  30
ENDBRANCH  24  25
ENDBRANCH  23  24
ENDBRANCH   1  18
TORSDOF 9
ENDMDL
MODEL 4
REMARK VINA RESULT:   -10.443      1.618      2.463
REMARK INTER + INTRA:         -16.753
REMARK INTER:                 -16.173
REMARK INTRA:                  -0.580
REMARK UNBOUND:                -0.816
REMARK SMILES COc1cc2cc(C(=O)CCc3cc[n+](Cc4ccc([N+](=O)[O-])o4)cc3)sc2cc1OC
REMARK SMILES IDX 11 1 10 2 8 3 9 4 7 5 3 6 4 7 30 8 5 9 29 10 6 11 28 12
REMARK SMILES IDX 27 13 2 14 1 15 31 16 32 17 12 18 13 19 26 20 14 21 25 22
REMARK SMILES IDX 15 23 16 24 17 25 18 26 24 27 19 28 20 29 21 30 22 31 23 32
REMARK H PARENT
ROOT
ATOM      1  C   UNL     1      10.975 -55.088 -21.317  1.00  0.00     0.044 C 
ENDROOT
BRANCH   1   2
ATOM      2  C   UNL     1      10.987 -54.092 -22.446  1.00  0.00     0.087 C 
BRANCH   2   3
ATOM      3  C   UNL     1       9.992 -53.037 -22.088  1.00  0.00     0.173 C 
ATOM      4  O   UNL     1       9.138 -53.941 -21.746  1.00  0.00    -0.293 OA
BRANCH   3   5
ATOM      5  C   UNL     1      10.618 -51.695 -22.359  1.00  0.00     0.071 A 
ATOM      6  C   UNL     1      14.666 -51.331 -25.197  1.00  0.00     0.161 A 
ATOM      7  C   UNL     1      13.775 -52.222 -24.693  1.00  0.00     0.060 A 
ATOM      8  C   UNL     1      14.598 -49.986 -24.969  1.00  0.00     0.162 A 
ATOM      9  C   UNL     1      12.698 -51.923 -23.898  1.00  0.00    -0.003 A 
ATOM     10  C   UNL     1      13.562 -49.517 -24.180  1.00  0.00     0.070 A 
ATOM     11  C   UNL     1      11.603 -52.432 -23.175  1.00  0.00     0.032 A 
ATOM     12  C   UNL     1      12.761 -50.563 -23.760  1.00  0.00     0.039 A 
ATOM     13  S   UNL     1      11.372 -50.077 -22.688  1.00  0.00    -0.132 S 
BRANCH   6  14
ATOM     14  O   UNL     1      15.675 -51.853 -25.973  1.00  0.00    -0.493 OA
ATOM     15  C   UNL     1      16.769 -52.518 -25.396  1.00  0.00     0.278 C 
ENDBRANCH   6  14
BRANCH   8  16
ATOM     16  O   UNL     1      15.504 -49.088 -25.478  1.00  0.00    -0.493 OA
ATOM     17  C   UNL     1      16.277 -48.297 -24.596  1.00  0.00     0.278 C 
ENDBRANCH   8  16
ENDBRANCH   3   5
ENDBRANCH   2   3
ENDBRANCH   1   2
BRANCH   1  18
ATOM     18  C   UNL     1      11.181 -56.484 -21.720  1.00  0.00    -0.036 A 
ATOM     19  C   UNL     1      11.306 -57.677 -21.036  1.00  0.00     0.074 A 
ATOM     20  C   UNL     1      11.295 -56.589 -23.117  1.00  0.00     0.074 A 
ATOM     21  C   UNL     1      11.522 -58.847 -21.694  1.00  0.00     0.309 A 
ATOM     22  C   UNL     1      11.513 -57.802 -23.731  1.00  0.00     0.309 A 
ATOM     23  N   UNL     1      11.630 -58.954 -23.024  1.00  0.00    -0.198 N 
BRANCH  23  24
ATOM     24  C   UNL     1      11.838 -60.172 -23.775  1.00  0.00     0.432 C 
BRANCH  24  25
ATOM     25  C   UNL     1      10.632 -61.065 -23.750  1.00  0.00     0.176 A 
ATOM     26  C   UNL     1      10.597 -62.419 -23.498  1.00  0.00     0.060 A 
ATOM     27  O   UNL     1       9.401 -60.686 -23.974  1.00  0.00    -0.399 OA
ATOM     28  C   UNL     1       9.265 -62.841 -23.580  1.00  0.00     0.134 A 
ATOM     29  C   UNL     1       8.570 -61.702 -23.882  1.00  0.00     0.433 A 
BRANCH  29  30
ATOM     30  N   UNL     1       7.168 -61.688 -24.057  1.00  0.00     0.102 N 
ATOM     31  O   UNL     1       6.285 -60.863 -23.827  1.00  0.00    -0.256 OA
ATOM     32  O   UNL     1       6.549 -62.797 -24.601  1.00  0.00    -0.256 OA
ENDBRANCH  29  30
ENDBRANCH  24  25
ENDBRANCH  23  24
ENDBRANCH   1  18
TORSDOF 9
ENDMDL
MODEL 5
REMARK VINA RESULT:   -10.316      3.819     11.058
REMARK INTER + INTRA:         -16.559
REMARK INTER:                 -16.003
REMARK INTRA:                  -0.557
REMARK UNBOUND:                -0.816
REMARK SMILES COc1cc2cc(C(=O)CCc3cc[n+](Cc4ccc([N+](=O)[O-])o4)cc3)sc2cc1OC
REMARK SMILES IDX 11 1 10 2 8 3 9 4 7 5 3 6 4 7 30 8 5 9 29 10 6 11 28 12
REMARK SMILES IDX 27 13 2 14 1 15 31 16 32 17 12 18 13 19 26 20 14 21 25 22
REMARK SMILES IDX 15 23 16 24 17 25 18 26 24 27 19 28 20 29 21 30 22 31 23 32
REMARK H PARENT
ROOT
ATOM      1  C   UNL     1      10.530 -53.997 -23.082  1.00  0.00     0.044 C 
ENDROOT
BRANCH   1   2
ATOM      2  C   UNL     1      11.129 -55.324 -23.462  1.00  0.00     0.087 C 
BRANCH   2   3
ATOM      3  C   UNL     1      10.996 -56.206 -22.264  1.00  0.00     0.173 C 
ATOM      4  O   UNL     1      11.061 -55.180 -21.486  1.00  0.00    -0.293 OA
BRANCH   3   5
ATOM      5  C   UNL     1      10.888 -57.629 -22.744  1.00  0.00     0.071 A 
ATOM      6  C   UNL     1       6.450 -59.687 -23.550  1.00  0.00     0.161 A 
ATOM      7  C   UNL     1       7.054 -58.535 -23.161  1.00  0.00     0.060 A 
ATOM      8  C   UNL     1       7.135 -60.814 -23.906  1.00  0.00     0.162 A 
ATOM      9  C   UNL     1       8.407 -58.327 -23.065  1.00  0.00    -0.003 A 
ATOM     10  C   UNL     1       8.518 -60.770 -23.863  1.00  0.00     0.070 A 
ATOM     11  C   UNL     1       9.427 -57.418 -22.727  1.00  0.00     0.032 A 
ATOM     12  C   UNL     1       8.950 -59.524 -23.446  1.00  0.00     0.039 A 
ATOM     13  S   UNL     1      10.757 -59.345 -23.323  1.00  0.00    -0.132 S 
BRANCH   6  14
ATOM     14  O   UNL     1       5.075 -59.674 -23.572  1.00  0.00    -0.493 OA
ATOM     15  C   UNL     1       4.339 -58.864 -22.694  1.00  0.00     0.278 C 
ENDBRANCH   6  14
BRANCH   8  16
ATOM     16  O   UNL     1       6.520 -61.978 -24.295  1.00  0.00    -0.493 OA
ATOM     17  C   UNL     1       7.260 -62.960 -24.996  1.00  0.00     0.278 C 
ENDBRANCH   8  16
ENDBRANCH   3   5
ENDBRANCH   2   3
ENDBRANCH   1   2
BRANCH   1  18
ATOM     18  C   UNL     1      11.397 -52.836 -23.312  1.00  0.00    -0.036 A 
ATOM     19  C   UNL     1      11.583 -51.629 -22.668  1.00  0.00     0.074 A 
ATOM     20  C   UNL     1      12.180 -53.018 -24.465  1.00  0.00     0.074 A 
ATOM     21  C   UNL     1      12.467 -50.708 -23.139  1.00  0.00     0.309 A 
ATOM     22  C   UNL     1      13.060 -52.051 -24.895  1.00  0.00     0.309 A 
ATOM     23  N   UNL     1      13.217 -50.876 -24.235  1.00  0.00    -0.198 N 
BRANCH  23  24
ATOM     24  C   UNL     1      14.183 -49.942 -24.767  1.00  0.00     0.432 C 
BRANCH  24  25
ATOM     25  C   UNL     1      15.565 -50.527 -24.822  1.00  0.00     0.176 A 
ATOM     26  C   UNL     1      16.547 -50.448 -23.860  1.00  0.00     0.060 A 
ATOM     27  O   UNL     1      16.059 -51.214 -25.819  1.00  0.00    -0.399 OA
ATOM     28  C   UNL     1      17.672 -51.133 -24.333  1.00  0.00     0.134 A 
ATOM     29  C   UNL     1      17.296 -51.587 -25.568  1.00  0.00     0.433 A 
BRANCH  29  30
ATOM     30  N   UNL     1      18.156 -52.339 -26.398  1.00  0.00     0.102 N 
ATOM     31  O   UNL     1      18.018 -53.360 -27.071  1.00  0.00    -0.256 OA
ATOM     32  O   UNL     1      19.463 -51.923 -26.563  1.00  0.00    -0.256 OA
ENDBRANCH  29  30
ENDBRANCH  24  25
ENDBRANCH  23  24
ENDBRANCH   1  18
TORSDOF 9
ENDMDL
MODEL 6
REMARK VINA RESULT:   -10.147      3.996     11.805
REMARK INTER + INTRA:         -16.302
REMARK INTER:                 -16.045
REMARK INTRA:                  -0.257
REMARK UNBOUND:                -0.816
REMARK SMILES COc1cc2cc(C(=O)CCc3cc[n+](Cc4ccc([N+](=O)[O-])o4)cc3)sc2cc1OC
REMARK SMILES IDX 11 1 10 2 8 3 9 4 7 5 3 6 4 7 30 8 5 9 29 10 6 11 28 12
REMARK SMILES IDX 27 13 2 14 1 15 31 16 32 17 12 18 13 19 26 20 14 21 25 22
REMARK SMILES IDX 15 23 16 24 17 25 18 26 24 27 19 28 20 29 21 30 22 31 23 32
REMARK H PARENT
ROOT
ATOM      1  C   UNL     1      10.633 -54.202 -23.076  1.00  0.00     0.044 C 
ENDROOT
BRANCH   1   2
ATOM      2  C   UNL     1      10.943 -55.587 -23.577  1.00  0.00     0.087 C 
BRANCH   2   3
ATOM      3  C   UNL     1      11.133 -56.442 -22.366  1.00  0.00     0.173 C 
ATOM      4  O   UNL     1      11.330 -55.392 -21.642  1.00  0.00    -0.293 OA
BRANCH   3   5
ATOM      5  C   UNL     1      10.981 -57.880 -22.783  1.00  0.00     0.071 A 
ATOM      6  C   UNL     1       6.486 -59.813 -23.582  1.00  0.00     0.161 A 
ATOM      7  C   UNL     1       7.125 -58.667 -23.234  1.00  0.00     0.060 A 
ATOM      8  C   UNL     1       7.135 -60.979 -23.873  1.00  0.00     0.162 A 
ATOM      9  C   UNL     1       8.483 -58.503 -23.121  1.00  0.00    -0.003 A 
ATOM     10  C   UNL     1       8.519 -60.982 -23.805  1.00  0.00     0.070 A 
ATOM     11  C   UNL     1       9.529 -57.617 -22.804  1.00  0.00     0.032 A 
ATOM     12  C   UNL     1       8.988 -59.734 -23.437  1.00  0.00     0.039 A 
ATOM     13  S   UNL     1      10.799 -59.614 -23.287  1.00  0.00    -0.132 S 
BRANCH   6  14
ATOM     14  O   UNL     1       5.113 -59.752 -23.632  1.00  0.00    -0.493 OA
ATOM     15  C   UNL     1       4.385 -58.964 -22.726  1.00  0.00     0.278 C 
ENDBRANCH   6  14
BRANCH   8  16
ATOM     16  O   UNL     1       6.486 -62.136 -24.222  1.00  0.00    -0.493 OA
ATOM     17  C   UNL     1       7.157 -63.109 -25.001  1.00  0.00     0.278 C 
ENDBRANCH   8  16
ENDBRANCH   3   5
ENDBRANCH   2   3
ENDBRANCH   1   2
BRANCH   1  18
ATOM     18  C   UNL     1      11.548 -53.154 -23.544  1.00  0.00    -0.036 A 
ATOM     19  C   UNL     1      12.401 -53.032 -24.622  1.00  0.00     0.074 A 
ATOM     20  C   UNL     1      11.545 -52.059 -22.663  1.00  0.00     0.074 A 
ATOM     21  C   UNL     1      13.168 -51.921 -24.791  1.00  0.00     0.309 A 
ATOM     22  C   UNL     1      12.342 -50.958 -22.885  1.00  0.00     0.309 A 
ATOM     23  N   UNL     1      13.169 -50.873 -23.957  1.00  0.00    -0.198 N 
BRANCH  23  24
ATOM     24  C   UNL     1      13.946 -49.662 -24.098  1.00  0.00     0.432 C 
BRANCH  24  25
ATOM     25  C   UNL     1      13.105 -48.429 -23.939  1.00  0.00     0.176 A 
ATOM     26  C   UNL     1      12.677 -47.573 -24.930  1.00  0.00     0.060 A 
ATOM     27  O   UNL     1      12.644 -47.965 -22.807  1.00  0.00    -0.399 OA
ATOM     28  C   UNL     1      11.923 -46.558 -24.330  1.00  0.00     0.134 A 
ATOM     29  C   UNL     1      11.944 -46.867 -22.997  1.00  0.00     0.433 A 
BRANCH  29  30
ATOM     30  N   UNL     1      11.291 -46.081 -22.022  1.00  0.00     0.102 N 
ATOM     31  O   UNL     1      10.124 -45.733 -21.845  1.00  0.00    -0.256 OA
ATOM     32  O   UNL     1      12.033 -45.534 -20.993  1.00  0.00    -0.256 OA
ENDBRANCH  29  30
ENDBRANCH  24  25
ENDBRANCH  23  24
ENDBRANCH   1  18
TORSDOF 9
ENDMDL
MODEL 7
REMARK VINA RESULT:   -10.071      3.386      9.767
REMARK INTER + INTRA:         -16.185
REMARK INTER:                 -15.426
REMARK INTRA:                  -0.760
REMARK UNBOUND:                -0.816
REMARK SMILES COc1cc2cc(C(=O)CCc3cc[n+](Cc4ccc([N+](=O)[O-])o4)cc3)sc2cc1OC
REMARK SMILES IDX 11 1 10 2 8 3 9 4 7 5 3 6 4 7 30 8 5 9 29 10 6 11 28 12
REMARK SMILES IDX 27 13 2 14 1 15 31 16 32 17 12 18 13 19 26 20 14 21 25 22
REMARK SMILES IDX 15 23 16 24 17 25 18 26 24 27 19 28 20 29 21 30 22 31 23 32
REMARK H PARENT
ROOT
ATOM      1  C   UNL     1      11.339 -58.668 -21.364  1.00  0.00     0.044 C 
ENDROOT
BRANCH   1   2
ATOM      2  C   UNL     1      10.302 -59.728 -21.107  1.00  0.00     0.087 C 
BRANCH   2   3
ATOM      3  C   UNL     1      10.565 -60.823 -22.088  1.00  0.00     0.173 C 
ATOM      4  O   UNL     1       9.876 -61.646 -21.373  1.00  0.00    -0.293 OA
BRANCH   3   5
ATOM      5  C   UNL     1      11.419 -60.263 -23.194  1.00  0.00     0.071 A 
ATOM      6  C   UNL     1      10.146 -60.915 -27.940  1.00  0.00     0.161 A 
ATOM      7  C   UNL     1       9.753 -61.181 -26.668  1.00  0.00     0.060 A 
ATOM      8  C   UNL     1      11.275 -60.212 -28.249  1.00  0.00     0.162 A 
ATOM      9  C   UNL     1      10.408 -60.797 -25.526  1.00  0.00    -0.003 A 
ATOM     10  C   UNL     1      12.055 -59.750 -27.201  1.00  0.00     0.070 A 
ATOM     11  C   UNL     1      10.422 -60.837 -24.119  1.00  0.00     0.032 A 
ATOM     12  C   UNL     1      11.500 -60.114 -25.988  1.00  0.00     0.039 A 
ATOM     13  S   UNL     1      12.449 -59.586 -24.527  1.00  0.00    -0.132 S 
BRANCH   6  14
ATOM     14  O   UNL     1       9.335 -61.400 -28.940  1.00  0.00    -0.493 OA
ATOM     15  C   UNL     1       8.631 -62.605 -28.789  1.00  0.00     0.278 C 
ENDBRANCH   6  14
BRANCH   8  16
ATOM     16  O   UNL     1      11.671 -59.949 -29.537  1.00  0.00    -0.493 OA
ATOM     17  C   UNL     1      11.993 -58.623 -29.914  1.00  0.00     0.278 C 
ENDBRANCH   8  16
ENDBRANCH   3   5
ENDBRANCH   2   3
ENDBRANCH   1   2
BRANCH   1  18
ATOM     18  C   UNL     1      10.815 -57.404 -21.894  1.00  0.00    -0.036 A 
ATOM     19  C   UNL     1       9.960 -57.072 -22.926  1.00  0.00     0.074 A 
ATOM     20  C   UNL     1      11.340 -56.309 -21.185  1.00  0.00     0.074 A 
ATOM     21  C   UNL     1       9.667 -55.774 -23.209  1.00  0.00     0.309 A 
ATOM     22  C   UNL     1      11.007 -55.015 -21.514  1.00  0.00     0.309 A 
ATOM     23  N   UNL     1      10.162 -54.728 -22.536  1.00  0.00    -0.198 N 
BRANCH  23  24
ATOM     24  C   UNL     1       9.869 -53.333 -22.779  1.00  0.00     0.432 C 
BRANCH  24  25
ATOM     25  C   UNL     1      11.110 -52.533 -23.049  1.00  0.00     0.176 A 
ATOM     26  C   UNL     1      11.548 -51.413 -22.377  1.00  0.00     0.060 A 
ATOM     27  O   UNL     1      11.984 -52.781 -23.990  1.00  0.00    -0.399 OA
ATOM     28  C   UNL     1      12.746 -50.995 -22.967  1.00  0.00     0.134 A 
ATOM     29  C   UNL     1      12.959 -51.898 -23.973  1.00  0.00     0.433 A 
BRANCH  29  30
ATOM     30  N   UNL     1      14.081 -51.835 -24.829  1.00  0.00     0.102 N 
ATOM     31  O   UNL     1      15.270 -51.563 -24.663  1.00  0.00    -0.256 OA
ATOM     32  O   UNL     1      13.919 -52.126 -26.170  1.00  0.00    -0.256 OA
ENDBRANCH  29  30
ENDBRANCH  24  25
ENDBRANCH  23  24
ENDBRANCH   1  18
TORSDOF 9
ENDMDL
MODEL 8
REMARK VINA RESULT:    -9.942      3.914     11.574
REMARK INTER + INTRA:         -15.989
REMARK INTER:                 -15.292
REMARK INTRA:                  -0.697
REMARK UNBOUND:                -0.816
REMARK SMILES COc1cc2cc(C(=O)CCc3cc[n+](Cc4ccc([N+](=O)[O-])o4)cc3)sc2cc1OC
REMARK SMILES IDX 11 1 10 2 8 3 9 4 7 5 3 6 4 7 30 8 5 9 29 10 6 11 28 12
REMARK SMILES IDX 27 13 2 14 1 15 31 16 32 17 12 18 13 19 26 20 14 21 25 22
REMARK SMILES IDX 15 23 16 24 17 25 18 26 24 27 19 28 20 29 21 30 22 31 23 32
REMARK H PARENT
ROOT
ATOM      1  C   UNL     1      11.368 -53.430 -23.368  1.00  0.00     0.044 C 
ENDROOT
BRANCH   1   2
ATOM      2  C   UNL     1      11.264 -54.857 -23.836  1.00  0.00     0.087 C 
BRANCH   2   3
ATOM      3  C   UNL     1      10.867 -55.664 -22.643  1.00  0.00     0.173 C 
ATOM      4  O   UNL     1      10.810 -54.595 -21.924  1.00  0.00    -0.293 OA
BRANCH   3   5
ATOM      5  C   UNL     1      10.810 -57.111 -23.057  1.00  0.00     0.071 A 
ATOM      6  C   UNL     1       6.454 -59.439 -23.487  1.00  0.00     0.161 A 
ATOM      7  C   UNL     1       7.015 -58.240 -23.185  1.00  0.00     0.060 A 
ATOM      8  C   UNL     1       7.178 -60.542 -23.842  1.00  0.00     0.162 A 
ATOM      9  C   UNL     1       8.357 -57.955 -23.187  1.00  0.00    -0.003 A 
ATOM     10  C   UNL     1       8.557 -60.420 -23.892  1.00  0.00     0.070 A 
ATOM     11  C   UNL     1       9.343 -56.979 -22.953  1.00  0.00     0.032 A 
ATOM     12  C   UNL     1       8.942 -59.136 -23.555  1.00  0.00     0.039 A 
ATOM     13  S   UNL     1      10.741 -58.854 -23.558  1.00  0.00    -0.132 S 
BRANCH   6  14
ATOM     14  O   UNL     1       5.082 -59.502 -23.420  1.00  0.00    -0.493 OA
ATOM     15  C   UNL     1       4.349 -58.601 -22.632  1.00  0.00     0.278 C 
ENDBRANCH   6  14
BRANCH   8  16
ATOM     16  O   UNL     1       6.607 -61.753 -24.143  1.00  0.00    -0.493 OA
ATOM     17  C   UNL     1       7.432 -62.887 -24.338  1.00  0.00     0.278 C 
ENDBRANCH   8  16
ENDBRANCH   3   5
ENDBRANCH   2   3
ENDBRANCH   1   2
BRANCH   1  18
ATOM     18  C   UNL     1      12.442 -52.650 -23.994  1.00  0.00    -0.036 A 
ATOM     19  C   UNL     1      13.180 -52.782 -25.153  1.00  0.00     0.074 A 
ATOM     20  C   UNL     1      12.784 -51.543 -23.198  1.00  0.00     0.074 A 
ATOM     21  C   UNL     1      14.157 -51.891 -25.472  1.00  0.00     0.309 A 
ATOM     22  C   UNL     1      13.782 -50.672 -23.571  1.00  0.00     0.309 A 
ATOM     23  N   UNL     1      14.486 -50.834 -24.719  1.00  0.00    -0.198 N 
BRANCH  23  24
ATOM     24  C   UNL     1      15.499 -49.847 -25.019  1.00  0.00     0.432 C 
BRANCH  24  25
ATOM     25  C   UNL     1      15.617 -49.586 -26.492  1.00  0.00     0.176 A 
ATOM     26  C   UNL     1      14.715 -48.933 -27.302  1.00  0.00     0.060 A 
ATOM     27  O   UNL     1      16.617 -49.953 -27.250  1.00  0.00    -0.399 OA
ATOM     28  C   UNL     1      15.230 -48.923 -28.604  1.00  0.00     0.134 A 
ATOM     29  C   UNL     1      16.425 -49.581 -28.498  1.00  0.00     0.433 A 
BRANCH  29  30
ATOM     30  N   UNL     1      17.278 -49.794 -29.603  1.00  0.00     0.102 N 
ATOM     31  O   UNL     1      18.005 -50.721 -29.956  1.00  0.00    -0.256 OA
ATOM     32  O   UNL     1      17.394 -48.805 -30.561  1.00  0.00    -0.256 OA
ENDBRANCH  29  30
ENDBRANCH  24  25
ENDBRANCH  23  24
ENDBRANCH   1  18
TORSDOF 9
ENDMDL
MODEL 9
REMARK VINA RESULT:    -9.395      2.176      2.835
REMARK INTER + INTRA:         -15.154
REMARK INTER:                 -14.361
REMARK INTRA:                  -0.793
REMARK UNBOUND:                -0.816
REMARK SMILES COc1cc2cc(C(=O)CCc3cc[n+](Cc4ccc([N+](=O)[O-])o4)cc3)sc2cc1OC
REMARK SMILES IDX 11 1 10 2 8 3 9 4 7 5 3 6 4 7 30 8 5 9 29 10 6 11 28 12
REMARK SMILES IDX 27 13 2 14 1 15 31 16 32 17 12 18 13 19 26 20 14 21 25 22
REMARK SMILES IDX 15 23 16 24 17 25 18 26 24 27 19 28 20 29 21 30 22 31 23 32
REMARK H PARENT
ROOT
ATOM      1  C   UNL     1      11.018 -54.331 -22.506  1.00  0.00     0.044 C 
ENDROOT
BRANCH   1   2
ATOM      2  C   UNL     1      11.453 -53.757 -23.827  1.00  0.00     0.087 C 
BRANCH   2   3
ATOM      3  C   UNL     1      12.054 -52.421 -23.529  1.00  0.00     0.173 C 
ATOM      4  O   UNL     1      11.486 -52.411 -22.371  1.00  0.00    -0.293 OA
BRANCH   3   5
ATOM      5  C   UNL     1      12.871 -52.001 -24.722  1.00  0.00     0.071 A 
ATOM      6  C   UNL     1      14.031 -47.233 -25.428  1.00  0.00     0.161 A 
ATOM      7  C   UNL     1      13.385 -48.076 -24.583  1.00  0.00     0.060 A 
ATOM      8  C   UNL     1      14.678 -47.649 -26.557  1.00  0.00     0.162 A 
ATOM      9  C   UNL     1      13.281 -49.437 -24.724  1.00  0.00    -0.003 A 
ATOM     10  C   UNL     1      14.668 -49.003 -26.846  1.00  0.00     0.070 A 
ATOM     11  C   UNL     1      12.757 -50.629 -24.190  1.00  0.00     0.032 A 
ATOM     12  C   UNL     1      13.966 -49.699 -25.879  1.00  0.00     0.039 A 
ATOM     13  S   UNL     1      13.857 -51.494 -26.160  1.00  0.00    -0.132 S 
BRANCH   6  14
ATOM     14  O   UNL     1      14.008 -45.900 -25.093  1.00  0.00    -0.493 OA
ATOM     15  C   UNL     1      12.969 -45.058 -25.521  1.00  0.00     0.278 C 
ENDBRANCH   6  14
BRANCH   8  16
ATOM     16  O   UNL     1      15.328 -46.793 -27.412  1.00  0.00    -0.493 OA
ATOM     17  C   UNL     1      14.833 -46.604 -28.724  1.00  0.00     0.278 C 
ENDBRANCH   8  16
ENDBRANCH   3   5
ENDBRANCH   2   3
ENDBRANCH   1   2
BRANCH   1  18
ATOM     18  C   UNL     1      10.659 -55.754 -22.537  1.00  0.00    -0.036 A 
ATOM     19  C   UNL     1      11.335 -56.924 -22.254  1.00  0.00     0.074 A 
ATOM     20  C   UNL     1       9.336 -55.926 -22.979  1.00  0.00     0.074 A 
ATOM     21  C   UNL     1      10.736 -58.137 -22.401  1.00  0.00     0.309 A 
ATOM     22  C   UNL     1       8.781 -57.179 -23.109  1.00  0.00     0.309 A 
ATOM     23  N   UNL     1       9.476 -58.307 -22.820  1.00  0.00    -0.198 N 
BRANCH  23  24
ATOM     24  C   UNL     1       8.785 -59.568 -22.975  1.00  0.00     0.432 C 
BRANCH  24  25
ATOM     25  C   UNL     1       9.211 -60.299 -24.215  1.00  0.00     0.176 A 
ATOM     26  C   UNL     1       9.389 -61.656 -24.368  1.00  0.00     0.060 A 
ATOM     27  O   UNL     1       9.491 -59.744 -25.365  1.00  0.00    -0.399 OA
ATOM     28  C   UNL     1       9.793 -61.894 -25.686  1.00  0.00     0.134 A 
ATOM     29  C   UNL     1       9.836 -60.650 -26.255  1.00  0.00     0.433 A 
BRANCH  29  30
ATOM     30  N   UNL     1      10.206 -60.440 -27.602  1.00  0.00     0.102 N 
ATOM     31  O   UNL     1      10.981 -59.669 -28.166  1.00  0.00    -0.256 OA
ATOM     32  O   UNL     1       9.630 -61.222 -28.585  1.00  0.00    -0.256 OA
ENDBRANCH  29  30
ENDBRANCH  24  25
ENDBRANCH  23  24
ENDBRANCH   1  18
TORSDOF 9
ENDMDL
