MODEL 1
REMARK VINA RESULT:   -11.789      0.000      0.000
REMARK INTER + INTRA:         -15.978
REMARK INTER:                 -15.235
REMARK INTRA:                  -0.743
REMARK UNBOUND:                -0.743
REMARK SMILES COc1cc2c(cc1OC)C(=O)[C@@H](CC1CCN(c3ccccc3)CC1)C2
REMARK SMILES IDX 3 1 4 2 5 3 6 4 7 5 8 6 11 7 12 8 13 9 27 10 2 11 1 12 9 13
REMARK SMILES IDX 10 14 14 15 15 16 16 17 26 18 17 19 25 20 18 21 19 22 20 23
REMARK SMILES IDX 24 24 21 25 23 26 22 27
REMARK H PARENT
ROOT
ATOM      1  C   UNL     1      12.271 -50.403 -22.728  1.00  0.00     0.161 A 
ATOM      2  C   UNL     1      11.434 -51.244 -21.978  1.00  0.00     0.055 A 
ATOM      3  C   UNL     1      11.181 -52.526 -22.445  1.00  0.00    -0.033 A 
ATOM      4  C   UNL     1      11.747 -52.948 -23.637  1.00  0.00     0.025 A 
ATOM      5  C   UNL     1      12.574 -52.152 -24.408  1.00  0.00     0.062 A 
ATOM      6  C   UNL     1      12.842 -50.859 -23.949  1.00  0.00     0.161 A 
ATOM      7  C   UNL     1      11.324 -54.318 -23.891  1.00  0.00     0.166 C 
ATOM      8  O   UNL     1      11.636 -54.941 -24.890  1.00  0.00    -0.294 OA
ATOM      9  C   UNL     1      10.461 -54.811 -22.741  1.00  0.00     0.066 C 
ATOM     10  C   UNL     1      10.311 -53.570 -21.821  1.00  0.00     0.048 C 
ENDROOT
BRANCH   1  11
ATOM     11  O   UNL     1      12.595 -49.117 -22.365  1.00  0.00    -0.493 OA
ATOM     12  C   UNL     1      11.629 -48.102 -22.595  1.00  0.00     0.278 C 
ENDBRANCH   1  11
BRANCH   6  13
ATOM     13  O   UNL     1      13.645 -49.959 -24.607  1.00  0.00    -0.493 OA
ATOM     14  C   UNL     1      13.887 -50.181 -25.989  1.00  0.00     0.278 C 
ENDBRANCH   6  13
BRANCH   9  15
ATOM     15  C   UNL     1      11.104 -55.985 -21.990  1.00  0.00     0.016 C 
BRANCH  15  16
ATOM     16  C   UNL     1      10.852 -57.386 -22.588  1.00  0.00    -0.007 C 
ATOM     17  C   UNL     1       9.438 -57.546 -23.166  1.00  0.00     0.025 C 
ATOM     18  C   UNL     1      11.092 -58.459 -21.510  1.00  0.00     0.025 C 
ATOM     19  C   UNL     1       9.195 -58.972 -23.662  1.00  0.00     0.117 C 
ATOM     20  C   UNL     1      10.807 -59.867 -22.034  1.00  0.00     0.117 C 
ATOM     21  N   UNL     1       9.435 -59.925 -22.569  1.00  0.00    -0.372 N 
BRANCH  21  22
ATOM     22  C   UNL     1       8.982 -61.245 -22.754  1.00  0.00     0.037 A 
ATOM     23  C   UNL     1       7.762 -61.461 -23.417  1.00  0.00     0.026 A 
ATOM     24  C   UNL     1       9.690 -62.378 -22.329  1.00  0.00     0.026 A 
ATOM     25  C   UNL     1       7.262 -62.748 -23.635  1.00  0.00     0.002 A 
ATOM     26  C   UNL     1       9.194 -63.670 -22.542  1.00  0.00     0.002 A 
ATOM     27  C   UNL     1       7.978 -63.855 -23.194  1.00  0.00     0.000 A 
ENDBRANCH  21  22
ENDBRANCH  15  16
ENDBRANCH   9  15
TORSDOF 5
ENDMDL
MODEL 2
REMARK VINA RESULT:   -10.865      1.116      2.577
REMARK INTER + INTRA:         -14.783
REMARK INTER:                 -14.031
REMARK INTRA:                  -0.752
REMARK UNBOUND:                -0.743
REMARK SMILES COc1cc2c(cc1OC)C(=O)[C@@H](CC1CCN(c3ccccc3)CC1)C2
REMARK SMILES IDX 3 1 4 2 5 3 6 4 7 5 8 6 11 7 12 8 13 9 27 10 2 11 1 12 9 13
REMARK SMILES IDX 10 14 14 15 15 16 16 17 26 18 17 19 25 20 18 21 19 22 20 23
REMARK SMILES IDX 24 24 21 25 23 26 22 27
REMARK H PARENT
ROOT
ATOM      1  C   UNL     1      12.743 -51.021 -24.412  1.00  0.00     0.161 A 
ATOM      2  C   UNL     1      12.650 -52.384 -24.738  1.00  0.00     0.055 A 
ATOM      3  C   UNL     1      11.984 -53.235 -23.868  1.00  0.00    -0.033 A 
ATOM      4  C   UNL     1      11.433 -52.734 -22.701  1.00  0.00     0.025 A 
ATOM      5  C   UNL     1      11.504 -51.400 -22.340  1.00  0.00     0.062 A 
ATOM      6  C   UNL     1      12.168 -50.528 -23.207  1.00  0.00     0.161 A 
ATOM      7  C   UNL     1      10.799 -53.828 -21.980  1.00  0.00     0.166 C 
ATOM      8  O   UNL     1      10.262 -53.694 -20.895  1.00  0.00    -0.294 OA
ATOM      9  C   UNL     1      10.921 -55.112 -22.785  1.00  0.00     0.066 C 
ATOM     10  C   UNL     1      11.787 -54.711 -24.009  1.00  0.00     0.048 C 
ENDROOT
BRANCH   1  11
ATOM     11  O   UNL     1      13.374 -50.084 -25.195  1.00  0.00    -0.493 OA
ATOM     12  C   UNL     1      14.009 -50.534 -26.383  1.00  0.00     0.278 C 
ENDBRANCH   1  11
BRANCH   6  13
ATOM     13  O   UNL     1      12.315 -49.181 -22.981  1.00  0.00    -0.493 OA
ATOM     14  C   UNL     1      11.136 -48.415 -22.782  1.00  0.00     0.278 C 
ENDBRANCH   6  13
BRANCH   9  15
ATOM     15  C   UNL     1       9.555 -55.658 -23.225  1.00  0.00     0.016 C 
BRANCH  15  16
ATOM     16  C   UNL     1       9.217 -57.088 -22.753  1.00  0.00    -0.007 C 
ATOM     17  C   UNL     1      10.425 -58.036 -22.800  1.00  0.00     0.025 C 
ATOM     18  C   UNL     1       8.078 -57.662 -23.616  1.00  0.00     0.025 C 
ATOM     19  C   UNL     1      10.031 -59.464 -22.417  1.00  0.00     0.117 C 
ATOM     20  C   UNL     1       7.736 -59.100 -23.225  1.00  0.00     0.117 C 
ATOM     21  N   UNL     1       8.950 -59.932 -23.297  1.00  0.00    -0.372 N 
BRANCH  21  22
ATOM     22  C   UNL     1       8.663 -61.310 -23.286  1.00  0.00     0.037 A 
ATOM     23  C   UNL     1       9.483 -62.173 -22.538  1.00  0.00     0.026 A 
ATOM     24  C   UNL     1       7.582 -61.885 -23.968  1.00  0.00     0.026 A 
ATOM     25  C   UNL     1       9.247 -63.549 -22.484  1.00  0.00     0.002 A 
ATOM     26  C   UNL     1       7.340 -63.264 -23.920  1.00  0.00     0.002 A 
ATOM     27  C   UNL     1       8.174 -64.096 -23.179  1.00  0.00     0.000 A 
ENDBRANCH  21  22
ENDBRANCH  15  16
ENDBRANCH   9  15
TORSDOF 5
ENDMDL
MODEL 3
REMARK VINA RESULT:   -10.608      3.727      9.041
REMARK INTER + INTRA:         -14.452
REMARK INTER:                 -13.950
REMARK INTRA:                  -0.502
REMARK UNBOUND:                -0.743
REMARK SMILES COc1cc2c(cc1OC)C(=O)[C@@H](CC1CCN(c3ccccc3)CC1)C2
REMARK SMILES IDX 3 1 4 2 5 3 6 4 7 5 8 6 11 7 12 8 13 9 27 10 2 11 1 12 9 13
REMARK SMILES IDX 10 14 14 15 15 16 16 17 26 18 17 19 25 20 18 21 19 22 20 23
REMARK SMILES IDX 24 24 21 25 23 26 22 27
REMARK H PARENT
ROOT
ATOM      1  C   UNL     1       9.510 -61.435 -27.425  1.00  0.00     0.161 A 
ATOM      2  C   UNL     1       9.096 -61.887 -26.162  1.00  0.00     0.055 A 
ATOM      3  C   UNL     1       9.931 -61.686 -25.073  1.00  0.00    -0.033 A 
ATOM      4  C   UNL     1      11.151 -61.054 -25.248  1.00  0.00     0.025 A 
ATOM      5  C   UNL     1      11.599 -60.596 -26.474  1.00  0.00     0.062 A 
ATOM      6  C   UNL     1      10.768 -60.787 -27.581  1.00  0.00     0.161 A 
ATOM      7  C   UNL     1      11.820 -60.971 -23.958  1.00  0.00     0.166 C 
ATOM      8  O   UNL     1      12.933 -60.497 -23.808  1.00  0.00    -0.294 OA
ATOM      9  C   UNL     1      10.925 -61.556 -22.877  1.00  0.00     0.066 C 
ATOM     10  C   UNL     1       9.699 -62.101 -23.655  1.00  0.00     0.048 C 
ENDROOT
BRANCH   1  11
ATOM     11  O   UNL     1       8.769 -61.575 -28.574  1.00  0.00    -0.493 OA
ATOM     12  C   UNL     1       8.361 -62.885 -28.942  1.00  0.00     0.278 C 
ENDBRANCH   1  11
BRANCH   6  13
ATOM     13  O   UNL     1      11.079 -60.384 -28.857  1.00  0.00    -0.493 OA
ATOM     14  C   UNL     1      11.857 -59.204 -29.003  1.00  0.00     0.278 C 
ENDBRANCH   6  13
BRANCH   9  15
ATOM     15  C   UNL     1      10.504 -60.508 -21.837  1.00  0.00     0.016 C 
BRANCH  15  16
ATOM     16  C   UNL     1      11.087 -59.093 -22.032  1.00  0.00    -0.007 C 
ATOM     17  C   UNL     1      11.152 -58.286 -20.726  1.00  0.00     0.025 C 
ATOM     18  C   UNL     1      10.247 -58.325 -23.070  1.00  0.00     0.025 C 
ATOM     19  C   UNL     1      11.646 -56.859 -20.973  1.00  0.00     0.117 C 
ATOM     20  C   UNL     1      10.751 -56.895 -23.265  1.00  0.00     0.117 C 
ATOM     21  N   UNL     1      10.782 -56.202 -21.964  1.00  0.00    -0.372 N 
BRANCH  21  22
ATOM     22  C   UNL     1      10.903 -54.806 -22.098  1.00  0.00     0.037 A 
ATOM     23  C   UNL     1      11.352 -54.273 -23.319  1.00  0.00     0.026 A 
ATOM     24  C   UNL     1      10.582 -53.895 -21.081  1.00  0.00     0.026 A 
ATOM     25  C   UNL     1      11.488 -52.896 -23.514  1.00  0.00     0.002 A 
ATOM     26  C   UNL     1      10.718 -52.514 -21.269  1.00  0.00     0.002 A 
ATOM     27  C   UNL     1      11.173 -52.015 -22.486  1.00  0.00     0.000 A 
ENDBRANCH  21  22
ENDBRANCH  15  16
ENDBRANCH   9  15
TORSDOF 5
ENDMDL
MODEL 4
REMARK VINA RESULT:   -10.600      3.047     10.026
REMARK INTER + INTRA:         -14.441
REMARK INTER:                 -13.793
REMARK INTRA:                  -0.648
REMARK UNBOUND:                -0.743
REMARK SMILES COc1cc2c(cc1OC)C(=O)[C@@H](CC1CCN(c3ccccc3)CC1)C2
REMARK SMILES IDX 3 1 4 2 5 3 6 4 7 5 8 6 11 7 12 8 13 9 27 10 2 11 1 12 9 13
REMARK SMILES IDX 10 14 14 15 15 16 16 17 26 18 17 19 25 20 18 21 19 22 20 23
REMARK SMILES IDX 24 24 21 25 23 26 22 27
REMARK H PARENT
ROOT
ATOM      1  C   UNL     1       9.734 -61.921 -23.321  1.00  0.00     0.161 A 
ATOM      2  C   UNL     1       9.958 -61.085 -22.215  1.00  0.00     0.055 A 
ATOM      3  C   UNL     1      10.512 -59.831 -22.426  1.00  0.00    -0.033 A 
ATOM      4  C   UNL     1      10.839 -59.430 -23.711  1.00  0.00     0.025 A 
ATOM      5  C   UNL     1      10.638 -60.222 -24.827  1.00  0.00     0.062 A 
ATOM      6  C   UNL     1      10.077 -61.487 -24.632  1.00  0.00     0.161 A 
ATOM      7  C   UNL     1      11.395 -58.086 -23.650  1.00  0.00     0.166 C 
ATOM      8  O   UNL     1      11.809 -57.487 -24.627  1.00  0.00    -0.294 OA
ATOM      9  C   UNL     1      11.371 -57.585 -22.215  1.00  0.00     0.066 C 
ATOM     10  C   UNL     1      10.850 -58.798 -21.399  1.00  0.00     0.048 C 
ENDROOT
BRANCH   1  11
ATOM     11  O   UNL     1       9.190 -63.180 -23.236  1.00  0.00    -0.493 OA
ATOM     12  C   UNL     1       7.781 -63.284 -23.099  1.00  0.00     0.278 C 
ENDBRANCH   1  11
BRANCH   6  13
ATOM     13  O   UNL     1       9.819 -62.380 -25.644  1.00  0.00    -0.493 OA
ATOM     14  C   UNL     1       9.140 -61.892 -26.793  1.00  0.00     0.278 C 
ENDBRANCH   6  13
BRANCH   9  15
ATOM     15  C   UNL     1      10.460 -56.362 -22.038  1.00  0.00     0.016 C 
BRANCH  15  16
ATOM     16  C   UNL     1      11.158 -54.987 -22.100  1.00  0.00    -0.007 C 
ATOM     17  C   UNL     1      10.550 -53.962 -21.131  1.00  0.00     0.025 C 
ATOM     18  C   UNL     1      11.093 -54.439 -23.538  1.00  0.00     0.025 C 
ATOM     19  C   UNL     1      11.203 -52.587 -21.289  1.00  0.00     0.117 C 
ATOM     20  C   UNL     1      11.726 -53.051 -23.647  1.00  0.00     0.117 C 
ATOM     21  N   UNL     1      11.084 -52.140 -22.684  1.00  0.00    -0.372 N 
BRANCH  21  22
ATOM     22  C   UNL     1      11.364 -50.786 -22.951  1.00  0.00     0.037 A 
ATOM     23  C   UNL     1      12.470 -50.463 -23.756  1.00  0.00     0.026 A 
ATOM     24  C   UNL     1      10.586 -49.722 -22.475  1.00  0.00     0.026 A 
ATOM     25  C   UNL     1      12.796 -49.139 -24.060  1.00  0.00     0.002 A 
ATOM     26  C   UNL     1      10.908 -48.391 -22.775  1.00  0.00     0.002 A 
ATOM     27  C   UNL     1      12.014 -48.100 -23.567  1.00  0.00     0.000 A 
ENDBRANCH  21  22
ENDBRANCH  15  16
ENDBRANCH   9  15
TORSDOF 5
ENDMDL
MODEL 5
REMARK VINA RESULT:    -9.787      3.615      9.827
REMARK INTER + INTRA:         -13.391
REMARK INTER:                 -13.018
REMARK INTRA:                  -0.373
REMARK UNBOUND:                -0.743
REMARK SMILES COc1cc2c(cc1OC)C(=O)[C@@H](CC1CCN(c3ccccc3)CC1)C2
REMARK SMILES IDX 3 1 4 2 5 3 6 4 7 5 8 6 11 7 12 8 13 9 27 10 2 11 1 12 9 13
REMARK SMILES IDX 10 14 14 15 15 16 16 17 26 18 17 19 25 20 18 21 19 22 20 23
REMARK SMILES IDX 24 24 21 25 23 26 22 27
REMARK H PARENT
ROOT
ATOM      1  C   UNL     1       6.568 -59.486 -23.409  1.00  0.00     0.161 A 
ATOM      2  C   UNL     1       7.187 -58.235 -23.258  1.00  0.00     0.055 A 
ATOM      3  C   UNL     1       8.561 -58.186 -23.069  1.00  0.00    -0.033 A 
ATOM      4  C   UNL     1       9.291 -59.362 -23.025  1.00  0.00     0.025 A 
ATOM      5  C   UNL     1       8.722 -60.615 -23.165  1.00  0.00     0.062 A 
ATOM      6  C   UNL     1       7.340 -60.681 -23.361  1.00  0.00     0.161 A 
ATOM      7  C   UNL     1      10.694 -59.029 -22.819  1.00  0.00     0.166 C 
ATOM      8  O   UNL     1      11.571 -59.866 -22.700  1.00  0.00    -0.294 OA
ATOM      9  C   UNL     1      10.862 -57.519 -22.779  1.00  0.00     0.066 C 
ATOM     10  C   UNL     1       9.412 -56.973 -22.868  1.00  0.00     0.048 C 
ENDROOT
BRANCH   1  11
ATOM     11  O   UNL     1       5.219 -59.659 -23.604  1.00  0.00    -0.493 OA
ATOM     12  C   UNL     1       4.331 -58.944 -22.757  1.00  0.00     0.278 C 
ENDBRANCH   1  11
BRANCH   6  13
ATOM     13  O   UNL     1       6.639 -61.852 -23.517  1.00  0.00    -0.493 OA
ATOM     14  C   UNL     1       7.212 -62.855 -24.344  1.00  0.00     0.278 C 
ENDBRANCH   6  13
BRANCH   9  15
ATOM     15  C   UNL     1      11.725 -56.996 -23.936  1.00  0.00     0.016 C 
BRANCH  15  16
ATOM     16  C   UNL     1      11.536 -55.508 -24.299  1.00  0.00    -0.007 C 
ATOM     17  C   UNL     1      12.675 -54.953 -25.167  1.00  0.00     0.025 C 
ATOM     18  C   UNL     1      11.417 -54.673 -23.010  1.00  0.00     0.025 C 
ATOM     19  C   UNL     1      12.503 -53.455 -25.426  1.00  0.00     0.117 C 
ATOM     20  C   UNL     1      11.279 -53.180 -23.309  1.00  0.00     0.117 C 
ATOM     21  N   UNL     1      12.410 -52.739 -24.146  1.00  0.00    -0.372 N 
BRANCH  21  22
ATOM     22  C   UNL     1      12.542 -51.338 -24.181  1.00  0.00     0.037 A 
ATOM     23  C   UNL     1      11.942 -50.569 -23.169  1.00  0.00     0.026 A 
ATOM     24  C   UNL     1      13.262 -50.648 -25.167  1.00  0.00     0.026 A 
ATOM     25  C   UNL     1      12.042 -49.175 -23.147  1.00  0.00     0.002 A 
ATOM     26  C   UNL     1      13.365 -49.251 -25.152  1.00  0.00     0.002 A 
ATOM     27  C   UNL     1      12.753 -48.515 -24.142  1.00  0.00     0.000 A 
ENDBRANCH  21  22
ENDBRANCH  15  16
ENDBRANCH   9  15
TORSDOF 5
ENDMDL
MODEL 6
REMARK VINA RESULT:    -9.679      3.632     10.848
REMARK INTER + INTRA:         -13.252
REMARK INTER:                 -12.613
REMARK INTRA:                  -0.639
REMARK UNBOUND:                -0.743
REMARK SMILES COc1cc2c(cc1OC)C(=O)[C@@H](CC1CCN(c3ccccc3)CC1)C2
REMARK SMILES IDX 3 1 4 2 5 3 6 4 7 5 8 6 11 7 12 8 13 9 27 10 2 11 1 12 9 13
REMARK SMILES IDX 10 14 14 15 15 16 16 17 26 18 17 19 25 20 18 21 19 22 20 23
REMARK SMILES IDX 24 24 21 25 23 26 22 27
REMARK H PARENT
ROOT
ATOM      1  C   UNL     1      11.784 -58.200 -23.499  1.00  0.00     0.161 A 
ATOM      2  C   UNL     1      11.786 -57.024 -24.265  1.00  0.00     0.055 A 
ATOM      3  C   UNL     1      11.428 -55.829 -23.658  1.00  0.00    -0.033 A 
ATOM      4  C   UNL     1      11.072 -55.817 -22.320  1.00  0.00     0.025 A 
ATOM      5  C   UNL     1      11.053 -56.952 -21.529  1.00  0.00     0.062 A 
ATOM      6  C   UNL     1      11.415 -58.164 -22.125  1.00  0.00     0.161 A 
ATOM      7  C   UNL     1      10.747 -54.450 -21.938  1.00  0.00     0.166 C 
ATOM      8  O   UNL     1      10.360 -54.138 -20.826  1.00  0.00    -0.294 OA
ATOM      9  C   UNL     1      10.964 -53.522 -23.122  1.00  0.00     0.066 C 
ATOM     10  C   UNL     1      11.344 -54.475 -24.286  1.00  0.00     0.048 C 
ENDROOT
BRANCH   1  11
ATOM     11  O   UNL     1      12.121 -59.439 -23.989  1.00  0.00    -0.493 OA
ATOM     12  C   UNL     1      12.021 -59.646 -25.391  1.00  0.00     0.278 C 
ENDBRANCH   1  11
BRANCH   6  13
ATOM     13  O   UNL     1      11.444 -59.368 -21.465  1.00  0.00    -0.493 OA
ATOM     14  C   UNL     1      10.209 -60.046 -21.278  1.00  0.00     0.278 C 
ENDBRANCH   6  13
BRANCH   9  15
ATOM     15  C   UNL     1      12.073 -52.492 -22.862  1.00  0.00     0.016 C 
BRANCH  15  16
ATOM     16  C   UNL     1      11.768 -51.046 -23.308  1.00  0.00    -0.007 C 
ATOM     17  C   UNL     1      13.034 -50.197 -23.496  1.00  0.00     0.025 C 
ATOM     18  C   UNL     1      10.844 -50.372 -22.277  1.00  0.00     0.025 C 
ATOM     19  C   UNL     1      12.689 -48.748 -23.845  1.00  0.00     0.117 C 
ATOM     20  C   UNL     1      10.549 -48.917 -22.642  1.00  0.00     0.117 C 
ATOM     21  N   UNL     1      11.817 -48.183 -22.805  1.00  0.00    -0.372 N 
BRANCH  21  22
ATOM     22  C   UNL     1      11.638 -46.787 -22.804  1.00  0.00     0.037 A 
ATOM     23  C   UNL     1      12.398 -46.001 -21.919  1.00  0.00     0.026 A 
ATOM     24  C   UNL     1      10.750 -46.115 -23.656  1.00  0.00     0.026 A 
ATOM     25  C   UNL     1      12.268 -44.611 -21.874  1.00  0.00     0.002 A 
ATOM     26  C   UNL     1      10.614 -44.721 -23.615  1.00  0.00     0.002 A 
ATOM     27  C   UNL     1      11.373 -43.970 -22.723  1.00  0.00     0.000 A 
ENDBRANCH  21  22
ENDBRANCH  15  16
ENDBRANCH   9  15
TORSDOF 5
ENDMDL
MODEL 7
REMARK VINA RESULT:    -9.661      3.470     10.112
REMARK INTER + INTRA:         -13.228
REMARK INTER:                 -12.652
REMARK INTRA:                  -0.576
REMARK UNBOUND:                -0.743
REMARK SMILES COc1cc2c(cc1OC)C(=O)[C@@H](CC1CCN(c3ccccc3)CC1)C2
REMARK SMILES IDX 3 1 4 2 5 3 6 4 7 5 8 6 11 7 12 8 13 9 27 10 2 11 1 12 9 13
REMARK SMILES IDX 10 14 14 15 15 16 16 17 26 18 17 19 25 20 18 21 19 22 20 23
REMARK SMILES IDX 24 24 21 25 23 26 22 27
REMARK H PARENT
ROOT
ATOM      1  C   UNL     1       7.568 -59.292 -23.720  1.00  0.00     0.161 A 
ATOM      2  C   UNL     1       7.788 -58.031 -23.144  1.00  0.00     0.055 A 
ATOM      3  C   UNL     1       9.076 -57.514 -23.137  1.00  0.00    -0.033 A 
ATOM      4  C   UNL     1      10.114 -58.247 -23.687  1.00  0.00     0.025 A 
ATOM      5  C   UNL     1       9.943 -59.493 -24.262  1.00  0.00     0.062 A 
ATOM      6  C   UNL     1       8.651 -60.027 -24.280  1.00  0.00     0.161 A 
ATOM      7  C   UNL     1      11.345 -57.481 -23.551  1.00  0.00     0.166 C 
ATOM      8  O   UNL     1      12.434 -57.891 -23.912  1.00  0.00    -0.294 OA
ATOM      9  C   UNL     1      11.045 -56.138 -22.906  1.00  0.00     0.066 C 
ATOM     10  C   UNL     1       9.533 -56.211 -22.564  1.00  0.00     0.048 C 
ENDROOT
BRANCH   1  11
ATOM     11  O   UNL     1       6.339 -59.904 -23.787  1.00  0.00    -0.493 OA
ATOM     12  C   UNL     1       5.286 -59.360 -23.004  1.00  0.00     0.278 C 
ENDBRANCH   1  11
BRANCH   6  13
ATOM     13  O   UNL     1       8.330 -61.250 -24.817  1.00  0.00    -0.493 OA
ATOM     14  C   UNL     1       9.350 -61.948 -25.517  1.00  0.00     0.278 C 
ENDBRANCH   6  13
BRANCH   9  15
ATOM     15  C   UNL     1      11.347 -54.959 -23.842  1.00  0.00     0.016 C 
BRANCH  15  16
ATOM     16  C   UNL     1      11.681 -53.619 -23.152  1.00  0.00    -0.007 C 
ATOM     17  C   UNL     1      10.441 -52.911 -22.586  1.00  0.00     0.025 C 
ATOM     18  C   UNL     1      12.396 -52.688 -24.149  1.00  0.00     0.025 C 
ATOM     19  C   UNL     1      10.797 -51.545 -21.996  1.00  0.00     0.117 C 
ATOM     20  C   UNL     1      12.706 -51.324 -23.533  1.00  0.00     0.117 C 
ATOM     21  N   UNL     1      11.463 -50.723 -23.016  1.00  0.00    -0.372 N 
BRANCH  21  22
ATOM     22  C   UNL     1      11.598 -49.348 -22.747  1.00  0.00     0.037 A 
ATOM     23  C   UNL     1      12.879 -48.822 -22.508  1.00  0.00     0.026 A 
ATOM     24  C   UNL     1      10.522 -48.450 -22.721  1.00  0.00     0.026 A 
ATOM     25  C   UNL     1      13.079 -47.465 -22.240  1.00  0.00     0.002 A 
ATOM     26  C   UNL     1      10.714 -47.089 -22.451  1.00  0.00     0.002 A 
ATOM     27  C   UNL     1      11.993 -46.597 -22.209  1.00  0.00     0.000 A 
ENDBRANCH  21  22
ENDBRANCH  15  16
ENDBRANCH   9  15
TORSDOF 5
ENDMDL
MODEL 8
REMARK VINA RESULT:    -9.571      2.999     10.149
REMARK INTER + INTRA:         -13.112
REMARK INTER:                 -12.350
REMARK INTRA:                  -0.763
REMARK UNBOUND:                -0.743
REMARK SMILES COc1cc2c(cc1OC)C(=O)[C@@H](CC1CCN(c3ccccc3)CC1)C2
REMARK SMILES IDX 3 1 4 2 5 3 6 4 7 5 8 6 11 7 12 8 13 9 27 10 2 11 1 12 9 13
REMARK SMILES IDX 10 14 14 15 15 16 16 17 26 18 17 19 25 20 18 21 19 22 20 23
REMARK SMILES IDX 24 24 21 25 23 26 22 27
REMARK H PARENT
ROOT
ATOM      1  C   UNL     1      10.892 -60.092 -22.469  1.00  0.00     0.161 A 
ATOM      2  C   UNL     1      10.812 -59.008 -21.581  1.00  0.00     0.055 A 
ATOM      3  C   UNL     1      11.090 -57.734 -22.053  1.00  0.00    -0.033 A 
ATOM      4  C   UNL     1      11.445 -57.554 -23.379  1.00  0.00     0.025 A 
ATOM      5  C   UNL     1      11.539 -58.593 -24.288  1.00  0.00     0.062 A 
ATOM      6  C   UNL     1      11.258 -59.883 -23.828  1.00  0.00     0.161 A 
ATOM      7  C   UNL     1      11.679 -56.135 -23.609  1.00  0.00     0.166 C 
ATOM      8  O   UNL     1      12.045 -55.680 -24.678  1.00  0.00    -0.294 OA
ATOM      9  C   UNL     1      11.401 -55.357 -22.333  1.00  0.00     0.066 C 
ATOM     10  C   UNL     1      11.084 -56.453 -21.281  1.00  0.00     0.048 C 
ENDROOT
BRANCH   1  11
ATOM     11  O   UNL     1      10.637 -61.396 -22.118  1.00  0.00    -0.493 OA
ATOM     12  C   UNL     1       9.280 -61.804 -22.027  1.00  0.00     0.278 C 
ENDBRANCH   1  11
BRANCH   6  13
ATOM     13  O   UNL     1      11.308 -61.009 -24.614  1.00  0.00    -0.493 OA
ATOM     14  C   UNL     1      10.422 -61.077 -25.722  1.00  0.00     0.278 C 
ENDBRANCH   6  13
BRANCH   9  15
ATOM     15  C   UNL     1      10.227 -54.380 -22.489  1.00  0.00     0.016 C 
BRANCH  15  16
ATOM     16  C   UNL     1      10.517 -52.912 -22.113  1.00  0.00    -0.007 C 
ATOM     17  C   UNL     1       9.304 -51.991 -22.311  1.00  0.00     0.025 C 
ATOM     18  C   UNL     1      11.703 -52.389 -22.946  1.00  0.00     0.025 C 
ATOM     19  C   UNL     1       9.656 -50.531 -22.019  1.00  0.00     0.117 C 
ATOM     20  C   UNL     1      12.002 -50.919 -22.650  1.00  0.00     0.117 C 
ATOM     21  N   UNL     1      10.785 -50.116 -22.864  1.00  0.00    -0.372 N 
BRANCH  21  22
ATOM     22  C   UNL     1      11.055 -48.736 -22.945  1.00  0.00     0.037 A 
ATOM     23  C   UNL     1      12.193 -48.303 -23.648  1.00  0.00     0.026 A 
ATOM     24  C   UNL     1      10.238 -47.748 -22.377  1.00  0.00     0.026 A 
ATOM     25  C   UNL     1      12.511 -46.948 -23.767  1.00  0.00     0.002 A 
ATOM     26  C   UNL     1      10.552 -46.388 -22.492  1.00  0.00     0.002 A 
ATOM     27  C   UNL     1      11.690 -45.988 -23.186  1.00  0.00     0.000 A 
ENDBRANCH  21  22
ENDBRANCH  15  16
ENDBRANCH   9  15
TORSDOF 5
ENDMDL
MODEL 9
REMARK VINA RESULT:    -9.145      3.590     10.522
REMARK INTER + INTRA:         -12.561
REMARK INTER:                 -12.056
REMARK INTRA:                  -0.505
REMARK UNBOUND:                -0.743
REMARK SMILES COc1cc2c(cc1OC)C(=O)[C@@H](CC1CCN(c3ccccc3)CC1)C2
REMARK SMILES IDX 3 1 4 2 5 3 6 4 7 5 8 6 11 7 12 8 13 9 27 10 2 11 1 12 9 13
REMARK SMILES IDX 10 14 14 15 15 16 16 17 26 18 17 19 25 20 18 21 19 22 20 23
REMARK SMILES IDX 24 24 21 25 23 26 22 27
REMARK H PARENT
ROOT
ATOM      1  C   UNL     1      11.776 -58.203 -23.379  1.00  0.00     0.161 A 
ATOM      2  C   UNL     1      11.746 -57.052 -24.181  1.00  0.00     0.055 A 
ATOM      3  C   UNL     1      11.408 -55.839 -23.599  1.00  0.00    -0.033 A 
ATOM      4  C   UNL     1      11.103 -55.785 -22.249  1.00  0.00     0.025 A 
ATOM      5  C   UNL     1      11.117 -56.894 -21.423  1.00  0.00     0.062 A 
ATOM      6  C   UNL     1      11.459 -58.124 -21.994  1.00  0.00     0.161 A 
ATOM      7  C   UNL     1      10.789 -54.407 -21.899  1.00  0.00     0.166 C 
ATOM      8  O   UNL     1      10.444 -54.060 -20.784  1.00  0.00    -0.294 OA
ATOM      9  C   UNL     1      10.959 -53.516 -23.119  1.00  0.00     0.066 C 
ATOM     10  C   UNL     1      11.296 -54.506 -24.267  1.00  0.00     0.048 C 
ENDROOT
BRANCH   1  11
ATOM     11  O   UNL     1      12.098 -59.457 -23.842  1.00  0.00    -0.493 OA
ATOM     12  C   UNL     1      11.632 -59.824 -25.132  1.00  0.00     0.278 C 
ENDBRANCH   1  11
BRANCH   6  13
ATOM     13  O   UNL     1      11.517 -59.306 -21.298  1.00  0.00    -0.493 OA
ATOM     14  C   UNL     1      10.315 -60.053 -21.170  1.00  0.00     0.278 C 
ENDBRANCH   6  13
BRANCH   9  15
ATOM     15  C   UNL     1      12.073 -52.478 -22.934  1.00  0.00     0.016 C 
BRANCH  15  16
ATOM     16  C   UNL     1      12.322 -51.536 -24.132  1.00  0.00    -0.007 C 
ATOM     17  C   UNL     1      13.400 -52.059 -25.093  1.00  0.00     0.025 C 
ATOM     18  C   UNL     1      12.724 -50.141 -23.618  1.00  0.00     0.025 C 
ATOM     19  C   UNL     1      13.686 -51.057 -26.213  1.00  0.00     0.117 C 
ATOM     20  C   UNL     1      13.033 -49.178 -24.765  1.00  0.00     0.117 C 
ATOM     21  N   UNL     1      14.072 -49.763 -25.632  1.00  0.00    -0.372 N 
BRANCH  21  22
ATOM     22  C   UNL     1      14.650 -48.816 -26.498  1.00  0.00     0.037 A 
ATOM     23  C   UNL     1      14.759 -47.480 -26.074  1.00  0.00     0.026 A 
ATOM     24  C   UNL     1      15.149 -49.127 -27.771  1.00  0.00     0.026 A 
ATOM     25  C   UNL     1      15.326 -46.494 -26.887  1.00  0.00     0.002 A 
ATOM     26  C   UNL     1      15.718 -48.144 -28.591  1.00  0.00     0.002 A 
ATOM     27  C   UNL     1      15.805 -46.827 -28.149  1.00  0.00     0.000 A 
ENDBRANCH  21  22
ENDBRANCH  15  16
ENDBRANCH   9  15
TORSDOF 5
ENDMDL
