MODEL 1
REMARK VINA RESULT:    -7.392      0.000      0.000
REMARK INTER + INTRA:         -10.896
REMARK INTER:                 -10.417
REMARK INTRA:                  -0.479
REMARK UNBOUND:                -0.479
REMARK SMILES CCOP(=O)(OCC)Oc1ccc([N+](=O)[O-])cc1
REMARK SMILES IDX 4 1 5 2 3 3 2 4 1 5 6 6 7 7 8 8 9 9 10 10 11 11 18 12 12 13
REMARK SMILES IDX 17 14 13 15 14 16 15 17 16 18
REMARK H PARENT
ROOT
ATOM      1  P   UNL     1      10.621 -58.579 -23.100  1.00  0.00     0.530 P 
ATOM      2  O   UNL     1      10.514 -59.203 -21.742  1.00  0.00    -0.216 OA
ENDROOT
BRANCH   1   3
ATOM      3  O   UNL     1       9.225 -58.027 -23.688  1.00  0.00    -0.278 OA
BRANCH   3   4
ATOM      4  C   UNL     1       8.290 -59.000 -24.117  1.00  0.00     0.171 C 
ATOM      5  C   UNL     1       6.936 -58.666 -23.526  1.00  0.00     0.035 C 
ENDBRANCH   3   4
ENDBRANCH   1   3
BRANCH   1   6
ATOM      6  O   UNL     1      11.132 -59.595 -24.247  1.00  0.00    -0.278 OA
BRANCH   6   7
ATOM      7  C   UNL     1      11.756 -60.786 -23.801  1.00  0.00     0.171 C 
ATOM      8  C   UNL     1      10.748 -61.914 -23.870  1.00  0.00     0.035 C 
ENDBRANCH   6   7
ENDBRANCH   1   6
BRANCH   1   9
ATOM      9  O   UNL     1      11.625 -57.324 -23.186  1.00  0.00    -0.404 OA
BRANCH   9  10
ATOM     10  C   UNL     1      11.337 -56.013 -22.942  1.00  0.00     0.132 A 
ATOM     11  C   UNL     1      11.375 -54.999 -23.897  1.00  0.00     0.054 A 
ATOM     12  C   UNL     1      10.985 -55.713 -21.622  1.00  0.00     0.054 A 
ATOM     13  C   UNL     1      11.062 -53.683 -23.537  1.00  0.00     0.089 A 
ATOM     14  C   UNL     1      10.671 -54.404 -21.250  1.00  0.00     0.089 A 
ATOM     15  C   UNL     1      10.711 -53.389 -22.213  1.00  0.00     0.269 A 
BRANCH  15  16
ATOM     16  N   UNL     1      10.384 -52.009 -21.834  1.00  0.00     0.062 N 
ATOM     17  O   UNL     1      11.312 -51.281 -21.452  1.00  0.00    -0.258 OA
ATOM     18  O   UNL     1       9.201 -51.652 -21.920  1.00  0.00    -0.258 OA
ENDBRANCH  15  16
ENDBRANCH   9  10
ENDBRANCH   1   9
TORSDOF 7
ENDMDL
MODEL 2
REMARK VINA RESULT:    -7.387      0.891      2.869
REMARK INTER + INTRA:         -10.890
REMARK INTER:                 -10.272
REMARK INTRA:                  -0.618
REMARK UNBOUND:                -0.479
REMARK SMILES CCOP(=O)(OCC)Oc1ccc([N+](=O)[O-])cc1
REMARK SMILES IDX 4 1 5 2 3 3 2 4 1 5 6 6 7 7 8 8 9 9 10 10 11 11 18 12 12 13
REMARK SMILES IDX 17 14 13 15 14 16 15 17 16 18
REMARK H PARENT
ROOT
ATOM      1  P   UNL     1      10.893 -59.066 -23.640  1.00  0.00     0.530 P 
ATOM      2  O   UNL     1      10.581 -59.103 -25.105  1.00  0.00    -0.216 OA
ENDROOT
BRANCH   1   3
ATOM      3  O   UNL     1      11.658 -60.375 -23.091  1.00  0.00    -0.278 OA
BRANCH   3   4
ATOM      4  C   UNL     1      11.475 -61.570 -23.829  1.00  0.00     0.171 C 
ATOM      5  C   UNL     1      10.432 -62.417 -23.131  1.00  0.00     0.035 C 
ENDBRANCH   3   4
ENDBRANCH   1   3
BRANCH   1   6
ATOM      6  O   UNL     1       9.585 -58.976 -22.697  1.00  0.00    -0.278 OA
BRANCH   6   7
ATOM      7  C   UNL     1       8.340 -59.247 -23.317  1.00  0.00     0.171 C 
ATOM      8  C   UNL     1       7.693 -57.931 -23.695  1.00  0.00     0.035 C 
ENDBRANCH   6   7
ENDBRANCH   1   6
BRANCH   1   9
ATOM      9  O   UNL     1      11.815 -57.830 -23.180  1.00  0.00    -0.404 OA
BRANCH   9  10
ATOM     10  C   UNL     1      11.415 -56.556 -22.900  1.00  0.00     0.132 A 
ATOM     11  C   UNL     1      11.065 -56.092 -21.634  1.00  0.00     0.054 A 
ATOM     12  C   UNL     1      11.366 -55.690 -23.998  1.00  0.00     0.054 A 
ATOM     13  C   UNL     1      10.664 -54.762 -21.459  1.00  0.00     0.089 A 
ATOM     14  C   UNL     1      10.968 -54.360 -23.836  1.00  0.00     0.089 A 
ATOM     15  C   UNL     1      10.617 -53.900 -22.562  1.00  0.00     0.269 A 
BRANCH  15  16
ATOM     16  N   UNL     1      10.195 -52.505 -22.381  1.00  0.00     0.062 N 
ATOM     17  O   UNL     1       9.036 -52.299 -21.993  1.00  0.00    -0.258 OA
ATOM     18  O   UNL     1      11.023 -51.616 -22.624  1.00  0.00    -0.258 OA
ENDBRANCH  15  16
ENDBRANCH   9  10
ENDBRANCH   1   9
TORSDOF 7
ENDMDL
MODEL 3
REMARK VINA RESULT:    -7.343      1.500      2.284
REMARK INTER + INTRA:         -10.827
REMARK INTER:                 -10.295
REMARK INTRA:                  -0.532
REMARK UNBOUND:                -0.479
REMARK SMILES CCOP(=O)(OCC)Oc1ccc([N+](=O)[O-])cc1
REMARK SMILES IDX 4 1 5 2 3 3 2 4 1 5 6 6 7 7 8 8 9 9 10 10 11 11 18 12 12 13
REMARK SMILES IDX 17 14 13 15 14 16 15 17 16 18
REMARK H PARENT
ROOT
ATOM      1  P   UNL     1      10.888 -58.492 -23.969  1.00  0.00     0.530 P 
ATOM      2  O   UNL     1       9.413 -58.264 -23.841  1.00  0.00    -0.216 OA
ENDROOT
BRANCH   1   3
ATOM      3  O   UNL     1      11.336 -59.172 -25.360  1.00  0.00    -0.278 OA
BRANCH   3   4
ATOM      4  C   UNL     1      11.510 -60.578 -25.350  1.00  0.00     0.171 C 
ATOM      5  C   UNL     1      10.165 -61.235 -25.584  1.00  0.00     0.035 C 
ENDBRANCH   3   4
ENDBRANCH   1   3
BRANCH   1   6
ATOM      6  O   UNL     1      11.492 -59.492 -22.854  1.00  0.00    -0.278 OA
BRANCH   6   7
ATOM      7  C   UNL     1      10.901 -59.433 -21.567  1.00  0.00     0.171 C 
ATOM      8  C   UNL     1       9.997 -60.636 -21.396  1.00  0.00     0.035 C 
ENDBRANCH   6   7
ENDBRANCH   1   6
BRANCH   1   9
ATOM      9  O   UNL     1      11.786 -57.162 -23.856  1.00  0.00    -0.404 OA
BRANCH   9  10
ATOM     10  C   UNL     1      11.430 -55.965 -23.304  1.00  0.00     0.132 A 
ATOM     11  C   UNL     1      10.971 -55.795 -22.000  1.00  0.00     0.054 A 
ATOM     12  C   UNL     1      11.548 -54.858 -24.151  1.00  0.00     0.054 A 
ATOM     13  C   UNL     1      10.629 -54.519 -21.536  1.00  0.00     0.089 A 
ATOM     14  C   UNL     1      11.210 -53.579 -23.700  1.00  0.00     0.089 A 
ATOM     15  C   UNL     1      10.750 -53.414 -22.389  1.00  0.00     0.269 A 
BRANCH  15  16
ATOM     16  N   UNL     1      10.389 -52.076 -21.904  1.00  0.00     0.062 N 
ATOM     17  O   UNL     1      11.308 -51.328 -21.541  1.00  0.00    -0.258 OA
ATOM     18  O   UNL     1       9.188 -51.772 -21.890  1.00  0.00    -0.258 OA
ENDBRANCH  15  16
ENDBRANCH   9  10
ENDBRANCH   1   9
TORSDOF 7
ENDMDL
MODEL 4
REMARK VINA RESULT:    -7.203      2.212      3.236
REMARK INTER + INTRA:         -10.630
REMARK INTER:                 -10.231
REMARK INTRA:                  -0.399
REMARK UNBOUND:                -0.479
REMARK SMILES CCOP(=O)(OCC)Oc1ccc([N+](=O)[O-])cc1
REMARK SMILES IDX 4 1 5 2 3 3 2 4 1 5 6 6 7 7 8 8 9 9 10 10 11 11 18 12 12 13
REMARK SMILES IDX 17 14 13 15 14 16 15 17 16 18
REMARK H PARENT
ROOT
ATOM      1  P   UNL     1      11.616 -60.623 -23.767  1.00  0.00     0.530 P 
ATOM      2  O   UNL     1      13.042 -60.223 -23.540  1.00  0.00    -0.216 OA
ENDROOT
BRANCH   1   3
ATOM      3  O   UNL     1      11.322 -62.191 -23.532  1.00  0.00    -0.278 OA
BRANCH   3   4
ATOM      4  C   UNL     1       9.980 -62.614 -23.696  1.00  0.00     0.171 C 
ATOM      5  C   UNL     1       9.567 -63.403 -22.471  1.00  0.00     0.035 C 
ENDBRANCH   3   4
ENDBRANCH   1   3
BRANCH   1   6
ATOM      6  O   UNL     1      11.101 -60.370 -25.277  1.00  0.00    -0.278 OA
BRANCH   6   7
ATOM      7  C   UNL     1      11.920 -59.553 -26.094  1.00  0.00     0.171 C 
ATOM      8  C   UNL     1      11.409 -59.628 -27.518  1.00  0.00     0.035 C 
ENDBRANCH   6   7
ENDBRANCH   1   6
BRANCH   1   9
ATOM      9  O   UNL     1      10.548 -59.862 -22.836  1.00  0.00    -0.404 OA
BRANCH   9  10
ATOM     10  C   UNL     1      10.369 -58.515 -22.710  1.00  0.00     0.132 A 
ATOM     11  C   UNL     1       9.313 -57.796 -23.267  1.00  0.00     0.054 A 
ATOM     12  C   UNL     1      11.346 -57.849 -21.961  1.00  0.00     0.054 A 
ATOM     13  C   UNL     1       9.228 -56.412 -23.078  1.00  0.00     0.089 A 
ATOM     14  C   UNL     1      11.272 -56.468 -21.765  1.00  0.00     0.089 A 
ATOM     15  C   UNL     1      10.209 -55.752 -22.326  1.00  0.00     0.269 A 
BRANCH  15  16
ATOM     16  N   UNL     1      10.122 -54.299 -22.129  1.00  0.00     0.062 N 
ATOM     17  O   UNL     1       9.908 -53.594 -23.125  1.00  0.00    -0.258 OA
ATOM     18  O   UNL     1      10.266 -53.864 -20.977  1.00  0.00    -0.258 OA
ENDBRANCH  15  16
ENDBRANCH   9  10
ENDBRANCH   1   9
TORSDOF 7
ENDMDL
MODEL 5
REMARK VINA RESULT:    -6.945      2.455      3.614
REMARK INTER + INTRA:         -10.266
REMARK INTER:                  -9.862
REMARK INTRA:                  -0.404
REMARK UNBOUND:                -0.479
REMARK SMILES CCOP(=O)(OCC)Oc1ccc([N+](=O)[O-])cc1
REMARK SMILES IDX 4 1 5 2 3 3 2 4 1 5 6 6 7 7 8 8 9 9 10 10 11 11 18 12 12 13
REMARK SMILES IDX 17 14 13 15 14 16 15 17 16 18
REMARK H PARENT
ROOT
ATOM      1  P   UNL     1       9.400 -60.484 -24.782  1.00  0.00     0.530 P 
ATOM      2  O   UNL     1       9.612 -59.518 -25.908  1.00  0.00    -0.216 OA
ENDROOT
BRANCH   1   3
ATOM      3  O   UNL     1      10.528 -61.630 -24.669  1.00  0.00    -0.278 OA
BRANCH   3   4
ATOM      4  C   UNL     1      11.021 -61.906 -23.370  1.00  0.00     0.171 C 
ATOM      5  C   UNL     1      10.196 -63.023 -22.766  1.00  0.00     0.035 C 
ENDBRANCH   3   4
ENDBRANCH   1   3
BRANCH   1   6
ATOM      6  O   UNL     1       8.025 -61.325 -24.895  1.00  0.00    -0.278 OA
BRANCH   6   7
ATOM      7  C   UNL     1       8.083 -62.530 -25.638  1.00  0.00     0.171 C 
ATOM      8  C   UNL     1       7.159 -63.540 -24.991  1.00  0.00     0.035 C 
ENDBRANCH   6   7
ENDBRANCH   1   6
BRANCH   1   9
ATOM      9  O   UNL     1       9.350 -59.812 -23.321  1.00  0.00    -0.404 OA
BRANCH   9  10
ATOM     10  C   UNL     1       9.771 -58.562 -22.969  1.00  0.00     0.132 A 
ATOM     11  C   UNL     1      10.945 -58.285 -22.272  1.00  0.00     0.054 A 
ATOM     12  C   UNL     1       8.926 -57.516 -23.355  1.00  0.00     0.054 A 
ATOM     13  C   UNL     1      11.280 -56.962 -21.958  1.00  0.00     0.089 A 
ATOM     14  C   UNL     1       9.250 -56.192 -23.048  1.00  0.00     0.089 A 
ATOM     15  C   UNL     1      10.430 -55.919 -22.347  1.00  0.00     0.269 A 
BRANCH  15  16
ATOM     16  N   UNL     1      10.779 -54.531 -22.017  1.00  0.00     0.062 N 
ATOM     17  O   UNL     1      11.307 -53.844 -22.902  1.00  0.00    -0.258 OA
ATOM     18  O   UNL     1      10.522 -54.129 -20.873  1.00  0.00    -0.258 OA
ENDBRANCH  15  16
ENDBRANCH   9  10
ENDBRANCH   1   9
TORSDOF 7
ENDMDL
MODEL 6
REMARK VINA RESULT:    -6.941      4.010      7.304
REMARK INTER + INTRA:         -10.261
REMARK INTER:                  -9.618
REMARK INTRA:                  -0.643
REMARK UNBOUND:                -0.479
REMARK SMILES CCOP(=O)(OCC)Oc1ccc([N+](=O)[O-])cc1
REMARK SMILES IDX 4 1 5 2 3 3 2 4 1 5 6 6 7 7 8 8 9 9 10 10 11 11 18 12 12 13
REMARK SMILES IDX 17 14 13 15 14 16 15 17 16 18
REMARK H PARENT
ROOT
ATOM      1  P   UNL     1      11.025 -58.258 -23.543  1.00  0.00     0.530 P 
ATOM      2  O   UNL     1      12.244 -57.783 -24.273  1.00  0.00    -0.216 OA
ENDROOT
BRANCH   1   3
ATOM      3  O   UNL     1      10.433 -57.199 -22.481  1.00  0.00    -0.278 OA
BRANCH   3   4
ATOM      4  C   UNL     1      11.098 -55.950 -22.395  1.00  0.00     0.171 C 
ATOM      5  C   UNL     1      10.364 -54.950 -23.263  1.00  0.00     0.035 C 
ENDBRANCH   3   4
ENDBRANCH   1   3
BRANCH   1   6
ATOM      6  O   UNL     1      11.274 -59.580 -22.650  1.00  0.00    -0.278 OA
BRANCH   6   7
ATOM      7  C   UNL     1      10.843 -59.522 -21.302  1.00  0.00     0.171 C 
ATOM      8  C   UNL     1       9.911 -60.687 -21.041  1.00  0.00     0.035 C 
ENDBRANCH   6   7
ENDBRANCH   1   6
BRANCH   1   9
ATOM      9  O   UNL     1       9.777 -58.630 -24.488  1.00  0.00    -0.404 OA
BRANCH   9  10
ATOM     10  C   UNL     1       9.108 -59.818 -24.548  1.00  0.00     0.132 A 
ATOM     11  C   UNL     1       7.902 -60.087 -23.904  1.00  0.00     0.054 A 
ATOM     12  C   UNL     1       9.719 -60.810 -25.323  1.00  0.00     0.054 A 
ATOM     13  C   UNL     1       7.302 -61.345 -24.031  1.00  0.00     0.089 A 
ATOM     14  C   UNL     1       9.130 -62.070 -25.458  1.00  0.00     0.089 A 
ATOM     15  C   UNL     1       7.919 -62.333 -24.809  1.00  0.00     0.269 A 
BRANCH  15  16
ATOM     16  N   UNL     1       7.292 -63.655 -24.942  1.00  0.00     0.062 N 
ATOM     17  O   UNL     1       7.364 -64.427 -23.975  1.00  0.00    -0.258 OA
ATOM     18  O   UNL     1       6.725 -63.919 -26.012  1.00  0.00    -0.258 OA
ENDBRANCH  15  16
ENDBRANCH   9  10
ENDBRANCH   1   9
TORSDOF 7
ENDMDL
MODEL 7
REMARK VINA RESULT:    -6.928      4.945      6.593
REMARK INTER + INTRA:         -10.242
REMARK INTER:                  -9.677
REMARK INTRA:                  -0.565
REMARK UNBOUND:                -0.479
REMARK SMILES CCOP(=O)(OCC)Oc1ccc([N+](=O)[O-])cc1
REMARK SMILES IDX 4 1 5 2 3 3 2 4 1 5 6 6 7 7 8 8 9 9 10 10 11 11 18 12 12 13
REMARK SMILES IDX 17 14 13 15 14 16 15 17 16 18
REMARK H PARENT
ROOT
ATOM      1  P   UNL     1       9.859 -61.057 -22.531  1.00  0.00     0.530 P 
ATOM      2  O   UNL     1       8.707 -60.206 -22.970  1.00  0.00    -0.216 OA
ENDROOT
BRANCH   1   3
ATOM      3  O   UNL     1       9.431 -62.406 -21.759  1.00  0.00    -0.278 OA
BRANCH   3   4
ATOM      4  C   UNL     1       9.382 -63.591 -22.535  1.00  0.00     0.171 C 
ATOM      5  C   UNL     1       7.990 -63.734 -23.113  1.00  0.00     0.035 C 
ENDBRANCH   3   4
ENDBRANCH   1   3
BRANCH   1   6
ATOM      6  O   UNL     1      10.847 -60.326 -21.484  1.00  0.00    -0.278 OA
BRANCH   6   7
ATOM      7  C   UNL     1      11.135 -58.962 -21.735  1.00  0.00     0.171 C 
ATOM      8  C   UNL     1      11.512 -58.298 -20.427  1.00  0.00     0.035 C 
ENDBRANCH   6   7
ENDBRANCH   1   6
BRANCH   1   9
ATOM      9  O   UNL     1      10.820 -61.555 -23.722  1.00  0.00    -0.404 OA
BRANCH   9  10
ATOM     10  C   UNL     1      10.931 -61.023 -24.975  1.00  0.00     0.132 A 
ATOM     11  C   UNL     1      10.016 -61.221 -26.007  1.00  0.00     0.054 A 
ATOM     12  C   UNL     1      12.064 -60.232 -25.190  1.00  0.00     0.054 A 
ATOM     13  C   UNL     1      10.230 -60.629 -27.258  1.00  0.00     0.089 A 
ATOM     14  C   UNL     1      12.289 -59.636 -26.434  1.00  0.00     0.089 A 
ATOM     15  C   UNL     1      11.368 -59.838 -27.467  1.00  0.00     0.269 A 
BRANCH  15  16
ATOM     16  N   UNL     1      11.594 -59.218 -28.779  1.00  0.00     0.062 N 
ATOM     17  O   UNL     1      12.078 -58.078 -28.802  1.00  0.00    -0.258 OA
ATOM     18  O   UNL     1      11.290 -59.874 -29.786  1.00  0.00    -0.258 OA
ENDBRANCH  15  16
ENDBRANCH   9  10
ENDBRANCH   1   9
TORSDOF 7
ENDMDL
MODEL 8
REMARK VINA RESULT:    -6.893      3.943      7.455
REMARK INTER + INTRA:         -10.193
REMARK INTER:                  -9.678
REMARK INTRA:                  -0.515
REMARK UNBOUND:                -0.479
REMARK SMILES CCOP(=O)(OCC)Oc1ccc([N+](=O)[O-])cc1
REMARK SMILES IDX 4 1 5 2 3 3 2 4 1 5 6 6 7 7 8 8 9 9 10 10 11 11 18 12 12 13
REMARK SMILES IDX 17 14 13 15 14 16 15 17 16 18
REMARK H PARENT
ROOT
ATOM      1  P   UNL     1      10.486 -58.781 -22.700  1.00  0.00     0.530 P 
ATOM      2  O   UNL     1      11.148 -58.751 -21.356  1.00  0.00    -0.216 OA
ENDROOT
BRANCH   1   3
ATOM      3  O   UNL     1      10.618 -57.408 -23.535  1.00  0.00    -0.278 OA
BRANCH   3   4
ATOM      4  C   UNL     1      11.334 -56.355 -22.913  1.00  0.00     0.171 C 
ATOM      5  C   UNL     1      10.350 -55.286 -22.488  1.00  0.00     0.035 C 
ENDBRANCH   3   4
ENDBRANCH   1   3
BRANCH   1   6
ATOM      6  O   UNL     1       8.891 -59.024 -22.634  1.00  0.00    -0.278 OA
BRANCH   6   7
ATOM      7  C   UNL     1       8.087 -58.152 -23.410  1.00  0.00     0.171 C 
ATOM      8  C   UNL     1       6.652 -58.630 -23.343  1.00  0.00     0.035 C 
ENDBRANCH   6   7
ENDBRANCH   1   6
BRANCH   1   9
ATOM      9  O   UNL     1      11.034 -59.920 -23.695  1.00  0.00    -0.404 OA
BRANCH   9  10
ATOM     10  C   UNL     1      10.311 -60.663 -24.583  1.00  0.00     0.132 A 
ATOM     11  C   UNL     1      10.120 -60.338 -25.924  1.00  0.00     0.054 A 
ATOM     12  C   UNL     1       9.737 -61.827 -24.060  1.00  0.00     0.054 A 
ATOM     13  C   UNL     1       9.355 -61.173 -26.748  1.00  0.00     0.089 A 
ATOM     14  C   UNL     1       8.972 -62.669 -24.871  1.00  0.00     0.089 A 
ATOM     15  C   UNL     1       8.783 -62.337 -26.217  1.00  0.00     0.269 A 
BRANCH  15  16
ATOM     16  N   UNL     1       7.979 -63.212 -27.080  1.00  0.00     0.062 N 
ATOM     17  O   UNL     1       8.166 -63.146 -28.303  1.00  0.00    -0.258 OA
ATOM     18  O   UNL     1       7.161 -63.966 -26.533  1.00  0.00    -0.258 OA
ENDBRANCH  15  16
ENDBRANCH   9  10
ENDBRANCH   1   9
TORSDOF 7
ENDMDL
MODEL 9
REMARK VINA RESULT:    -6.736      1.973      2.599
REMARK INTER + INTRA:          -9.972
REMARK INTER:                  -9.236
REMARK INTRA:                  -0.736
REMARK UNBOUND:                -0.479
REMARK SMILES CCOP(=O)(OCC)Oc1ccc([N+](=O)[O-])cc1
REMARK SMILES IDX 4 1 5 2 3 3 2 4 1 5 6 6 7 7 8 8 9 9 10 10 11 11 18 12 12 13
REMARK SMILES IDX 17 14 13 15 14 16 15 17 16 18
REMARK H PARENT
ROOT
ATOM      1  P   UNL     1      11.121 -60.039 -24.526  1.00  0.00     0.530 P 
ATOM      2  O   UNL     1      10.933 -61.209 -23.609  1.00  0.00    -0.216 OA
ENDROOT
BRANCH   1   3
ATOM      3  O   UNL     1       9.757 -59.264 -24.900  1.00  0.00    -0.278 OA
BRANCH   3   4
ATOM      4  C   UNL     1       8.632 -59.533 -24.083  1.00  0.00     0.171 C 
ATOM      5  C   UNL     1       7.916 -58.229 -23.799  1.00  0.00     0.035 C 
ENDBRANCH   3   4
ENDBRANCH   1   3
BRANCH   1   6
ATOM      6  O   UNL     1      11.733 -60.432 -25.968  1.00  0.00    -0.278 OA
BRANCH   6   7
ATOM      7  C   UNL     1      12.093 -59.356 -26.815  1.00  0.00     0.171 C 
ATOM      8  C   UNL     1      11.930 -59.799 -28.254  1.00  0.00     0.035 C 
ENDBRANCH   6   7
ENDBRANCH   1   6
BRANCH   1   9
ATOM      9  O   UNL     1      12.101 -58.894 -23.963  1.00  0.00    -0.404 OA
BRANCH   9  10
ATOM     10  C   UNL     1      11.747 -57.689 -23.428  1.00  0.00     0.132 A 
ATOM     11  C   UNL     1      11.318 -57.494 -22.117  1.00  0.00     0.054 A 
ATOM     12  C   UNL     1      11.836 -56.599 -24.301  1.00  0.00     0.054 A 
ATOM     13  C   UNL     1      10.975 -56.212 -21.673  1.00  0.00     0.089 A 
ATOM     14  C   UNL     1      11.498 -55.314 -23.869  1.00  0.00     0.089 A 
ATOM     15  C   UNL     1      11.067 -55.124 -22.552  1.00  0.00     0.269 A 
BRANCH  15  16
ATOM     16  N   UNL     1      10.706 -53.779 -22.087  1.00  0.00     0.062 N 
ATOM     17  O   UNL     1       9.721 -53.671 -21.343  1.00  0.00    -0.258 OA
ATOM     18  O   UNL     1      11.409 -52.831 -22.465  1.00  0.00    -0.258 OA
ENDBRANCH  15  16
ENDBRANCH   9  10
ENDBRANCH   1   9
TORSDOF 7
ENDMDL
