MODEL 1
REMARK VINA RESULT:    -9.364      0.000      0.000
REMARK INTER + INTRA:         -14.149
REMARK INTER:                 -12.922
REMARK INTRA:                  -1.227
REMARK UNBOUND:                -1.227
REMARK SMILES COc1ccc(OC)c([C@H]2C=C(c3cc(F)ccc3F)NN2c2ccc(S(N)(=O)=O)cc2)c1
REMARK SMILES IDX 23 1 24 2 25 3 26 4 31 5 32 6 22 7 21 8 12 9 11 10 10 11
REMARK SMILES IDX 13 13 14 14 19 15 15 16 18 17 17 18 20 19 16 20 9 21 33 22
REMARK SMILES IDX 6 23 3 24 5 25 4 26 7 27 8 28 2 29 1 30 27 31 29 32 30 33
REMARK SMILES IDX 28 34
REMARK H PARENT 21 12 28 35 28 36
ROOT
ATOM      1  C   UNL     1      12.662 -48.162 -23.823  1.00  0.00     0.058 A 
ATOM      2  C   UNL     1      13.660 -47.183 -23.686  1.00  0.00     0.029 A 
ATOM      3  C   UNL     1      13.353 -45.816 -23.655  1.00  0.00     0.024 A 
ATOM      4  C   UNL     1      12.025 -45.405 -23.761  1.00  0.00     0.082 A 
ATOM      5  C   UNL     1      11.006 -46.349 -23.868  1.00  0.00     0.024 A 
ATOM      6  C   UNL     1      11.330 -47.710 -23.896  1.00  0.00     0.029 A 
ENDROOT
BRANCH   1   7
ATOM      7  N   UNL     1      12.949 -49.539 -23.831  1.00  0.00    -0.276 N 
ATOM      8  N   UNL     1      12.162 -50.459 -23.142  1.00  0.00    -0.297 N 
ATOM      9  C   UNL     1      12.215 -51.708 -23.748  1.00  0.00     0.063 C 
ATOM     10  C   UNL     1      12.914 -51.624 -24.892  1.00  0.00     0.033 C 
ATOM     11  C   UNL     1      13.439 -50.210 -25.077  1.00  0.00     0.165 C 
ATOM     12  H   UNL     1      12.330 -50.513 -22.134  1.00  0.00     0.188 HD
BRANCH   9  13
ATOM     13  C   UNL     1      11.627 -52.904 -23.134  1.00  0.00     0.038 A 
ATOM     14  C   UNL     1      11.265 -52.911 -21.779  1.00  0.00     0.052 A 
ATOM     15  C   UNL     1      11.426 -54.083 -23.869  1.00  0.00     0.132 A 
ATOM     16  C   UNL     1      10.718 -54.056 -21.202  1.00  0.00     0.124 A 
ATOM     17  C   UNL     1      10.877 -55.228 -23.289  1.00  0.00     0.043 A 
ATOM     18  C   UNL     1      10.519 -55.214 -21.944  1.00  0.00     0.042 A 
ATOM     19  F   UNL     1      11.750 -54.137 -25.173  1.00  0.00    -0.206 F 
ATOM     20  F   UNL     1      10.380 -54.041 -19.906  1.00  0.00    -0.207 F 
ENDBRANCH   9  13
BRANCH  11  21
ATOM     21  C   UNL     1      14.946 -50.170 -25.264  1.00  0.00     0.026 A 
ATOM     22  C   UNL     1      15.763 -50.202 -24.111  1.00  0.00     0.056 A 
ATOM     23  C   UNL     1      15.576 -50.080 -26.516  1.00  0.00     0.124 A 
ATOM     24  C   UNL     1      17.156 -50.158 -24.205  1.00  0.00     0.119 A 
ATOM     25  C   UNL     1      16.968 -50.010 -26.612  1.00  0.00     0.050 A 
ATOM     26  C   UNL     1      17.752 -50.060 -25.460  1.00  0.00     0.050 A 
BRANCH  23  27
ATOM     27  O   UNL     1      14.829 -49.966 -27.659  1.00  0.00    -0.496 OA
ATOM     28  C   UNL     1      15.092 -48.730 -28.323  1.00  0.00     0.278 C 
ENDBRANCH  23  27
BRANCH  24  29
ATOM     29  O   UNL     1      18.035 -50.192 -23.157  1.00  0.00    -0.497 OA
ATOM     30  C   UNL     1      17.553 -50.697 -21.919  1.00  0.00     0.278 C 
ENDBRANCH  24  29
ENDBRANCH  11  21
ENDBRANCH   1   7
BRANCH   4  31
ATOM     31  S   UNL     1      11.625 -43.687 -23.689  1.00  0.00     0.238 S 
ATOM     32  O   UNL     1      11.232 -43.343 -22.342  1.00  0.00    -0.207 OA
ATOM     33  O   UNL     1      12.615 -42.934 -24.423  1.00  0.00    -0.207 OA
BRANCH  31  34
ATOM     34  N   UNL     1      10.223 -43.617 -24.611  1.00  0.00    -0.225 NA
ATOM     35  H   UNL     1       9.534 -43.025 -24.148  1.00  0.00     0.137 HD
ATOM     36  H   UNL     1       9.891 -44.562 -24.806  1.00  0.00     0.137 HD
ENDBRANCH  31  34
ENDBRANCH   4  31
TORSDOF 7
ENDMDL
MODEL 2
REMARK VINA RESULT:    -9.339      4.143      7.521
REMARK INTER + INTRA:         -14.115
REMARK INTER:                 -12.547
REMARK INTRA:                  -1.567
REMARK UNBOUND:                -1.227
REMARK SMILES COc1ccc(OC)c([C@H]2C=C(c3cc(F)ccc3F)NN2c2ccc(S(N)(=O)=O)cc2)c1
REMARK SMILES IDX 23 1 24 2 25 3 26 4 31 5 32 6 22 7 21 8 12 9 11 10 10 11
REMARK SMILES IDX 13 13 14 14 19 15 15 16 18 17 17 18 20 19 16 20 9 21 33 22
REMARK SMILES IDX 6 23 3 24 5 25 4 26 7 27 8 28 2 29 1 30 27 31 29 32 30 33
REMARK SMILES IDX 28 34
REMARK H PARENT 21 12 28 35 28 36
ROOT
ATOM      1  C   UNL     1      12.264 -51.848 -23.671  1.00  0.00     0.058 A 
ATOM      2  C   UNL     1      11.546 -52.215 -22.521  1.00  0.00     0.029 A 
ATOM      3  C   UNL     1      11.088 -53.525 -22.325  1.00  0.00     0.024 A 
ATOM      4  C   UNL     1      11.347 -54.498 -23.290  1.00  0.00     0.082 A 
ATOM      5  C   UNL     1      12.081 -54.176 -24.429  1.00  0.00     0.024 A 
ATOM      6  C   UNL     1      12.532 -52.864 -24.609  1.00  0.00     0.029 A 
ENDROOT
BRANCH   1   7
ATOM      7  N   UNL     1      12.753 -50.545 -23.874  1.00  0.00    -0.276 N 
ATOM      8  N   UNL     1      11.915 -49.432 -23.853  1.00  0.00    -0.297 N 
ATOM      9  C   UNL     1      12.610 -48.296 -23.458  1.00  0.00     0.063 C 
ATOM     10  C   UNL     1      13.858 -48.635 -23.095  1.00  0.00     0.033 C 
ATOM     11  C   UNL     1      14.072 -50.126 -23.302  1.00  0.00     0.165 C 
ATOM     12  H   UNL     1      11.372 -49.274 -24.706  1.00  0.00     0.188 HD
BRANCH   9  13
ATOM     13  C   UNL     1      12.021 -46.954 -23.520  1.00  0.00     0.038 A 
ATOM     14  C   UNL     1      12.615 -45.943 -24.291  1.00  0.00     0.052 A 
ATOM     15  C   UNL     1      10.859 -46.628 -22.801  1.00  0.00     0.132 A 
ATOM     16  C   UNL     1      12.053 -44.669 -24.334  1.00  0.00     0.124 A 
ATOM     17  C   UNL     1      10.299 -45.350 -22.847  1.00  0.00     0.043 A 
ATOM     18  C   UNL     1      10.901 -44.362 -23.621  1.00  0.00     0.042 A 
ATOM     19  F   UNL     1      10.242 -47.554 -22.048  1.00  0.00    -0.206 F 
ATOM     20  F   UNL     1      12.639 -43.719 -25.076  1.00  0.00    -0.207 F 
ENDBRANCH   9  13
BRANCH  11  21
ATOM     21  C   UNL     1      15.268 -50.422 -24.190  1.00  0.00     0.026 A 
ATOM     22  C   UNL     1      15.200 -50.041 -25.551  1.00  0.00     0.056 A 
ATOM     23  C   UNL     1      16.430 -51.074 -23.746  1.00  0.00     0.124 A 
ATOM     24  C   UNL     1      16.257 -50.292 -26.430  1.00  0.00     0.119 A 
ATOM     25  C   UNL     1      17.479 -51.348 -24.628  1.00  0.00     0.050 A 
ATOM     26  C   UNL     1      17.394 -50.947 -25.960  1.00  0.00     0.050 A 
BRANCH  23  27
ATOM     27  O   UNL     1      16.515 -51.533 -22.458  1.00  0.00    -0.496 OA
ATOM     28  C   UNL     1      17.469 -50.783 -21.706  1.00  0.00     0.278 C 
ENDBRANCH  23  27
BRANCH  24  29
ATOM     29  O   UNL     1      16.297 -49.959 -27.756  1.00  0.00    -0.497 OA
ATOM     30  C   UNL     1      15.302 -49.063 -28.232  1.00  0.00     0.278 C 
ENDBRANCH  24  29
ENDBRANCH  11  21
ENDBRANCH   1   7
BRANCH   4  31
ATOM     31  S   UNL     1      10.803 -56.158 -23.036  1.00  0.00     0.238 S 
ATOM     32  O   UNL     1      11.249 -56.615 -21.740  1.00  0.00    -0.207 OA
ATOM     33  O   UNL     1       9.432 -56.284 -23.472  1.00  0.00    -0.207 OA
BRANCH  31  34
ATOM     34  N   UNL     1      11.719 -57.001 -24.163  1.00  0.00    -0.225 NA
ATOM     35  H   UNL     1      11.115 -57.356 -24.903  1.00  0.00     0.137 HD
ATOM     36  H   UNL     1      12.265 -57.723 -23.694  1.00  0.00     0.137 HD
ENDBRANCH  31  34
ENDBRANCH   4  31
TORSDOF 7
ENDMDL
MODEL 3
REMARK VINA RESULT:    -9.157      0.892      2.267
REMARK INTER + INTRA:         -13.864
REMARK INTER:                 -12.782
REMARK INTRA:                  -1.082
REMARK UNBOUND:                -1.227
REMARK SMILES COc1ccc(OC)c([C@H]2C=C(c3cc(F)ccc3F)NN2c2ccc(S(N)(=O)=O)cc2)c1
REMARK SMILES IDX 23 1 24 2 25 3 26 4 31 5 32 6 22 7 21 8 12 9 11 10 10 11
REMARK SMILES IDX 13 13 14 14 19 15 15 16 18 17 17 18 20 19 16 20 9 21 33 22
REMARK SMILES IDX 6 23 3 24 5 25 4 26 7 27 8 28 2 29 1 30 27 31 29 32 30 33
REMARK SMILES IDX 28 34
REMARK H PARENT 21 12 28 35 28 36
ROOT
ATOM      1  C   UNL     1      12.656 -47.964 -23.957  1.00  0.00     0.058 A 
ATOM      2  C   UNL     1      13.648 -46.974 -23.881  1.00  0.00     0.029 A 
ATOM      3  C   UNL     1      13.327 -45.611 -23.821  1.00  0.00     0.024 A 
ATOM      4  C   UNL     1      11.990 -45.217 -23.837  1.00  0.00     0.082 A 
ATOM      5  C   UNL     1      10.978 -46.173 -23.882  1.00  0.00     0.024 A 
ATOM      6  C   UNL     1      11.316 -47.530 -23.940  1.00  0.00     0.029 A 
ENDROOT
BRANCH   1   7
ATOM      7  N   UNL     1      12.959 -49.337 -23.993  1.00  0.00    -0.276 N 
ATOM      8  N   UNL     1      12.225 -50.273 -23.267  1.00  0.00    -0.297 N 
ATOM      9  C   UNL     1      12.258 -51.516 -23.884  1.00  0.00     0.063 C 
ATOM     10  C   UNL     1      12.888 -51.415 -25.067  1.00  0.00     0.033 C 
ATOM     11  C   UNL     1      13.384 -49.993 -25.271  1.00  0.00     0.165 C 
ATOM     12  H   UNL     1      12.452 -50.331 -22.271  1.00  0.00     0.188 HD
BRANCH   9  13
ATOM     13  C   UNL     1      11.722 -52.724 -23.247  1.00  0.00     0.038 A 
ATOM     14  C   UNL     1      11.352 -52.718 -21.893  1.00  0.00     0.052 A 
ATOM     15  C   UNL     1      11.580 -53.928 -23.957  1.00  0.00     0.132 A 
ATOM     16  C   UNL     1      10.855 -53.873 -21.294  1.00  0.00     0.124 A 
ATOM     17  C   UNL     1      11.080 -55.084 -23.353  1.00  0.00     0.043 A 
ATOM     18  C   UNL     1      10.714 -55.056 -22.011  1.00  0.00     0.042 A 
ATOM     19  F   UNL     1      11.914 -53.995 -25.257  1.00  0.00    -0.206 F 
ATOM     20  F   UNL     1      10.508 -53.845 -20.000  1.00  0.00    -0.207 F 
ENDBRANCH   9  13
BRANCH  11  21
ATOM     21  C   UNL     1      14.876 -49.933 -25.546  1.00  0.00     0.026 A 
ATOM     22  C   UNL     1      15.304 -49.804 -26.888  1.00  0.00     0.056 A 
ATOM     23  C   UNL     1      15.860 -50.020 -24.547  1.00  0.00     0.124 A 
ATOM     24  C   UNL     1      16.661 -49.753 -27.217  1.00  0.00     0.119 A 
ATOM     25  C   UNL     1      17.217 -49.995 -24.875  1.00  0.00     0.050 A 
ATOM     26  C   UNL     1      17.613 -49.850 -26.204  1.00  0.00     0.050 A 
BRANCH  23  27
ATOM     27  O   UNL     1      15.500 -50.225 -23.240  1.00  0.00    -0.496 OA
ATOM     28  C   UNL     1      16.160 -51.369 -22.699  1.00  0.00     0.278 C 
ENDBRANCH  23  27
BRANCH  24  29
ATOM     29  O   UNL     1      17.180 -49.622 -28.476  1.00  0.00    -0.497 OA
ATOM     30  C   UNL     1      17.632 -48.331 -28.862  1.00  0.00     0.278 C 
ENDBRANCH  24  29
ENDBRANCH  11  21
ENDBRANCH   1   7
BRANCH   4  31
ATOM     31  S   UNL     1      11.574 -43.504 -23.728  1.00  0.00     0.238 S 
ATOM     32  O   UNL     1      11.094 -43.212 -22.397  1.00  0.00    -0.207 OA
ATOM     33  O   UNL     1      12.604 -42.720 -24.369  1.00  0.00    -0.207 OA
BRANCH  31  34
ATOM     34  N   UNL     1      10.233 -43.407 -24.735  1.00  0.00    -0.225 NA
ATOM     35  H   UNL     1       9.573 -42.724 -24.366  1.00  0.00     0.137 HD
ATOM     36  H   UNL     1       9.835 -44.336 -24.869  1.00  0.00     0.137 HD
ENDBRANCH  31  34
ENDBRANCH   4  31
TORSDOF 7
ENDMDL
MODEL 4
REMARK VINA RESULT:    -8.998      2.829      5.169
REMARK INTER + INTRA:         -13.644
REMARK INTER:                 -12.209
REMARK INTRA:                  -1.435
REMARK UNBOUND:                -1.227
REMARK SMILES COc1ccc(OC)c([C@H]2C=C(c3cc(F)ccc3F)NN2c2ccc(S(N)(=O)=O)cc2)c1
REMARK SMILES IDX 23 1 24 2 25 3 26 4 31 5 32 6 22 7 21 8 12 9 11 10 10 11
REMARK SMILES IDX 13 13 14 14 19 15 15 16 18 17 17 18 20 19 16 20 9 21 33 22
REMARK SMILES IDX 6 23 3 24 5 25 4 26 7 27 8 28 2 29 1 30 27 31 29 32 30 33
REMARK SMILES IDX 28 34
REMARK H PARENT 21 12 28 35 28 36
ROOT
ATOM      1  C   UNL     1      14.120 -48.896 -26.040  1.00  0.00     0.058 A 
ATOM      2  C   UNL     1      14.230 -47.500 -26.140  1.00  0.00     0.029 A 
ATOM      3  C   UNL     1      14.823 -46.884 -27.250  1.00  0.00     0.024 A 
ATOM      4  C   UNL     1      15.318 -47.669 -28.291  1.00  0.00     0.082 A 
ATOM      5  C   UNL     1      15.199 -49.056 -28.239  1.00  0.00     0.024 A 
ATOM      6  C   UNL     1      14.604 -49.654 -27.124  1.00  0.00     0.029 A 
ENDROOT
BRANCH   1   7
ATOM      7  N   UNL     1      13.507 -49.530 -24.944  1.00  0.00    -0.276 N 
ATOM      8  N   UNL     1      12.873 -50.765 -25.068  1.00  0.00    -0.297 N 
ATOM      9  C   UNL     1      12.903 -51.459 -23.865  1.00  0.00     0.063 C 
ATOM     10  C   UNL     1      13.644 -50.782 -22.972  1.00  0.00     0.033 C 
ATOM     11  C   UNL     1      14.131 -49.479 -23.584  1.00  0.00     0.165 C 
ATOM     12  H   UNL     1      11.935 -50.738 -25.475  1.00  0.00     0.188 HD
BRANCH   9  13
ATOM     13  C   UNL     1      12.156 -52.705 -23.660  1.00  0.00     0.038 A 
ATOM     14  C   UNL     1      11.349 -52.880 -22.525  1.00  0.00     0.052 A 
ATOM     15  C   UNL     1      12.235 -53.768 -24.574  1.00  0.00     0.132 A 
ATOM     16  C   UNL     1      10.653 -54.072 -22.334  1.00  0.00     0.124 A 
ATOM     17  C   UNL     1      11.535 -54.961 -24.380  1.00  0.00     0.043 A 
ATOM     18  C   UNL     1      10.737 -55.113 -23.250  1.00  0.00     0.042 A 
ATOM     19  F   UNL     1      12.988 -53.659 -25.682  1.00  0.00    -0.206 F 
ATOM     20  F   UNL     1       9.889 -54.218 -21.242  1.00  0.00    -0.207 F 
ENDBRANCH   9  13
BRANCH  11  21
ATOM     21  C   UNL     1      13.741 -48.267 -22.755  1.00  0.00     0.026 A 
ATOM     22  C   UNL     1      12.370 -47.929 -22.672  1.00  0.00     0.056 A 
ATOM     23  C   UNL     1      14.663 -47.448 -22.084  1.00  0.00     0.124 A 
ATOM     24  C   UNL     1      11.937 -46.821 -21.938  1.00  0.00     0.119 A 
ATOM     25  C   UNL     1      14.236 -46.326 -21.370  1.00  0.00     0.050 A 
ATOM     26  C   UNL     1      12.877 -46.024 -21.290  1.00  0.00     0.050 A 
BRANCH  23  27
ATOM     27  O   UNL     1      16.007 -47.686 -22.197  1.00  0.00    -0.496 OA
ATOM     28  C   UNL     1      16.581 -46.907 -23.247  1.00  0.00     0.278 C 
ENDBRANCH  23  27
BRANCH  24  29
ATOM     29  O   UNL     1      10.640 -46.413 -21.787  1.00  0.00    -0.497 OA
ATOM     30  C   UNL     1      10.175 -45.390 -22.657  1.00  0.00     0.278 C 
ENDBRANCH  24  29
ENDBRANCH  11  21
ENDBRANCH   1   7
BRANCH   4  31
ATOM     31  S   UNL     1      16.036 -46.902 -29.710  1.00  0.00     0.238 S 
ATOM     32  O   UNL     1      16.729 -45.701 -29.306  1.00  0.00    -0.207 OA
ATOM     33  O   UNL     1      16.654 -47.912 -30.538  1.00  0.00    -0.207 OA
BRANCH  31  34
ATOM     34  N   UNL     1      14.677 -46.390 -30.554  1.00  0.00    -0.225 NA
ATOM     35  H   UNL     1      14.398 -47.104 -31.225  1.00  0.00     0.137 HD
ATOM     36  H   UNL     1      14.856 -45.477 -30.973  1.00  0.00     0.137 HD
ENDBRANCH  31  34
ENDBRANCH   4  31
TORSDOF 7
ENDMDL
MODEL 5
REMARK VINA RESULT:    -8.808      4.012      7.946
REMARK INTER + INTRA:         -13.382
REMARK INTER:                 -12.110
REMARK INTRA:                  -1.271
REMARK UNBOUND:                -1.227
REMARK SMILES COc1ccc(OC)c([C@H]2C=C(c3cc(F)ccc3F)NN2c2ccc(S(N)(=O)=O)cc2)c1
REMARK SMILES IDX 23 1 24 2 25 3 26 4 31 5 32 6 22 7 21 8 12 9 11 10 10 11
REMARK SMILES IDX 13 13 14 14 19 15 15 16 18 17 17 18 20 19 16 20 9 21 33 22
REMARK SMILES IDX 6 23 3 24 5 25 4 26 7 27 8 28 2 29 1 30 27 31 29 32 30 33
REMARK SMILES IDX 28 34
REMARK H PARENT 21 12 28 35 28 36
ROOT
ATOM      1  C   UNL     1      13.070 -51.600 -24.416  1.00  0.00     0.058 A 
ATOM      2  C   UNL     1      12.890 -52.802 -25.120  1.00  0.00     0.029 A 
ATOM      3  C   UNL     1      12.113 -53.848 -24.607  1.00  0.00     0.024 A 
ATOM      4  C   UNL     1      11.495 -53.704 -23.366  1.00  0.00     0.082 A 
ATOM      5  C   UNL     1      11.627 -52.515 -22.652  1.00  0.00     0.024 A 
ATOM      6  C   UNL     1      12.406 -51.479 -23.179  1.00  0.00     0.029 A 
ENDROOT
BRANCH   1   7
ATOM      7  N   UNL     1      13.826 -50.530 -24.926  1.00  0.00    -0.276 N 
ATOM      8  N   UNL     1      14.673 -50.682 -26.022  1.00  0.00    -0.297 N 
ATOM      9  C   UNL     1      14.813 -49.483 -26.709  1.00  0.00     0.063 C 
ATOM     10  C   UNL     1      13.990 -48.562 -26.181  1.00  0.00     0.033 C 
ATOM     11  C   UNL     1      13.249 -49.149 -24.991  1.00  0.00     0.165 C 
ATOM     12  H   UNL     1      15.576 -51.119 -25.822  1.00  0.00     0.188 HD
BRANCH   9  13
ATOM     13  C   UNL     1      15.783 -49.310 -27.795  1.00  0.00     0.038 A 
ATOM     14  C   UNL     1      15.359 -49.003 -29.097  1.00  0.00     0.052 A 
ATOM     15  C   UNL     1      17.163 -49.463 -27.579  1.00  0.00     0.132 A 
ATOM     16  C   UNL     1      16.288 -48.851 -30.124  1.00  0.00     0.124 A 
ATOM     17  C   UNL     1      18.092 -49.310 -28.610  1.00  0.00     0.043 A 
ATOM     18  C   UNL     1      17.650 -49.001 -29.894  1.00  0.00     0.042 A 
ATOM     19  F   UNL     1      17.631 -49.753 -26.353  1.00  0.00    -0.206 F 
ATOM     20  F   UNL     1      15.860 -48.559 -31.359  1.00  0.00    -0.207 F 
ENDBRANCH   9  13
BRANCH  11  21
ATOM     21  C   UNL     1      13.437 -48.327 -23.727  1.00  0.00     0.026 A 
ATOM     22  C   UNL     1      12.334 -47.586 -23.243  1.00  0.00     0.056 A 
ATOM     23  C   UNL     1      14.649 -48.241 -23.023  1.00  0.00     0.124 A 
ATOM     24  C   UNL     1      12.435 -46.798 -22.093  1.00  0.00     0.119 A 
ATOM     25  C   UNL     1      14.760 -47.434 -21.887  1.00  0.00     0.050 A 
ATOM     26  C   UNL     1      13.654 -46.727 -21.421  1.00  0.00     0.050 A 
BRANCH  23  27
ATOM     27  O   UNL     1      15.768 -48.876 -23.493  1.00  0.00    -0.496 OA
ATOM     28  C   UNL     1      16.424 -49.600 -22.453  1.00  0.00     0.278 C 
ENDBRANCH  23  27
BRANCH  24  29
ATOM     29  O   UNL     1      11.432 -46.052 -21.537  1.00  0.00    -0.497 OA
ATOM     30  C   UNL     1      10.274 -45.826 -22.330  1.00  0.00     0.278 C 
ENDBRANCH  24  29
ENDBRANCH  11  21
ENDBRANCH   1   7
BRANCH   4  31
ATOM     31  S   UNL     1      10.486 -55.004 -22.726  1.00  0.00     0.238 S 
ATOM     32  O   UNL     1       9.605 -55.482 -23.766  1.00  0.00    -0.207 OA
ATOM     33  O   UNL     1      11.300 -55.894 -21.930  1.00  0.00    -0.207 OA
BRANCH  31  34
ATOM     34  N   UNL     1       9.509 -54.181 -21.635  1.00  0.00    -0.225 NA
ATOM     35  H   UNL     1       9.055 -53.397 -22.101  1.00  0.00     0.137 HD
ATOM     36  H   UNL     1      10.055 -53.915 -20.816  1.00  0.00     0.137 HD
ENDBRANCH  31  34
ENDBRANCH   4  31
TORSDOF 7
ENDMDL
MODEL 6
REMARK VINA RESULT:    -8.729      4.063      7.695
REMARK INTER + INTRA:         -13.272
REMARK INTER:                 -11.842
REMARK INTRA:                  -1.431
REMARK UNBOUND:                -1.227
REMARK SMILES COc1ccc(OC)c([C@H]2C=C(c3cc(F)ccc3F)NN2c2ccc(S(N)(=O)=O)cc2)c1
REMARK SMILES IDX 23 1 24 2 25 3 26 4 31 5 32 6 22 7 21 8 12 9 11 10 10 11
REMARK SMILES IDX 13 13 14 14 19 15 15 16 18 17 17 18 20 19 16 20 9 21 33 22
REMARK SMILES IDX 6 23 3 24 5 25 4 26 7 27 8 28 2 29 1 30 27 31 29 32 30 33
REMARK SMILES IDX 28 34
REMARK H PARENT 21 12 28 35 28 36
ROOT
ATOM      1  C   UNL     1      13.164 -51.643 -24.633  1.00  0.00     0.058 A 
ATOM      2  C   UNL     1      13.001 -52.870 -25.296  1.00  0.00     0.029 A 
ATOM      3  C   UNL     1      12.202 -53.893 -24.768  1.00  0.00     0.024 A 
ATOM      4  C   UNL     1      11.546 -53.698 -23.554  1.00  0.00     0.082 A 
ATOM      5  C   UNL     1      11.661 -52.482 -22.883  1.00  0.00     0.024 A 
ATOM      6  C   UNL     1      12.461 -51.471 -23.425  1.00  0.00     0.029 A 
ENDROOT
BRANCH   1   7
ATOM      7  N   UNL     1      13.942 -50.596 -25.160  1.00  0.00    -0.276 N 
ATOM      8  N   UNL     1      14.577 -50.699 -26.396  1.00  0.00    -0.297 N 
ATOM      9  C   UNL     1      14.736 -49.447 -26.976  1.00  0.00     0.063 C 
ATOM     10  C   UNL     1      14.118 -48.521 -26.225  1.00  0.00     0.033 C 
ATOM     11  C   UNL     1      13.520 -49.170 -24.988  1.00  0.00     0.165 C 
ATOM     12  H   UNL     1      15.446 -51.239 -26.400  1.00  0.00     0.188 HD
BRANCH   9  13
ATOM     13  C   UNL     1      15.530 -49.242 -28.192  1.00  0.00     0.038 A 
ATOM     14  C   UNL     1      14.943 -48.720 -29.355  1.00  0.00     0.052 A 
ATOM     15  C   UNL     1      16.894 -49.574 -28.244  1.00  0.00     0.132 A 
ATOM     16  C   UNL     1      15.704 -48.539 -30.508  1.00  0.00     0.124 A 
ATOM     17  C   UNL     1      17.654 -49.390 -29.401  1.00  0.00     0.043 A 
ATOM     18  C   UNL     1      17.053 -48.868 -30.543  1.00  0.00     0.042 A 
ATOM     19  F   UNL     1      17.514 -50.074 -27.161  1.00  0.00    -0.206 F 
ATOM     20  F   UNL     1      15.121 -48.041 -31.607  1.00  0.00    -0.207 F 
ENDBRANCH   9  13
BRANCH  11  21
ATOM     21  C   UNL     1      14.001 -48.520 -23.702  1.00  0.00     0.026 A 
ATOM     22  C   UNL     1      15.246 -48.932 -23.170  1.00  0.00     0.056 A 
ATOM     23  C   UNL     1      13.273 -47.548 -22.996  1.00  0.00     0.124 A 
ATOM     24  C   UNL     1      15.747 -48.386 -21.985  1.00  0.00     0.119 A 
ATOM     25  C   UNL     1      13.760 -47.019 -21.798  1.00  0.00     0.050 A 
ATOM     26  C   UNL     1      14.997 -47.430 -21.304  1.00  0.00     0.050 A 
BRANCH  23  27
ATOM     27  O   UNL     1      12.027 -47.172 -23.426  1.00  0.00    -0.496 OA
ATOM     28  C   UNL     1      11.005 -47.862 -22.706  1.00  0.00     0.278 C 
ENDBRANCH  23  27
BRANCH  24  29
ATOM     29  O   UNL     1      16.937 -48.707 -21.392  1.00  0.00    -0.497 OA
ATOM     30  C   UNL     1      17.455 -50.008 -21.634  1.00  0.00     0.278 C 
ENDBRANCH  24  29
ENDBRANCH  11  21
ENDBRANCH   1   7
BRANCH   4  31
ATOM     31  S   UNL     1      10.509 -54.968 -22.897  1.00  0.00     0.238 S 
ATOM     32  O   UNL     1       9.537 -55.355 -23.893  1.00  0.00    -0.207 OA
ATOM     33  O   UNL     1      11.322 -55.932 -22.193  1.00  0.00    -0.207 OA
BRANCH  31  34
ATOM     34  N   UNL     1       9.653 -54.141 -21.712  1.00  0.00    -0.225 NA
ATOM     35  H   UNL     1       9.606 -54.704 -20.864  1.00  0.00     0.137 HD
ATOM     36  H   UNL     1       8.741 -53.864 -22.076  1.00  0.00     0.137 HD
ENDBRANCH  31  34
ENDBRANCH   4  31
TORSDOF 7
ENDMDL
MODEL 7
REMARK VINA RESULT:    -8.658      3.483      5.165
REMARK INTER + INTRA:         -13.174
REMARK INTER:                 -11.687
REMARK INTRA:                  -1.487
REMARK UNBOUND:                -1.227
REMARK SMILES COc1ccc(OC)c([C@H]2C=C(c3cc(F)ccc3F)NN2c2ccc(S(N)(=O)=O)cc2)c1
REMARK SMILES IDX 23 1 24 2 25 3 26 4 31 5 32 6 22 7 21 8 12 9 11 10 10 11
REMARK SMILES IDX 13 13 14 14 19 15 15 16 18 17 17 18 20 19 16 20 9 21 33 22
REMARK SMILES IDX 6 23 3 24 5 25 4 26 7 27 8 28 2 29 1 30 27 31 29 32 30 33
REMARK SMILES IDX 28 34
REMARK H PARENT 21 12 28 35 28 36
ROOT
ATOM      1  C   UNL     1      14.604 -47.688 -21.460  1.00  0.00     0.058 A 
ATOM      2  C   UNL     1      14.144 -46.553 -20.775  1.00  0.00     0.029 A 
ATOM      3  C   UNL     1      14.961 -45.852 -19.877  1.00  0.00     0.024 A 
ATOM      4  C   UNL     1      16.267 -46.284 -19.651  1.00  0.00     0.082 A 
ATOM      5  C   UNL     1      16.767 -47.390 -20.336  1.00  0.00     0.024 A 
ATOM      6  C   UNL     1      15.939 -48.077 -21.229  1.00  0.00     0.029 A 
ENDROOT
BRANCH   1   7
ATOM      7  N   UNL     1      13.808 -48.390 -22.383  1.00  0.00    -0.276 N 
ATOM      8  N   UNL     1      13.264 -49.639 -22.087  1.00  0.00    -0.297 N 
ATOM      9  C   UNL     1      12.090 -49.848 -22.800  1.00  0.00     0.063 C 
ATOM     10  C   UNL     1      11.764 -48.731 -23.470  1.00  0.00     0.033 C 
ATOM     11  C   UNL     1      12.826 -47.665 -23.251  1.00  0.00     0.165 C 
ATOM     12  H   UNL     1      13.909 -50.429 -22.166  1.00  0.00     0.188 HD
BRANCH   9  13
ATOM     13  C   UNL     1      11.405 -51.145 -22.819  1.00  0.00     0.038 A 
ATOM     14  C   UNL     1      11.995 -52.261 -23.432  1.00  0.00     0.052 A 
ATOM     15  C   UNL     1      10.134 -51.313 -22.245  1.00  0.00     0.132 A 
ATOM     16  C   UNL     1      11.331 -53.486 -23.455  1.00  0.00     0.124 A 
ATOM     17  C   UNL     1       9.472 -52.542 -22.269  1.00  0.00     0.043 A 
ATOM     18  C   UNL     1      10.076 -53.638 -22.878  1.00  0.00     0.042 A 
ATOM     19  F   UNL     1       9.519 -50.283 -21.639  1.00  0.00    -0.206 F 
ATOM     20  F   UNL     1      11.913 -54.537 -24.047  1.00  0.00    -0.207 F 
ENDBRANCH   9  13
BRANCH  11  21
ATOM     21  C   UNL     1      13.402 -47.143 -24.556  1.00  0.00     0.026 A 
ATOM     22  C   UNL     1      13.052 -45.834 -24.964  1.00  0.00     0.056 A 
ATOM     23  C   UNL     1      14.245 -47.891 -25.394  1.00  0.00     0.124 A 
ATOM     24  C   UNL     1      13.535 -45.291 -26.157  1.00  0.00     0.119 A 
ATOM     25  C   UNL     1      14.709 -47.360 -26.600  1.00  0.00     0.050 A 
ATOM     26  C   UNL     1      14.363 -46.062 -26.971  1.00  0.00     0.050 A 
BRANCH  23  27
ATOM     27  O   UNL     1      14.550 -49.190 -25.084  1.00  0.00    -0.496 OA
ATOM     28  C   UNL     1      14.023 -50.089 -26.059  1.00  0.00     0.278 C 
ENDBRANCH  23  27
BRANCH  24  29
ATOM     29  O   UNL     1      13.267 -44.039 -26.638  1.00  0.00    -0.497 OA
ATOM     30  C   UNL     1      12.529 -43.164 -25.797  1.00  0.00     0.278 C 
ENDBRANCH  24  29
ENDBRANCH  11  21
ENDBRANCH   1   7
BRANCH   4  31
ATOM     31  S   UNL     1      17.314 -45.388 -18.548  1.00  0.00     0.238 S 
ATOM     32  O   UNL     1      18.654 -45.923 -18.621  1.00  0.00    -0.207 OA
ATOM     33  O   UNL     1      17.037 -43.976 -18.665  1.00  0.00    -0.207 OA
BRANCH  31  34
ATOM     34  N   UNL     1      16.715 -45.848 -17.048  1.00  0.00    -0.225 NA
ATOM     35  H   UNL     1      16.000 -46.564 -17.166  1.00  0.00     0.137 HD
ATOM     36  H   UNL     1      16.395 -45.025 -16.537  1.00  0.00     0.137 HD
ENDBRANCH  31  34
ENDBRANCH   4  31
TORSDOF 7
ENDMDL
MODEL 8
REMARK VINA RESULT:    -8.646      4.248      7.404
REMARK INTER + INTRA:         -13.158
REMARK INTER:                 -11.880
REMARK INTRA:                  -1.278
REMARK UNBOUND:                -1.227
REMARK SMILES COc1ccc(OC)c([C@H]2C=C(c3cc(F)ccc3F)NN2c2ccc(S(N)(=O)=O)cc2)c1
REMARK SMILES IDX 23 1 24 2 25 3 26 4 31 5 32 6 22 7 21 8 12 9 11 10 10 11
REMARK SMILES IDX 13 13 14 14 19 15 15 16 18 17 17 18 20 19 16 20 9 21 33 22
REMARK SMILES IDX 6 23 3 24 5 25 4 26 7 27 8 28 2 29 1 30 27 31 29 32 30 33
REMARK SMILES IDX 28 34
REMARK H PARENT 21 12 28 35 28 36
ROOT
ATOM      1  C   UNL     1      12.062 -50.372 -23.334  1.00  0.00     0.058 A 
ATOM      2  C   UNL     1      12.514 -51.528 -23.991  1.00  0.00     0.029 A 
ATOM      3  C   UNL     1      12.006 -52.797 -23.685  1.00  0.00     0.024 A 
ATOM      4  C   UNL     1      11.024 -52.928 -22.704  1.00  0.00     0.082 A 
ATOM      5  C   UNL     1      10.530 -51.800 -22.052  1.00  0.00     0.024 A 
ATOM      6  C   UNL     1      11.048 -50.540 -22.371  1.00  0.00     0.029 A 
ENDROOT
BRANCH   1   7
ATOM      7  N   UNL     1      12.542 -49.087 -23.645  1.00  0.00    -0.276 N 
ATOM      8  N   UNL     1      11.856 -47.933 -23.272  1.00  0.00    -0.297 N 
ATOM      9  C   UNL     1      12.731 -46.867 -23.109  1.00  0.00     0.063 C 
ATOM     10  C   UNL     1      13.996 -47.299 -23.240  1.00  0.00     0.033 C 
ATOM     11  C   UNL     1      14.007 -48.782 -23.575  1.00  0.00     0.165 C 
ATOM     12  H   UNL     1      11.056 -47.689 -23.862  1.00  0.00     0.188 HD
BRANCH   9  13
ATOM     13  C   UNL     1      12.263 -45.494 -22.895  1.00  0.00     0.038 A 
ATOM     14  C   UNL     1      12.996 -44.601 -22.098  1.00  0.00     0.052 A 
ATOM     15  C   UNL     1      11.063 -45.031 -23.459  1.00  0.00     0.132 A 
ATOM     16  C   UNL     1      12.537 -43.302 -21.892  1.00  0.00     0.124 A 
ATOM     17  C   UNL     1      10.606 -43.727 -23.250  1.00  0.00     0.043 A 
ATOM     18  C   UNL     1      11.350 -42.856 -22.460  1.00  0.00     0.042 A 
ATOM     19  F   UNL     1      10.319 -45.837 -24.234  1.00  0.00    -0.206 F 
ATOM     20  F   UNL     1      13.252 -42.467 -21.126  1.00  0.00    -0.207 F 
ENDBRANCH   9  13
BRANCH  11  21
ATOM     21  C   UNL     1      14.776 -49.083 -24.850  1.00  0.00     0.026 A 
ATOM     22  C   UNL     1      14.397 -48.409 -26.034  1.00  0.00     0.056 A 
ATOM     23  C   UNL     1      15.829 -50.010 -24.928  1.00  0.00     0.124 A 
ATOM     24  C   UNL     1      15.052 -48.644 -27.246  1.00  0.00     0.119 A 
ATOM     25  C   UNL     1      16.469 -50.265 -26.143  1.00  0.00     0.050 A 
ATOM     26  C   UNL     1      16.087 -49.575 -27.292  1.00  0.00     0.050 A 
BRANCH  23  27
ATOM     27  O   UNL     1      16.183 -50.746 -23.828  1.00  0.00    -0.496 OA
ATOM     28  C   UNL     1      16.658 -52.039 -24.206  1.00  0.00     0.278 C 
ENDBRANCH  23  27
BRANCH  24  29
ATOM     29  O   UNL     1      14.771 -48.042 -28.442  1.00  0.00    -0.497 OA
ATOM     30  C   UNL     1      15.206 -46.700 -28.613  1.00  0.00     0.278 C 
ENDBRANCH  24  29
ENDBRANCH  11  21
ENDBRANCH   1   7
BRANCH   4  31
ATOM     31  S   UNL     1      10.353 -54.519 -22.335  1.00  0.00     0.238 S 
ATOM     32  O   UNL     1      11.411 -55.392 -21.883  1.00  0.00    -0.207 OA
ATOM     33  O   UNL     1       9.117 -54.359 -21.605  1.00  0.00    -0.207 OA
BRANCH  31  34
ATOM     34  N   UNL     1       9.914 -55.075 -23.858  1.00  0.00    -0.225 NA
ATOM     35  H   UNL     1       8.913 -55.263 -23.881  1.00  0.00     0.137 HD
ATOM     36  H   UNL     1      10.491 -55.877 -24.111  1.00  0.00     0.137 HD
ENDBRANCH  31  34
ENDBRANCH   4  31
TORSDOF 7
ENDMDL
MODEL 9
REMARK VINA RESULT:    -8.498      3.483      5.650
REMARK INTER + INTRA:         -12.954
REMARK INTER:                 -11.361
REMARK INTRA:                  -1.592
REMARK UNBOUND:                -1.227
REMARK SMILES COc1ccc(OC)c([C@H]2C=C(c3cc(F)ccc3F)NN2c2ccc(S(N)(=O)=O)cc2)c1
REMARK SMILES IDX 23 1 24 2 25 3 26 4 31 5 32 6 22 7 21 8 12 9 11 10 10 11
REMARK SMILES IDX 13 13 14 14 19 15 15 16 18 17 17 18 20 19 16 20 9 21 33 22
REMARK SMILES IDX 6 23 3 24 5 25 4 26 7 27 8 28 2 29 1 30 27 31 29 32 30 33
REMARK SMILES IDX 28 34
REMARK H PARENT 21 12 28 35 28 36
ROOT
ATOM      1  C   UNL     1      14.934 -47.878 -21.393  1.00  0.00     0.058 A 
ATOM      2  C   UNL     1      16.297 -48.204 -21.304  1.00  0.00     0.029 A 
ATOM      3  C   UNL     1      17.131 -47.630 -20.335  1.00  0.00     0.024 A 
ATOM      4  C   UNL     1      16.605 -46.710 -19.430  1.00  0.00     0.082 A 
ATOM      5  C   UNL     1      15.251 -46.385 -19.469  1.00  0.00     0.024 A 
ATOM      6  C   UNL     1      14.432 -46.968 -20.442  1.00  0.00     0.029 A 
ENDROOT
BRANCH   1   7
ATOM      7  N   UNL     1      14.077 -48.462 -22.342  1.00  0.00    -0.276 N 
ATOM      8  N   UNL     1      13.873 -49.839 -22.403  1.00  0.00    -0.297 N 
ATOM      9  C   UNL     1      12.619 -50.132 -22.921  1.00  0.00     0.063 C 
ATOM     10  C   UNL     1      11.926 -48.994 -23.095  1.00  0.00     0.033 C 
ATOM     11  C   UNL     1      12.786 -47.800 -22.715  1.00  0.00     0.165 C 
ATOM     12  H   UNL     1      14.615 -50.372 -22.865  1.00  0.00     0.188 HD
BRANCH   9  13
ATOM     13  C   UNL     1      12.211 -51.499 -23.264  1.00  0.00     0.038 A 
ATOM     14  C   UNL     1      12.726 -52.139 -24.402  1.00  0.00     0.052 A 
ATOM     15  C   UNL     1      11.282 -52.205 -22.483  1.00  0.00     0.132 A 
ATOM     16  C   UNL     1      12.323 -53.433 -24.724  1.00  0.00     0.124 A 
ATOM     17  C   UNL     1      10.881 -53.503 -22.809  1.00  0.00     0.043 A 
ATOM     18  C   UNL     1      11.407 -54.122 -23.939  1.00  0.00     0.042 A 
ATOM     19  F   UNL     1      10.756 -51.647 -21.379  1.00  0.00    -0.206 F 
ATOM     20  F   UNL     1      12.827 -54.024 -25.816  1.00  0.00    -0.207 F 
ENDBRANCH   9  13
BRANCH  11  21
ATOM     21  C   UNL     1      12.899 -46.785 -23.840  1.00  0.00     0.026 A 
ATOM     22  C   UNL     1      13.793 -47.061 -24.900  1.00  0.00     0.056 A 
ATOM     23  C   UNL     1      12.184 -45.577 -23.878  1.00  0.00     0.124 A 
ATOM     24  C   UNL     1      13.958 -46.169 -25.963  1.00  0.00     0.119 A 
ATOM     25  C   UNL     1      12.365 -44.672 -24.927  1.00  0.00     0.050 A 
ATOM     26  C   UNL     1      13.241 -44.975 -25.969  1.00  0.00     0.050 A 
BRANCH  23  27
ATOM     27  O   UNL     1      11.365 -45.226 -22.838  1.00  0.00    -0.496 OA
ATOM     28  C   UNL     1      10.646 -44.028 -23.131  1.00  0.00     0.278 C 
ENDBRANCH  23  27
BRANCH  24  29
ATOM     29  O   UNL     1      14.786 -46.342 -27.038  1.00  0.00    -0.497 OA
ATOM     30  C   UNL     1      15.691 -45.288 -27.338  1.00  0.00     0.278 C 
ENDBRANCH  24  29
ENDBRANCH  11  21
ENDBRANCH   1   7
BRANCH   4  31
ATOM     31  S   UNL     1      17.640 -46.007 -18.184  1.00  0.00     0.238 S 
ATOM     32  O   UNL     1      18.612 -46.988 -17.759  1.00  0.00    -0.207 OA
ATOM     33  O   UNL     1      18.013 -44.666 -18.573  1.00  0.00    -0.207 OA
BRANCH  31  34
ATOM     34  N   UNL     1      16.571 -45.830 -16.901  1.00  0.00    -0.225 NA
ATOM     35  H   UNL     1      17.062 -45.450 -16.093  1.00  0.00     0.137 HD
ATOM     36  H   UNL     1      16.100 -46.716 -16.720  1.00  0.00     0.137 HD
ENDBRANCH  31  34
ENDBRANCH   4  31
TORSDOF 7
ENDMDL
