MODEL 1
REMARK VINA RESULT:   -13.051      0.000      0.000
REMARK INTER + INTRA:         -19.097
REMARK INTER:                 -18.392
REMARK INTRA:                  -0.705
REMARK UNBOUND:                -0.705
REMARK SMILES Cc1cc(=O)[nH]c2c1C(=O)C(=NCCCCNc1c3c(nc4cc(Cl)ccc14)CCCC3)CC2=O
REMARK SMILES IDX 14 1 13 2 12 3 11 4 33 5 34 6 7 7 9 8 6 9 8 10 4 11 2 12
REMARK SMILES IDX 3 13 35 14 10 15 5 17 1 18 15 19 16 20 17 21 18 23 19 24
REMARK SMILES IDX 28 25 20 26 32 27 27 28 22 29 21 30 29 31 31 32 26 33 23 34
REMARK SMILES IDX 30 35 24 36 25 37
REMARK H PARENT 6 16 17 22
ROOT
ATOM      1  C   UNL     1      11.354 -57.821 -21.395  1.00  0.00     0.025 C 
ENDROOT
BRANCH   1   2
ATOM      2  C   UNL     1      10.538 -56.998 -22.391  1.00  0.00     0.142 C 
BRANCH   2   3
ATOM      3  N   UNL     1      11.402 -56.170 -23.230  1.00  0.00    -0.285 NA
BRANCH   3   4
ATOM      4  C   UNL     1      11.060 -54.976 -23.571  1.00  0.00     0.091 C 
ATOM      5  C   UNL     1       9.881 -54.324 -22.925  1.00  0.00     0.142 C 
ATOM      6  C   UNL     1      10.189 -52.925 -22.472  1.00  0.00     0.185 C 
ATOM      7  C   UNL     1      11.371 -52.219 -23.065  1.00  0.00     0.097 A 
ATOM      8  C   UNL     1      11.782 -54.092 -24.557  1.00  0.00     0.209 C 
ATOM      9  N   UNL     1      11.638 -50.962 -22.565  1.00  0.00    -0.319 N 
ATOM     10  C   UNL     1      12.129 -52.736 -24.048  1.00  0.00     0.054 A 
ATOM     11  C   UNL     1      12.653 -50.157 -22.999  1.00  0.00     0.248 A 
ATOM     12  C   UNL     1      13.244 -51.948 -24.586  1.00  0.00    -0.032 A 
ATOM     13  C   UNL     1      13.495 -50.723 -24.082  1.00  0.00     0.075 A 
ATOM     14  O   UNL     1       9.480 -52.334 -21.659  1.00  0.00    -0.292 OA
ATOM     15  O   UNL     1      12.020 -54.487 -25.686  1.00  0.00    -0.287 OA
ATOM     16  H   UNL     1      11.034 -50.595 -21.832  1.00  0.00     0.170 HD
ATOM     17  O   UNL     1      12.875 -49.045 -22.540  1.00  0.00    -0.270 OA
ATOM     18  C   UNL     1      14.112 -52.515 -25.673  1.00  0.00     0.045 C 
ENDBRANCH   3   4
ENDBRANCH   2   3
ENDBRANCH   1   2
BRANCH   1  19
ATOM     19  C   UNL     1      11.390 -59.309 -21.755  1.00  0.00     0.023 C 
BRANCH  19  20
ATOM     20  C   UNL     1      12.168 -59.546 -23.049  1.00  0.00     0.113 C 
BRANCH  20  21
ATOM     21  N   UNL     1      12.077 -60.947 -23.496  1.00  0.00    -0.384 N 
ATOM     22  H   UNL     1      12.958 -61.216 -23.931  1.00  0.00     0.160 HD
BRANCH  21  23
ATOM     23  C   UNL     1      11.036 -61.166 -24.446  1.00  0.00     0.049 A 
ATOM     24  C   UNL     1       9.845 -61.816 -24.087  1.00  0.00    -0.003 A 
ATOM     25  C   UNL     1      11.225 -60.770 -25.798  1.00  0.00     0.024 A 
ATOM     26  C   UNL     1       8.904 -62.053 -25.092  1.00  0.00     0.046 A 
ATOM     27  C   UNL     1       9.461 -62.220 -22.688  1.00  0.00     0.039 C 
ATOM     28  C   UNL     1      12.369 -60.071 -26.251  1.00  0.00     0.014 A 
ATOM     29  C   UNL     1      10.207 -61.075 -26.728  1.00  0.00     0.074 A 
ATOM     30  N   UNL     1       9.076 -61.705 -26.384  1.00  0.00    -0.252 NA
ATOM     31  C   UNL     1       7.603 -62.715 -24.717  1.00  0.00     0.056 C 
ATOM     32  C   UNL     1       8.841 -63.621 -22.658  1.00  0.00     0.005 C 
ATOM     33  C   UNL     1      12.513 -59.707 -27.589  1.00  0.00     0.021 A 
ATOM     34  C   UNL     1      10.368 -60.707 -28.056  1.00  0.00     0.049 A 
ATOM     35  C   UNL     1       7.853 -63.908 -23.798  1.00  0.00     0.007 C 
ATOM     36  C   UNL     1      11.508 -60.034 -28.487  1.00  0.00     0.043 A 
ATOM     37  Cl  UNL     1      11.668 -59.595 -30.143  1.00  0.00    -0.084 Cl
ENDBRANCH  21  23
ENDBRANCH  20  21
ENDBRANCH  19  20
ENDBRANCH   1  19
TORSDOF 7
ENDMDL
MODEL 2
REMARK VINA RESULT:   -12.468      1.726      3.436
REMARK INTER + INTRA:         -18.275
REMARK INTER:                 -17.490
REMARK INTRA:                  -0.786
REMARK UNBOUND:                -0.705
REMARK SMILES Cc1cc(=O)[nH]c2c1C(=O)C(=NCCCCNc1c3c(nc4cc(Cl)ccc14)CCCC3)CC2=O
REMARK SMILES IDX 14 1 13 2 12 3 11 4 33 5 34 6 7 7 9 8 6 9 8 10 4 11 2 12
REMARK SMILES IDX 3 13 35 14 10 15 5 17 1 18 15 19 16 20 17 21 18 23 19 24
REMARK SMILES IDX 28 25 20 26 32 27 27 28 22 29 21 30 29 31 31 32 26 33 23 34
REMARK SMILES IDX 30 35 24 36 25 37
REMARK H PARENT 6 16 17 22
ROOT
ATOM      1  C   UNL     1      11.487 -58.640 -21.989  1.00  0.00     0.025 C 
ENDROOT
BRANCH   1   2
ATOM      2  C   UNL     1      10.716 -57.380 -22.383  1.00  0.00     0.142 C 
BRANCH   2   3
ATOM      3  N   UNL     1      11.499 -56.539 -23.287  1.00  0.00    -0.285 NA
BRANCH   3   4
ATOM      4  C   UNL     1      11.104 -55.358 -23.611  1.00  0.00     0.091 C 
ATOM      5  C   UNL     1       9.911 -54.758 -22.941  1.00  0.00     0.142 C 
ATOM      6  C   UNL     1      10.171 -53.352 -22.481  1.00  0.00     0.185 C 
ATOM      7  C   UNL     1      11.314 -52.594 -23.086  1.00  0.00     0.097 A 
ATOM      8  C   UNL     1      11.774 -54.438 -24.602  1.00  0.00     0.209 C 
ATOM      9  N   UNL     1      11.540 -51.333 -22.580  1.00  0.00    -0.319 N 
ATOM     10  C   UNL     1      12.076 -53.073 -24.087  1.00  0.00     0.054 A 
ATOM     11  C   UNL     1      12.515 -50.484 -23.024  1.00  0.00     0.248 A 
ATOM     12  C   UNL     1      13.150 -52.237 -24.635  1.00  0.00    -0.032 A 
ATOM     13  C   UNL     1      13.360 -51.007 -24.125  1.00  0.00     0.075 A 
ATOM     14  O   UNL     1       9.453 -52.796 -21.651  1.00  0.00    -0.292 OA
ATOM     15  O   UNL     1      12.009 -54.814 -25.737  1.00  0.00    -0.287 OA
ATOM     16  H   UNL     1      10.934 -50.995 -21.834  1.00  0.00     0.170 HD
ATOM     17  O   UNL     1      12.700 -49.368 -22.559  1.00  0.00    -0.270 OA
ATOM     18  C   UNL     1      14.021 -52.760 -25.742  1.00  0.00     0.045 C 
ENDBRANCH   3   4
ENDBRANCH   2   3
ENDBRANCH   1   2
BRANCH   1  19
ATOM     19  C   UNL     1      10.640 -59.609 -21.157  1.00  0.00     0.023 C 
BRANCH  19  20
ATOM     20  C   UNL     1      10.014 -60.691 -22.036  1.00  0.00     0.113 C 
BRANCH  20  21
ATOM     21  N   UNL     1      11.006 -61.314 -22.929  1.00  0.00    -0.384 N 
ATOM     22  H   UNL     1      11.844 -60.733 -22.954  1.00  0.00     0.160 HD
BRANCH  21  23
ATOM     23  C   UNL     1      10.541 -61.464 -24.269  1.00  0.00     0.049 A 
ATOM     24  C   UNL     1      11.147 -60.779 -25.333  1.00  0.00    -0.003 A 
ATOM     25  C   UNL     1       9.405 -62.278 -24.530  1.00  0.00     0.024 A 
ATOM     26  C   UNL     1      10.589 -60.925 -26.605  1.00  0.00     0.046 A 
ATOM     27  C   UNL     1      12.400 -59.949 -25.233  1.00  0.00     0.039 C 
ATOM     28  C   UNL     1       8.750 -63.042 -23.536  1.00  0.00     0.014 A 
ATOM     29  C   UNL     1       8.923 -62.338 -25.856  1.00  0.00     0.074 A 
ATOM     30  N   UNL     1       9.498 -61.676 -26.869  1.00  0.00    -0.252 NA
ATOM     31  C   UNL     1      11.250 -60.229 -27.766  1.00  0.00     0.056 C 
ATOM     32  C   UNL     1      12.274 -58.644 -26.025  1.00  0.00     0.005 C 
ATOM     33  C   UNL     1       7.636 -63.822 -23.839  1.00  0.00     0.021 A 
ATOM     34  C   UNL     1       7.812 -63.119 -26.139  1.00  0.00     0.049 A 
ATOM     35  C   UNL     1      11.602 -58.790 -27.398  1.00  0.00     0.007 C 
ATOM     36  C   UNL     1       7.170 -63.852 -25.145  1.00  0.00     0.043 A 
ATOM     37  Cl  UNL     1       5.795 -64.808 -25.538  1.00  0.00    -0.084 Cl
ENDBRANCH  21  23
ENDBRANCH  20  21
ENDBRANCH  19  20
ENDBRANCH   1  19
TORSDOF 7
ENDMDL
MODEL 3
REMARK VINA RESULT:   -11.647      1.422      2.335
REMARK INTER + INTRA:         -17.118
REMARK INTER:                 -16.434
REMARK INTRA:                  -0.685
REMARK UNBOUND:                -0.705
REMARK SMILES Cc1cc(=O)[nH]c2c1C(=O)C(=NCCCCNc1c3c(nc4cc(Cl)ccc14)CCCC3)CC2=O
REMARK SMILES IDX 14 1 13 2 12 3 11 4 33 5 34 6 7 7 9 8 6 9 8 10 4 11 2 12
REMARK SMILES IDX 3 13 35 14 10 15 5 17 1 18 15 19 16 20 17 21 18 23 19 24
REMARK SMILES IDX 28 25 20 26 32 27 27 28 22 29 21 30 29 31 31 32 26 33 23 34
REMARK SMILES IDX 30 35 24 36 25 37
REMARK H PARENT 6 16 17 22
ROOT
ATOM      1  C   UNL     1      10.879 -58.133 -22.316  1.00  0.00     0.025 C 
ENDROOT
BRANCH   1   2
ATOM      2  C   UNL     1       9.567 -57.638 -22.924  1.00  0.00     0.142 C 
BRANCH   2   3
ATOM      3  N   UNL     1       9.701 -56.277 -23.440  1.00  0.00    -0.285 NA
BRANCH   3   4
ATOM      4  C   UNL     1      10.839 -55.674 -23.451  1.00  0.00     0.091 C 
ATOM      5  C   UNL     1      11.911 -56.119 -24.394  1.00  0.00     0.142 C 
ATOM      6  C   UNL     1      12.530 -54.963 -25.126  1.00  0.00     0.185 C 
ATOM      7  C   UNL     1      12.368 -53.582 -24.567  1.00  0.00     0.097 A 
ATOM      8  C   UNL     1      11.217 -54.473 -22.620  1.00  0.00     0.209 C 
ATOM      9  N   UNL     1      12.905 -52.558 -25.316  1.00  0.00    -0.319 N 
ATOM     10  C   UNL     1      11.766 -53.323 -23.391  1.00  0.00     0.054 A 
ATOM     11  C   UNL     1      12.881 -51.240 -24.955  1.00  0.00     0.248 A 
ATOM     12  C   UNL     1      11.689 -51.938 -22.914  1.00  0.00    -0.032 A 
ATOM     13  C   UNL     1      12.216 -50.948 -23.661  1.00  0.00     0.075 A 
ATOM     14  O   UNL     1      13.195 -55.123 -26.150  1.00  0.00    -0.292 OA
ATOM     15  O   UNL     1      11.092 -54.493 -21.408  1.00  0.00    -0.287 OA
ATOM     16  H   UNL     1      13.368 -52.791 -26.193  1.00  0.00     0.170 HD
ATOM     17  O   UNL     1      13.362 -50.346 -25.636  1.00  0.00    -0.270 OA
ATOM     18  C   UNL     1      11.007 -51.627 -21.612  1.00  0.00     0.045 C 
ENDBRANCH   3   4
ENDBRANCH   2   3
ENDBRANCH   1   2
BRANCH   1  19
ATOM     19  C   UNL     1      10.664 -59.239 -21.277  1.00  0.00     0.023 C 
BRANCH  19  20
ATOM     20  C   UNL     1       9.905 -60.421 -21.878  1.00  0.00     0.113 C 
BRANCH  20  21
ATOM     21  N   UNL     1      10.723 -61.158 -22.856  1.00  0.00    -0.384 N 
ATOM     22  H   UNL     1      11.554 -60.610 -23.076  1.00  0.00     0.160 HD
BRANCH  21  23
ATOM     23  C   UNL     1      10.038 -61.419 -24.079  1.00  0.00     0.049 A 
ATOM     24  C   UNL     1       8.905 -62.246 -24.119  1.00  0.00    -0.003 A 
ATOM     25  C   UNL     1      10.539 -60.878 -25.295  1.00  0.00     0.024 A 
ATOM     26  C   UNL     1       8.331 -62.508 -25.365  1.00  0.00     0.046 A 
ATOM     27  C   UNL     1       8.207 -62.825 -22.916  1.00  0.00     0.039 C 
ATOM     28  C   UNL     1      11.646 -59.999 -25.357  1.00  0.00     0.014 A 
ATOM     29  C   UNL     1       9.881 -61.223 -26.496  1.00  0.00     0.074 A 
ATOM     30  N   UNL     1       8.806 -62.021 -26.532  1.00  0.00    -0.252 NA
ATOM     31  C   UNL     1       7.092 -63.362 -25.422  1.00  0.00     0.056 C 
ATOM     32  C   UNL     1       7.820 -64.290 -23.142  1.00  0.00     0.005 C 
ATOM     33  C   UNL     1      12.105 -59.497 -26.573  1.00  0.00     0.021 A 
ATOM     34  C   UNL     1      10.353 -60.715 -27.698  1.00  0.00     0.049 A 
ATOM     35  C   UNL     1       7.248 -64.594 -24.534  1.00  0.00     0.007 C 
ATOM     36  C   UNL     1      11.454 -59.864 -27.742  1.00  0.00     0.043 A 
ATOM     37  Cl  UNL     1      12.007 -59.256 -29.253  1.00  0.00    -0.084 Cl
ENDBRANCH  21  23
ENDBRANCH  20  21
ENDBRANCH  19  20
ENDBRANCH   1  19
TORSDOF 7
ENDMDL
MODEL 4
REMARK VINA RESULT:   -11.631      4.318     10.938
REMARK INTER + INTRA:         -17.095
REMARK INTER:                 -16.652
REMARK INTRA:                  -0.443
REMARK UNBOUND:                -0.705
REMARK SMILES Cc1cc(=O)[nH]c2c1C(=O)C(=NCCCCNc1c3c(nc4cc(Cl)ccc14)CCCC3)CC2=O
REMARK SMILES IDX 14 1 13 2 12 3 11 4 33 5 34 6 7 7 9 8 6 9 8 10 4 11 2 12
REMARK SMILES IDX 3 13 35 14 10 15 5 17 1 18 15 19 16 20 17 21 18 23 19 24
REMARK SMILES IDX 28 25 20 26 32 27 27 28 22 29 21 30 29 31 31 32 26 33 23 34
REMARK SMILES IDX 30 35 24 36 25 37
REMARK H PARENT 6 16 17 22
ROOT
ATOM      1  C   UNL     1      10.567 -55.218 -23.582  1.00  0.00     0.025 C 
ENDROOT
BRANCH   1   2
ATOM      2  C   UNL     1       9.674 -56.176 -22.792  1.00  0.00     0.142 C 
BRANCH   2   3
ATOM      3  N   UNL     1       9.046 -57.162 -23.669  1.00  0.00    -0.285 NA
BRANCH   3   4
ATOM      4  C   UNL     1       8.529 -58.243 -23.199  1.00  0.00     0.091 C 
ATOM      5  C   UNL     1       7.055 -58.327 -22.968  1.00  0.00     0.142 C 
ATOM      6  C   UNL     1       6.469 -59.593 -23.526  1.00  0.00     0.185 C 
ATOM      7  C   UNL     1       7.382 -60.746 -23.811  1.00  0.00     0.097 A 
ATOM      8  C   UNL     1       9.269 -59.521 -22.891  1.00  0.00     0.209 C 
ATOM      9  N   UNL     1       6.795 -61.857 -24.379  1.00  0.00    -0.319 N 
ATOM     10  C   UNL     1       8.695 -60.745 -23.516  1.00  0.00     0.054 A 
ATOM     11  C   UNL     1       7.459 -63.012 -24.684  1.00  0.00     0.248 A 
ATOM     12  C   UNL     1       9.497 -61.940 -23.804  1.00  0.00    -0.032 A 
ATOM     13  C   UNL     1       8.908 -63.016 -24.363  1.00  0.00     0.075 A 
ATOM     14  O   UNL     1       5.260 -59.720 -23.720  1.00  0.00    -0.292 OA
ATOM     15  O   UNL     1      10.243 -59.513 -22.158  1.00  0.00    -0.287 OA
ATOM     16  H   UNL     1       5.797 -61.830 -24.574  1.00  0.00     0.170 HD
ATOM     17  O   UNL     1       6.920 -63.986 -25.189  1.00  0.00    -0.270 OA
ATOM     18  C   UNL     1      10.967 -61.953 -23.496  1.00  0.00     0.045 C 
ENDBRANCH   3   4
ENDBRANCH   2   3
ENDBRANCH   1   2
BRANCH   1  19
ATOM     19  C   UNL     1      11.259 -54.188 -22.684  1.00  0.00     0.023 C 
BRANCH  19  20
ATOM     20  C   UNL     1      11.037 -52.767 -23.201  1.00  0.00     0.113 C 
BRANCH  20  21
ATOM     21  N   UNL     1      12.009 -51.818 -22.631  1.00  0.00    -0.384 N 
ATOM     22  H   UNL     1      11.583 -51.342 -21.836  1.00  0.00     0.160 HD
BRANCH  21  23
ATOM     23  C   UNL     1      12.431 -50.821 -23.560  1.00  0.00     0.049 A 
ATOM     24  C   UNL     1      13.387 -51.102 -24.547  1.00  0.00    -0.003 A 
ATOM     25  C   UNL     1      11.918 -49.500 -23.453  1.00  0.00     0.024 A 
ATOM     26  C   UNL     1      13.798 -50.054 -25.374  1.00  0.00     0.046 A 
ATOM     27  C   UNL     1      13.962 -52.464 -24.840  1.00  0.00     0.039 C 
ATOM     28  C   UNL     1      10.920 -49.125 -22.522  1.00  0.00     0.014 A 
ATOM     29  C   UNL     1      12.418 -48.520 -24.338  1.00  0.00     0.074 A 
ATOM     30  N   UNL     1      13.339 -48.789 -25.273  1.00  0.00    -0.252 NA
ATOM     31  C   UNL     1      14.796 -50.347 -26.465  1.00  0.00     0.056 C 
ATOM     32  C   UNL     1      15.474 -52.396 -25.076  1.00  0.00     0.005 C 
ATOM     33  C   UNL     1      10.451 -47.815 -22.451  1.00  0.00     0.021 A 
ATOM     34  C   UNL     1      11.941 -47.220 -24.252  1.00  0.00     0.049 A 
ATOM     35  C   UNL     1      15.937 -51.208 -25.932  1.00  0.00     0.007 C 
ATOM     36  C   UNL     1      10.970 -46.866 -23.319  1.00  0.00     0.043 A 
ATOM     37  Cl  UNL     1      10.405 -45.243 -23.245  1.00  0.00    -0.084 Cl
ENDBRANCH  21  23
ENDBRANCH  20  21
ENDBRANCH  19  20
ENDBRANCH   1  19
TORSDOF 7
ENDMDL
MODEL 5
REMARK VINA RESULT:   -11.539      4.128     10.923
REMARK INTER + INTRA:         -16.966
REMARK INTER:                 -16.393
REMARK INTRA:                  -0.573
REMARK UNBOUND:                -0.705
REMARK SMILES Cc1cc(=O)[nH]c2c1C(=O)C(=NCCCCNc1c3c(nc4cc(Cl)ccc14)CCCC3)CC2=O
REMARK SMILES IDX 14 1 13 2 12 3 11 4 33 5 34 6 7 7 9 8 6 9 8 10 4 11 2 12
REMARK SMILES IDX 3 13 35 14 10 15 5 17 1 18 15 19 16 20 17 21 18 23 19 24
REMARK SMILES IDX 28 25 20 26 32 27 27 28 22 29 21 30 29 31 31 32 26 33 23 34
REMARK SMILES IDX 30 35 24 36 25 37
REMARK H PARENT 6 16 17 22
ROOT
ATOM      1  C   UNL     1      10.282 -53.975 -22.555  1.00  0.00     0.025 C 
ENDROOT
BRANCH   1   2
ATOM      2  C   UNL     1      11.181 -55.211 -22.538  1.00  0.00     0.142 C 
BRANCH   2   3
ATOM      3  N   UNL     1      10.503 -56.368 -23.118  1.00  0.00    -0.285 NA
BRANCH   3   4
ATOM      4  C   UNL     1      10.976 -57.558 -22.982  1.00  0.00     0.091 C 
ATOM      5  C   UNL     1      11.123 -58.153 -21.619  1.00  0.00     0.142 C 
ATOM      6  C   UNL     1      10.572 -59.548 -21.550  1.00  0.00     0.185 C 
ATOM      7  C   UNL     1      10.376 -60.310 -22.826  1.00  0.00     0.097 A 
ATOM      8  C   UNL     1      11.366 -58.493 -24.101  1.00  0.00     0.209 C 
ATOM      9  N   UNL     1       9.810 -61.561 -22.703  1.00  0.00    -0.319 N 
ATOM     10  C   UNL     1      10.746 -59.846 -24.034  1.00  0.00     0.054 A 
ATOM     11  C   UNL     1       9.580 -62.412 -23.748  1.00  0.00     0.248 A 
ATOM     12  C   UNL     1      10.543 -60.686 -25.219  1.00  0.00    -0.032 A 
ATOM     13  C   UNL     1       9.984 -61.904 -25.082  1.00  0.00     0.075 A 
ATOM     14  O   UNL     1      10.312 -60.093 -20.478  1.00  0.00    -0.292 OA
ATOM     15  O   UNL     1      12.153 -58.137 -24.960  1.00  0.00    -0.287 OA
ATOM     16  H   UNL     1       9.556 -61.888 -21.773  1.00  0.00     0.170 HD
ATOM     17  O   UNL     1       9.075 -63.518 -23.617  1.00  0.00    -0.270 OA
ATOM     18  C   UNL     1      10.936 -60.178 -26.578  1.00  0.00     0.045 C 
ENDBRANCH   3   4
ENDBRANCH   2   3
ENDBRANCH   1   2
BRANCH   1  19
ATOM     19  C   UNL     1      10.808 -52.854 -21.653  1.00  0.00     0.023 C 
BRANCH  19  20
ATOM     20  C   UNL     1      10.499 -51.478 -22.242  1.00  0.00     0.113 C 
BRANCH  20  21
ATOM     21  N   UNL     1      11.552 -50.497 -21.927  1.00  0.00    -0.384 N 
ATOM     22  H   UNL     1      11.201 -49.845 -21.227  1.00  0.00     0.160 HD
BRANCH  21  23
ATOM     23  C   UNL     1      11.969 -49.738 -23.060  1.00  0.00     0.049 A 
ATOM     24  C   UNL     1      12.802 -50.294 -24.044  1.00  0.00    -0.003 A 
ATOM     25  C   UNL     1      11.583 -48.375 -23.172  1.00  0.00     0.024 A 
ATOM     26  C   UNL     1      13.222 -49.464 -25.086  1.00  0.00     0.046 A 
ATOM     27  C   UNL     1      13.228 -51.737 -24.111  1.00  0.00     0.039 C 
ATOM     28  C   UNL     1      10.713 -47.735 -22.259  1.00  0.00     0.014 A 
ATOM     29  C   UNL     1      12.081 -47.632 -24.265  1.00  0.00     0.074 A 
ATOM     30  N   UNL     1      12.884 -48.162 -25.197  1.00  0.00    -0.252 NA
ATOM     31  C   UNL     1      14.084 -50.054 -26.172  1.00  0.00     0.056 C 
ATOM     32  C   UNL     1      14.712 -51.868 -24.468  1.00  0.00     0.005 C 
ATOM     33  C   UNL     1      10.367 -46.393 -22.407  1.00  0.00     0.021 A 
ATOM     34  C   UNL     1      11.727 -46.297 -24.396  1.00  0.00     0.049 A 
ATOM     35  C   UNL     1      15.192 -50.913 -25.570  1.00  0.00     0.007 C 
ATOM     36  C   UNL     1      10.882 -45.679 -23.478  1.00  0.00     0.043 A 
ATOM     37  Cl  UNL     1      10.467 -44.022 -23.677  1.00  0.00    -0.084 Cl
ENDBRANCH  21  23
ENDBRANCH  20  21
ENDBRANCH  19  20
ENDBRANCH   1  19
TORSDOF 7
ENDMDL
MODEL 6
REMARK VINA RESULT:   -11.027      2.090      4.071
REMARK INTER + INTRA:         -16.245
REMARK INTER:                 -15.761
REMARK INTRA:                  -0.483
REMARK UNBOUND:                -0.705
REMARK SMILES Cc1cc(=O)[nH]c2c1C(=O)C(=NCCCCNc1c3c(nc4cc(Cl)ccc14)CCCC3)CC2=O
REMARK SMILES IDX 14 1 13 2 12 3 11 4 33 5 34 6 7 7 9 8 6 9 8 10 4 11 2 12
REMARK SMILES IDX 3 13 35 14 10 15 5 17 1 18 15 19 16 20 17 21 18 23 19 24
REMARK SMILES IDX 28 25 20 26 32 27 27 28 22 29 21 30 29 31 31 32 26 33 23 34
REMARK SMILES IDX 30 35 24 36 25 37
REMARK H PARENT 6 16 17 22
ROOT
ATOM      1  C   UNL     1      10.887 -58.249 -22.239  1.00  0.00     0.025 C 
ENDROOT
BRANCH   1   2
ATOM      2  C   UNL     1       9.691 -57.788 -23.073  1.00  0.00     0.142 C 
BRANCH   2   3
ATOM      3  N   UNL     1       9.765 -56.358 -23.364  1.00  0.00    -0.285 NA
BRANCH   3   4
ATOM      4  C   UNL     1      10.893 -55.738 -23.390  1.00  0.00     0.091 C 
ATOM      5  C   UNL     1      11.956 -56.160 -24.352  1.00  0.00     0.142 C 
ATOM      6  C   UNL     1      12.546 -54.991 -25.088  1.00  0.00     0.185 C 
ATOM      7  C   UNL     1      12.371 -53.616 -24.517  1.00  0.00     0.097 A 
ATOM      8  C   UNL     1      11.267 -54.536 -22.557  1.00  0.00     0.209 C 
ATOM      9  N   UNL     1      12.881 -52.579 -25.268  1.00  0.00    -0.319 N 
ATOM     10  C   UNL     1      11.785 -53.373 -23.330  1.00  0.00     0.054 A 
ATOM     11  C   UNL     1      12.842 -51.264 -24.899  1.00  0.00     0.248 A 
ATOM     12  C   UNL     1      11.695 -51.992 -22.843  1.00  0.00    -0.032 A 
ATOM     13  C   UNL     1      12.195 -50.990 -23.592  1.00  0.00     0.075 A 
ATOM     14  O   UNL     1      13.196 -55.135 -26.123  1.00  0.00    -0.292 OA
ATOM     15  O   UNL     1      11.162 -54.566 -21.343  1.00  0.00    -0.287 OA
ATOM     16  H   UNL     1      13.333 -52.800 -26.154  1.00  0.00     0.170 HD
ATOM     17  O   UNL     1      13.299 -50.358 -25.582  1.00  0.00    -0.270 OA
ATOM     18  C   UNL     1      11.030 -51.700 -21.528  1.00  0.00     0.045 C 
ENDBRANCH   3   4
ENDBRANCH   2   3
ENDBRANCH   1   2
BRANCH   1  19
ATOM     19  C   UNL     1      10.586 -59.516 -21.433  1.00  0.00     0.023 C 
BRANCH  19  20
ATOM     20  C   UNL     1       9.993 -60.609 -22.322  1.00  0.00     0.113 C 
BRANCH  20  21
ATOM     21  N   UNL     1      11.005 -61.197 -23.217  1.00  0.00    -0.384 N 
ATOM     22  H   UNL     1      11.804 -60.567 -23.276  1.00  0.00     0.160 HD
BRANCH  21  23
ATOM     23  C   UNL     1      10.523 -61.413 -24.542  1.00  0.00     0.049 A 
ATOM     24  C   UNL     1      11.114 -60.779 -25.646  1.00  0.00    -0.003 A 
ATOM     25  C   UNL     1       9.388 -62.243 -24.750  1.00  0.00     0.024 A 
ATOM     26  C   UNL     1      10.541 -60.990 -26.902  1.00  0.00     0.046 A 
ATOM     27  C   UNL     1      12.365 -59.941 -25.602  1.00  0.00     0.039 C 
ATOM     28  C   UNL     1       8.748 -62.960 -23.712  1.00  0.00     0.014 A 
ATOM     29  C   UNL     1       8.891 -62.371 -26.066  1.00  0.00     0.074 A 
ATOM     30  N   UNL     1       9.451 -61.756 -27.116  1.00  0.00    -0.252 NA
ATOM     31  C   UNL     1      11.186 -60.348 -28.104  1.00  0.00     0.056 C 
ATOM     32  C   UNL     1      12.224 -58.677 -26.456  1.00  0.00     0.005 C 
ATOM     33  C   UNL     1       7.634 -63.758 -23.963  1.00  0.00     0.021 A 
ATOM     34  C   UNL     1       7.780 -63.168 -26.297  1.00  0.00     0.049 A 
ATOM     35  C   UNL     1      11.536 -58.892 -27.812  1.00  0.00     0.007 C 
ATOM     36  C   UNL     1       7.152 -63.854 -25.260  1.00  0.00     0.043 A 
ATOM     37  Cl  UNL     1       5.777 -64.833 -25.589  1.00  0.00    -0.084 Cl
ENDBRANCH  21  23
ENDBRANCH  20  21
ENDBRANCH  19  20
ENDBRANCH   1  19
TORSDOF 7
ENDMDL
MODEL 7
REMARK VINA RESULT:   -10.631      3.836     10.538
REMARK INTER + INTRA:         -15.686
REMARK INTER:                 -15.149
REMARK INTRA:                  -0.537
REMARK UNBOUND:                -0.705
REMARK SMILES Cc1cc(=O)[nH]c2c1C(=O)C(=NCCCCNc1c3c(nc4cc(Cl)ccc14)CCCC3)CC2=O
REMARK SMILES IDX 14 1 13 2 12 3 11 4 33 5 34 6 7 7 9 8 6 9 8 10 4 11 2 12
REMARK SMILES IDX 3 13 35 14 10 15 5 17 1 18 15 19 16 20 17 21 18 23 19 24
REMARK SMILES IDX 28 25 20 26 32 27 27 28 22 29 21 30 29 31 31 32 26 33 23 34
REMARK SMILES IDX 30 35 24 36 25 37
REMARK H PARENT 6 16 17 22
ROOT
ATOM      1  C   UNL     1      10.285 -54.652 -23.368  1.00  0.00     0.025 C 
ENDROOT
BRANCH   1   2
ATOM      2  C   UNL     1      10.485 -56.030 -22.738  1.00  0.00     0.142 C 
BRANCH   2   3
ATOM      3  N   UNL     1       9.917 -57.084 -23.577  1.00  0.00    -0.285 NA
BRANCH   3   4
ATOM      4  C   UNL     1       9.211 -58.034 -23.071  1.00  0.00     0.091 C 
ATOM      5  C   UNL     1       7.755 -57.822 -22.803  1.00  0.00     0.142 C 
ATOM      6  C   UNL     1       6.917 -58.956 -23.319  1.00  0.00     0.185 C 
ATOM      7  C   UNL     1       7.577 -60.272 -23.600  1.00  0.00     0.097 A 
ATOM      8  C   UNL     1       9.692 -59.428 -22.752  1.00  0.00     0.209 C 
ATOM      9  N   UNL     1       6.768 -61.254 -24.129  1.00  0.00    -0.319 N 
ATOM     10  C   UNL     1       8.872 -60.525 -23.336  1.00  0.00     0.054 A 
ATOM     11  C   UNL     1       7.183 -62.523 -24.424  1.00  0.00     0.248 A 
ATOM     12  C   UNL     1       9.414 -61.859 -23.616  1.00  0.00    -0.032 A 
ATOM     13  C   UNL     1       8.611 -62.807 -24.137  1.00  0.00     0.075 A 
ATOM     14  O   UNL     1       5.702 -58.845 -23.482  1.00  0.00    -0.292 OA
ATOM     15  O   UNL     1      10.668 -59.600 -22.042  1.00  0.00    -0.287 OA
ATOM     16  H   UNL     1       5.789 -61.034 -24.302  1.00  0.00     0.170 HD
ATOM     17  O   UNL     1       6.448 -63.379 -24.895  1.00  0.00    -0.270 OA
ATOM     18  C   UNL     1      10.861 -62.157 -23.342  1.00  0.00     0.045 C 
ENDBRANCH   3   4
ENDBRANCH   2   3
ENDBRANCH   1   2
BRANCH   1  19
ATOM     19  C   UNL     1      10.208 -53.535 -22.322  1.00  0.00     0.023 C 
BRANCH  19  20
ATOM     20  C   UNL     1      11.440 -52.633 -22.385  1.00  0.00     0.113 C 
BRANCH  20  21
ATOM     21  N   UNL     1      11.620 -52.043 -23.722  1.00  0.00    -0.384 N 
ATOM     22  H   UNL     1      11.900 -52.774 -24.375  1.00  0.00     0.160 HD
BRANCH  21  23
ATOM     23  C   UNL     1      12.616 -51.023 -23.757  1.00  0.00     0.049 A 
ATOM     24  C   UNL     1      12.349 -49.725 -23.294  1.00  0.00    -0.003 A 
ATOM     25  C   UNL     1      13.890 -51.305 -24.321  1.00  0.00     0.024 A 
ATOM     26  C   UNL     1      13.355 -48.766 -23.425  1.00  0.00     0.046 A 
ATOM     27  C   UNL     1      11.085 -49.292 -22.598  1.00  0.00     0.039 C 
ATOM     28  C   UNL     1      14.273 -52.589 -24.775  1.00  0.00     0.014 A 
ATOM     29  C   UNL     1      14.824 -50.249 -24.412  1.00  0.00     0.074 A 
ATOM     30  N   UNL     1      14.562 -49.009 -23.978  1.00  0.00    -0.252 NA
ATOM     31  C   UNL     1      13.099 -47.378 -22.898  1.00  0.00     0.056 C 
ATOM     32  C   UNL     1      10.602 -47.931 -23.107  1.00  0.00     0.005 C 
ATOM     33  C   UNL     1      15.532 -52.816 -25.326  1.00  0.00     0.021 A 
ATOM     34  C   UNL     1      16.073 -50.494 -24.965  1.00  0.00     0.049 A 
ATOM     35  C   UNL     1      11.714 -46.893 -23.314  1.00  0.00     0.007 C 
ATOM     36  C   UNL     1      16.427 -51.760 -25.422  1.00  0.00     0.043 A 
ATOM     37  Cl  UNL     1      17.985 -52.021 -26.101  1.00  0.00    -0.084 Cl
ENDBRANCH  21  23
ENDBRANCH  20  21
ENDBRANCH  19  20
ENDBRANCH   1  19
TORSDOF 7
ENDMDL
MODEL 8
REMARK VINA RESULT:   -10.582      2.068      3.798
REMARK INTER + INTRA:         -15.618
REMARK INTER:                 -15.608
REMARK INTRA:                  -0.009
REMARK UNBOUND:                -0.705
REMARK SMILES Cc1cc(=O)[nH]c2c1C(=O)C(=NCCCCNc1c3c(nc4cc(Cl)ccc14)CCCC3)CC2=O
REMARK SMILES IDX 14 1 13 2 12 3 11 4 33 5 34 6 7 7 9 8 6 9 8 10 4 11 2 12
REMARK SMILES IDX 3 13 35 14 10 15 5 17 1 18 15 19 16 20 17 21 18 23 19 24
REMARK SMILES IDX 28 25 20 26 32 27 27 28 22 29 21 30 29 31 31 32 26 33 23 34
REMARK SMILES IDX 30 35 24 36 25 37
REMARK H PARENT 6 16 17 22
ROOT
ATOM      1  C   UNL     1      10.766 -56.717 -22.118  1.00  0.00     0.025 C 
ENDROOT
BRANCH   1   2
ATOM      2  C   UNL     1      11.417 -55.352 -22.341  1.00  0.00     0.142 C 
BRANCH   2   3
ATOM      3  N   UNL     1      10.548 -54.268 -21.886  1.00  0.00    -0.285 NA
BRANCH   3   4
ATOM      4  C   UNL     1      10.518 -53.134 -22.495  1.00  0.00     0.091 C 
ATOM      5  C   UNL     1       9.335 -52.234 -22.341  1.00  0.00     0.142 C 
ATOM      6  C   UNL     1       9.739 -50.820 -22.039  1.00  0.00     0.185 C 
ATOM      7  C   UNL     1      11.139 -50.386 -22.353  1.00  0.00     0.097 A 
ATOM      8  C   UNL     1      11.621 -52.552 -23.345  1.00  0.00     0.209 C 
ATOM      9  N   UNL     1      11.467 -49.095 -21.997  1.00  0.00    -0.319 N 
ATOM     10  C   UNL     1      12.039 -51.172 -22.972  1.00  0.00     0.054 A 
ATOM     11  C   UNL     1      12.683 -48.515 -22.227  1.00  0.00     0.248 A 
ATOM     12  C   UNL     1      13.374 -50.640 -23.266  1.00  0.00    -0.032 A 
ATOM     13  C   UNL     1      13.680 -49.378 -22.907  1.00  0.00     0.075 A 
ATOM     14  O   UNL     1       8.944 -50.001 -21.578  1.00  0.00    -0.292 OA
ATOM     15  O   UNL     1      12.088 -53.186 -24.275  1.00  0.00    -0.287 OA
ATOM     16  H   UNL     1      10.757 -48.523 -21.545  1.00  0.00     0.170 HD
ATOM     17  O   UNL     1      12.954 -47.368 -21.902  1.00  0.00    -0.270 OA
ATOM     18  C   UNL     1      14.398 -51.507 -23.943  1.00  0.00     0.045 C 
ENDBRANCH   3   4
ENDBRANCH   2   3
ENDBRANCH   1   2
BRANCH   1  19
ATOM     19  C   UNL     1      11.148 -57.732 -23.199  1.00  0.00     0.023 C 
BRANCH  19  20
ATOM     20  C   UNL     1      11.759 -58.991 -22.585  1.00  0.00     0.113 C 
BRANCH  20  21
ATOM     21  N   UNL     1      12.519 -59.772 -23.576  1.00  0.00    -0.384 N 
ATOM     22  H   UNL     1      13.156 -59.150 -24.073  1.00  0.00     0.160 HD
BRANCH  21  23
ATOM     23  C   UNL     1      11.689 -60.409 -24.545  1.00  0.00     0.049 A 
ATOM     24  C   UNL     1      11.787 -60.095 -25.909  1.00  0.00    -0.003 A 
ATOM     25  C   UNL     1      10.703 -61.341 -24.121  1.00  0.00     0.024 A 
ATOM     26  C   UNL     1      10.892 -60.713 -26.786  1.00  0.00     0.046 A 
ATOM     27  C   UNL     1      12.828 -59.196 -26.524  1.00  0.00     0.039 C 
ATOM     28  C   UNL     1      10.553 -61.757 -22.777  1.00  0.00     0.014 A 
ATOM     29  C   UNL     1       9.846 -61.891 -25.099  1.00  0.00     0.074 A 
ATOM     30  N   UNL     1       9.935 -61.582 -26.399  1.00  0.00    -0.252 NA
ATOM     31  C   UNL     1      11.008 -60.417 -28.259  1.00  0.00     0.056 C 
ATOM     32  C   UNL     1      12.215 -58.259 -27.569  1.00  0.00     0.005 C 
ATOM     33  C   UNL     1       9.567 -62.669 -22.407  1.00  0.00     0.021 A 
ATOM     34  C   UNL     1       8.869 -62.798 -24.712  1.00  0.00     0.049 A 
ATOM     35  C   UNL     1      11.182 -58.920 -28.494  1.00  0.00     0.007 C 
ATOM     36  C   UNL     1       8.725 -63.183 -23.382  1.00  0.00     0.043 A 
ATOM     37  Cl  UNL     1       7.501 -64.310 -22.944  1.00  0.00    -0.084 Cl
ENDBRANCH  21  23
ENDBRANCH  20  21
ENDBRANCH  19  20
ENDBRANCH   1  19
TORSDOF 7
ENDMDL
