MODEL 1
REMARK VINA RESULT:   -11.155      0.000      0.000
REMARK INTER + INTRA:         -16.949
REMARK INTER:                 -16.372
REMARK INTRA:                  -0.577
REMARK UNBOUND:                -0.577
REMARK SMILES C[N@@H+](CCC(=O)N1CC[NH+](CCN=c2c3c([nH]c4ccccc24)CCCC3)CC1)C1CCCCC1
REMARK SMILES IDX 10 1 9 2 8 3 7 4 5 5 6 6 29 7 28 8 11 10 12 11 13 12 14 13
REMARK SMILES IDX 17 14 16 15 18 16 15 17 24 18 19 19 23 20 27 21 25 22 20 23
REMARK SMILES IDX 22 24 26 25 21 26 4 28 3 29 2 30 1 31 30 33 31 34 35 35
REMARK SMILES IDX 32 36 34 37 33 38
REMARK H PARENT 10 9 17 27 2 32
ROOT
ATOM      1  N   UNL     1      10.678 -56.479 -23.341  1.00  0.00    -0.330 N 
ATOM      2  C   UNL     1      11.744 -55.978 -24.284  1.00  0.00     0.284 C 
ATOM      3  C   UNL     1      11.609 -54.459 -24.468  1.00  0.00     0.181 C 
ATOM      4  N   UNL     1      11.535 -53.710 -23.199  1.00  0.00    -0.331 N 
ATOM      5  C   UNL     1      11.933 -52.375 -23.245  1.00  0.00     0.228 C 
ATOM      6  O   UNL     1      12.462 -51.896 -24.246  1.00  0.00    -0.275 OA
ATOM      7  C   UNL     1      10.609 -54.253 -22.191  1.00  0.00     0.181 C 
ATOM      8  C   UNL     1      10.737 -55.777 -22.005  1.00  0.00     0.284 C 
ATOM      9  H   UNL     1       9.744 -56.282 -23.757  1.00  0.00     0.348 HD
ENDROOT
BRANCH   1  10
ATOM     10  C   UNL     1      10.630 -57.999 -23.228  1.00  0.00     0.286 C 
BRANCH  10  11
ATOM     11  C   UNL     1      12.019 -58.529 -23.606  1.00  0.00     0.204 C 
BRANCH  11  12
ATOM     12  N   UNL     1      11.985 -59.994 -23.538  1.00  0.00    -0.278 NA
BRANCH  12  13
ATOM     13  C   UNL     1      11.239 -60.710 -24.312  1.00  0.00     0.072 A 
ATOM     14  N   UNL     1       9.114 -61.102 -26.069  1.00  0.00    -0.358 N 
ATOM     15  C   UNL     1       9.114 -61.777 -24.859  1.00  0.00     0.021 A 
ATOM     16  C   UNL     1      10.342 -60.700 -26.623  1.00  0.00     0.048 A 
ATOM     17  C   UNL     1      10.130 -61.680 -23.969  1.00  0.00    -0.003 A 
ATOM     18  C   UNL     1       7.944 -62.719 -24.640  1.00  0.00     0.054 C 
ATOM     19  C   UNL     1      10.460 -60.403 -27.983  1.00  0.00     0.027 A 
ATOM     20  C   UNL     1      11.454 -60.525 -25.786  1.00  0.00     0.024 A 
ATOM     21  C   UNL     1      10.244 -62.606 -22.786  1.00  0.00     0.039 C 
ATOM     22  C   UNL     1       8.226 -63.833 -23.634  1.00  0.00     0.007 C 
ATOM     23  C   UNL     1      11.685 -59.983 -28.507  1.00  0.00     0.002 A 
ATOM     24  C   UNL     1      12.679 -60.092 -26.306  1.00  0.00     0.012 A 
ATOM     25  C   UNL     1       8.927 -63.282 -22.404  1.00  0.00     0.005 C 
ATOM     26  C   UNL     1      12.794 -59.835 -27.673  1.00  0.00     0.001 A 
ATOM     27  H   UNL     1       8.415 -61.404 -26.744  1.00  0.00     0.166 HD
ENDBRANCH  12  13
ENDBRANCH  11  12
ENDBRANCH  10  11
ENDBRANCH   1  10
BRANCH   5  28
ATOM     28  C   UNL     1      11.720 -51.513 -22.015  1.00  0.00     0.161 C 
BRANCH  28  29
ATOM     29  C   UNL     1      12.078 -50.061 -22.356  1.00  0.00     0.272 C 
BRANCH  29  30
ATOM     30  N   UNL     1      10.880 -49.126 -22.115  1.00  0.00    -0.335 N 
ATOM     31  C   UNL     1       9.602 -49.946 -22.074  1.00  0.00     0.332 C 
ATOM     32  H   UNL     1      10.962 -48.703 -21.183  1.00  0.00     0.348 HD
BRANCH  30  33
ATOM     33  C   UNL     1      10.813 -47.959 -23.128  1.00  0.00     0.183 C 
ATOM     34  C   UNL     1      12.139 -47.890 -23.907  1.00  0.00     0.065 C 
ATOM     35  C   UNL     1      10.555 -46.629 -22.401  1.00  0.00     0.065 C 
ATOM     36  C   UNL     1      12.186 -46.691 -24.853  1.00  0.00     0.006 C 
ATOM     37  C   UNL     1      10.617 -45.433 -23.349  1.00  0.00     0.006 C 
ATOM     38  C   UNL     1      11.933 -45.384 -24.115  1.00  0.00     0.000 C 
ENDBRANCH  30  33
ENDBRANCH  29  30
ENDBRANCH  28  29
ENDBRANCH   5  28
TORSDOF 8
ENDMDL
MODEL 2
REMARK VINA RESULT:   -10.915      2.108     11.650
REMARK INTER + INTRA:         -16.597
REMARK INTER:                 -15.867
REMARK INTRA:                  -0.730
REMARK UNBOUND:                -0.577
REMARK SMILES C[N@@H+](CCC(=O)N1CC[NH+](CCN=c2c3c([nH]c4ccccc24)CCCC3)CC1)C1CCCCC1
REMARK SMILES IDX 10 1 9 2 8 3 7 4 5 5 6 6 29 7 28 8 11 10 12 11 13 12 14 13
REMARK SMILES IDX 17 14 16 15 18 16 15 17 24 18 19 19 23 20 27 21 25 22 20 23
REMARK SMILES IDX 22 24 26 25 21 26 4 28 3 29 2 30 1 31 30 33 31 34 35 35
REMARK SMILES IDX 32 36 34 37 33 38
REMARK H PARENT 10 9 17 27 2 32
ROOT
ATOM      1  N   UNL     1      10.240 -53.051 -22.563  1.00  0.00    -0.330 N 
ATOM      2  C   UNL     1      10.782 -53.613 -21.273  1.00  0.00     0.284 C 
ATOM      3  C   UNL     1      10.572 -55.134 -21.235  1.00  0.00     0.181 C 
ATOM      4  N   UNL     1      11.057 -55.833 -22.440  1.00  0.00    -0.331 N 
ATOM      5  C   UNL     1      11.387 -57.178 -22.284  1.00  0.00     0.228 C 
ATOM      6  O   UNL     1      11.421 -57.708 -21.175  1.00  0.00    -0.275 OA
ATOM      7  C   UNL     1      10.670 -55.230 -23.726  1.00  0.00     0.181 C 
ATOM      8  C   UNL     1      10.875 -53.703 -23.769  1.00  0.00     0.284 C 
ATOM      9  H   UNL     1       9.217 -53.241 -22.608  1.00  0.00     0.348 HD
ENDROOT
BRANCH   1  10
ATOM     10  C   UNL     1      10.254 -51.528 -22.618  1.00  0.00     0.286 C 
BRANCH  10  11
ATOM     11  C   UNL     1      11.279 -51.043 -21.584  1.00  0.00     0.204 C 
BRANCH  11  12
ATOM     12  N   UNL     1      12.466 -50.567 -22.302  1.00  0.00    -0.278 NA
BRANCH  12  13
ATOM     13  C   UNL     1      12.402 -49.690 -23.248  1.00  0.00     0.072 A 
ATOM     14  N   UNL     1      13.480 -47.763 -24.944  1.00  0.00    -0.358 N 
ATOM     15  C   UNL     1      12.491 -47.388 -24.050  1.00  0.00     0.021 A 
ATOM     16  C   UNL     1      13.539 -49.101 -25.370  1.00  0.00     0.048 A 
ATOM     17  C   UNL     1      11.880 -48.270 -23.225  1.00  0.00    -0.003 A 
ATOM     18  C   UNL     1      12.058 -45.934 -24.130  1.00  0.00     0.054 C 
ATOM     19  C   UNL     1      14.210 -49.459 -26.542  1.00  0.00     0.027 A 
ATOM     20  C   UNL     1      12.977 -50.106 -24.570  1.00  0.00     0.024 A 
ATOM     21  C   UNL     1      10.640 -47.909 -22.448  1.00  0.00     0.039 C 
ATOM     22  C   UNL     1      10.653 -45.676 -23.592  1.00  0.00     0.007 C 
ATOM     23  C   UNL     1      14.275 -50.798 -26.933  1.00  0.00     0.002 A 
ATOM     24  C   UNL     1      13.053 -51.451 -24.953  1.00  0.00     0.012 A 
ATOM     25  C   UNL     1      10.438 -46.404 -22.276  1.00  0.00     0.005 C 
ATOM     26  C   UNL     1      13.693 -51.792 -26.145  1.00  0.00     0.001 A 
ATOM     27  H   UNL     1      13.719 -47.074 -25.654  1.00  0.00     0.166 HD
ENDBRANCH  12  13
ENDBRANCH  11  12
ENDBRANCH  10  11
ENDBRANCH   1  10
BRANCH   5  28
ATOM     28  C   UNL     1      11.731 -57.988 -23.521  1.00  0.00     0.161 C 
BRANCH  28  29
ATOM     29  C   UNL     1      10.811 -59.213 -23.586  1.00  0.00     0.272 C 
BRANCH  29  30
ATOM     30  N   UNL     1      11.617 -60.516 -23.448  1.00  0.00    -0.335 N 
ATOM     31  C   UNL     1      12.906 -60.398 -24.242  1.00  0.00     0.332 C 
ATOM     32  H   UNL     1      11.909 -60.632 -22.470  1.00  0.00     0.348 HD
BRANCH  30  33
ATOM     33  C   UNL     1      10.796 -61.774 -23.817  1.00  0.00     0.183 C 
ATOM     34  C   UNL     1       9.761 -61.404 -24.894  1.00  0.00     0.065 C 
ATOM     35  C   UNL     1      10.089 -62.340 -22.574  1.00  0.00     0.065 C 
ATOM     36  C   UNL     1       8.840 -62.575 -25.232  1.00  0.00     0.006 C 
ATOM     37  C   UNL     1       9.159 -63.502 -22.920  1.00  0.00     0.006 C 
ATOM     38  C   UNL     1       8.147 -63.119 -23.991  1.00  0.00     0.000 C 
ENDBRANCH  30  33
ENDBRANCH  29  30
ENDBRANCH  28  29
ENDBRANCH   5  28
TORSDOF 8
ENDMDL
MODEL 3
REMARK VINA RESULT:   -10.698      1.862      2.854
REMARK INTER + INTRA:         -16.278
REMARK INTER:                 -15.430
REMARK INTRA:                  -0.848
REMARK UNBOUND:                -0.577
REMARK SMILES C[N@@H+](CCC(=O)N1CC[NH+](CCN=c2c3c([nH]c4ccccc24)CCCC3)CC1)C1CCCCC1
REMARK SMILES IDX 10 1 9 2 8 3 7 4 5 5 6 6 29 7 28 8 11 10 12 11 13 12 14 13
REMARK SMILES IDX 17 14 16 15 18 16 15 17 24 18 19 19 23 20 27 21 25 22 20 23
REMARK SMILES IDX 22 24 26 25 21 26 4 28 3 29 2 30 1 31 30 33 31 34 35 35
REMARK SMILES IDX 32 36 34 37 33 38
REMARK H PARENT 10 9 17 27 2 32
ROOT
ATOM      1  N   UNL     1      10.068 -57.402 -22.481  1.00  0.00    -0.330 N 
ATOM      2  C   UNL     1       9.157 -56.521 -23.298  1.00  0.00     0.284 C 
ATOM      3  C   UNL     1       8.923 -55.189 -22.571  1.00  0.00     0.181 C 
ATOM      4  N   UNL     1      10.165 -54.522 -22.137  1.00  0.00    -0.331 N 
ATOM      5  C   UNL     1      10.097 -53.141 -21.963  1.00  0.00     0.228 C 
ATOM      6  O   UNL     1       9.105 -52.498 -22.302  1.00  0.00    -0.275 OA
ATOM      7  C   UNL     1      11.149 -55.383 -21.461  1.00  0.00     0.181 C 
ATOM      8  C   UNL     1      11.385 -56.723 -22.184  1.00  0.00     0.284 C 
ATOM      9  H   UNL     1       9.608 -57.604 -21.569  1.00  0.00     0.348 HD
ENDROOT
BRANCH   1  10
ATOM     10  C   UNL     1      10.223 -58.809 -23.045  1.00  0.00     0.286 C 
BRANCH  10  11
ATOM     11  C   UNL     1      11.466 -59.429 -22.394  1.00  0.00     0.204 C 
BRANCH  11  12
ATOM     12  N   UNL     1      11.840 -60.622 -23.161  1.00  0.00    -0.278 NA
BRANCH  12  13
ATOM     13  C   UNL     1      11.065 -61.149 -24.051  1.00  0.00     0.072 A 
ATOM     14  N   UNL     1       8.993 -61.088 -25.909  1.00  0.00    -0.358 N 
ATOM     15  C   UNL     1       8.877 -61.919 -24.807  1.00  0.00     0.021 A 
ATOM     16  C   UNL     1      10.275 -60.736 -26.363  1.00  0.00     0.048 A 
ATOM     17  C   UNL     1       9.858 -62.045 -23.881  1.00  0.00    -0.003 A 
ATOM     18  C   UNL     1       7.617 -62.764 -24.757  1.00  0.00     0.054 C 
ATOM     19  C   UNL     1      10.480 -60.268 -27.664  1.00  0.00     0.027 A 
ATOM     20  C   UNL     1      11.361 -60.786 -25.477  1.00  0.00     0.024 A 
ATOM     21  C   UNL     1       9.834 -63.130 -22.837  1.00  0.00     0.039 C 
ATOM     22  C   UNL     1       7.751 -64.027 -23.910  1.00  0.00     0.007 C 
ATOM     23  C   UNL     1      11.760 -59.903 -28.086  1.00  0.00     0.002 A 
ATOM     24  C   UNL     1      12.643 -60.407 -25.893  1.00  0.00     0.012 A 
ATOM     25  C   UNL     1       8.445 -63.720 -22.594  1.00  0.00     0.005 C 
ATOM     26  C   UNL     1      12.841 -59.978 -27.206  1.00  0.00     0.001 A 
ATOM     27  H   UNL     1       8.299 -61.225 -26.641  1.00  0.00     0.166 HD
ENDBRANCH  12  13
ENDBRANCH  11  12
ENDBRANCH  10  11
ENDBRANCH   1  10
BRANCH   5  28
ATOM     28  C   UNL     1      11.292 -52.426 -21.359  1.00  0.00     0.161 C 
BRANCH  28  29
ATOM     29  C   UNL     1      11.267 -50.957 -21.796  1.00  0.00     0.272 C 
BRANCH  29  30
ATOM     30  N   UNL     1      12.679 -50.463 -22.153  1.00  0.00    -0.335 N 
ATOM     31  C   UNL     1      12.611 -49.005 -22.575  1.00  0.00     0.332 C 
ATOM     32  H   UNL     1      13.266 -50.475 -21.310  1.00  0.00     0.348 HD
BRANCH  30  33
ATOM     33  C   UNL     1      13.385 -51.359 -23.198  1.00  0.00     0.183 C 
ATOM     34  C   UNL     1      14.884 -51.013 -23.230  1.00  0.00     0.065 C 
ATOM     35  C   UNL     1      12.764 -51.154 -24.590  1.00  0.00     0.065 C 
ATOM     36  C   UNL     1      15.628 -51.785 -24.318  1.00  0.00     0.006 C 
ATOM     37  C   UNL     1      13.519 -51.918 -25.676  1.00  0.00     0.006 C 
ATOM     38  C   UNL     1      15.001 -51.567 -25.688  1.00  0.00     0.000 C 
ENDBRANCH  30  33
ENDBRANCH  29  30
ENDBRANCH  28  29
ENDBRANCH   5  28
TORSDOF 8
ENDMDL
MODEL 4
REMARK VINA RESULT:   -10.624      2.285     11.648
REMARK INTER + INTRA:         -16.170
REMARK INTER:                 -14.979
REMARK INTRA:                  -1.190
REMARK UNBOUND:                -0.577
REMARK SMILES C[N@@H+](CCC(=O)N1CC[NH+](CCN=c2c3c([nH]c4ccccc24)CCCC3)CC1)C1CCCCC1
REMARK SMILES IDX 10 1 9 2 8 3 7 4 5 5 6 6 29 7 28 8 11 10 12 11 13 12 14 13
REMARK SMILES IDX 17 14 16 15 18 16 15 17 24 18 19 19 23 20 27 21 25 22 20 23
REMARK SMILES IDX 22 24 26 25 21 26 4 28 3 29 2 30 1 31 30 33 31 34 35 35
REMARK SMILES IDX 32 36 34 37 33 38
REMARK H PARENT 10 9 17 27 2 32
ROOT
ATOM      1  N   UNL     1      10.732 -53.496 -22.428  1.00  0.00    -0.330 N 
ATOM      2  C   UNL     1      10.802 -53.843 -23.894  1.00  0.00     0.284 C 
ATOM      3  C   UNL     1      11.661 -55.100 -24.095  1.00  0.00     0.181 C 
ATOM      4  N   UNL     1      11.272 -56.232 -23.233  1.00  0.00    -0.331 N 
ATOM      5  C   UNL     1      11.611 -57.503 -23.691  1.00  0.00     0.228 C 
ATOM      6  O   UNL     1      12.067 -57.681 -24.819  1.00  0.00    -0.275 OA
ATOM      7  C   UNL     1      11.050 -55.906 -21.815  1.00  0.00     0.181 C 
ATOM      8  C   UNL     1      10.191 -54.643 -21.606  1.00  0.00     0.284 C 
ATOM      9  H   UNL     1      11.694 -53.293 -22.086  1.00  0.00     0.348 HD
ENDROOT
BRANCH   1  10
ATOM     10  C   UNL     1      10.038 -52.168 -22.148  1.00  0.00     0.286 C 
BRANCH  10  11
ATOM     11  C   UNL     1      11.108 -51.190 -21.646  1.00  0.00     0.204 C 
BRANCH  11  12
ATOM     12  N   UNL     1      11.286 -50.145 -22.660  1.00  0.00    -0.278 NA
BRANCH  12  13
ATOM     13  C   UNL     1      12.421 -49.565 -22.869  1.00  0.00     0.072 A 
ATOM     14  N   UNL     1      15.172 -49.273 -22.555  1.00  0.00    -0.358 N 
ATOM     15  C   UNL     1      14.338 -48.262 -22.107  1.00  0.00     0.021 A 
ATOM     16  C   UNL     1      14.728 -50.111 -23.592  1.00  0.00     0.048 A 
ATOM     17  C   UNL     1      12.994 -48.302 -22.263  1.00  0.00    -0.003 A 
ATOM     18  C   UNL     1      15.040 -47.050 -21.521  1.00  0.00     0.054 C 
ATOM     19  C   UNL     1      15.628 -50.853 -24.360  1.00  0.00     0.027 A 
ATOM     20  C   UNL     1      13.352 -50.263 -23.817  1.00  0.00     0.024 A 
ATOM     21  C   UNL     1      12.125 -47.097 -22.010  1.00  0.00     0.039 C 
ATOM     22  C   UNL     1      14.208 -45.771 -21.564  1.00  0.00     0.007 C 
ATOM     23  C   UNL     1      15.162 -51.698 -25.370  1.00  0.00     0.002 A 
ATOM     24  C   UNL     1      12.881 -51.119 -24.819  1.00  0.00     0.012 A 
ATOM     25  C   UNL     1      12.781 -46.042 -21.119  1.00  0.00     0.005 C 
ATOM     26  C   UNL     1      13.792 -51.826 -25.604  1.00  0.00     0.001 A 
ATOM     27  H   UNL     1      16.165 -49.050 -22.577  1.00  0.00     0.166 HD
ENDBRANCH  12  13
ENDBRANCH  11  12
ENDBRANCH  10  11
ENDBRANCH   1  10
BRANCH   5  28
ATOM     28  C   UNL     1      11.387 -58.689 -22.771  1.00  0.00     0.161 C 
BRANCH  28  29
ATOM     29  C   UNL     1      12.599 -59.623 -22.856  1.00  0.00     0.272 C 
BRANCH  29  30
ATOM     30  N   UNL     1      12.296 -60.841 -23.746  1.00  0.00    -0.335 N 
ATOM     31  C   UNL     1      13.016 -60.685 -25.075  1.00  0.00     0.332 C 
ATOM     32  H   UNL     1      12.698 -61.683 -23.317  1.00  0.00     0.348 HD
BRANCH  30  33
ATOM     33  C   UNL     1      10.782 -61.106 -23.911  1.00  0.00     0.183 C 
ATOM     34  C   UNL     1      10.428 -62.447 -23.244  1.00  0.00     0.065 C 
ATOM     35  C   UNL     1      10.399 -61.138 -25.401  1.00  0.00     0.065 C 
ATOM     36  C   UNL     1       8.964 -62.827 -23.460  1.00  0.00     0.006 C 
ATOM     37  C   UNL     1       8.938 -61.531 -25.612  1.00  0.00     0.006 C 
ATOM     38  C   UNL     1       8.605 -62.857 -24.940  1.00  0.00     0.000 C 
ENDBRANCH  30  33
ENDBRANCH  29  30
ENDBRANCH  28  29
ENDBRANCH   5  28
TORSDOF 8
ENDMDL
MODEL 5
REMARK VINA RESULT:   -10.612      1.352      2.032
REMARK INTER + INTRA:         -16.152
REMARK INTER:                 -15.547
REMARK INTRA:                  -0.606
REMARK UNBOUND:                -0.577
REMARK SMILES C[N@@H+](CCC(=O)N1CC[NH+](CCN=c2c3c([nH]c4ccccc24)CCCC3)CC1)C1CCCCC1
REMARK SMILES IDX 10 1 9 2 8 3 7 4 5 5 6 6 29 7 28 8 11 10 12 11 13 12 14 13
REMARK SMILES IDX 17 14 16 15 18 16 15 17 24 18 19 19 23 20 27 21 25 22 20 23
REMARK SMILES IDX 22 24 26 25 21 26 4 28 3 29 2 30 1 31 30 33 31 34 35 35
REMARK SMILES IDX 32 36 34 37 33 38
REMARK H PARENT 10 9 17 27 2 32
ROOT
ATOM      1  N   UNL     1      10.383 -55.537 -22.906  1.00  0.00    -0.330 N 
ATOM      2  C   UNL     1       9.780 -54.522 -21.969  1.00  0.00     0.284 C 
ATOM      3  C   UNL     1      10.791 -53.401 -21.688  1.00  0.00     0.181 C 
ATOM      4  N   UNL     1      11.379 -52.811 -22.906  1.00  0.00    -0.331 N 
ATOM      5  C   UNL     1      11.864 -51.510 -22.790  1.00  0.00     0.228 C 
ATOM      6  O   UNL     1      11.671 -50.838 -21.779  1.00  0.00    -0.275 OA
ATOM      7  C   UNL     1      11.850 -53.773 -23.916  1.00  0.00     0.181 C 
ATOM      8  C   UNL     1      10.841 -54.903 -24.199  1.00  0.00     0.284 C 
ATOM      9  H   UNL     1      11.219 -55.957 -22.451  1.00  0.00     0.348 HD
ENDROOT
BRANCH   1  10
ATOM     10  C   UNL     1       9.513 -56.772 -23.110  1.00  0.00     0.286 C 
BRANCH  10  11
ATOM     11  C   UNL     1      10.374 -57.998 -22.781  1.00  0.00     0.204 C 
BRANCH  11  12
ATOM     12  N   UNL     1      10.981 -58.480 -24.028  1.00  0.00    -0.278 NA
BRANCH  12  13
ATOM     13  C   UNL     1      10.739 -59.653 -24.511  1.00  0.00     0.072 A 
ATOM     14  N   UNL     1       9.269 -61.484 -26.008  1.00  0.00    -0.358 N 
ATOM     15  C   UNL     1       9.397 -61.685 -24.643  1.00  0.00     0.021 A 
ATOM     16  C   UNL     1      10.261 -60.750 -26.681  1.00  0.00     0.048 A 
ATOM     17  C   UNL     1      10.132 -60.871 -23.850  1.00  0.00    -0.003 A 
ATOM     18  C   UNL     1       8.740 -62.945 -24.107  1.00  0.00     0.054 C 
ATOM     19  C   UNL     1      10.425 -60.854 -28.065  1.00  0.00     0.027 A 
ATOM     20  C   UNL     1      11.055 -59.842 -25.966  1.00  0.00     0.024 A 
ATOM     21  C   UNL     1      10.475 -61.238 -22.430  1.00  0.00     0.039 C 
ATOM     22  C   UNL     1       9.338 -63.446 -22.795  1.00  0.00     0.007 C 
ATOM     23  C   UNL     1      11.402 -60.098 -28.716  1.00  0.00     0.002 A 
ATOM     24  C   UNL     1      12.025 -59.072 -26.618  1.00  0.00     0.012 A 
ATOM     25  C   UNL     1       9.548 -62.294 -21.826  1.00  0.00     0.005 C 
ATOM     26  C   UNL     1      12.205 -59.214 -27.994  1.00  0.00     0.001 A 
ATOM     27  H   UNL     1       8.875 -62.260 -26.535  1.00  0.00     0.166 HD
ENDBRANCH  12  13
ENDBRANCH  11  12
ENDBRANCH  10  11
ENDBRANCH   1  10
BRANCH   5  28
ATOM     28  C   UNL     1      12.628 -50.915 -23.959  1.00  0.00     0.161 C 
BRANCH  28  29
ATOM     29  C   UNL     1      13.209 -49.560 -23.537  1.00  0.00     0.272 C 
BRANCH  29  30
ATOM     30  N   UNL     1      12.856 -48.466 -24.559  1.00  0.00    -0.335 N 
ATOM     31  C   UNL     1      13.994 -48.322 -25.555  1.00  0.00     0.332 C 
ATOM     32  H   UNL     1      12.046 -48.768 -25.113  1.00  0.00     0.348 HD
BRANCH  30  33
ATOM     33  C   UNL     1      12.465 -47.125 -23.896  1.00  0.00     0.183 C 
ATOM     34  C   UNL     1      12.346 -47.329 -22.375  1.00  0.00     0.065 C 
ATOM     35  C   UNL     1      11.133 -46.610 -24.467  1.00  0.00     0.065 C 
ATOM     36  C   UNL     1      11.856 -46.069 -21.663  1.00  0.00     0.006 C 
ATOM     37  C   UNL     1      10.641 -45.358 -23.743  1.00  0.00     0.006 C 
ATOM     38  C   UNL     1      10.536 -45.577 -22.240  1.00  0.00     0.000 C 
ENDBRANCH  30  33
ENDBRANCH  29  30
ENDBRANCH  28  29
ENDBRANCH   5  28
TORSDOF 8
ENDMDL
MODEL 6
REMARK VINA RESULT:   -10.479      3.101     10.986
REMARK INTER + INTRA:         -15.957
REMARK INTER:                 -14.771
REMARK INTRA:                  -1.186
REMARK UNBOUND:                -0.577
REMARK SMILES C[N@@H+](CCC(=O)N1CC[NH+](CCN=c2c3c([nH]c4ccccc24)CCCC3)CC1)C1CCCCC1
REMARK SMILES IDX 10 1 9 2 8 3 7 4 5 5 6 6 29 7 28 8 11 10 12 11 13 12 14 13
REMARK SMILES IDX 17 14 16 15 18 16 15 17 24 18 19 19 23 20 27 21 25 22 20 23
REMARK SMILES IDX 22 24 26 25 21 26 4 28 3 29 2 30 1 31 30 33 31 34 35 35
REMARK SMILES IDX 32 36 34 37 33 38
REMARK H PARENT 10 9 17 27 2 32
ROOT
ATOM      1  N   UNL     1      12.367 -50.431 -22.505  1.00  0.00    -0.330 N 
ATOM      2  C   UNL     1      12.255 -50.885 -23.939  1.00  0.00     0.284 C 
ATOM      3  C   UNL     1      12.325 -52.418 -24.010  1.00  0.00     0.181 C 
ATOM      4  N   UNL     1      11.392 -53.100 -23.094  1.00  0.00    -0.331 N 
ATOM      5  C   UNL     1      11.014 -54.394 -23.447  1.00  0.00     0.228 C 
ATOM      6  O   UNL     1      11.316 -54.878 -24.536  1.00  0.00    -0.275 OA
ATOM      7  C   UNL     1      11.365 -52.588 -21.714  1.00  0.00     0.181 C 
ATOM      8  C   UNL     1      11.298 -51.051 -21.636  1.00  0.00     0.284 C 
ATOM      9  H   UNL     1      13.290 -50.734 -22.130  1.00  0.00     0.348 HD
ENDROOT
BRANCH   1  10
ATOM     10  C   UNL     1      12.474 -48.918 -22.352  1.00  0.00     0.286 C 
BRANCH  10  11
ATOM     11  C   UNL     1      12.564 -48.321 -23.762  1.00  0.00     0.204 C 
BRANCH  11  12
ATOM     12  N   UNL     1      13.966 -47.978 -24.026  1.00  0.00    -0.278 NA
BRANCH  12  13
ATOM     13  C   UNL     1      14.742 -48.722 -24.742  1.00  0.00     0.072 A 
ATOM     14  N   UNL     1      15.260 -50.640 -26.693  1.00  0.00    -0.358 N 
ATOM     15  C   UNL     1      15.633 -50.900 -25.385  1.00  0.00     0.021 A 
ATOM     16  C   UNL     1      15.152 -49.305 -27.116  1.00  0.00     0.048 A 
ATOM     17  C   UNL     1      15.462 -50.004 -24.385  1.00  0.00    -0.003 A 
ATOM     18  C   UNL     1      16.348 -52.221 -25.161  1.00  0.00     0.054 C 
ATOM     19  C   UNL     1      15.192 -48.969 -28.472  1.00  0.00     0.027 A 
ATOM     20  C   UNL     1      14.929 -48.295 -26.169  1.00  0.00     0.024 A 
ATOM     21  C   UNL     1      16.098 -50.187 -23.031  1.00  0.00     0.039 C 
ATOM     22  C   UNL     1      17.227 -52.248 -23.914  1.00  0.00     0.007 C 
ATOM     23  C   UNL     1      15.059 -47.637 -28.870  1.00  0.00     0.002 A 
ATOM     24  C   UNL     1      14.782 -46.961 -26.567  1.00  0.00     0.012 A 
ATOM     25  C   UNL     1      16.499 -51.631 -22.730  1.00  0.00     0.005 C 
ATOM     26  C   UNL     1      14.862 -46.634 -27.920  1.00  0.00     0.001 A 
ATOM     27  H   UNL     1      15.619 -51.286 -27.393  1.00  0.00     0.166 HD
ENDBRANCH  12  13
ENDBRANCH  11  12
ENDBRANCH  10  11
ENDBRANCH   1  10
BRANCH   5  28
ATOM     28  C   UNL     1      10.192 -55.204 -22.461  1.00  0.00     0.161 C 
BRANCH  28  29
ATOM     29  C   UNL     1      10.869 -56.562 -22.245  1.00  0.00     0.272 C 
BRANCH  29  30
ATOM     30  N   UNL     1      10.313 -57.617 -23.217  1.00  0.00    -0.335 N 
ATOM     31  C   UNL     1       8.798 -57.512 -23.261  1.00  0.00     0.332 C 
ATOM     32  H   UNL     1      10.629 -57.400 -24.169  1.00  0.00     0.348 HD
BRANCH  30  33
ATOM     33  C   UNL     1      10.807 -59.048 -22.900  1.00  0.00     0.183 C 
ATOM     34  C   UNL     1      11.344 -59.694 -24.189  1.00  0.00     0.065 C 
ATOM     35  C   UNL     1       9.663 -59.897 -22.319  1.00  0.00     0.065 C 
ATOM     36  C   UNL     1      11.752 -61.151 -23.975  1.00  0.00     0.006 C 
ATOM     37  C   UNL     1      10.072 -61.355 -22.120  1.00  0.00     0.006 C 
ATOM     38  C   UNL     1      10.606 -61.975 -23.404  1.00  0.00     0.000 C 
ENDBRANCH  30  33
ENDBRANCH  29  30
ENDBRANCH  28  29
ENDBRANCH   5  28
TORSDOF 8
ENDMDL
MODEL 7
REMARK VINA RESULT:   -10.413      2.646     10.252
REMARK INTER + INTRA:         -15.860
REMARK INTER:                 -14.576
REMARK INTRA:                  -1.284
REMARK UNBOUND:                -0.577
REMARK SMILES C[N@@H+](CCC(=O)N1CC[NH+](CCN=c2c3c([nH]c4ccccc24)CCCC3)CC1)C1CCCCC1
REMARK SMILES IDX 10 1 9 2 8 3 7 4 5 5 6 6 29 7 28 8 11 10 12 11 13 12 14 13
REMARK SMILES IDX 17 14 16 15 18 16 15 17 24 18 19 19 23 20 27 21 25 22 20 23
REMARK SMILES IDX 22 24 26 25 21 26 4 28 3 29 2 30 1 31 30 33 31 34 35 35
REMARK SMILES IDX 32 36 34 37 33 38
REMARK H PARENT 10 9 17 27 2 32
ROOT
ATOM      1  N   UNL     1      10.661 -57.670 -22.020  1.00  0.00    -0.330 N 
ATOM      2  C   UNL     1      11.334 -58.842 -21.352  1.00  0.00     0.284 C 
ATOM      3  C   UNL     1      10.348 -60.012 -21.226  1.00  0.00     0.181 C 
ATOM      4  N   UNL     1       9.668 -60.356 -22.489  1.00  0.00    -0.331 N 
ATOM      5  C   UNL     1       9.193 -61.661 -22.600  1.00  0.00     0.228 C 
ATOM      6  O   UNL     1       9.463 -62.518 -21.760  1.00  0.00    -0.275 OA
ATOM      7  C   UNL     1       9.121 -59.220 -23.248  1.00  0.00     0.181 C 
ATOM      8  C   UNL     1      10.105 -58.041 -23.375  1.00  0.00     0.284 C 
ATOM      9  H   UNL     1       9.862 -57.361 -21.428  1.00  0.00     0.348 HD
ENDROOT
BRANCH   1  10
ATOM     10  C   UNL     1      11.513 -56.406 -22.038  1.00  0.00     0.286 C 
BRANCH  10  11
ATOM     11  C   UNL     1      10.602 -55.235 -21.649  1.00  0.00     0.204 C 
BRANCH  11  12
ATOM     12  N   UNL     1      10.212 -54.530 -22.876  1.00  0.00    -0.278 NA
BRANCH  12  13
ATOM     13  C   UNL     1      10.807 -53.458 -23.282  1.00  0.00     0.072 A 
ATOM     14  N   UNL     1      12.954 -51.690 -23.412  1.00  0.00    -0.358 N 
ATOM     15  C   UNL     1      11.753 -51.246 -22.882  1.00  0.00     0.021 A 
ATOM     16  C   UNL     1      12.939 -52.753 -24.331  1.00  0.00     0.048 A 
ATOM     17  C   UNL     1      10.647 -52.024 -22.826  1.00  0.00    -0.003 A 
ATOM     18  C   UNL     1      11.727 -49.787 -22.463  1.00  0.00     0.054 C 
ATOM     19  C   UNL     1      14.012 -52.976 -25.197  1.00  0.00     0.027 A 
ATOM     20  C   UNL     1      11.862 -53.650 -24.333  1.00  0.00     0.024 A 
ATOM     21  C   UNL     1       9.291 -51.461 -22.492  1.00  0.00     0.039 C 
ATOM     22  C   UNL     1      10.328 -49.176 -22.430  1.00  0.00     0.007 C 
ATOM     23  C   UNL     1      13.985 -54.053 -26.087  1.00  0.00     0.002 A 
ATOM     24  C   UNL     1      11.839 -54.739 -25.213  1.00  0.00     0.012 A 
ATOM     25  C   UNL     1       9.345 -50.121 -21.759  1.00  0.00     0.005 C 
ATOM     26  C   UNL     1      12.899 -54.928 -26.100  1.00  0.00     0.001 A 
ATOM     27  H   UNL     1      13.649 -50.970 -23.597  1.00  0.00     0.166 HD
ENDBRANCH  12  13
ENDBRANCH  11  12
ENDBRANCH  10  11
ENDBRANCH   1  10
BRANCH   5  28
ATOM     28  C   UNL     1       8.341 -62.023 -23.803  1.00  0.00     0.161 C 
BRANCH  28  29
ATOM     29  C   UNL     1       9.261 -62.381 -24.975  1.00  0.00     0.272 C 
BRANCH  29  30
ATOM     30  N   UNL     1       8.849 -61.626 -26.251  1.00  0.00    -0.335 N 
ATOM     31  C   UNL     1       8.501 -62.628 -27.339  1.00  0.00     0.332 C 
ATOM     32  H   UNL     1       7.982 -61.106 -26.072  1.00  0.00     0.348 HD
BRANCH  30  33
ATOM     33  C   UNL     1       9.903 -60.588 -26.704  1.00  0.00     0.183 C 
ATOM     34  C   UNL     1      10.319 -60.891 -28.154  1.00  0.00     0.065 C 
ATOM     35  C   UNL     1      11.132 -60.630 -25.780  1.00  0.00     0.065 C 
ATOM     36  C   UNL     1      11.439 -59.969 -28.634  1.00  0.00     0.006 C 
ATOM     37  C   UNL     1      12.253 -59.717 -26.272  1.00  0.00     0.006 C 
ATOM     38  C   UNL     1      12.647 -60.027 -27.710  1.00  0.00     0.000 C 
ENDBRANCH  30  33
ENDBRANCH  29  30
ENDBRANCH  28  29
ENDBRANCH   5  28
TORSDOF 8
ENDMDL
MODEL 8
REMARK VINA RESULT:   -10.211      2.108      2.998
REMARK INTER + INTRA:         -15.564
REMARK INTER:                 -15.033
REMARK INTRA:                  -0.531
REMARK UNBOUND:                -0.577
REMARK SMILES C[N@@H+](CCC(=O)N1CC[NH+](CCN=c2c3c([nH]c4ccccc24)CCCC3)CC1)C1CCCCC1
REMARK SMILES IDX 10 1 9 2 8 3 7 4 5 5 6 6 29 7 28 8 11 10 12 11 13 12 14 13
REMARK SMILES IDX 17 14 16 15 18 16 15 17 24 18 19 19 23 20 27 21 25 22 20 23
REMARK SMILES IDX 22 24 26 25 21 26 4 28 3 29 2 30 1 31 30 33 31 34 35 35
REMARK SMILES IDX 32 36 34 37 33 38
REMARK H PARENT 10 9 17 27 2 32
ROOT
ATOM      1  N   UNL     1      10.979 -56.071 -23.475  1.00  0.00    -0.330 N 
ATOM      2  C   UNL     1      12.103 -55.799 -24.443  1.00  0.00     0.284 C 
ATOM      3  C   UNL     1      12.025 -54.349 -24.944  1.00  0.00     0.181 C 
ATOM      4  N   UNL     1      11.914 -53.351 -23.863  1.00  0.00    -0.331 N 
ATOM      5  C   UNL     1      12.356 -52.064 -24.163  1.00  0.00     0.228 C 
ATOM      6  O   UNL     1      12.946 -51.814 -25.212  1.00  0.00    -0.275 OA
ATOM      7  C   UNL     1      10.926 -53.653 -22.815  1.00  0.00     0.181 C 
ATOM      8  C   UNL     1      10.997 -55.108 -22.311  1.00  0.00     0.284 C 
ATOM      9  H   UNL     1      10.072 -55.945 -23.971  1.00  0.00     0.348 HD
ENDROOT
BRANCH   1  10
ATOM     10  C   UNL     1      10.878 -57.533 -23.054  1.00  0.00     0.286 C 
BRANCH  10  11
ATOM     11  C   UNL     1      11.862 -58.327 -23.922  1.00  0.00     0.204 C 
BRANCH  11  12
ATOM     12  N   UNL     1      11.718 -59.750 -23.593  1.00  0.00    -0.278 NA
BRANCH  12  13
ATOM     13  C   UNL     1      11.064 -60.575 -24.342  1.00  0.00     0.072 A 
ATOM     14  N   UNL     1       9.052 -61.257 -26.142  1.00  0.00    -0.358 N 
ATOM     15  C   UNL     1       9.056 -61.847 -24.889  1.00  0.00     0.021 A 
ATOM     16  C   UNL     1      10.266 -60.794 -26.678  1.00  0.00     0.048 A 
ATOM     17  C   UNL     1      10.023 -61.608 -23.972  1.00  0.00    -0.003 A 
ATOM     18  C   UNL     1       7.957 -62.866 -24.646  1.00  0.00     0.054 C 
ATOM     19  C   UNL     1      10.417 -60.579 -28.050  1.00  0.00     0.027 A 
ATOM     20  C   UNL     1      11.325 -60.472 -25.816  1.00  0.00     0.024 A 
ATOM     21  C   UNL     1      10.161 -62.440 -22.723  1.00  0.00     0.039 C 
ATOM     22  C   UNL     1       8.284 -63.883 -23.555  1.00  0.00     0.007 C 
ATOM     23  C   UNL     1      11.625 -60.097 -28.558  1.00  0.00     0.002 A 
ATOM     24  C   UNL     1      12.532 -59.975 -26.321  1.00  0.00     0.012 A 
ATOM     25  C   UNL     1       8.888 -63.195 -22.342  1.00  0.00     0.005 C 
ATOM     26  C   UNL     1      12.683 -59.801 -27.697  1.00  0.00     0.001 A 
ATOM     27  H   UNL     1       8.408 -61.660 -26.819  1.00  0.00     0.166 HD
ENDBRANCH  12  13
ENDBRANCH  11  12
ENDBRANCH  10  11
ENDBRANCH   1  10
BRANCH   5  28
ATOM     28  C   UNL     1      12.113 -50.960 -23.150  1.00  0.00     0.161 C 
BRANCH  28  29
ATOM     29  C   UNL     1      12.925 -49.725 -23.554  1.00  0.00     0.272 C 
BRANCH  29  30
ATOM     30  N   UNL     1      14.137 -49.532 -22.625  1.00  0.00    -0.335 N 
ATOM     31  C   UNL     1      14.132 -48.115 -22.078  1.00  0.00     0.332 C 
ATOM     32  H   UNL     1      14.034 -50.141 -21.804  1.00  0.00     0.348 HD
BRANCH  30  33
ATOM     33  C   UNL     1      15.477 -49.913 -23.295  1.00  0.00     0.183 C 
ATOM     34  C   UNL     1      15.390 -49.618 -24.803  1.00  0.00     0.065 C 
ATOM     35  C   UNL     1      15.791 -51.402 -23.064  1.00  0.00     0.065 C 
ATOM     36  C   UNL     1      16.644 -50.071 -25.550  1.00  0.00     0.006 C 
ATOM     37  C   UNL     1      17.038 -51.852 -23.824  1.00  0.00     0.006 C 
ATOM     38  C   UNL     1      16.936 -51.546 -25.312  1.00  0.00     0.000 C 
ENDBRANCH  30  33
ENDBRANCH  29  30
ENDBRANCH  28  29
ENDBRANCH   5  28
TORSDOF 8
ENDMDL
MODEL 9
REMARK VINA RESULT:   -10.045      1.967     11.890
REMARK INTER + INTRA:         -15.320
REMARK INTER:                 -14.940
REMARK INTRA:                  -0.380
REMARK UNBOUND:                -0.577
REMARK SMILES C[N@@H+](CCC(=O)N1CC[NH+](CCN=c2c3c([nH]c4ccccc24)CCCC3)CC1)C1CCCCC1
REMARK SMILES IDX 10 1 9 2 8 3 7 4 5 5 6 6 29 7 28 8 11 10 12 11 13 12 14 13
REMARK SMILES IDX 17 14 16 15 18 16 15 17 24 18 19 19 23 20 27 21 25 22 20 23
REMARK SMILES IDX 22 24 26 25 21 26 4 28 3 29 2 30 1 31 30 33 31 34 35 35
REMARK SMILES IDX 32 36 34 37 33 38
REMARK H PARENT 10 9 17 27 2 32
ROOT
ATOM      1  N   UNL     1      10.737 -53.489 -22.315  1.00  0.00    -0.330 N 
ATOM      2  C   UNL     1      10.889 -53.738 -23.795  1.00  0.00     0.284 C 
ATOM      3  C   UNL     1      11.761 -54.980 -24.030  1.00  0.00     0.181 C 
ATOM      4  N   UNL     1      11.328 -56.166 -23.267  1.00  0.00    -0.331 N 
ATOM      5  C   UNL     1      11.695 -57.405 -23.788  1.00  0.00     0.228 C 
ATOM      6  O   UNL     1      12.214 -57.508 -24.898  1.00  0.00    -0.275 OA
ATOM      7  C   UNL     1      11.027 -55.934 -21.845  1.00  0.00     0.181 C 
ATOM      8  C   UNL     1      10.155 -54.686 -21.602  1.00  0.00     0.284 C 
ATOM      9  H   UNL     1      11.678 -53.309 -21.908  1.00  0.00     0.348 HD
ENDROOT
BRANCH   1  10
ATOM     10  C   UNL     1      10.025 -52.181 -21.988  1.00  0.00     0.286 C 
BRANCH  10  11
ATOM     11  C   UNL     1      11.106 -51.116 -21.764  1.00  0.00     0.204 C 
BRANCH  11  12
ATOM     12  N   UNL     1      10.880 -50.025 -22.718  1.00  0.00    -0.278 NA
BRANCH  12  13
ATOM     13  C   UNL     1      11.847 -49.371 -23.270  1.00  0.00     0.072 A 
ATOM     14  N   UNL     1      13.015 -47.900 -25.325  1.00  0.00    -0.358 N 
ATOM     15  C   UNL     1      13.569 -49.122 -24.980  1.00  0.00     0.021 A 
ATOM     16  C   UNL     1      12.284 -47.188 -24.359  1.00  0.00     0.048 A 
ATOM     17  C   UNL     1      13.093 -49.877 -23.963  1.00  0.00    -0.003 A 
ATOM     18  C   UNL     1      14.816 -49.512 -25.752  1.00  0.00     0.054 C 
ATOM     19  C   UNL     1      12.060 -45.815 -24.487  1.00  0.00     0.027 A 
ATOM     20  C   UNL     1      11.707 -47.876 -23.282  1.00  0.00     0.024 A 
ATOM     21  C   UNL     1      13.850 -51.067 -23.431  1.00  0.00     0.039 C 
ATOM     22  C   UNL     1      15.710 -50.511 -25.022  1.00  0.00     0.007 C 
ATOM     23  C   UNL     1      11.311 -45.132 -23.526  1.00  0.00     0.002 A 
ATOM     24  C   UNL     1      10.945 -47.197 -22.325  1.00  0.00     0.012 A 
ATOM     25  C   UNL     1      14.880 -51.628 -24.411  1.00  0.00     0.005 C 
ATOM     26  C   UNL     1      10.760 -45.820 -22.443  1.00  0.00     0.001 A 
ATOM     27  H   UNL     1      13.570 -47.325 -25.956  1.00  0.00     0.166 HD
ENDBRANCH  12  13
ENDBRANCH  11  12
ENDBRANCH  10  11
ENDBRANCH   1  10
BRANCH   5  28
ATOM     28  C   UNL     1      11.423 -58.648 -22.961  1.00  0.00     0.161 C 
BRANCH  28  29
ATOM     29  C   UNL     1      11.706 -59.888 -23.818  1.00  0.00     0.272 C 
BRANCH  29  30
ATOM     30  N   UNL     1      10.450 -60.319 -24.596  1.00  0.00    -0.335 N 
ATOM     31  C   UNL     1       9.330 -59.327 -24.334  1.00  0.00     0.332 C 
ATOM     32  H   UNL     1      10.639 -60.258 -25.603  1.00  0.00     0.348 HD
BRANCH  30  33
ATOM     33  C   UNL     1      10.037 -61.782 -24.310  1.00  0.00     0.183 C 
ATOM     34  C   UNL     1       8.560 -61.974 -24.696  1.00  0.00     0.065 C 
ATOM     35  C   UNL     1      10.245 -62.120 -22.824  1.00  0.00     0.065 C 
ATOM     36  C   UNL     1       8.051 -63.371 -24.341  1.00  0.00     0.006 C 
ATOM     37  C   UNL     1       9.722 -63.511 -22.471  1.00  0.00     0.006 C 
ATOM     38  C   UNL     1       8.261 -63.685 -22.866  1.00  0.00     0.000 C 
ENDBRANCH  30  33
ENDBRANCH  29  30
ENDBRANCH  28  29
ENDBRANCH   5  28
TORSDOF 8
ENDMDL
