MODEL 1
REMARK VINA RESULT:   -10.169      0.000      0.000
REMARK INTER + INTRA:         -17.186
REMARK INTER:                 -16.412
REMARK INTRA:                  -0.775
REMARK UNBOUND:                -0.775
REMARK SMILES COc1cc2oc(=O)c(OCCCCOc3cc(O)cc(N(C)C)c3)c(C)c2cc1OC
REMARK SMILES IDX 12 1 11 2 10 3 9 4 3 5 4 6 30 7 5 8 29 9 6 10 28 11 7 12
REMARK SMILES IDX 26 13 8 14 27 15 2 16 1 17 31 18 32 19 13 20 14 21 15 22
REMARK SMILES IDX 16 23 17 24 25 25 18 26 21 27 20 28 19 29 22 31 23 32 24 33
REMARK H PARENT 19 30
ROOT
ATOM      1  C   UNL     1      10.552 -57.831 -22.383  1.00  0.00     0.045 C 
ENDROOT
BRANCH   1   2
ATOM      2  C   UNL     1      11.389 -56.624 -22.795  1.00  0.00     0.230 C 
BRANCH   2   3
ATOM      3  O   UNL     1      10.626 -55.815 -23.704  1.00  0.00    -0.486 OA
BRANCH   3   4
ATOM      4  C   UNL     1      11.305 -54.619 -23.934  1.00  0.00     0.208 A 
ATOM      5  C   UNL     1      13.212 -49.934 -24.132  1.00  0.00     0.164 A 
ATOM      6  C   UNL     1      13.381 -51.100 -24.877  1.00  0.00     0.098 A 
ATOM      7  C   UNL     1      12.347 -49.945 -23.019  1.00  0.00     0.161 A 
ATOM      8  C   UNL     1      12.690 -52.257 -24.510  1.00  0.00     0.142 A 
ATOM      9  C   UNL     1      11.669 -51.124 -22.671  1.00  0.00     0.062 A 
ATOM     10  O   UNL     1      12.906 -53.385 -25.320  1.00  0.00    -0.420 OA
ATOM     11  C   UNL     1      11.831 -52.302 -23.417  1.00  0.00     0.028 A 
ATOM     12  C   UNL     1      12.254 -54.584 -25.085  1.00  0.00     0.379 A 
ATOM     13  C   UNL     1      11.127 -53.561 -23.117  1.00  0.00     0.010 A 
ATOM     14  O   UNL     1      12.447 -55.560 -25.804  1.00  0.00    -0.242 OA
ATOM     15  C   UNL     1      10.211 -53.615 -21.924  1.00  0.00     0.049 C 
BRANCH   5  16
ATOM     16  O   UNL     1      13.832 -48.741 -24.406  1.00  0.00    -0.493 OA
ATOM     17  C   UNL     1      13.716 -48.225 -25.725  1.00  0.00     0.278 C 
ENDBRANCH   5  16
BRANCH   7  18
ATOM     18  O   UNL     1      12.231 -48.756 -22.342  1.00  0.00    -0.493 OA
ATOM     19  C   UNL     1      11.087 -47.953 -22.596  1.00  0.00     0.278 C 
ENDBRANCH   7  18
ENDBRANCH   3   4
ENDBRANCH   2   3
ENDBRANCH   1   2
BRANCH   1  20
ATOM     20  C   UNL     1      11.388 -59.056 -21.992  1.00  0.00     0.045 C 
BRANCH  20  21
ATOM     21  C   UNL     1      12.234 -59.649 -23.124  1.00  0.00     0.229 C 
BRANCH  21  22
ATOM     22  O   UNL     1      11.894 -60.994 -23.449  1.00  0.00    -0.493 OA
BRANCH  22  23
ATOM     23  C   UNL     1      10.977 -61.236 -24.434  1.00  0.00     0.125 A 
ATOM     24  C   UNL     1      11.028 -60.761 -25.738  1.00  0.00     0.092 A 
ATOM     25  C   UNL     1       9.903 -62.049 -24.034  1.00  0.00     0.072 A 
ATOM     26  C   UNL     1      10.002 -61.102 -26.611  1.00  0.00     0.121 A 
ATOM     27  C   UNL     1       8.835 -62.378 -24.889  1.00  0.00     0.043 A 
ATOM     28  C   UNL     1       8.927 -61.895 -26.202  1.00  0.00     0.072 A 
BRANCH  26  29
ATOM     29  O   UNL     1      10.002 -60.668 -27.907  1.00  0.00    -0.508 OA
ATOM     30  H   UNL     1      10.761 -60.077 -28.042  1.00  0.00     0.293 HD
ENDBRANCH  26  29
BRANCH  27  31
ATOM     31  N   UNL     1       7.773 -63.178 -24.435  1.00  0.00    -0.377 N 
ATOM     32  C   UNL     1       7.968 -63.971 -23.223  1.00  0.00     0.143 C 
ATOM     33  C   UNL     1       6.992 -63.847 -25.482  1.00  0.00     0.143 C 
ENDBRANCH  27  31
ENDBRANCH  22  23
ENDBRANCH  21  22
ENDBRANCH  20  21
ENDBRANCH   1  20
TORSDOF 11
ENDMDL
MODEL 2
REMARK VINA RESULT:   -10.158      1.374      2.171
REMARK INTER + INTRA:         -17.168
REMARK INTER:                 -16.498
REMARK INTRA:                  -0.670
REMARK UNBOUND:                -0.775
REMARK SMILES COc1cc2oc(=O)c(OCCCCOc3cc(O)cc(N(C)C)c3)c(C)c2cc1OC
REMARK SMILES IDX 12 1 11 2 10 3 9 4 3 5 4 6 30 7 5 8 29 9 6 10 28 11 7 12
REMARK SMILES IDX 26 13 8 14 27 15 2 16 1 17 31 18 32 19 13 20 14 21 15 22
REMARK SMILES IDX 16 23 17 24 25 25 18 26 21 27 20 28 19 29 22 31 23 32 24 33
REMARK H PARENT 19 30
ROOT
ATOM      1  C   UNL     1      11.209 -58.067 -22.815  1.00  0.00     0.045 C 
ENDROOT
BRANCH   1   2
ATOM      2  C   UNL     1      11.401 -56.569 -22.599  1.00  0.00     0.230 C 
BRANCH   2   3
ATOM      3  O   UNL     1      10.649 -55.853 -23.591  1.00  0.00    -0.486 OA
BRANCH   3   4
ATOM      4  C   UNL     1      11.310 -54.666 -23.901  1.00  0.00     0.208 A 
ATOM      5  C   UNL     1      13.187 -49.989 -24.380  1.00  0.00     0.164 A 
ATOM      6  C   UNL     1      13.325 -51.184 -25.084  1.00  0.00     0.098 A 
ATOM      7  C   UNL     1      12.377 -49.956 -23.227  1.00  0.00     0.161 A 
ATOM      8  C   UNL     1      12.657 -52.326 -24.638  1.00  0.00     0.142 A 
ATOM      9  C   UNL     1      11.720 -51.123 -22.800  1.00  0.00     0.062 A 
ATOM     10  O   UNL     1      12.839 -53.485 -25.411  1.00  0.00    -0.420 OA
ATOM     11  C   UNL     1      11.851 -52.330 -23.504  1.00  0.00     0.028 A 
ATOM     12  C   UNL     1      12.204 -54.676 -25.098  1.00  0.00     0.379 A 
ATOM     13  C   UNL     1      11.168 -53.577 -23.120  1.00  0.00     0.010 A 
ATOM     14  O   UNL     1      12.367 -55.680 -25.785  1.00  0.00    -0.242 OA
ATOM     15  C   UNL     1      10.310 -53.584 -21.884  1.00  0.00     0.049 C 
BRANCH   5  16
ATOM     16  O   UNL     1      13.789 -48.806 -24.731  1.00  0.00    -0.493 OA
ATOM     17  C   UNL     1      14.220 -48.661 -26.077  1.00  0.00     0.278 C 
ENDBRANCH   5  16
BRANCH   7  18
ATOM     18  O   UNL     1      12.287 -48.742 -22.593  1.00  0.00    -0.493 OA
ATOM     19  C   UNL     1      11.062 -48.030 -22.685  1.00  0.00     0.278 C 
ENDBRANCH   7  18
ENDBRANCH   3   4
ENDBRANCH   2   3
ENDBRANCH   1   2
BRANCH   1  20
ATOM     20  C   UNL     1      11.223 -58.884 -21.517  1.00  0.00     0.045 C 
BRANCH  20  21
ATOM     21  C   UNL     1      10.415 -60.185 -21.564  1.00  0.00     0.229 C 
BRANCH  21  22
ATOM     22  O   UNL     1      10.900 -61.126 -22.518  1.00  0.00    -0.493 OA
BRANCH  22  23
ATOM     23  C   UNL     1      10.016 -61.754 -23.351  1.00  0.00     0.125 A 
ATOM     24  C   UNL     1       9.131 -62.764 -22.998  1.00  0.00     0.092 A 
ATOM     25  C   UNL     1      10.047 -61.292 -24.678  1.00  0.00     0.072 A 
ATOM     26  C   UNL     1       8.302 -63.297 -23.978  1.00  0.00     0.121 A 
ATOM     27  C   UNL     1       9.243 -61.839 -25.695  1.00  0.00     0.043 A 
ATOM     28  C   UNL     1       8.352 -62.846 -25.300  1.00  0.00     0.072 A 
BRANCH  26  29
ATOM     29  O   UNL     1       7.409 -64.289 -23.687  1.00  0.00    -0.508 OA
ATOM     30  H   UNL     1       7.098 -64.687 -24.516  1.00  0.00     0.293 HD
ENDBRANCH  26  29
BRANCH  27  31
ATOM     31  N   UNL     1       9.326 -61.357 -27.012  1.00  0.00    -0.377 N 
ATOM     32  C   UNL     1       8.998 -62.268 -28.108  1.00  0.00     0.143 C 
ATOM     33  C   UNL     1      10.448 -60.452 -27.286  1.00  0.00     0.143 C 
ENDBRANCH  27  31
ENDBRANCH  22  23
ENDBRANCH  21  22
ENDBRANCH  20  21
ENDBRANCH   1  20
TORSDOF 11
ENDMDL
MODEL 3
REMARK VINA RESULT:   -10.028      1.727      3.073
REMARK INTER + INTRA:         -16.958
REMARK INTER:                 -16.202
REMARK INTRA:                  -0.756
REMARK UNBOUND:                -0.775
REMARK SMILES COc1cc2oc(=O)c(OCCCCOc3cc(O)cc(N(C)C)c3)c(C)c2cc1OC
REMARK SMILES IDX 12 1 11 2 10 3 9 4 3 5 4 6 30 7 5 8 29 9 6 10 28 11 7 12
REMARK SMILES IDX 26 13 8 14 27 15 2 16 1 17 31 18 32 19 13 20 14 21 15 22
REMARK SMILES IDX 16 23 17 24 25 25 18 26 21 27 20 28 19 29 22 31 23 32 24 33
REMARK H PARENT 19 30
ROOT
ATOM      1  C   UNL     1      10.760 -58.083 -22.821  1.00  0.00     0.045 C 
ENDROOT
BRANCH   1   2
ATOM      2  C   UNL     1      11.313 -56.661 -22.788  1.00  0.00     0.230 C 
BRANCH   2   3
ATOM      3  O   UNL     1      10.443 -55.805 -23.545  1.00  0.00    -0.486 OA
BRANCH   3   4
ATOM      4  C   UNL     1      10.852 -54.482 -23.388  1.00  0.00     0.208 A 
ATOM      5  C   UNL     1      12.956 -49.878 -23.455  1.00  0.00     0.164 A 
ATOM      6  C   UNL     1      12.004 -50.515 -22.663  1.00  0.00     0.098 A 
ATOM      7  C   UNL     1      13.524 -50.570 -24.544  1.00  0.00     0.161 A 
ATOM      8  C   UNL     1      11.630 -51.828 -22.958  1.00  0.00     0.142 A 
ATOM      9  C   UNL     1      13.125 -51.889 -24.819  1.00  0.00     0.062 A 
ATOM     10  O   UNL     1      10.674 -52.402 -22.103  1.00  0.00    -0.420 OA
ATOM     11  C   UNL     1      12.169 -52.540 -24.025  1.00  0.00     0.028 A 
ATOM     12  C   UNL     1      10.244 -53.708 -22.265  1.00  0.00     0.379 A 
ATOM     13  C   UNL     1      11.730 -53.928 -24.248  1.00  0.00     0.010 A 
ATOM     14  O   UNL     1       9.413 -54.200 -21.508  1.00  0.00    -0.242 OA
ATOM     15  C   UNL     1      12.301 -54.691 -25.413  1.00  0.00     0.049 C 
BRANCH   5  16
ATOM     16  O   UNL     1      13.403 -48.596 -23.253  1.00  0.00    -0.493 OA
ATOM     17  C   UNL     1      13.219 -48.030 -21.963  1.00  0.00     0.278 C 
ENDBRANCH   5  16
BRANCH   7  18
ATOM     18  O   UNL     1      14.458 -49.876 -25.272  1.00  0.00    -0.493 OA
ATOM     19  C   UNL     1      14.373 -49.925 -26.689  1.00  0.00     0.278 C 
ENDBRANCH   7  18
ENDBRANCH   3   4
ENDBRANCH   2   3
ENDBRANCH   1   2
BRANCH   1  20
ATOM     20  C   UNL     1      11.787 -59.153 -22.428  1.00  0.00     0.045 C 
BRANCH  20  21
ATOM     21  C   UNL     1      12.030 -60.234 -23.486  1.00  0.00     0.229 C 
BRANCH  21  22
ATOM     22  O   UNL     1      11.514 -61.513 -23.126  1.00  0.00    -0.493 OA
BRANCH  22  23
ATOM     23  C   UNL     1      10.385 -61.980 -23.741  1.00  0.00     0.125 A 
ATOM     24  C   UNL     1       9.392 -62.755 -23.156  1.00  0.00     0.092 A 
ATOM     25  C   UNL     1      10.269 -61.607 -25.091  1.00  0.00     0.072 A 
ATOM     26  C   UNL     1       8.310 -63.147 -23.933  1.00  0.00     0.121 A 
ATOM     27  C   UNL     1       9.201 -62.022 -25.907  1.00  0.00     0.043 A 
ATOM     28  C   UNL     1       8.210 -62.790 -25.280  1.00  0.00     0.072 A 
BRANCH  26  29
ATOM     29  O   UNL     1       7.301 -63.906 -23.409  1.00  0.00    -0.508 OA
ATOM     30  H   UNL     1       6.693 -63.329 -22.919  1.00  0.00     0.293 HD
ENDBRANCH  26  29
BRANCH  27  31
ATOM     31  N   UNL     1       9.140 -61.641 -27.258  1.00  0.00    -0.377 N 
ATOM     32  C   UNL     1       8.650 -62.614 -28.233  1.00  0.00     0.143 C 
ATOM     33  C   UNL     1      10.252 -60.811 -27.732  1.00  0.00     0.143 C 
ENDBRANCH  27  31
ENDBRANCH  22  23
ENDBRANCH  21  22
ENDBRANCH  20  21
ENDBRANCH   1  20
TORSDOF 11
ENDMDL
MODEL 4
REMARK VINA RESULT:   -10.012      1.131      2.267
REMARK INTER + INTRA:         -16.932
REMARK INTER:                 -16.168
REMARK INTRA:                  -0.764
REMARK UNBOUND:                -0.775
REMARK SMILES COc1cc2oc(=O)c(OCCCCOc3cc(O)cc(N(C)C)c3)c(C)c2cc1OC
REMARK SMILES IDX 12 1 11 2 10 3 9 4 3 5 4 6 30 7 5 8 29 9 6 10 28 11 7 12
REMARK SMILES IDX 26 13 8 14 27 15 2 16 1 17 31 18 32 19 13 20 14 21 15 22
REMARK SMILES IDX 16 23 17 24 25 25 18 26 21 27 20 28 19 29 22 31 23 32 24 33
REMARK H PARENT 19 30
ROOT
ATOM      1  C   UNL     1      10.457 -57.994 -22.450  1.00  0.00     0.045 C 
ENDROOT
BRANCH   1   2
ATOM      2  C   UNL     1      11.175 -56.651 -22.540  1.00  0.00     0.230 C 
BRANCH   2   3
ATOM      3  O   UNL     1      10.545 -55.851 -23.552  1.00  0.00    -0.486 OA
BRANCH   3   4
ATOM      4  C   UNL     1      10.929 -54.521 -23.391  1.00  0.00     0.208 A 
ATOM      5  C   UNL     1      12.941 -49.876 -23.451  1.00  0.00     0.164 A 
ATOM      6  C   UNL     1      12.009 -50.537 -22.653  1.00  0.00     0.098 A 
ATOM      7  C   UNL     1      13.512 -50.550 -24.549  1.00  0.00     0.161 A 
ATOM      8  C   UNL     1      11.658 -51.855 -22.952  1.00  0.00     0.142 A 
ATOM      9  C   UNL     1      13.137 -51.875 -24.828  1.00  0.00     0.062 A 
ATOM     10  O   UNL     1      10.721 -52.452 -22.092  1.00  0.00    -0.420 OA
ATOM     11  C   UNL     1      12.201 -52.549 -24.029  1.00  0.00     0.028 A 
ATOM     12  C   UNL     1      10.317 -53.766 -22.258  1.00  0.00     0.379 A 
ATOM     13  C   UNL     1      11.788 -53.945 -24.256  1.00  0.00     0.010 A 
ATOM     14  O   UNL     1       9.502 -54.279 -21.496  1.00  0.00    -0.242 OA
ATOM     15  C   UNL     1      12.363 -54.690 -25.430  1.00  0.00     0.049 C 
BRANCH   5  16
ATOM     16  O   UNL     1      13.364 -48.586 -23.245  1.00  0.00    -0.493 OA
ATOM     17  C   UNL     1      12.461 -47.688 -22.616  1.00  0.00     0.278 C 
ENDBRANCH   5  16
BRANCH   7  18
ATOM     18  O   UNL     1      14.425 -49.833 -25.281  1.00  0.00    -0.493 OA
ATOM     19  C   UNL     1      15.732 -50.370 -25.427  1.00  0.00     0.278 C 
ENDBRANCH   7  18
ENDBRANCH   3   4
ENDBRANCH   2   3
ENDBRANCH   1   2
BRANCH   1  20
ATOM     20  C   UNL     1      11.365 -59.150 -22.010  1.00  0.00     0.045 C 
BRANCH  20  21
ATOM     21  C   UNL     1      12.269 -59.716 -23.110  1.00  0.00     0.229 C 
BRANCH  21  22
ATOM     22  O   UNL     1      11.949 -61.053 -23.483  1.00  0.00    -0.493 OA
BRANCH  22  23
ATOM     23  C   UNL     1      11.011 -61.273 -24.454  1.00  0.00     0.125 A 
ATOM     24  C   UNL     1      11.043 -60.784 -25.753  1.00  0.00     0.092 A 
ATOM     25  C   UNL     1       9.935 -62.079 -24.043  1.00  0.00     0.072 A 
ATOM     26  C   UNL     1       9.998 -61.103 -26.611  1.00  0.00     0.121 A 
ATOM     27  C   UNL     1       8.849 -62.386 -24.882  1.00  0.00     0.043 A 
ATOM     28  C   UNL     1       8.922 -61.889 -26.191  1.00  0.00     0.072 A 
BRANCH  26  29
ATOM     29  O   UNL     1       9.979 -60.654 -27.902  1.00  0.00    -0.508 OA
ATOM     30  H   UNL     1      10.520 -59.850 -27.964  1.00  0.00     0.293 HD
ENDBRANCH  26  29
BRANCH  27  31
ATOM     31  N   UNL     1       7.786 -63.179 -24.418  1.00  0.00    -0.377 N 
ATOM     32  C   UNL     1       7.973 -63.941 -23.185  1.00  0.00     0.143 C 
ATOM     33  C   UNL     1       7.017 -63.877 -25.454  1.00  0.00     0.143 C 
ENDBRANCH  27  31
ENDBRANCH  22  23
ENDBRANCH  21  22
ENDBRANCH  20  21
ENDBRANCH   1  20
TORSDOF 11
ENDMDL
MODEL 5
REMARK VINA RESULT:    -9.810      2.032      2.988
REMARK INTER + INTRA:         -16.606
REMARK INTER:                 -15.925
REMARK INTRA:                  -0.681
REMARK UNBOUND:                -0.775
REMARK SMILES COc1cc2oc(=O)c(OCCCCOc3cc(O)cc(N(C)C)c3)c(C)c2cc1OC
REMARK SMILES IDX 12 1 11 2 10 3 9 4 3 5 4 6 30 7 5 8 29 9 6 10 28 11 7 12
REMARK SMILES IDX 26 13 8 14 27 15 2 16 1 17 31 18 32 19 13 20 14 21 15 22
REMARK SMILES IDX 16 23 17 24 25 25 18 26 21 27 20 28 19 29 22 31 23 32 24 33
REMARK H PARENT 19 30
ROOT
ATOM      1  C   UNL     1      11.008 -57.446 -21.952  1.00  0.00     0.045 C 
ENDROOT
BRANCH   1   2
ATOM      2  C   UNL     1      11.493 -56.624 -23.142  1.00  0.00     0.230 C 
BRANCH   2   3
ATOM      3  O   UNL     1      10.452 -55.718 -23.539  1.00  0.00    -0.486 OA
BRANCH   3   4
ATOM      4  C   UNL     1      10.893 -54.407 -23.366  1.00  0.00     0.208 A 
ATOM      5  C   UNL     1      13.074 -49.839 -23.420  1.00  0.00     0.164 A 
ATOM      6  C   UNL     1      12.162 -50.486 -22.590  1.00  0.00     0.098 A 
ATOM      7  C   UNL     1      13.559 -50.504 -24.564  1.00  0.00     0.161 A 
ATOM      8  C   UNL     1      11.746 -51.782 -22.902  1.00  0.00     0.142 A 
ATOM      9  C   UNL     1      13.120 -51.807 -24.855  1.00  0.00     0.062 A 
ATOM     10  O   UNL     1      10.834 -52.368 -22.007  1.00  0.00    -0.420 OA
ATOM     11  C   UNL     1      12.204 -52.467 -24.023  1.00  0.00     0.028 A 
ATOM     12  C   UNL     1      10.372 -53.662 -22.183  1.00  0.00     0.379 A 
ATOM     13  C   UNL     1      11.726 -53.840 -24.262  1.00  0.00     0.010 A 
ATOM     14  O   UNL     1       9.580 -54.164 -21.390  1.00  0.00    -0.242 OA
ATOM     15  C   UNL     1      12.209 -54.574 -25.484  1.00  0.00     0.049 C 
BRANCH   5  16
ATOM     16  O   UNL     1      13.556 -48.572 -23.206  1.00  0.00    -0.493 OA
ATOM     17  C   UNL     1      12.612 -47.516 -23.101  1.00  0.00     0.278 C 
ENDBRANCH   5  16
BRANCH   7  18
ATOM     18  O   UNL     1      14.459 -49.802 -25.327  1.00  0.00    -0.493 OA
ATOM     19  C   UNL     1      14.540 -50.105 -26.712  1.00  0.00     0.278 C 
ENDBRANCH   7  18
ENDBRANCH   3   4
ENDBRANCH   2   3
ENDBRANCH   1   2
BRANCH   1  20
ATOM     20  C   UNL     1      10.964 -58.956 -22.223  1.00  0.00     0.045 C 
BRANCH  20  21
ATOM     21  C   UNL     1      11.307 -59.365 -23.659  1.00  0.00     0.229 C 
BRANCH  21  22
ATOM     22  O   UNL     1      10.236 -59.177 -24.579  1.00  0.00    -0.493 OA
BRANCH  22  23
ATOM     23  C   UNL     1       8.971 -59.557 -24.224  1.00  0.00     0.125 A 
ATOM     24  C   UNL     1       7.931 -58.712 -23.861  1.00  0.00     0.092 A 
ATOM     25  C   UNL     1       8.759 -60.947 -24.247  1.00  0.00     0.072 A 
ATOM     26  C   UNL     1       6.705 -59.271 -23.522  1.00  0.00     0.121 A 
ATOM     27  C   UNL     1       7.538 -61.538 -23.874  1.00  0.00     0.043 A 
ATOM     28  C   UNL     1       6.506 -60.654 -23.529  1.00  0.00     0.072 A 
BRANCH  26  29
ATOM     29  O   UNL     1       5.645 -58.488 -23.163  1.00  0.00    -0.508 OA
ATOM     30  H   UNL     1       4.999 -59.031 -22.682  1.00  0.00     0.293 HD
ENDBRANCH  26  29
BRANCH  27  31
ATOM     31  N   UNL     1       7.382 -62.934 -23.894  1.00  0.00    -0.377 N 
ATOM     32  C   UNL     1       8.258 -63.744 -23.050  1.00  0.00     0.143 C 
ATOM     33  C   UNL     1       7.089 -63.520 -25.207  1.00  0.00     0.143 C 
ENDBRANCH  27  31
ENDBRANCH  22  23
ENDBRANCH  21  22
ENDBRANCH  20  21
ENDBRANCH   1  20
TORSDOF 11
ENDMDL
MODEL 6
REMARK VINA RESULT:    -9.606      2.837     10.461
REMARK INTER + INTRA:         -16.278
REMARK INTER:                 -15.657
REMARK INTRA:                  -0.621
REMARK UNBOUND:                -0.775
REMARK SMILES COc1cc2oc(=O)c(OCCCCOc3cc(O)cc(N(C)C)c3)c(C)c2cc1OC
REMARK SMILES IDX 12 1 11 2 10 3 9 4 3 5 4 6 30 7 5 8 29 9 6 10 28 11 7 12
REMARK SMILES IDX 26 13 8 14 27 15 2 16 1 17 31 18 32 19 13 20 14 21 15 22
REMARK SMILES IDX 16 23 17 24 25 25 18 26 21 27 20 28 19 29 22 31 23 32 24 33
REMARK H PARENT 19 30
ROOT
ATOM      1  C   UNL     1      11.215 -56.682 -21.910  1.00  0.00     0.045 C 
ENDROOT
BRANCH   1   2
ATOM      2  C   UNL     1      11.159 -58.134 -21.443  1.00  0.00     0.230 C 
BRANCH   2   3
ATOM      3  O   UNL     1      12.083 -58.910 -22.222  1.00  0.00    -0.486 OA
BRANCH   3   4
ATOM      4  C   UNL     1      11.403 -59.504 -23.284  1.00  0.00     0.208 A 
ATOM      5  C   UNL     1       8.644 -62.257 -26.515  1.00  0.00     0.164 A 
ATOM      6  C   UNL     1       9.550 -61.206 -26.639  1.00  0.00     0.098 A 
ATOM      7  C   UNL     1       8.319 -62.740 -25.231  1.00  0.00     0.161 A 
ATOM      8  C   UNL     1      10.123 -60.651 -25.492  1.00  0.00     0.142 A 
ATOM      9  C   UNL     1       8.907 -62.160 -24.095  1.00  0.00     0.062 A 
ATOM     10  O   UNL     1      11.035 -59.603 -25.706  1.00  0.00    -0.420 OA
ATOM     11  C   UNL     1       9.823 -61.102 -24.211  1.00  0.00     0.028 A 
ATOM     12  C   UNL     1      11.698 -58.992 -24.655  1.00  0.00     0.379 A 
ATOM     13  C   UNL     1      10.491 -60.471 -23.060  1.00  0.00     0.010 A 
ATOM     14  O   UNL     1      12.498 -58.082 -24.855  1.00  0.00    -0.242 OA
ATOM     15  C   UNL     1      10.154 -60.949 -21.673  1.00  0.00     0.049 C 
BRANCH   5  16
ATOM     16  O   UNL     1       8.029 -62.881 -27.571  1.00  0.00    -0.493 OA
ATOM     17  C   UNL     1       8.775 -63.035 -28.771  1.00  0.00     0.278 C 
ENDBRANCH   5  16
BRANCH   7  18
ATOM     18  O   UNL     1       7.424 -63.781 -25.194  1.00  0.00    -0.493 OA
ATOM     19  C   UNL     1       7.317 -64.526 -23.989  1.00  0.00     0.278 C 
ENDBRANCH   7  18
ENDBRANCH   3   4
ENDBRANCH   2   3
ENDBRANCH   1   2
BRANCH   1  20
ATOM     20  C   UNL     1       9.997 -56.253 -22.738  1.00  0.00     0.045 C 
BRANCH  20  21
ATOM     21  C   UNL     1      10.052 -54.818 -23.271  1.00  0.00     0.229 C 
BRANCH  21  22
ATOM     22  O   UNL     1      10.308 -53.842 -22.265  1.00  0.00    -0.493 OA
BRANCH  22  23
ATOM     23  C   UNL     1      11.102 -52.768 -22.558  1.00  0.00     0.125 A 
ATOM     24  C   UNL     1      11.270 -51.633 -21.775  1.00  0.00     0.092 A 
ATOM     25  C   UNL     1      11.792 -52.878 -23.777  1.00  0.00     0.072 A 
ATOM     26  C   UNL     1      12.116 -50.629 -22.230  1.00  0.00     0.121 A 
ATOM     27  C   UNL     1      12.626 -51.860 -24.275  1.00  0.00     0.043 A 
ATOM     28  C   UNL     1      12.784 -50.736 -23.452  1.00  0.00     0.072 A 
BRANCH  26  29
ATOM     29  O   UNL     1      12.323 -49.493 -21.500  1.00  0.00    -0.508 OA
ATOM     30  H   UNL     1      11.861 -49.576 -20.650  1.00  0.00     0.293 HD
ENDBRANCH  26  29
BRANCH  27  31
ATOM     31  N   UNL     1      13.278 -52.007 -25.511  1.00  0.00    -0.377 N 
ATOM     32  C   UNL     1      14.085 -53.206 -25.733  1.00  0.00     0.143 C 
ATOM     33  C   UNL     1      13.843 -50.779 -26.080  1.00  0.00     0.143 C 
ENDBRANCH  27  31
ENDBRANCH  22  23
ENDBRANCH  21  22
ENDBRANCH  20  21
ENDBRANCH   1  20
TORSDOF 11
ENDMDL
MODEL 7
REMARK VINA RESULT:    -9.439      2.343      3.782
REMARK INTER + INTRA:         -16.007
REMARK INTER:                 -15.072
REMARK INTRA:                  -0.935
REMARK UNBOUND:                -0.775
REMARK SMILES COc1cc2oc(=O)c(OCCCCOc3cc(O)cc(N(C)C)c3)c(C)c2cc1OC
REMARK SMILES IDX 12 1 11 2 10 3 9 4 3 5 4 6 30 7 5 8 29 9 6 10 28 11 7 12
REMARK SMILES IDX 26 13 8 14 27 15 2 16 1 17 31 18 32 19 13 20 14 21 15 22
REMARK SMILES IDX 16 23 17 24 25 25 18 26 21 27 20 28 19 29 22 31 23 32 24 33
REMARK H PARENT 19 30
ROOT
ATOM      1  C   UNL     1      10.531 -57.775 -22.247  1.00  0.00     0.045 C 
ENDROOT
BRANCH   1   2
ATOM      2  C   UNL     1      11.356 -56.673 -22.905  1.00  0.00     0.230 C 
BRANCH   2   3
ATOM      3  O   UNL     1      10.478 -55.811 -23.646  1.00  0.00    -0.486 OA
BRANCH   3   4
ATOM      4  C   UNL     1      10.852 -54.485 -23.436  1.00  0.00     0.208 A 
ATOM      5  C   UNL     1      12.856 -49.838 -23.296  1.00  0.00     0.164 A 
ATOM      6  C   UNL     1      11.894 -50.520 -22.554  1.00  0.00     0.098 A 
ATOM      7  C   UNL     1      13.472 -50.484 -24.387  1.00  0.00     0.161 A 
ATOM      8  C   UNL     1      11.558 -51.831 -22.900  1.00  0.00     0.142 A 
ATOM      9  C   UNL     1      13.112 -51.802 -24.714  1.00  0.00     0.062 A 
ATOM     10  O   UNL     1      10.589 -52.450 -22.093  1.00  0.00    -0.420 OA
ATOM     11  C   UNL     1      12.146 -52.497 -23.971  1.00  0.00     0.028 A 
ATOM     12  C   UNL     1      10.194 -53.760 -22.309  1.00  0.00     0.379 A 
ATOM     13  C   UNL     1      11.745 -53.887 -24.250  1.00  0.00     0.010 A 
ATOM     14  O   UNL     1       9.350 -54.293 -21.593  1.00  0.00    -0.242 OA
ATOM     15  C   UNL     1      12.368 -54.601 -25.419  1.00  0.00     0.049 C 
BRANCH   5  16
ATOM     16  O   UNL     1      13.269 -48.554 -23.040  1.00  0.00    -0.493 OA
ATOM     17  C   UNL     1      13.456 -48.180 -21.683  1.00  0.00     0.278 C 
ENDBRANCH   5  16
BRANCH   7  18
ATOM     18  O   UNL     1      14.413 -49.748 -25.063  1.00  0.00    -0.493 OA
ATOM     19  C   UNL     1      14.009 -49.073 -26.246  1.00  0.00     0.278 C 
ENDBRANCH   7  18
ENDBRANCH   3   4
ENDBRANCH   2   3
ENDBRANCH   1   2
BRANCH   1  20
ATOM     20  C   UNL     1       9.378 -58.287 -23.120  1.00  0.00     0.045 C 
BRANCH  20  21
ATOM     21  C   UNL     1       9.122 -59.795 -23.033  1.00  0.00     0.229 C 
BRANCH  21  22
ATOM     22  O   UNL     1       9.376 -60.491 -24.250  1.00  0.00    -0.493 OA
BRANCH  22  23
ATOM     23  C   UNL     1      10.599 -60.368 -24.851  1.00  0.00     0.125 A 
ATOM     24  C   UNL     1      11.829 -60.668 -24.279  1.00  0.00     0.092 A 
ATOM     25  C   UNL     1      10.546 -59.891 -26.172  1.00  0.00     0.072 A 
ATOM     26  C   UNL     1      12.979 -60.478 -25.036  1.00  0.00     0.121 A 
ATOM     27  C   UNL     1      11.699 -59.657 -26.944  1.00  0.00     0.043 A 
ATOM     28  C   UNL     1      12.921 -59.986 -26.341  1.00  0.00     0.072 A 
BRANCH  26  29
ATOM     29  O   UNL     1      14.215 -60.762 -24.527  1.00  0.00    -0.508 OA
ATOM     30  H   UNL     1      14.463 -60.067 -23.895  1.00  0.00     0.293 HD
ENDBRANCH  26  29
BRANCH  27  31
ATOM     31  N   UNL     1      11.595 -59.159 -28.254  1.00  0.00    -0.377 N 
ATOM     32  C   UNL     1      11.709 -60.100 -29.367  1.00  0.00     0.143 C 
ATOM     33  C   UNL     1      12.231 -57.858 -28.489  1.00  0.00     0.143 C 
ENDBRANCH  27  31
ENDBRANCH  22  23
ENDBRANCH  21  22
ENDBRANCH  20  21
ENDBRANCH   1  20
TORSDOF 11
ENDMDL
MODEL 8
REMARK VINA RESULT:    -9.288      2.171      4.184
REMARK INTER + INTRA:         -15.764
REMARK INTER:                 -15.160
REMARK INTRA:                  -0.604
REMARK UNBOUND:                -0.775
REMARK SMILES COc1cc2oc(=O)c(OCCCCOc3cc(O)cc(N(C)C)c3)c(C)c2cc1OC
REMARK SMILES IDX 12 1 11 2 10 3 9 4 3 5 4 6 30 7 5 8 29 9 6 10 28 11 7 12
REMARK SMILES IDX 26 13 8 14 27 15 2 16 1 17 31 18 32 19 13 20 14 21 15 22
REMARK SMILES IDX 16 23 17 24 25 25 18 26 21 27 20 28 19 29 22 31 23 32 24 33
REMARK H PARENT 19 30
ROOT
ATOM      1  C   UNL     1       9.995 -54.254 -22.093  1.00  0.00     0.045 C 
ENDROOT
BRANCH   1   2
ATOM      2  C   UNL     1       9.756 -52.779 -22.403  1.00  0.00     0.230 C 
BRANCH   2   3
ATOM      3  O   UNL     1      10.644 -51.984 -21.602  1.00  0.00    -0.486 OA
BRANCH   3   4
ATOM      4  C   UNL     1      10.802 -50.733 -22.197  1.00  0.00     0.208 A 
ATOM      5  C   UNL     1      12.222 -46.480 -24.547  1.00  0.00     0.164 A 
ATOM      6  C   UNL     1      11.108 -46.874 -23.809  1.00  0.00     0.098 A 
ATOM      7  C   UNL     1      13.257 -47.407 -24.783  1.00  0.00     0.161 A 
ATOM      8  C   UNL     1      11.035 -48.178 -23.314  1.00  0.00     0.142 A 
ATOM      9  C   UNL     1      13.155 -48.713 -24.276  1.00  0.00     0.062 A 
ATOM     10  O   UNL     1       9.885 -48.491 -22.571  1.00  0.00    -0.420 OA
ATOM     11  C   UNL     1      12.038 -49.119 -23.530  1.00  0.00     0.028 A 
ATOM     12  C   UNL     1       9.708 -49.738 -21.995  1.00  0.00     0.379 A 
ATOM     13  C   UNL     1      11.886 -50.465 -22.952  1.00  0.00     0.010 A 
ATOM     14  O   UNL     1       8.701 -49.997 -21.343  1.00  0.00    -0.242 OA
ATOM     15  C   UNL     1      12.963 -51.487 -23.200  1.00  0.00     0.049 C 
BRANCH   5  16
ATOM     16  O   UNL     1      12.401 -45.225 -25.072  1.00  0.00    -0.493 OA
ATOM     17  C   UNL     1      12.243 -44.116 -24.198  1.00  0.00     0.278 C 
ENDBRANCH   5  16
BRANCH   7  18
ATOM     18  O   UNL     1      14.322 -46.940 -25.512  1.00  0.00    -0.493 OA
ATOM     19  C   UNL     1      14.627 -47.588 -26.739  1.00  0.00     0.278 C 
ENDBRANCH   7  18
ENDBRANCH   3   4
ENDBRANCH   2   3
ENDBRANCH   1   2
BRANCH   1  20
ATOM     20  C   UNL     1      10.842 -54.976 -23.149  1.00  0.00     0.045 C 
BRANCH  20  21
ATOM     21  C   UNL     1      11.237 -56.412 -22.789  1.00  0.00     0.229 C 
BRANCH  21  22
ATOM     22  O   UNL     1      10.396 -57.401 -23.376  1.00  0.00    -0.493 OA
BRANCH  22  23
ATOM     23  C   UNL     1      10.873 -58.671 -23.549  1.00  0.00     0.125 A 
ATOM     24  C   UNL     1      12.199 -59.030 -23.752  1.00  0.00     0.092 A 
ATOM     25  C   UNL     1       9.884 -59.669 -23.505  1.00  0.00     0.072 A 
ATOM     26  C   UNL     1      12.508 -60.375 -23.915  1.00  0.00     0.121 A 
ATOM     27  C   UNL     1      10.167 -61.032 -23.703  1.00  0.00     0.043 A 
ATOM     28  C   UNL     1      11.518 -61.360 -23.890  1.00  0.00     0.072 A 
BRANCH  26  29
ATOM     29  O   UNL     1      13.796 -60.786 -24.112  1.00  0.00    -0.508 OA
ATOM     30  H   UNL     1      14.238 -60.867 -23.251  1.00  0.00     0.293 HD
ENDBRANCH  26  29
BRANCH  27  31
ATOM     31  N   UNL     1       9.140 -61.990 -23.671  1.00  0.00    -0.377 N 
ATOM     32  C   UNL     1       7.758 -61.525 -23.564  1.00  0.00     0.143 C 
ATOM     33  C   UNL     1       9.434 -63.209 -22.909  1.00  0.00     0.143 C 
ENDBRANCH  27  31
ENDBRANCH  22  23
ENDBRANCH  21  22
ENDBRANCH  20  21
ENDBRANCH   1  20
TORSDOF 11
ENDMDL
MODEL 9
REMARK VINA RESULT:    -9.118      2.381      3.327
REMARK INTER + INTRA:         -15.489
REMARK INTER:                 -14.545
REMARK INTRA:                  -0.944
REMARK UNBOUND:                -0.775
REMARK SMILES COc1cc2oc(=O)c(OCCCCOc3cc(O)cc(N(C)C)c3)c(C)c2cc1OC
REMARK SMILES IDX 12 1 11 2 10 3 9 4 3 5 4 6 30 7 5 8 29 9 6 10 28 11 7 12
REMARK SMILES IDX 26 13 8 14 27 15 2 16 1 17 31 18 32 19 13 20 14 21 15 22
REMARK SMILES IDX 16 23 17 24 25 25 18 26 21 27 20 28 19 29 22 31 23 32 24 33
REMARK H PARENT 19 30
ROOT
ATOM      1  C   UNL     1      10.867 -57.809 -22.295  1.00  0.00     0.045 C 
ENDROOT
BRANCH   1   2
ATOM      2  C   UNL     1      11.390 -56.384 -22.446  1.00  0.00     0.230 C 
BRANCH   2   3
ATOM      3  O   UNL     1      10.663 -55.728 -23.497  1.00  0.00    -0.486 OA
BRANCH   3   4
ATOM      4  C   UNL     1      11.422 -54.667 -23.986  1.00  0.00     0.208 A 
ATOM      5  C   UNL     1      13.687 -50.302 -25.189  1.00  0.00     0.164 A 
ATOM      6  C   UNL     1      13.721 -51.601 -25.690  1.00  0.00     0.098 A 
ATOM      7  C   UNL     1      12.885 -50.016 -24.066  1.00  0.00     0.161 A 
ATOM      8  C   UNL     1      12.960 -52.597 -25.074  1.00  0.00     0.142 A 
ATOM      9  C   UNL     1      12.133 -51.039 -23.464  1.00  0.00     0.062 A 
ATOM     10  O   UNL     1      13.042 -53.877 -25.649  1.00  0.00    -0.420 OA
ATOM     11  C   UNL     1      12.160 -52.350 -23.963  1.00  0.00     0.028 A 
ATOM     12  C   UNL     1      12.309 -54.943 -25.155  1.00  0.00     0.379 A 
ATOM     13  C   UNL     1      11.374 -53.458 -23.392  1.00  0.00     0.010 A 
ATOM     14  O   UNL     1      12.384 -56.055 -25.670  1.00  0.00    -0.242 OA
ATOM     15  C   UNL     1      10.522 -53.193 -22.181  1.00  0.00     0.049 C 
BRANCH   5  16
ATOM     16  O   UNL     1      14.385 -49.246 -25.719  1.00  0.00    -0.493 OA
ATOM     17  C   UNL     1      14.832 -49.359 -27.063  1.00  0.00     0.278 C 
ENDBRANCH   5  16
BRANCH   7  18
ATOM     18  O   UNL     1      12.900 -48.712 -23.637  1.00  0.00    -0.493 OA
ATOM     19  C   UNL     1      13.803 -48.361 -22.599  1.00  0.00     0.278 C 
ENDBRANCH   7  18
ENDBRANCH   3   4
ENDBRANCH   2   3
ENDBRANCH   1   2
BRANCH   1  20
ATOM     20  C   UNL     1       9.611 -58.096 -23.128  1.00  0.00     0.045 C 
BRANCH  20  21
ATOM     21  C   UNL     1       9.477 -59.542 -23.618  1.00  0.00     0.229 C 
BRANCH  21  22
ATOM     22  O   UNL     1       9.602 -59.682 -25.031  1.00  0.00    -0.493 OA
BRANCH  22  23
ATOM     23  C   UNL     1      10.841 -59.863 -25.580  1.00  0.00     0.125 A 
ATOM     24  C   UNL     1      11.976 -60.314 -24.918  1.00  0.00     0.092 A 
ATOM     25  C   UNL     1      10.915 -59.551 -26.949  1.00  0.00     0.072 A 
ATOM     26  C   UNL     1      13.161 -60.435 -25.634  1.00  0.00     0.121 A 
ATOM     27  C   UNL     1      12.111 -59.631 -27.685  1.00  0.00     0.043 A 
ATOM     28  C   UNL     1      13.232 -60.105 -26.989  1.00  0.00     0.072 A 
BRANCH  26  29
ATOM     29  O   UNL     1      14.306 -60.879 -25.035  1.00  0.00    -0.508 OA
ATOM     30  H   UNL     1      14.708 -60.146 -24.540  1.00  0.00     0.293 HD
ENDBRANCH  26  29
BRANCH  27  31
ATOM     31  N   UNL     1      12.139 -59.287 -29.047  1.00  0.00    -0.377 N 
ATOM     32  C   UNL     1      12.102 -57.871 -29.408  1.00  0.00     0.143 C 
ATOM     33  C   UNL     1      11.370 -60.163 -29.938  1.00  0.00     0.143 C 
ENDBRANCH  27  31
ENDBRANCH  22  23
ENDBRANCH  21  22
ENDBRANCH  20  21
ENDBRANCH   1  20
TORSDOF 11
ENDMDL
