MODEL 1
REMARK VINA RESULT:   -10.267      0.000      0.000
REMARK INTER + INTRA:         -19.038
REMARK INTER:                 -18.069
REMARK INTRA:                  -0.969
REMARK UNBOUND:                -0.969
REMARK SMILES C#CCNc1[nH]c(=NCCCC[C@H]2CC[N@H+](Cc3ccccc3)CC2)c(C#N)cc1C#N
REMARK SMILES IDX 9 1 8 2 7 3 6 4 5 5 30 6 26 7 29 8 4 10 3 12 2 13 1 14 31 15
REMARK SMILES IDX 32 16 27 17 28 18 10 19 11 20 12 21 13 22 14 23 25 24 15 25
REMARK SMILES IDX 24 26 16 27 17 29 18 30 19 31 23 32 20 33 22 34 21 35
REMARK H PARENT 6 9 4 11 16 28
ROOT
ATOM      1  C   UNL     1      11.019 -52.534 -22.118  1.00  0.00     0.144 C 
ENDROOT
BRANCH   1   2
ATOM      2  N   UNL     1      11.765 -52.964 -23.289  1.00  0.00    -0.267 NA
BRANCH   2   3
ATOM      3  C   UNL     1      12.396 -52.145 -24.062  1.00  0.00     0.144 A 
ATOM      4  N   UNL     1      12.593 -50.798 -23.818  1.00  0.00    -0.325 N 
ATOM      5  C   UNL     1      13.304 -49.946 -24.645  1.00  0.00     0.123 A 
ATOM      6  C   UNL     1      13.817 -50.444 -25.802  1.00  0.00     0.094 A 
ATOM      7  C   UNL     1      12.974 -52.713 -25.333  1.00  0.00     0.096 A 
ATOM      8  C   UNL     1      13.641 -51.857 -26.128  1.00  0.00     0.046 A 
ATOM      9  H   UNL     1      12.275 -50.402 -22.950  1.00  0.00     0.170 HD
BRANCH   5  10
ATOM     10  N   UNL     1      13.431 -48.610 -24.288  1.00  0.00    -0.360 N 
ATOM     11  H   UNL     1      14.331 -48.258 -24.605  1.00  0.00     0.163 HD
BRANCH  10  12
ATOM     12  C   UNL     1      12.408 -47.617 -24.637  1.00  0.00     0.204 C 
BRANCH  12  13
ATOM     13  C   UNL     1      11.406 -47.451 -23.580  1.00  0.00    -0.085 C 
ATOM     14  C   UNL     1      10.579 -47.318 -22.718  1.00  0.00     0.006 C 
ENDBRANCH  12  13
ENDBRANCH  10  12
ENDBRANCH   5  10
BRANCH   6  15
ATOM     15  C   UNL     1      14.513 -49.627 -26.745  1.00  0.00     0.103 C 
ATOM     16  N   UNL     1      15.041 -48.914 -27.495  1.00  0.00    -0.192 NA
ENDBRANCH   6  15
BRANCH   7  17
ATOM     17  C   UNL     1      12.820 -54.087 -25.660  1.00  0.00     0.103 C 
ATOM     18  N   UNL     1      12.658 -55.198 -25.958  1.00  0.00    -0.192 NA
ENDBRANCH   7  17
ENDBRANCH   2   3
ENDBRANCH   1   2
BRANCH   1  19
ATOM     19  C   UNL     1      10.420 -53.759 -21.426  1.00  0.00     0.024 C 
BRANCH  19  20
ATOM     20  C   UNL     1      10.402 -54.978 -22.351  1.00  0.00     0.002 C 
BRANCH  20  21
ATOM     21  C   UNL     1      11.120 -56.169 -21.705  1.00  0.00     0.004 C 
BRANCH  21  22
ATOM     22  C   UNL     1      10.878 -57.537 -22.371  1.00  0.00    -0.000 C 
ATOM     23  C   UNL     1      11.032 -58.702 -21.379  1.00  0.00     0.065 C 
ATOM     24  C   UNL     1      11.753 -57.773 -23.609  1.00  0.00     0.065 C 
ATOM     25  C   UNL     1      10.735 -60.043 -22.044  1.00  0.00     0.262 C 
ATOM     26  C   UNL     1      11.451 -59.123 -24.255  1.00  0.00     0.262 C 
ATOM     27  N   UNL     1      11.649 -60.215 -23.233  1.00  0.00    -0.331 N 
ATOM     28  H   UNL     1      12.608 -60.117 -22.879  1.00  0.00     0.348 HD
BRANCH  27  29
ATOM     29  C   UNL     1      11.609 -61.612 -23.825  1.00  0.00     0.299 C 
BRANCH  29  30
ATOM     30  C   UNL     1      10.262 -62.282 -23.840  1.00  0.00     0.006 A 
ATOM     31  C   UNL     1       9.861 -63.106 -22.777  1.00  0.00     0.009 A 
ATOM     32  C   UNL     1       9.382 -62.096 -24.918  1.00  0.00     0.009 A 
ATOM     33  C   UNL     1       8.618 -63.742 -22.801  1.00  0.00     0.001 A 
ATOM     34  C   UNL     1       8.141 -62.734 -24.940  1.00  0.00     0.001 A 
ATOM     35  C   UNL     1       7.762 -63.558 -23.883  1.00  0.00     0.000 A 
ENDBRANCH  29  30
ENDBRANCH  27  29
ENDBRANCH  21  22
ENDBRANCH  20  21
ENDBRANCH  19  20
ENDBRANCH   1  19
TORSDOF 13
ENDMDL
MODEL 2
REMARK VINA RESULT:    -9.991      2.613     10.346
REMARK INTER + INTRA:         -18.553
REMARK INTER:                 -17.357
REMARK INTRA:                  -1.196
REMARK UNBOUND:                -0.969
REMARK SMILES C#CCNc1[nH]c(=NCCCC[C@H]2CC[N@H+](Cc3ccccc3)CC2)c(C#N)cc1C#N
REMARK SMILES IDX 9 1 8 2 7 3 6 4 5 5 30 6 26 7 29 8 4 10 3 12 2 13 1 14 31 15
REMARK SMILES IDX 32 16 27 17 28 18 10 19 11 20 12 21 13 22 14 23 25 24 15 25
REMARK SMILES IDX 24 26 16 27 17 29 18 30 19 31 23 32 20 33 22 34 21 35
REMARK H PARENT 6 9 4 11 16 28
ROOT
ATOM      1  C   UNL     1      10.391 -59.771 -21.834  1.00  0.00     0.144 C 
ENDROOT
BRANCH   1   2
ATOM      2  N   UNL     1      10.998 -60.721 -22.753  1.00  0.00    -0.267 NA
BRANCH   2   3
ATOM      3  C   UNL     1      10.603 -60.871 -23.972  1.00  0.00     0.144 A 
ATOM      4  N   UNL     1      10.876 -60.009 -25.019  1.00  0.00    -0.325 N 
ATOM      5  C   UNL     1      10.471 -60.210 -26.327  1.00  0.00     0.123 A 
ATOM      6  C   UNL     1       9.717 -61.305 -26.612  1.00  0.00     0.094 A 
ATOM      7  C   UNL     1       9.782 -62.098 -24.277  1.00  0.00     0.096 A 
ATOM      8  C   UNL     1       9.384 -62.256 -25.553  1.00  0.00     0.046 A 
ATOM      9  H   UNL     1      11.473 -59.216 -24.862  1.00  0.00     0.170 HD
BRANCH   5  10
ATOM     10  N   UNL     1      10.810 -59.268 -27.289  1.00  0.00    -0.360 N 
ATOM     11  H   UNL     1      10.694 -58.333 -26.904  1.00  0.00     0.163 HD
BRANCH  10  12
ATOM     12  C   UNL     1      12.098 -59.311 -27.992  1.00  0.00     0.204 C 
BRANCH  12  13
ATOM     13  C   UNL     1      11.939 -59.478 -29.439  1.00  0.00    -0.085 C 
ATOM     14  C   UNL     1      11.815 -59.609 -30.627  1.00  0.00     0.006 C 
ENDBRANCH  12  13
ENDBRANCH  10  12
ENDBRANCH   5  10
BRANCH   6  15
ATOM     15  C   UNL     1       9.203 -61.562 -27.920  1.00  0.00     0.103 C 
ATOM     16  N   UNL     1       8.838 -61.806 -28.995  1.00  0.00    -0.192 NA
ENDBRANCH   6  15
BRANCH   7  17
ATOM     17  C   UNL     1       9.458 -63.037 -23.262  1.00  0.00     0.103 C 
ATOM     18  N   UNL     1       9.239 -63.822 -22.434  1.00  0.00    -0.192 NA
ENDBRANCH   7  17
ENDBRANCH   2   3
ENDBRANCH   1   2
BRANCH   1  19
ATOM     19  C   UNL     1      11.376 -58.634 -21.564  1.00  0.00     0.024 C 
BRANCH  19  20
ATOM     20  C   UNL     1      11.358 -57.592 -22.685  1.00  0.00     0.002 C 
BRANCH  20  21
ATOM     21  C   UNL     1      10.113 -56.702 -22.589  1.00  0.00     0.004 C 
BRANCH  21  22
ATOM     22  C   UNL     1      10.318 -55.222 -22.969  1.00  0.00    -0.000 C 
ATOM     23  C   UNL     1      11.563 -55.014 -23.847  1.00  0.00     0.065 C 
ATOM     24  C   UNL     1      10.359 -54.284 -21.756  1.00  0.00     0.065 C 
ATOM     25  C   UNL     1      11.719 -53.553 -24.257  1.00  0.00     0.262 C 
ATOM     26  C   UNL     1      10.525 -52.828 -22.183  1.00  0.00     0.262 C 
ATOM     27  N   UNL     1      11.777 -52.698 -23.015  1.00  0.00    -0.331 N 
ATOM     28  H   UNL     1      12.549 -53.065 -22.445  1.00  0.00     0.348 HD
BRANCH  27  29
ATOM     29  C   UNL     1      12.170 -51.259 -23.294  1.00  0.00     0.299 C 
BRANCH  29  30
ATOM     30  C   UNL     1      13.385 -51.064 -24.160  1.00  0.00     0.006 A 
ATOM     31  C   UNL     1      14.668 -51.346 -23.666  1.00  0.00     0.009 A 
ATOM     32  C   UNL     1      13.257 -50.595 -25.477  1.00  0.00     0.009 A 
ATOM     33  C   UNL     1      15.796 -51.146 -24.464  1.00  0.00     0.001 A 
ATOM     34  C   UNL     1      14.386 -50.397 -26.273  1.00  0.00     0.001 A 
ATOM     35  C   UNL     1      15.654 -50.669 -25.765  1.00  0.00     0.000 A 
ENDBRANCH  29  30
ENDBRANCH  27  29
ENDBRANCH  21  22
ENDBRANCH  20  21
ENDBRANCH  19  20
ENDBRANCH   1  19
TORSDOF 13
ENDMDL
MODEL 3
REMARK VINA RESULT:    -9.551      1.471      2.225
REMARK INTER + INTRA:         -17.779
REMARK INTER:                 -16.786
REMARK INTRA:                  -0.993
REMARK UNBOUND:                -0.969
REMARK SMILES C#CCNc1[nH]c(=NCCCC[C@H]2CC[N@H+](Cc3ccccc3)CC2)c(C#N)cc1C#N
REMARK SMILES IDX 9 1 8 2 7 3 6 4 5 5 30 6 26 7 29 8 4 10 3 12 2 13 1 14 31 15
REMARK SMILES IDX 32 16 27 17 28 18 10 19 11 20 12 21 13 22 14 23 25 24 15 25
REMARK SMILES IDX 24 26 16 27 17 29 18 30 19 31 23 32 20 33 22 34 21 35
REMARK H PARENT 6 9 4 11 16 28
ROOT
ATOM      1  C   UNL     1      10.271 -52.399 -22.003  1.00  0.00     0.144 C 
ENDROOT
BRANCH   1   2
ATOM      2  N   UNL     1      11.623 -51.874 -22.103  1.00  0.00    -0.267 NA
BRANCH   2   3
ATOM      3  C   UNL     1      11.897 -50.734 -22.642  1.00  0.00     0.144 A 
ATOM      4  N   UNL     1      11.639 -49.495 -22.085  1.00  0.00    -0.325 N 
ATOM      5  C   UNL     1      11.974 -48.286 -22.667  1.00  0.00     0.123 A 
ATOM      6  C   UNL     1      12.563 -48.298 -23.893  1.00  0.00     0.094 A 
ATOM      7  C   UNL     1      12.564 -50.762 -23.994  1.00  0.00     0.096 A 
ATOM      8  C   UNL     1      12.860 -49.572 -24.547  1.00  0.00     0.046 A 
ATOM      9  H   UNL     1      11.252 -49.443 -21.157  1.00  0.00     0.170 HD
BRANCH   5  10
ATOM     10  N   UNL     1      11.660 -47.108 -22.003  1.00  0.00    -0.360 N 
ATOM     11  H   UNL     1      12.389 -46.419 -22.172  1.00  0.00     0.163 HD
BRANCH  10  12
ATOM     12  C   UNL     1      10.362 -46.445 -22.179  1.00  0.00     0.204 C 
BRANCH  12  13
ATOM     13  C   UNL     1      10.497 -45.085 -22.708  1.00  0.00    -0.085 C 
ATOM     14  C   UNL     1      10.616 -43.969 -23.140  1.00  0.00     0.006 C 
ENDBRANCH  12  13
ENDBRANCH  10  12
ENDBRANCH   5  10
BRANCH   6  15
ATOM     15  C   UNL     1      12.890 -47.099 -24.598  1.00  0.00     0.103 C 
ATOM     16  N   UNL     1      13.136 -46.152 -25.224  1.00  0.00    -0.192 NA
ENDBRANCH   6  15
BRANCH   7  17
ATOM     17  C   UNL     1      12.869 -51.992 -24.639  1.00  0.00     0.103 C 
ATOM     18  N   UNL     1      13.164 -52.981 -25.170  1.00  0.00    -0.192 NA
ENDBRANCH   7  17
ENDBRANCH   2   3
ENDBRANCH   1   2
BRANCH   1  19
ATOM     19  C   UNL     1      10.302 -53.732 -21.256  1.00  0.00     0.024 C 
BRANCH  19  20
ATOM     20  C   UNL     1       9.941 -54.903 -22.173  1.00  0.00     0.002 C 
BRANCH  20  21
ATOM     21  C   UNL     1      11.201 -55.557 -22.752  1.00  0.00     0.004 C 
BRANCH  21  22
ATOM     22  C   UNL     1      11.060 -57.037 -23.157  1.00  0.00    -0.000 C 
ATOM     23  C   UNL     1      11.197 -57.985 -21.955  1.00  0.00     0.065 C 
ATOM     24  C   UNL     1      12.021 -57.455 -24.277  1.00  0.00     0.065 C 
ATOM     25  C   UNL     1      11.001 -59.441 -22.366  1.00  0.00     0.262 C 
ATOM     26  C   UNL     1      11.818 -58.916 -24.670  1.00  0.00     0.262 C 
ATOM     27  N   UNL     1      11.995 -59.784 -23.448  1.00  0.00    -0.331 N 
ATOM     28  H   UNL     1      12.925 -59.570 -23.067  1.00  0.00     0.348 HD
BRANCH  27  29
ATOM     29  C   UNL     1      12.052 -61.267 -23.765  1.00  0.00     0.299 C 
BRANCH  29  30
ATOM     30  C   UNL     1      10.725 -61.970 -23.865  1.00  0.00     0.006 A 
ATOM     31  C   UNL     1       9.899 -61.781 -24.985  1.00  0.00     0.009 A 
ATOM     32  C   UNL     1      10.289 -62.826 -22.842  1.00  0.00     0.009 A 
ATOM     33  C   UNL     1       8.660 -62.419 -25.068  1.00  0.00     0.001 A 
ATOM     34  C   UNL     1       9.050 -63.461 -22.928  1.00  0.00     0.001 A 
ATOM     35  C   UNL     1       8.235 -63.255 -24.039  1.00  0.00     0.000 A 
ENDBRANCH  29  30
ENDBRANCH  27  29
ENDBRANCH  21  22
ENDBRANCH  20  21
ENDBRANCH  19  20
ENDBRANCH   1  19
TORSDOF 13
ENDMDL
MODEL 4
REMARK VINA RESULT:    -9.465      1.517      3.384
REMARK INTER + INTRA:         -17.627
REMARK INTER:                 -16.428
REMARK INTRA:                  -1.199
REMARK UNBOUND:                -0.969
REMARK SMILES C#CCNc1[nH]c(=NCCCC[C@H]2CC[N@H+](Cc3ccccc3)CC2)c(C#N)cc1C#N
REMARK SMILES IDX 9 1 8 2 7 3 6 4 5 5 30 6 26 7 29 8 4 10 3 12 2 13 1 14 31 15
REMARK SMILES IDX 32 16 27 17 28 18 10 19 11 20 12 21 13 22 14 23 25 24 15 25
REMARK SMILES IDX 24 26 16 27 17 29 18 30 19 31 23 32 20 33 22 34 21 35
REMARK H PARENT 6 9 4 11 16 28
ROOT
ATOM      1  C   UNL     1      10.356 -52.253 -22.434  1.00  0.00     0.144 C 
ENDROOT
BRANCH   1   2
ATOM      2  N   UNL     1      11.536 -51.403 -22.400  1.00  0.00    -0.267 NA
BRANCH   2   3
ATOM      3  C   UNL     1      12.240 -51.135 -23.448  1.00  0.00     0.144 A 
ATOM      4  N   UNL     1      12.826 -52.066 -24.285  1.00  0.00    -0.325 N 
ATOM      5  C   UNL     1      13.548 -51.755 -25.424  1.00  0.00     0.123 A 
ATOM      6  C   UNL     1      13.738 -50.444 -25.733  1.00  0.00     0.094 A 
ATOM      7  C   UNL     1      12.429 -49.678 -23.788  1.00  0.00     0.096 A 
ATOM      8  C   UNL     1      13.154 -49.404 -24.888  1.00  0.00     0.046 A 
ATOM      9  H   UNL     1      12.666 -53.046 -24.122  1.00  0.00     0.170 HD
BRANCH   5  10
ATOM     10  N   UNL     1      14.087 -52.785 -26.183  1.00  0.00    -0.360 N 
ATOM     11  H   UNL     1      14.470 -52.406 -27.046  1.00  0.00     0.163 HD
BRANCH  10  12
ATOM     12  C   UNL     1      15.070 -53.722 -25.626  1.00  0.00     0.204 C 
BRANCH  12  13
ATOM     13  C   UNL     1      16.342 -53.069 -25.301  1.00  0.00    -0.085 C 
ATOM     14  C   UNL     1      17.386 -52.539 -25.028  1.00  0.00     0.006 C 
ENDBRANCH  12  13
ENDBRANCH  10  12
ENDBRANCH   5  10
BRANCH   6  15
ATOM     15  C   UNL     1      14.520 -50.027 -26.854  1.00  0.00     0.103 C 
ATOM     16  N   UNL     1      15.203 -49.674 -27.724  1.00  0.00    -0.192 NA
ENDBRANCH   6  15
BRANCH   7  17
ATOM     17  C   UNL     1      11.860 -48.655 -22.983  1.00  0.00     0.103 C 
ATOM     18  N   UNL     1      11.436 -47.792 -22.332  1.00  0.00    -0.192 NA
ENDBRANCH   7  17
ENDBRANCH   2   3
ENDBRANCH   1   2
BRANCH   1  19
ATOM     19  C   UNL     1      10.632 -53.528 -21.638  1.00  0.00     0.024 C 
BRANCH  19  20
ATOM     20  C   UNL     1      10.950 -54.711 -22.556  1.00  0.00     0.002 C 
BRANCH  20  21
ATOM     21  C   UNL     1      10.569 -56.040 -21.893  1.00  0.00     0.004 C 
BRANCH  21  22
ATOM     22  C   UNL     1      10.859 -57.307 -22.721  1.00  0.00    -0.000 C 
ATOM     23  C   UNL     1       9.572 -57.985 -23.217  1.00  0.00     0.065 C 
ATOM     24  C   UNL     1      11.747 -58.321 -21.988  1.00  0.00     0.065 C 
ATOM     25  C   UNL     1       9.880 -59.205 -24.079  1.00  0.00     0.262 C 
ATOM     26  C   UNL     1      12.037 -59.539 -22.861  1.00  0.00     0.262 C 
ATOM     27  N   UNL     1      10.731 -60.165 -23.284  1.00  0.00    -0.331 N 
ATOM     28  H   UNL     1      10.211 -60.372 -22.423  1.00  0.00     0.348 HD
BRANCH  27  29
ATOM     29  C   UNL     1      10.899 -61.517 -23.954  1.00  0.00     0.299 C 
BRANCH  29  30
ATOM     30  C   UNL     1       9.638 -62.315 -24.149  1.00  0.00     0.006 A 
ATOM     31  C   UNL     1       9.115 -63.093 -23.104  1.00  0.00     0.009 A 
ATOM     32  C   UNL     1       8.963 -62.298 -25.380  1.00  0.00     0.009 A 
ATOM     33  C   UNL     1       7.957 -63.848 -23.292  1.00  0.00     0.001 A 
ATOM     34  C   UNL     1       7.805 -63.054 -25.565  1.00  0.00     0.001 A 
ATOM     35  C   UNL     1       7.305 -63.831 -24.522  1.00  0.00     0.000 A 
ENDBRANCH  29  30
ENDBRANCH  27  29
ENDBRANCH  21  22
ENDBRANCH  20  21
ENDBRANCH  19  20
ENDBRANCH   1  19
TORSDOF 13
ENDMDL
MODEL 5
REMARK VINA RESULT:    -9.431      1.748      3.291
REMARK INTER + INTRA:         -17.568
REMARK INTER:                 -16.545
REMARK INTRA:                  -1.024
REMARK UNBOUND:                -0.969
REMARK SMILES C#CCNc1[nH]c(=NCCCC[C@H]2CC[N@H+](Cc3ccccc3)CC2)c(C#N)cc1C#N
REMARK SMILES IDX 9 1 8 2 7 3 6 4 5 5 30 6 26 7 29 8 4 10 3 12 2 13 1 14 31 15
REMARK SMILES IDX 32 16 27 17 28 18 10 19 11 20 12 21 13 22 14 23 25 24 15 25
REMARK SMILES IDX 24 26 16 27 17 29 18 30 19 31 23 32 20 33 22 34 21 35
REMARK H PARENT 6 9 4 11 16 28
ROOT
ATOM      1  C   UNL     1      10.958 -53.237 -23.070  1.00  0.00     0.144 C 
ENDROOT
BRANCH   1   2
ATOM      2  N   UNL     1      11.493 -52.315 -22.081  1.00  0.00    -0.267 NA
BRANCH   2   3
ATOM      3  C   UNL     1      12.094 -51.217 -22.395  1.00  0.00     0.144 A 
ATOM      4  N   UNL     1      13.425 -51.098 -22.748  1.00  0.00    -0.325 N 
ATOM      5  C   UNL     1      14.038 -49.914 -23.116  1.00  0.00     0.123 A 
ATOM      6  C   UNL     1      13.304 -48.770 -23.095  1.00  0.00     0.094 A 
ATOM      7  C   UNL     1      11.263 -49.959 -22.384  1.00  0.00     0.096 A 
ATOM      8  C   UNL     1      11.891 -48.818 -22.725  1.00  0.00     0.046 A 
ATOM      9  H   UNL     1      13.990 -51.927 -22.826  1.00  0.00     0.170 HD
BRANCH   5  10
ATOM     10  N   UNL     1      15.386 -49.928 -23.449  1.00  0.00    -0.360 N 
ATOM     11  H   UNL     1      15.923 -50.314 -22.676  1.00  0.00     0.163 HD
BRANCH  10  12
ATOM     12  C   UNL     1      15.869 -50.549 -24.689  1.00  0.00     0.204 C 
BRANCH  12  13
ATOM     13  C   UNL     1      14.824 -50.636 -25.713  1.00  0.00    -0.085 C 
ATOM     14  C   UNL     1      13.970 -50.715 -26.556  1.00  0.00     0.006 C 
ENDBRANCH  12  13
ENDBRANCH  10  12
ENDBRANCH   5  10
BRANCH   6  15
ATOM     15  C   UNL     1      13.866 -47.492 -23.401  1.00  0.00     0.103 C 
ATOM     16  N   UNL     1      14.362 -46.461 -23.599  1.00  0.00    -0.192 NA
ENDBRANCH   6  15
BRANCH   7  17
ATOM     17  C   UNL     1       9.886 -49.989 -22.036  1.00  0.00     0.103 C 
ATOM     18  N   UNL     1       8.763 -49.966 -21.740  1.00  0.00    -0.192 NA
ENDBRANCH   7  17
ENDBRANCH   2   3
ENDBRANCH   1   2
BRANCH   1  19
ATOM     19  C   UNL     1       9.860 -54.084 -22.426  1.00  0.00     0.024 C 
BRANCH  19  20
ATOM     20  C   UNL     1      10.041 -55.572 -22.732  1.00  0.00     0.002 C 
BRANCH  20  21
ATOM     21  C   UNL     1      11.243 -56.148 -21.974  1.00  0.00     0.004 C 
BRANCH  21  22
ATOM     22  C   UNL     1      11.537 -57.641 -22.220  1.00  0.00    -0.000 C 
ATOM     23  C   UNL     1      11.789 -57.947 -23.706  1.00  0.00     0.065 C 
ATOM     24  C   UNL     1      10.455 -58.573 -21.661  1.00  0.00     0.065 C 
ATOM     25  C   UNL     1      12.131 -59.418 -23.922  1.00  0.00     0.262 C 
ATOM     26  C   UNL     1      10.808 -60.040 -21.895  1.00  0.00     0.262 C 
ATOM     27  N   UNL     1      11.013 -60.268 -23.372  1.00  0.00    -0.331 N 
ATOM     28  H   UNL     1      10.153 -59.957 -23.840  1.00  0.00     0.348 HD
BRANCH  27  29
ATOM     29  C   UNL     1      11.133 -61.734 -23.745  1.00  0.00     0.299 C 
BRANCH  29  30
ATOM     30  C   UNL     1       9.837 -62.481 -23.907  1.00  0.00     0.006 A 
ATOM     31  C   UNL     1       9.079 -62.352 -25.082  1.00  0.00     0.009 A 
ATOM     32  C   UNL     1       9.360 -63.318 -22.886  1.00  0.00     0.009 A 
ATOM     33  C   UNL     1       7.867 -63.030 -25.223  1.00  0.00     0.001 A 
ATOM     34  C   UNL     1       8.148 -63.994 -23.030  1.00  0.00     0.001 A 
ATOM     35  C   UNL     1       7.401 -63.847 -24.196  1.00  0.00     0.000 A 
ENDBRANCH  29  30
ENDBRANCH  27  29
ENDBRANCH  21  22
ENDBRANCH  20  21
ENDBRANCH  19  20
ENDBRANCH   1  19
TORSDOF 13
ENDMDL
MODEL 6
REMARK VINA RESULT:    -9.392      2.453     11.270
REMARK INTER + INTRA:         -17.499
REMARK INTER:                 -16.792
REMARK INTRA:                  -0.708
REMARK UNBOUND:                -0.969
REMARK SMILES C#CCNc1[nH]c(=NCCCC[C@H]2CC[N@H+](Cc3ccccc3)CC2)c(C#N)cc1C#N
REMARK SMILES IDX 9 1 8 2 7 3 6 4 5 5 30 6 26 7 29 8 4 10 3 12 2 13 1 14 31 15
REMARK SMILES IDX 32 16 27 17 28 18 10 19 11 20 12 21 13 22 14 23 25 24 15 25
REMARK SMILES IDX 24 26 16 27 17 29 18 30 19 31 23 32 20 33 22 34 21 35
REMARK H PARENT 6 9 4 11 16 28
ROOT
ATOM      1  C   UNL     1      11.371 -57.537 -21.718  1.00  0.00     0.144 C 
ENDROOT
BRANCH   1   2
ATOM      2  N   UNL     1      11.579 -58.952 -21.980  1.00  0.00    -0.267 NA
BRANCH   2   3
ATOM      3  C   UNL     1      10.731 -59.679 -22.628  1.00  0.00     0.144 A 
ATOM      4  N   UNL     1       9.363 -59.689 -22.433  1.00  0.00    -0.325 N 
ATOM      5  C   UNL     1       8.470 -60.452 -23.165  1.00  0.00     0.123 A 
ATOM      6  C   UNL     1       8.961 -61.286 -24.119  1.00  0.00     0.094 A 
ATOM      7  C   UNL     1      11.288 -60.587 -23.695  1.00  0.00     0.096 A 
ATOM      8  C   UNL     1      10.399 -61.334 -24.376  1.00  0.00     0.046 A 
ATOM      9  H   UNL     1       8.954 -59.049 -21.773  1.00  0.00     0.170 HD
BRANCH   5  10
ATOM     10  N   UNL     1       7.116 -60.372 -22.870  1.00  0.00    -0.360 N 
ATOM     11  H   UNL     1       6.992 -60.284 -21.864  1.00  0.00     0.163 HD
BRANCH  10  12
ATOM     12  C   UNL     1       6.241 -59.388 -23.521  1.00  0.00     0.204 C 
BRANCH  12  13
ATOM     13  C   UNL     1       5.079 -59.044 -22.697  1.00  0.00    -0.085 C 
ATOM     14  C   UNL     1       4.123 -58.769 -22.022  1.00  0.00     0.006 C 
ENDBRANCH  12  13
ENDBRANCH  10  12
ENDBRANCH   5  10
BRANCH   6  15
ATOM     15  C   UNL     1       8.122 -62.155 -24.883  1.00  0.00     0.103 C 
ATOM     16  N   UNL     1       7.420 -62.887 -25.448  1.00  0.00    -0.192 NA
ENDBRANCH   6  15
BRANCH   7  17
ATOM     17  C   UNL     1      12.682 -60.639 -23.964  1.00  0.00     0.103 C 
ATOM     18  N   UNL     1      13.830 -60.665 -24.137  1.00  0.00    -0.192 NA
ENDBRANCH   7  17
ENDBRANCH   2   3
ENDBRANCH   1   2
BRANCH   1  19
ATOM     19  C   UNL     1      10.605 -56.916 -22.886  1.00  0.00     0.024 C 
BRANCH  19  20
ATOM     20  C   UNL     1      11.293 -55.651 -23.405  1.00  0.00     0.002 C 
BRANCH  20  21
ATOM     21  C   UNL     1      10.462 -54.402 -23.086  1.00  0.00     0.004 C 
BRANCH  21  22
ATOM     22  C   UNL     1      11.262 -53.163 -22.640  1.00  0.00    -0.000 C 
ATOM     23  C   UNL     1      10.352 -52.039 -22.119  1.00  0.00     0.065 C 
ATOM     24  C   UNL     1      12.204 -52.625 -23.726  1.00  0.00     0.065 C 
ATOM     25  C   UNL     1      11.164 -50.843 -21.633  1.00  0.00     0.262 C 
ATOM     26  C   UNL     1      13.001 -51.423 -23.226  1.00  0.00     0.262 C 
ATOM     27  N   UNL     1      12.043 -50.355 -22.759  1.00  0.00    -0.331 N 
ATOM     28  H   UNL     1      11.418 -50.154 -23.549  1.00  0.00     0.348 HD
BRANCH  27  29
ATOM     29  C   UNL     1      12.716 -49.027 -22.465  1.00  0.00     0.299 C 
BRANCH  29  30
ATOM     30  C   UNL     1      11.976 -47.799 -22.922  1.00  0.00     0.006 A 
ATOM     31  C   UNL     1      11.093 -47.133 -22.058  1.00  0.00     0.009 A 
ATOM     32  C   UNL     1      12.154 -47.299 -24.221  1.00  0.00     0.009 A 
ATOM     33  C   UNL     1      10.393 -46.005 -22.490  1.00  0.00     0.001 A 
ATOM     34  C   UNL     1      11.453 -46.171 -24.650  1.00  0.00     0.001 A 
ATOM     35  C   UNL     1      10.571 -45.527 -23.785  1.00  0.00     0.000 A 
ENDBRANCH  29  30
ENDBRANCH  27  29
ENDBRANCH  21  22
ENDBRANCH  20  21
ENDBRANCH  19  20
ENDBRANCH   1  19
TORSDOF 13
ENDMDL
MODEL 7
REMARK VINA RESULT:    -9.194      1.743      2.401
REMARK INTER + INTRA:         -17.150
REMARK INTER:                 -16.116
REMARK INTRA:                  -1.034
REMARK UNBOUND:                -0.969
REMARK SMILES C#CCNc1[nH]c(=NCCCC[C@H]2CC[N@H+](Cc3ccccc3)CC2)c(C#N)cc1C#N
REMARK SMILES IDX 9 1 8 2 7 3 6 4 5 5 30 6 26 7 29 8 4 10 3 12 2 13 1 14 31 15
REMARK SMILES IDX 32 16 27 17 28 18 10 19 11 20 12 21 13 22 14 23 25 24 15 25
REMARK SMILES IDX 24 26 16 27 17 29 18 30 19 31 23 32 20 33 22 34 21 35
REMARK H PARENT 6 9 4 11 16 28
ROOT
ATOM      1  C   UNL     1      10.639 -52.346 -22.070  1.00  0.00     0.144 C 
ENDROOT
BRANCH   1   2
ATOM      2  N   UNL     1      11.940 -51.734 -22.287  1.00  0.00    -0.267 NA
BRANCH   2   3
ATOM      3  C   UNL     1      12.087 -50.558 -22.799  1.00  0.00     0.144 A 
ATOM      4  N   UNL     1      11.770 -49.364 -22.179  1.00  0.00    -0.325 N 
ATOM      5  C   UNL     1      11.970 -48.113 -22.736  1.00  0.00     0.123 A 
ATOM      6  C   UNL     1      12.475 -48.037 -23.996  1.00  0.00     0.094 A 
ATOM      7  C   UNL     1      12.662 -50.488 -24.191  1.00  0.00     0.096 A 
ATOM      8  C   UNL     1      12.826 -49.260 -24.716  1.00  0.00     0.046 A 
ATOM      9  H   UNL     1      11.444 -49.373 -21.228  1.00  0.00     0.170 HD
BRANCH   5  10
ATOM     10  N   UNL     1      11.610 -46.986 -22.008  1.00  0.00    -0.360 N 
ATOM     11  H   UNL     1      10.771 -47.186 -21.468  1.00  0.00     0.163 HD
BRANCH  10  12
ATOM     12  C   UNL     1      12.562 -46.298 -21.128  1.00  0.00     0.204 C 
BRANCH  12  13
ATOM     13  C   UNL     1      12.822 -44.920 -21.555  1.00  0.00    -0.085 C 
ATOM     14  C   UNL     1      13.029 -43.791 -21.910  1.00  0.00     0.006 C 
ENDBRANCH  12  13
ENDBRANCH  10  12
ENDBRANCH   5  10
BRANCH   6  15
ATOM     15  C   UNL     1      12.659 -46.793 -24.674  1.00  0.00     0.103 C 
ATOM     16  N   UNL     1      12.871 -45.795 -25.229  1.00  0.00    -0.192 NA
ENDBRANCH   6  15
BRANCH   7  17
ATOM     17  C   UNL     1      13.018 -51.667 -24.900  1.00  0.00     0.103 C 
ATOM     18  N   UNL     1      13.262 -52.633 -25.497  1.00  0.00    -0.192 NA
ENDBRANCH   7  17
ENDBRANCH   2   3
ENDBRANCH   1   2
BRANCH   1  19
ATOM     19  C   UNL     1      10.832 -53.723 -21.434  1.00  0.00     0.024 C 
BRANCH  19  20
ATOM     20  C   UNL     1       9.732 -54.701 -21.858  1.00  0.00     0.002 C 
BRANCH  20  21
ATOM     21  C   UNL     1      10.187 -55.559 -23.044  1.00  0.00     0.004 C 
BRANCH  21  22
ATOM     22  C   UNL     1      10.413 -57.053 -22.741  1.00  0.00    -0.000 C 
ATOM     23  C   UNL     1      11.669 -57.604 -23.436  1.00  0.00     0.065 C 
ATOM     24  C   UNL     1       9.196 -57.929 -23.067  1.00  0.00     0.065 C 
ATOM     25  C   UNL     1      11.905 -59.069 -23.080  1.00  0.00     0.262 C 
ATOM     26  C   UNL     1       9.453 -59.392 -22.715  1.00  0.00     0.262 C 
ATOM     27  N   UNL     1      10.680 -59.868 -23.452  1.00  0.00    -0.331 N 
ATOM     28  H   UNL     1      10.511 -59.693 -24.450  1.00  0.00     0.348 HD
BRANCH  27  29
ATOM     29  C   UNL     1      10.892 -61.369 -23.365  1.00  0.00     0.299 C 
BRANCH  29  30
ATOM     30  C   UNL     1       9.707 -62.223 -23.725  1.00  0.00     0.006 A 
ATOM     31  C   UNL     1       9.175 -63.135 -22.799  1.00  0.00     0.009 A 
ATOM     32  C   UNL     1       9.112 -62.124 -24.992  1.00  0.00     0.009 A 
ATOM     33  C   UNL     1       8.087 -63.940 -23.140  1.00  0.00     0.001 A 
ATOM     34  C   UNL     1       8.024 -62.931 -25.330  1.00  0.00     0.001 A 
ATOM     35  C   UNL     1       7.516 -63.840 -24.406  1.00  0.00     0.000 A 
ENDBRANCH  29  30
ENDBRANCH  27  29
ENDBRANCH  21  22
ENDBRANCH  20  21
ENDBRANCH  19  20
ENDBRANCH   1  19
TORSDOF 13
ENDMDL
MODEL 8
REMARK VINA RESULT:    -9.003      1.673      3.165
REMARK INTER + INTRA:         -16.814
REMARK INTER:                 -16.065
REMARK INTRA:                  -0.748
REMARK UNBOUND:                -0.969
REMARK SMILES C#CCNc1[nH]c(=NCCCC[C@H]2CC[N@H+](Cc3ccccc3)CC2)c(C#N)cc1C#N
REMARK SMILES IDX 9 1 8 2 7 3 6 4 5 5 30 6 26 7 29 8 4 10 3 12 2 13 1 14 31 15
REMARK SMILES IDX 32 16 27 17 28 18 10 19 11 20 12 21 13 22 14 23 25 24 15 25
REMARK SMILES IDX 24 26 16 27 17 29 18 30 19 31 23 32 20 33 22 34 21 35
REMARK H PARENT 6 9 4 11 16 28
ROOT
ATOM      1  C   UNL     1      12.154 -53.129 -24.617  1.00  0.00     0.144 C 
ENDROOT
BRANCH   1   2
ATOM      2  N   UNL     1      12.124 -52.527 -23.294  1.00  0.00    -0.267 NA
BRANCH   2   3
ATOM      3  C   UNL     1      11.820 -51.289 -23.091  1.00  0.00     0.144 A 
ATOM      4  N   UNL     1      12.637 -50.205 -23.356  1.00  0.00    -0.325 N 
ATOM      5  C   UNL     1      12.275 -48.884 -23.164  1.00  0.00     0.123 A 
ATOM      6  C   UNL     1      11.049 -48.616 -22.640  1.00  0.00     0.094 A 
ATOM      7  C   UNL     1      10.451 -51.006 -22.526  1.00  0.00     0.096 A 
ATOM      8  C   UNL     1      10.135 -49.713 -22.328  1.00  0.00     0.046 A 
ATOM      9  H   UNL     1      13.530 -50.356 -23.792  1.00  0.00     0.170 HD
BRANCH   5  10
ATOM     10  N   UNL     1      13.188 -47.883 -23.469  1.00  0.00    -0.360 N 
ATOM     11  H   UNL     1      14.124 -48.187 -23.207  1.00  0.00     0.163 HD
BRANCH  10  12
ATOM     12  C   UNL     1      13.265 -47.291 -24.810  1.00  0.00     0.204 C 
BRANCH  12  13
ATOM     13  C   UNL     1      13.651 -45.877 -24.775  1.00  0.00    -0.085 C 
ATOM     14  C   UNL     1      13.959 -44.716 -24.748  1.00  0.00     0.006 C 
ENDBRANCH  12  13
ENDBRANCH  10  12
ENDBRANCH   5  10
BRANCH   6  15
ATOM     15  C   UNL     1      10.612 -47.287 -22.350  1.00  0.00     0.103 C 
ATOM     16  N   UNL     1      10.201 -46.221 -22.140  1.00  0.00    -0.192 NA
ENDBRANCH   6  15
BRANCH   7  17
ATOM     17  C   UNL     1       9.547 -52.060 -22.227  1.00  0.00     0.103 C 
ATOM     18  N   UNL     1       8.771 -52.888 -21.977  1.00  0.00    -0.192 NA
ENDBRANCH   7  17
ENDBRANCH   2   3
ENDBRANCH   1   2
BRANCH   1  19
ATOM     19  C   UNL     1      12.013 -54.646 -24.482  1.00  0.00     0.024 C 
BRANCH  19  20
ATOM     20  C   UNL     1      10.846 -55.026 -23.567  1.00  0.00     0.002 C 
BRANCH  20  21
ATOM     21  C   UNL     1      11.273 -56.084 -22.542  1.00  0.00     0.004 C 
BRANCH  21  22
ATOM     22  C   UNL     1      10.952 -57.544 -22.916  1.00  0.00    -0.000 C 
ATOM     23  C   UNL     1      11.043 -58.488 -21.706  1.00  0.00     0.065 C 
ATOM     24  C   UNL     1      11.808 -58.077 -24.072  1.00  0.00     0.065 C 
ATOM     25  C   UNL     1      10.670 -59.918 -22.084  1.00  0.00     0.262 C 
ATOM     26  C   UNL     1      11.429 -59.512 -24.431  1.00  0.00     0.262 C 
ATOM     27  N   UNL     1      11.569 -60.380 -23.204  1.00  0.00    -0.331 N 
ATOM     28  H   UNL     1      12.533 -60.265 -22.870  1.00  0.00     0.348 HD
BRANCH  27  29
ATOM     29  C   UNL     1      11.449 -61.864 -23.498  1.00  0.00     0.299 C 
BRANCH  29  30
ATOM     30  C   UNL     1      10.060 -62.369 -23.781  1.00  0.00     0.006 A 
ATOM     31  C   UNL     1       9.409 -62.041 -24.981  1.00  0.00     0.009 A 
ATOM     32  C   UNL     1       9.388 -63.175 -22.849  1.00  0.00     0.009 A 
ATOM     33  C   UNL     1       8.113 -62.494 -25.234  1.00  0.00     0.001 A 
ATOM     34  C   UNL     1       8.092 -63.627 -23.104  1.00  0.00     0.001 A 
ATOM     35  C   UNL     1       7.455 -63.283 -24.294  1.00  0.00     0.000 A 
ENDBRANCH  29  30
ENDBRANCH  27  29
ENDBRANCH  21  22
ENDBRANCH  20  21
ENDBRANCH  19  20
ENDBRANCH   1  19
TORSDOF 13
ENDMDL
MODEL 9
REMARK VINA RESULT:    -8.823      2.184     10.745
REMARK INTER + INTRA:         -16.497
REMARK INTER:                 -15.870
REMARK INTRA:                  -0.626
REMARK UNBOUND:                -0.969
REMARK SMILES C#CCNc1[nH]c(=NCCCC[C@H]2CC[N@H+](Cc3ccccc3)CC2)c(C#N)cc1C#N
REMARK SMILES IDX 9 1 8 2 7 3 6 4 5 5 30 6 26 7 29 8 4 10 3 12 2 13 1 14 31 15
REMARK SMILES IDX 32 16 27 17 28 18 10 19 11 20 12 21 13 22 14 23 25 24 15 25
REMARK SMILES IDX 24 26 16 27 17 29 18 30 19 31 23 32 20 33 22 34 21 35
REMARK H PARENT 6 9 4 11 16 28
ROOT
ATOM      1  C   UNL     1      11.781 -58.387 -22.230  1.00  0.00     0.144 C 
ENDROOT
BRANCH   1   2
ATOM      2  N   UNL     1      11.306 -59.740 -21.989  1.00  0.00    -0.267 NA
BRANCH   2   3
ATOM      3  C   UNL     1      10.561 -60.383 -22.824  1.00  0.00     0.144 A 
ATOM      4  N   UNL     1       9.191 -60.544 -22.724  1.00  0.00    -0.325 N 
ATOM      5  C   UNL     1       8.409 -61.208 -23.651  1.00  0.00     0.123 A 
ATOM      6  C   UNL     1       9.019 -61.786 -24.720  1.00  0.00     0.094 A 
ATOM      7  C   UNL     1      11.249 -61.004 -24.013  1.00  0.00     0.096 A 
ATOM      8  C   UNL     1      10.466 -61.663 -24.887  1.00  0.00     0.046 A 
ATOM      9  H   UNL     1       8.695 -60.089 -21.977  1.00  0.00     0.170 HD
BRANCH   5  10
ATOM     10  N   UNL     1       7.040 -61.300 -23.436  1.00  0.00    -0.360 N 
ATOM     11  H   UNL     1       6.857 -61.991 -22.711  1.00  0.00     0.163 HD
BRANCH  10  12
ATOM     12  C   UNL     1       6.223 -60.115 -23.148  1.00  0.00     0.204 C 
BRANCH  12  13
ATOM     13  C   UNL     1       6.836 -58.880 -23.644  1.00  0.00    -0.085 C 
ATOM     14  C   UNL     1       7.347 -57.871 -24.052  1.00  0.00     0.006 C 
ENDBRANCH  12  13
ENDBRANCH  10  12
ENDBRANCH   5  10
BRANCH   6  15
ATOM     15  C   UNL     1       8.301 -62.543 -25.696  1.00  0.00     0.103 C 
ATOM     16  N   UNL     1       7.722 -63.109 -26.529  1.00  0.00    -0.192 NA
ENDBRANCH   6  15
BRANCH   7  17
ATOM     17  C   UNL     1      12.653 -60.886 -24.195  1.00  0.00     0.103 C 
ATOM     18  N   UNL     1      13.795 -60.801 -24.392  1.00  0.00    -0.192 NA
ENDBRANCH   7  17
ENDBRANCH   2   3
ENDBRANCH   1   2
BRANCH   1  19
ATOM     19  C   UNL     1      10.611 -57.412 -22.097  1.00  0.00     0.024 C 
BRANCH  19  20
ATOM     20  C   UNL     1      11.091 -55.960 -22.031  1.00  0.00     0.002 C 
BRANCH  20  21
ATOM     21  C   UNL     1      10.090 -55.018 -22.711  1.00  0.00     0.004 C 
BRANCH  21  22
ATOM     22  C   UNL     1      10.607 -53.600 -23.017  1.00  0.00    -0.000 C 
ATOM     23  C   UNL     1      11.865 -53.617 -23.901  1.00  0.00     0.065 C 
ATOM     24  C   UNL     1      10.852 -52.757 -21.758  1.00  0.00     0.065 C 
ATOM     25  C   UNL     1      12.331 -52.204 -24.237  1.00  0.00     0.262 C 
ATOM     26  C   UNL     1      11.327 -51.351 -22.113  1.00  0.00     0.262 C 
ATOM     27  N   UNL     1      12.576 -51.448 -22.954  1.00  0.00    -0.331 N 
ATOM     28  H   UNL     1      13.251 -52.003 -22.415  1.00  0.00     0.348 HD
BRANCH  27  29
ATOM     29  C   UNL     1      13.268 -50.115 -23.165  1.00  0.00     0.299 C 
BRANCH  29  30
ATOM     30  C   UNL     1      14.137 -50.010 -24.389  1.00  0.00     0.006 A 
ATOM     31  C   UNL     1      13.718 -49.263 -25.501  1.00  0.00     0.009 A 
ATOM     32  C   UNL     1      15.381 -50.658 -24.442  1.00  0.00     0.009 A 
ATOM     33  C   UNL     1      14.517 -49.182 -26.644  1.00  0.00     0.001 A 
ATOM     34  C   UNL     1      16.176 -50.576 -25.585  1.00  0.00     0.001 A 
ATOM     35  C   UNL     1      15.742 -49.841 -26.686  1.00  0.00     0.000 A 
ENDBRANCH  29  30
ENDBRANCH  27  29
ENDBRANCH  21  22
ENDBRANCH  20  21
ENDBRANCH  19  20
ENDBRANCH   1  19
TORSDOF 13
ENDMDL
