MODEL 1
REMARK VINA RESULT:    -8.292      0.000      0.000
REMARK INTER + INTRA:         -10.130
REMARK INTER:                  -9.746
REMARK INTRA:                  -0.384
REMARK UNBOUND:                -0.384
REMARK SMILES O=C(c1cnn(C2CCCC2)c1)C(F)(F)F
REMARK SMILES IDX 1 1 2 2 3 3 4 4 12 5 5 6 6 7 7 8 8 9 11 10 9 11 10 12 13 13
REMARK SMILES IDX 14 14 15 15 16 16
REMARK H PARENT
ROOT
ATOM      1  O   UNL     1      11.483 -58.256 -20.369  1.00  0.00    -0.284 OA
ATOM      2  C   UNL     1      11.314 -58.225 -21.591  1.00  0.00     0.269 C 
ENDROOT
BRANCH   2   3
ATOM      3  C   UNL     1      11.354 -59.459 -22.370  1.00  0.00     0.065 A 
ATOM      4  C   UNL     1      12.332 -59.939 -23.268  1.00  0.00     0.147 A 
ATOM      5  C   UNL     1      10.387 -60.448 -22.377  1.00  0.00     0.121 A 
ATOM      6  N   UNL     1      12.012 -61.123 -23.792  1.00  0.00    -0.180 NA
ATOM      7  N   UNL     1      10.820 -61.416 -23.238  1.00  0.00    -0.269 N 
BRANCH   7   8
ATOM      8  C   UNL     1      10.157 -62.661 -23.584  1.00  0.00     0.107 C 
ATOM      9  C   UNL     1       9.472 -63.323 -22.376  1.00  0.00     0.027 C 
ATOM     10  C   UNL     1       9.068 -62.505 -24.660  1.00  0.00     0.027 C 
ATOM     11  C   UNL     1       8.144 -63.840 -22.909  1.00  0.00     0.002 C 
ATOM     12  C   UNL     1       7.754 -62.804 -23.948  1.00  0.00     0.002 C 
ENDBRANCH   7   8
ENDBRANCH   2   3
BRANCH   2  13
ATOM     13  C   UNL     1      11.059 -56.927 -22.354  1.00  0.00     0.454 C 
ATOM     14  F   UNL     1       9.764 -56.817 -22.767  1.00  0.00    -0.163 F 
ATOM     15  F   UNL     1      11.302 -55.823 -21.590  1.00  0.00    -0.163 F 
ATOM     16  F   UNL     1      11.827 -56.794 -23.471  1.00  0.00    -0.163 F 
ENDBRANCH   2  13
TORSDOF 3
ENDMDL
MODEL 2
REMARK VINA RESULT:    -8.145      3.544      6.717
REMARK INTER + INTRA:          -9.958
REMARK INTER:                  -9.542
REMARK INTRA:                  -0.416
REMARK UNBOUND:                -0.384
REMARK SMILES O=C(c1cnn(C2CCCC2)c1)C(F)(F)F
REMARK SMILES IDX 1 1 2 2 3 3 4 4 12 5 5 6 6 7 7 8 8 9 11 10 9 11 10 12 13 13
REMARK SMILES IDX 14 14 15 15 16 16
REMARK H PARENT
ROOT
ATOM      1  O   UNL     1      11.738 -58.210 -20.108  1.00  0.00    -0.284 OA
ATOM      2  C   UNL     1      11.207 -58.354 -21.212  1.00  0.00     0.269 C 
ENDROOT
BRANCH   2   3
ATOM      3  C   UNL     1      11.228 -57.265 -22.184  1.00  0.00     0.065 A 
ATOM      4  C   UNL     1      11.685 -57.244 -23.520  1.00  0.00     0.147 A 
ATOM      5  C   UNL     1      10.780 -55.974 -21.970  1.00  0.00     0.121 A 
ATOM      6  N   UNL     1      11.537 -56.051 -24.096  1.00  0.00    -0.180 NA
ATOM      7  N   UNL     1      10.985 -55.288 -23.133  1.00  0.00    -0.269 N 
BRANCH   7   8
ATOM      8  C   UNL     1      10.675 -53.896 -23.412  1.00  0.00     0.107 C 
ATOM      9  C   UNL     1      10.104 -53.159 -22.189  1.00  0.00     0.027 C 
ATOM     10  C   UNL     1      11.887 -53.072 -23.880  1.00  0.00     0.027 C 
ATOM     11  C   UNL     1      10.762 -51.788 -22.210  1.00  0.00     0.002 C 
ATOM     12  C   UNL     1      12.149 -52.072 -22.761  1.00  0.00     0.002 C 
ENDBRANCH   7   8
ENDBRANCH   2   3
BRANCH   2  13
ATOM     13  C   UNL     1      10.509 -59.646 -21.628  1.00  0.00     0.454 C 
ATOM     14  F   UNL     1      10.092 -60.376 -20.554  1.00  0.00    -0.163 F 
ATOM     15  F   UNL     1       9.392 -59.411 -22.376  1.00  0.00    -0.163 F 
ATOM     16  F   UNL     1      11.295 -60.474 -22.369  1.00  0.00    -0.163 F 
ENDBRANCH   2  13
TORSDOF 3
ENDMDL
MODEL 3
REMARK VINA RESULT:    -7.950      3.900      5.155
REMARK INTER + INTRA:          -9.728
REMARK INTER:                  -9.428
REMARK INTRA:                  -0.300
REMARK UNBOUND:                -0.384
REMARK SMILES O=C(c1cnn(C2CCCC2)c1)C(F)(F)F
REMARK SMILES IDX 1 1 2 2 3 3 4 4 12 5 5 6 6 7 7 8 8 9 11 10 9 11 10 12 13 13
REMARK SMILES IDX 14 14 15 15 16 16
REMARK H PARENT
ROOT
ATOM      1  O   UNL     1       9.139 -52.883 -21.999  1.00  0.00    -0.284 OA
ATOM      2  C   UNL     1      10.321 -53.018 -22.326  1.00  0.00     0.269 C 
ENDROOT
BRANCH   2   3
ATOM      3  C   UNL     1      10.800 -54.296 -22.843  1.00  0.00     0.065 A 
ATOM      4  C   UNL     1      11.350 -54.622 -24.102  1.00  0.00     0.147 A 
ATOM      5  C   UNL     1      10.805 -55.499 -22.160  1.00  0.00     0.121 A 
ATOM      6  N   UNL     1      11.674 -55.912 -24.203  1.00  0.00    -0.180 NA
ATOM      7  N   UNL     1      11.332 -56.431 -23.009  1.00  0.00    -0.269 N 
BRANCH   7   8
ATOM      8  C   UNL     1      11.550 -57.845 -22.753  1.00  0.00     0.107 C 
ATOM      9  C   UNL     1      11.416 -58.206 -21.265  1.00  0.00     0.027 C 
ATOM     10  C   UNL     1      10.577 -58.768 -23.506  1.00  0.00     0.027 C 
ATOM     11  C   UNL     1      10.664 -59.528 -21.244  1.00  0.00     0.002 C 
ATOM     12  C   UNL     1       9.717 -59.412 -22.426  1.00  0.00     0.002 C 
ENDBRANCH   7   8
ENDBRANCH   2   3
BRANCH   2  13
ATOM     13  C   UNL     1      11.340 -51.886 -22.215  1.00  0.00     0.454 C 
ATOM     14  F   UNL     1      10.992 -50.802 -22.968  1.00  0.00    -0.163 F 
ATOM     15  F   UNL     1      11.464 -51.426 -20.936  1.00  0.00    -0.163 F 
ATOM     16  F   UNL     1      12.592 -52.240 -22.616  1.00  0.00    -0.163 F 
ENDBRANCH   2  13
TORSDOF 3
ENDMDL
MODEL 4
REMARK VINA RESULT:    -7.932      1.596      1.852
REMARK INTER + INTRA:          -9.707
REMARK INTER:                  -9.479
REMARK INTRA:                  -0.228
REMARK UNBOUND:                -0.384
REMARK SMILES O=C(c1cnn(C2CCCC2)c1)C(F)(F)F
REMARK SMILES IDX 1 1 2 2 3 3 4 4 12 5 5 6 6 7 7 8 8 9 11 10 9 11 10 12 13 13
REMARK SMILES IDX 14 14 15 15 16 16
REMARK H PARENT
ROOT
ATOM      1  O   UNL     1      12.097 -56.685 -24.383  1.00  0.00    -0.284 OA
ATOM      2  C   UNL     1      11.462 -56.926 -23.352  1.00  0.00     0.269 C 
ENDROOT
BRANCH   2   3
ATOM      3  C   UNL     1      11.208 -58.306 -22.951  1.00  0.00     0.065 A 
ATOM      4  C   UNL     1      11.012 -58.861 -21.668  1.00  0.00     0.147 A 
ATOM      5  C   UNL     1      11.106 -59.394 -23.799  1.00  0.00     0.121 A 
ATOM      6  N   UNL     1      10.804 -60.178 -21.703  1.00  0.00    -0.180 NA
ATOM      7  N   UNL     1      10.868 -60.485 -23.012  1.00  0.00    -0.269 N 
BRANCH   7   8
ATOM      8  C   UNL     1      10.680 -61.863 -23.434  1.00  0.00     0.107 C 
ATOM      9  C   UNL     1       9.863 -62.686 -22.425  1.00  0.00     0.027 C 
ATOM     10  C   UNL     1       9.956 -62.004 -24.785  1.00  0.00     0.027 C 
ATOM     11  C   UNL     1       8.931 -63.540 -23.272  1.00  0.00     0.002 C 
ATOM     12  C   UNL     1       8.614 -62.645 -24.457  1.00  0.00     0.002 C 
ENDBRANCH   7   8
ENDBRANCH   2   3
BRANCH   2  13
ATOM     13  C   UNL     1      10.911 -55.825 -22.449  1.00  0.00     0.454 C 
ATOM     14  F   UNL     1       9.548 -55.834 -22.397  1.00  0.00    -0.163 F 
ATOM     15  F   UNL     1      11.333 -55.957 -21.158  1.00  0.00    -0.163 F 
ATOM     16  F   UNL     1      11.269 -54.571 -22.840  1.00  0.00    -0.163 F 
ENDBRANCH   2  13
TORSDOF 3
ENDMDL
MODEL 5
REMARK VINA RESULT:    -7.920      3.338      6.108
REMARK INTER + INTRA:          -9.693
REMARK INTER:                  -9.284
REMARK INTRA:                  -0.410
REMARK UNBOUND:                -0.384
REMARK SMILES O=C(c1cnn(C2CCCC2)c1)C(F)(F)F
REMARK SMILES IDX 1 1 2 2 3 3 4 4 12 5 5 6 6 7 7 8 8 9 11 10 9 11 10 12 13 13
REMARK SMILES IDX 14 14 15 15 16 16
REMARK H PARENT
ROOT
ATOM      1  O   UNL     1       9.873 -61.186 -21.214  1.00  0.00    -0.284 OA
ATOM      2  C   UNL     1      10.251 -60.773 -22.314  1.00  0.00     0.269 C 
ENDROOT
BRANCH   2   3
ATOM      3  C   UNL     1      10.191 -59.348 -22.624  1.00  0.00     0.065 A 
ATOM      4  C   UNL     1       9.229 -58.614 -23.351  1.00  0.00     0.147 A 
ATOM      5  C   UNL     1      11.115 -58.393 -22.244  1.00  0.00     0.121 A 
ATOM      6  N   UNL     1       9.519 -57.314 -23.422  1.00  0.00    -0.180 NA
ATOM      7  N   UNL     1      10.676 -57.199 -22.743  1.00  0.00    -0.269 N 
BRANCH   7   8
ATOM      8  C   UNL     1      11.300 -55.894 -22.608  1.00  0.00     0.107 C 
ATOM      9  C   UNL     1      10.962 -54.951 -23.774  1.00  0.00     0.027 C 
ATOM     10  C   UNL     1      10.901 -55.146 -21.324  1.00  0.00     0.027 C 
ATOM     11  C   UNL     1      10.723 -53.594 -23.130  1.00  0.00     0.002 C 
ATOM     12  C   UNL     1      10.091 -53.945 -21.794  1.00  0.00     0.002 C 
ENDBRANCH   7   8
ENDBRANCH   2   3
BRANCH   2  13
ATOM     13  C   UNL     1      10.794 -61.700 -23.399  1.00  0.00     0.454 C 
ATOM     14  F   UNL     1      10.787 -63.008 -23.012  1.00  0.00    -0.163 F 
ATOM     15  F   UNL     1      10.052 -61.646 -24.543  1.00  0.00    -0.163 F 
ATOM     16  F   UNL     1      12.075 -61.419 -23.763  1.00  0.00    -0.163 F 
ENDBRANCH   2  13
TORSDOF 3
ENDMDL
MODEL 6
REMARK VINA RESULT:    -7.912      2.352      3.316
REMARK INTER + INTRA:          -9.684
REMARK INTER:                  -9.262
REMARK INTRA:                  -0.422
REMARK UNBOUND:                -0.384
REMARK SMILES O=C(c1cnn(C2CCCC2)c1)C(F)(F)F
REMARK SMILES IDX 1 1 2 2 3 3 4 4 12 5 5 6 6 7 7 8 8 9 11 10 9 11 10 12 13 13
REMARK SMILES IDX 14 14 15 15 16 16
REMARK H PARENT
ROOT
ATOM      1  O   UNL     1      11.406 -54.865 -24.300  1.00  0.00    -0.284 OA
ATOM      2  C   UNL     1      10.932 -55.244 -23.226  1.00  0.00     0.269 C 
ENDROOT
BRANCH   2   3
ATOM      3  C   UNL     1      10.545 -56.640 -23.046  1.00  0.00     0.065 A 
ATOM      4  C   UNL     1       9.273 -57.249 -23.110  1.00  0.00     0.147 A 
ATOM      5  C   UNL     1      11.399 -57.691 -22.762  1.00  0.00     0.121 A 
ATOM      6  N   UNL     1       9.320 -58.563 -22.888  1.00  0.00    -0.180 NA
ATOM      7  N   UNL     1      10.625 -58.814 -22.675  1.00  0.00    -0.269 N 
BRANCH   7   8
ATOM      8  C   UNL     1      11.058 -60.173 -22.399  1.00  0.00     0.107 C 
ATOM      9  C   UNL     1       9.923 -61.058 -21.859  1.00  0.00     0.027 C 
ATOM     10  C   UNL     1      11.623 -60.905 -23.629  1.00  0.00     0.027 C 
ATOM     11  C   UNL     1      10.103 -62.400 -22.554  1.00  0.00     0.002 C 
ATOM     12  C   UNL     1      10.626 -62.018 -23.928  1.00  0.00     0.002 C 
ENDBRANCH   7   8
ENDBRANCH   2   3
BRANCH   2  13
ATOM     13  C   UNL     1      10.722 -54.304 -22.041  1.00  0.00     0.454 C 
ATOM     14  F   UNL     1      11.408 -53.134 -22.182  1.00  0.00    -0.163 F 
ATOM     15  F   UNL     1       9.412 -53.952 -21.888  1.00  0.00    -0.163 F 
ATOM     16  F   UNL     1      11.114 -54.835 -20.851  1.00  0.00    -0.163 F 
ENDBRANCH   2  13
TORSDOF 3
ENDMDL
MODEL 7
REMARK VINA RESULT:    -7.885      3.952      5.981
REMARK INTER + INTRA:          -9.652
REMARK INTER:                  -9.241
REMARK INTRA:                  -0.411
REMARK UNBOUND:                -0.384
REMARK SMILES O=C(c1cnn(C2CCCC2)c1)C(F)(F)F
REMARK SMILES IDX 1 1 2 2 3 3 4 4 12 5 5 6 6 7 7 8 8 9 11 10 9 11 10 12 13 13
REMARK SMILES IDX 14 14 15 15 16 16
REMARK H PARENT
ROOT
ATOM      1  O   UNL     1       6.209 -61.373 -23.909  1.00  0.00    -0.284 OA
ATOM      2  C   UNL     1       7.376 -61.755 -24.035  1.00  0.00     0.269 C 
ENDROOT
BRANCH   2   3
ATOM      3  C   UNL     1       8.440 -60.789 -24.291  1.00  0.00     0.065 A 
ATOM      4  C   UNL     1       8.890 -60.229 -25.507  1.00  0.00     0.147 A 
ATOM      5  C   UNL     1       9.257 -60.207 -23.339  1.00  0.00     0.121 A 
ATOM      6  N   UNL     1       9.896 -59.371 -25.337  1.00  0.00    -0.180 NA
ATOM      7  N   UNL     1      10.108 -59.373 -24.007  1.00  0.00    -0.269 N 
BRANCH   7   8
ATOM      8  C   UNL     1      11.152 -58.532 -23.447  1.00  0.00     0.107 C 
ATOM      9  C   UNL     1      10.639 -57.140 -23.043  1.00  0.00     0.027 C 
ATOM     10  C   UNL     1      11.818 -59.123 -22.192  1.00  0.00     0.027 C 
ATOM     11  C   UNL     1      11.321 -56.836 -21.717  1.00  0.00     0.002 C 
ATOM     12  C   UNL     1      11.415 -58.198 -21.050  1.00  0.00     0.002 C 
ENDBRANCH   7   8
ENDBRANCH   2   3
BRANCH   2  13
ATOM     13  C   UNL     1       7.778 -63.224 -23.936  1.00  0.00     0.454 C 
ATOM     14  F   UNL     1       7.425 -63.776 -22.739  1.00  0.00    -0.163 F 
ATOM     15  F   UNL     1       7.174 -63.990 -24.890  1.00  0.00    -0.163 F 
ATOM     16  F   UNL     1       9.116 -63.432 -24.071  1.00  0.00    -0.163 F 
ENDBRANCH   2  13
TORSDOF 3
ENDMDL
MODEL 8
REMARK VINA RESULT:    -7.664      3.382      6.128
REMARK INTER + INTRA:          -9.393
REMARK INTER:                  -8.973
REMARK INTRA:                  -0.420
REMARK UNBOUND:                -0.384
REMARK SMILES O=C(c1cnn(C2CCCC2)c1)C(F)(F)F
REMARK SMILES IDX 1 1 2 2 3 3 4 4 12 5 5 6 6 7 7 8 8 9 11 10 9 11 10 12 13 13
REMARK SMILES IDX 14 14 15 15 16 16
REMARK H PARENT
ROOT
ATOM      1  O   UNL     1       9.904 -60.981 -21.481  1.00  0.00    -0.284 OA
ATOM      2  C   UNL     1      10.555 -60.351 -22.319  1.00  0.00     0.269 C 
ENDROOT
BRANCH   2   3
ATOM      3  C   UNL     1      10.669 -58.899 -22.220  1.00  0.00     0.065 A 
ATOM      4  C   UNL     1      11.450 -58.104 -21.353  1.00  0.00     0.147 A 
ATOM      5  C   UNL     1       9.998 -57.975 -22.998  1.00  0.00     0.121 A 
ATOM      6  N   UNL     1      11.287 -56.797 -21.566  1.00  0.00    -0.180 NA
ATOM      7  N   UNL     1      10.395 -56.739 -22.573  1.00  0.00    -0.269 N 
BRANCH   7   8
ATOM      8  C   UNL     1       9.974 -55.445 -23.082  1.00  0.00     0.107 C 
ATOM      9  C   UNL     1       9.568 -54.471 -21.963  1.00  0.00     0.027 C 
ATOM     10  C   UNL     1      11.054 -54.722 -23.907  1.00  0.00     0.027 C 
ATOM     11  C   UNL     1      10.145 -53.126 -22.380  1.00  0.00     0.002 C 
ATOM     12  C   UNL     1      11.439 -53.501 -23.081  1.00  0.00     0.002 C 
ENDBRANCH   7   8
ENDBRANCH   2   3
BRANCH   2  13
ATOM     13  C   UNL     1      11.266 -61.028 -23.487  1.00  0.00     0.454 C 
ATOM     14  F   UNL     1      12.573 -60.650 -23.585  1.00  0.00    -0.163 F 
ATOM     15  F   UNL     1      11.280 -62.387 -23.365  1.00  0.00    -0.163 F 
ATOM     16  F   UNL     1      10.701 -60.761 -24.696  1.00  0.00    -0.163 F 
ENDBRANCH   2  13
TORSDOF 3
ENDMDL
MODEL 9
REMARK VINA RESULT:    -7.590      4.196      5.571
REMARK INTER + INTRA:          -9.305
REMARK INTER:                  -8.990
REMARK INTRA:                  -0.316
REMARK UNBOUND:                -0.384
REMARK SMILES O=C(c1cnn(C2CCCC2)c1)C(F)(F)F
REMARK SMILES IDX 1 1 2 2 3 3 4 4 12 5 5 6 6 7 7 8 8 9 11 10 9 11 10 12 13 13
REMARK SMILES IDX 14 14 15 15 16 16
REMARK H PARENT
ROOT
ATOM      1  O   UNL     1       9.860 -61.208 -28.736  1.00  0.00    -0.284 OA
ATOM      2  C   UNL     1      10.621 -60.499 -28.073  1.00  0.00     0.269 C 
ENDROOT
BRANCH   2   3
ATOM      3  C   UNL     1      10.427 -60.361 -26.633  1.00  0.00     0.065 A 
ATOM      4  C   UNL     1       9.249 -60.129 -25.890  1.00  0.00     0.147 A 
ATOM      5  C   UNL     1      11.415 -60.434 -25.669  1.00  0.00     0.121 A 
ATOM      6  N   UNL     1       9.474 -60.064 -24.577  1.00  0.00    -0.180 NA
ATOM      7  N   UNL     1      10.802 -60.250 -24.462  1.00  0.00    -0.269 N 
BRANCH   7   8
ATOM      8  C   UNL     1      11.414 -60.245 -23.144  1.00  0.00     0.107 C 
ATOM      9  C   UNL     1      11.679 -58.824 -22.619  1.00  0.00     0.027 C 
ATOM     10  C   UNL     1      10.571 -60.949 -22.066  1.00  0.00     0.027 C 
ATOM     11  C   UNL     1      11.301 -58.870 -21.146  1.00  0.00     0.002 C 
ATOM     12  C   UNL     1      10.137 -59.844 -21.111  1.00  0.00     0.002 C 
ENDBRANCH   7   8
ENDBRANCH   2   3
BRANCH   2  13
ATOM     13  C   UNL     1      11.786 -59.735 -28.696  1.00  0.00     0.454 C 
ATOM     14  F   UNL     1      11.746 -59.754 -30.060  1.00  0.00    -0.163 F 
ATOM     15  F   UNL     1      11.788 -58.417 -28.342  1.00  0.00    -0.163 F 
ATOM     16  F   UNL     1      13.007 -60.224 -28.344  1.00  0.00    -0.163 F 
ENDBRANCH   2  13
TORSDOF 3
ENDMDL
