MODEL 1
REMARK VINA RESULT:    -5.058      0.000      0.000
REMARK INTER + INTRA:          -6.696
REMARK INTER:                  -6.240
REMARK INTRA:                  -0.456
REMARK UNBOUND:                -0.456
REMARK SMILES O=C([O-])[C@@H](O)[C@@H](O)C(=O)[O-]
REMARK SMILES IDX 6 1 8 2 9 3 10 4 4 5 2 6 1 7 3 8 5 9 7 11
REMARK H PARENT 5 10 7 12
ROOT
ATOM      1  C   UNL     1      11.008 -60.046 -26.331  1.00  0.00     0.194 C 
ENDROOT
BRANCH   1   2
ATOM      2  C   UNL     1      11.801 -59.560 -27.583  1.00  0.00     0.073 C 
ATOM      3  O   UNL     1      11.292 -58.619 -28.260  1.00  0.00    -0.547 OA
ATOM      4  O   UNL     1      12.959 -60.086 -27.688  1.00  0.00    -0.547 OA
ENDBRANCH   1   2
BRANCH   1   5
ATOM      5  C   UNL     1      11.551 -59.584 -24.988  1.00  0.00     0.194 C 
BRANCH   5   6
ATOM      6  C   UNL     1      12.383 -60.626 -24.173  1.00  0.00     0.073 C 
ATOM      7  O   UNL     1      11.670 -61.597 -23.735  1.00  0.00    -0.547 OA
ATOM      8  O   UNL     1      13.630 -60.475 -24.090  1.00  0.00    -0.547 OA
ENDBRANCH   5   6
BRANCH   5   9
ATOM      9  O   UNL     1      12.394 -58.395 -25.196  1.00  0.00    -0.384 OA
ATOM     10  H   UNL     1      11.949 -58.004 -25.990  1.00  0.00     0.211 HD
ENDBRANCH   5   9
ENDBRANCH   1   5
BRANCH   1  11
ATOM     11  O   UNL     1       9.592 -59.736 -26.499  1.00  0.00    -0.384 OA
ATOM     12  H   UNL     1       9.398 -59.296 -25.636  1.00  0.00     0.211 HD
ENDBRANCH   1  11
TORSDOF 5
ENDMDL
MODEL 2
REMARK VINA RESULT:    -4.929      4.139      5.393
REMARK INTER + INTRA:          -6.538
REMARK INTER:                  -6.046
REMARK INTRA:                  -0.492
REMARK UNBOUND:                -0.456
REMARK SMILES O=C([O-])[C@@H](O)[C@@H](O)C(=O)[O-]
REMARK SMILES IDX 6 1 8 2 9 3 10 4 4 5 2 6 1 7 3 8 5 9 7 11
REMARK H PARENT 5 10 7 12
ROOT
ATOM      1  C   UNL     1       6.854 -60.291 -23.541  1.00  0.00     0.194 C 
ENDROOT
BRANCH   1   2
ATOM      2  C   UNL     1       7.126 -61.817 -23.708  1.00  0.00     0.073 C 
ATOM      3  O   UNL     1       6.435 -62.436 -24.570  1.00  0.00    -0.547 OA
ATOM      4  O   UNL     1       8.135 -62.231 -23.045  1.00  0.00    -0.547 OA
ENDBRANCH   1   2
BRANCH   1   5
ATOM      5  C   UNL     1       7.793 -59.367 -24.301  1.00  0.00     0.194 C 
BRANCH   5   6
ATOM      6  C   UNL     1       8.705 -58.433 -23.441  1.00  0.00     0.073 C 
ATOM      7  O   UNL     1       9.367 -59.072 -22.548  1.00  0.00    -0.547 OA
ATOM      8  O   UNL     1       8.771 -57.211 -23.736  1.00  0.00    -0.547 OA
ENDBRANCH   5   6
BRANCH   5   9
ATOM      9  O   UNL     1       8.664 -60.178 -25.167  1.00  0.00    -0.384 OA
ATOM     10  H   UNL     1       8.985 -60.848 -24.512  1.00  0.00     0.211 HD
ENDBRANCH   5   9
ENDBRANCH   1   5
BRANCH   1  11
ATOM     11  O   UNL     1       5.449 -60.012 -23.816  1.00  0.00    -0.384 OA
ATOM     12  H   UNL     1       5.408 -60.214 -24.783  1.00  0.00     0.211 HD
ENDBRANCH   1  11
TORSDOF 5
ENDMDL
MODEL 3
REMARK VINA RESULT:    -4.885      3.874      5.675
REMARK INTER + INTRA:          -6.483
REMARK INTER:                  -6.151
REMARK INTRA:                  -0.331
REMARK UNBOUND:                -0.456
REMARK SMILES O=C([O-])[C@@H](O)[C@@H](O)C(=O)[O-]
REMARK SMILES IDX 6 1 8 2 9 3 10 4 4 5 2 6 1 7 3 8 5 9 7 11
REMARK H PARENT 5 10 7 12
ROOT
ATOM      1  C   UNL     1       8.890 -62.198 -24.212  1.00  0.00     0.194 C 
ENDROOT
BRANCH   1   2
ATOM      2  C   UNL     1       9.909 -62.801 -23.198  1.00  0.00     0.073 C 
ATOM      3  O   UNL     1       9.480 -63.694 -22.409  1.00  0.00    -0.547 OA
ATOM      4  O   UNL     1      11.110 -62.415 -23.391  1.00  0.00    -0.547 OA
ENDBRANCH   1   2
BRANCH   1   5
ATOM      5  C   UNL     1       7.467 -62.036 -23.698  1.00  0.00     0.194 C 
BRANCH   5   6
ATOM      6  C   UNL     1       6.984 -60.576 -23.423  1.00  0.00     0.073 C 
ATOM      7  O   UNL     1       5.821 -60.338 -23.908  1.00  0.00    -0.547 OA
ATOM      8  O   UNL     1       7.703 -59.823 -22.716  1.00  0.00    -0.547 OA
ENDBRANCH   5   6
BRANCH   5   9
ATOM      9  O   UNL     1       6.538 -62.645 -24.664  1.00  0.00    -0.384 OA
ATOM     10  H   UNL     1       7.115 -62.671 -25.468  1.00  0.00     0.211 HD
ENDBRANCH   5   9
ENDBRANCH   1   5
BRANCH   1  11
ATOM     11  O   UNL     1       9.428 -60.963 -24.770  1.00  0.00    -0.384 OA
ATOM     12  H   UNL     1      10.386 -61.062 -24.544  1.00  0.00     0.211 HD
ENDBRANCH   1  11
TORSDOF 5
ENDMDL
MODEL 4
REMARK VINA RESULT:    -4.762      6.636      7.820
REMARK INTER + INTRA:          -6.331
REMARK INTER:                  -5.942
REMARK INTRA:                  -0.389
REMARK UNBOUND:                -0.456
REMARK SMILES O=C([O-])[C@@H](O)[C@@H](O)C(=O)[O-]
REMARK SMILES IDX 6 1 8 2 9 3 10 4 4 5 2 6 1 7 3 8 5 9 7 11
REMARK H PARENT 5 10 7 12
ROOT
ATOM      1  C   UNL     1       9.905 -52.765 -22.498  1.00  0.00     0.194 C 
ENDROOT
BRANCH   1   2
ATOM      2  C   UNL     1      11.245 -51.969 -22.447  1.00  0.00     0.073 C 
ATOM      3  O   UNL     1      11.480 -51.299 -21.399  1.00  0.00    -0.547 OA
ATOM      4  O   UNL     1      12.021 -52.214 -23.431  1.00  0.00    -0.547 OA
ENDBRANCH   1   2
BRANCH   1   5
ATOM      5  C   UNL     1       9.897 -54.090 -21.751  1.00  0.00     0.194 C 
BRANCH   5   6
ATOM      6  C   UNL     1      10.546 -55.310 -22.479  1.00  0.00     0.073 C 
ATOM      7  O   UNL     1      10.366 -55.283 -23.748  1.00  0.00    -0.547 OA
ATOM      8  O   UNL     1      11.225 -56.128 -21.804  1.00  0.00    -0.547 OA
ENDBRANCH   5   6
BRANCH   5   9
ATOM      9  O   UNL     1      10.584 -53.914 -20.461  1.00  0.00    -0.384 OA
ATOM     10  H   UNL     1      10.733 -54.861 -20.213  1.00  0.00     0.211 HD
ENDBRANCH   5   9
ENDBRANCH   1   5
BRANCH   1  11
ATOM     11  O   UNL     1       8.804 -51.893 -22.106  1.00  0.00    -0.384 OA
ATOM     12  H   UNL     1       8.055 -52.311 -22.597  1.00  0.00     0.211 HD
ENDBRANCH   1  11
TORSDOF 5
ENDMDL
MODEL 5
REMARK VINA RESULT:    -4.751      4.421      5.534
REMARK INTER + INTRA:          -6.318
REMARK INTER:                  -5.847
REMARK INTRA:                  -0.472
REMARK UNBOUND:                -0.456
REMARK SMILES O=C([O-])[C@@H](O)[C@@H](O)C(=O)[O-]
REMARK SMILES IDX 6 1 8 2 9 3 10 4 4 5 2 6 1 7 3 8 5 9 7 11
REMARK H PARENT 5 10 7 12
ROOT
ATOM      1  C   UNL     1       7.784 -60.574 -23.279  1.00  0.00     0.194 C 
ENDROOT
BRANCH   1   2
ATOM      2  C   UNL     1       6.670 -59.610 -23.791  1.00  0.00     0.073 C 
ATOM      3  O   UNL     1       5.479 -60.039 -23.769  1.00  0.00    -0.547 OA
ATOM      4  O   UNL     1       7.091 -58.430 -24.037  1.00  0.00    -0.547 OA
ENDBRANCH   1   2
BRANCH   1   5
ATOM      5  C   UNL     1       7.689 -62.011 -23.771  1.00  0.00     0.194 C 
BRANCH   5   6
ATOM      6  C   UNL     1       8.928 -62.925 -23.507  1.00  0.00     0.073 C 
ATOM      7  O   UNL     1       8.632 -63.985 -22.850  1.00  0.00    -0.547 OA
ATOM      8  O   UNL     1      10.037 -62.601 -24.006  1.00  0.00    -0.547 OA
ENDBRANCH   5   6
BRANCH   5   9
ATOM      9  O   UNL     1       6.515 -62.650 -23.154  1.00  0.00    -0.384 OA
ATOM     10  H   UNL     1       6.034 -61.849 -22.825  1.00  0.00     0.211 HD
ENDBRANCH   5   9
ENDBRANCH   1   5
BRANCH   1  11
ATOM     11  O   UNL     1       9.094 -59.983 -23.527  1.00  0.00    -0.384 OA
ATOM     12  H   UNL     1       9.685 -60.712 -23.219  1.00  0.00     0.211 HD
ENDBRANCH   1  11
TORSDOF 5
ENDMDL
MODEL 6
REMARK VINA RESULT:    -4.733      2.433      4.129
REMARK INTER + INTRA:          -6.296
REMARK INTER:                  -5.839
REMARK INTRA:                  -0.457
REMARK UNBOUND:                -0.456
REMARK SMILES O=C([O-])[C@@H](O)[C@@H](O)C(=O)[O-]
REMARK SMILES IDX 6 1 8 2 9 3 10 4 4 5 2 6 1 7 3 8 5 9 7 11
REMARK H PARENT 5 10 7 12
ROOT
ATOM      1  C   UNL     1      11.700 -59.239 -24.161  1.00  0.00     0.194 C 
ENDROOT
BRANCH   1   2
ATOM      2  C   UNL     1      12.481 -60.570 -23.934  1.00  0.00     0.073 C 
ATOM      3  O   UNL     1      13.745 -60.500 -23.904  1.00  0.00    -0.547 OA
ATOM      4  O   UNL     1      11.728 -61.562 -23.656  1.00  0.00    -0.547 OA
ENDBRANCH   1   2
BRANCH   1   5
ATOM      5  C   UNL     1      10.811 -58.793 -23.010  1.00  0.00     0.194 C 
BRANCH   5   6
ATOM      6  C   UNL     1      10.556 -57.257 -22.878  1.00  0.00     0.073 C 
ATOM      7  O   UNL     1       9.425 -56.898 -23.364  1.00  0.00    -0.547 OA
ATOM      8  O   UNL     1      11.400 -56.553 -22.264  1.00  0.00    -0.547 OA
ENDBRANCH   5   6
BRANCH   5   9
ATOM      9  O   UNL     1       9.505 -59.461 -23.129  1.00  0.00    -0.384 OA
ATOM     10  H   UNL     1       9.262 -59.539 -22.172  1.00  0.00     0.211 HD
ENDBRANCH   5   9
ENDBRANCH   1   5
BRANCH   1  11
ATOM     11  O   UNL     1      12.625 -58.197 -24.592  1.00  0.00    -0.384 OA
ATOM     12  H   UNL     1      12.052 -57.396 -24.504  1.00  0.00     0.211 HD
ENDBRANCH   1  11
TORSDOF 5
ENDMDL
MODEL 7
REMARK VINA RESULT:    -4.720      3.767      4.717
REMARK INTER + INTRA:          -6.280
REMARK INTER:                  -5.811
REMARK INTRA:                  -0.469
REMARK UNBOUND:                -0.456
REMARK SMILES O=C([O-])[C@@H](O)[C@@H](O)C(=O)[O-]
REMARK SMILES IDX 6 1 8 2 9 3 10 4 4 5 2 6 1 7 3 8 5 9 7 11
REMARK H PARENT 5 10 7 12
ROOT
ATOM      1  C   UNL     1       8.751 -62.657 -26.964  1.00  0.00     0.194 C 
ENDROOT
BRANCH   1   2
ATOM      2  C   UNL     1       9.326 -61.553 -27.903  1.00  0.00     0.073 C 
ATOM      3  O   UNL     1       9.084 -61.665 -29.141  1.00  0.00    -0.547 OA
ATOM      4  O   UNL     1       9.856 -60.576 -27.277  1.00  0.00    -0.547 OA
ENDBRANCH   1   2
BRANCH   1   5
ATOM      5  C   UNL     1       8.422 -62.211 -25.547  1.00  0.00     0.194 C 
BRANCH   5   6
ATOM      6  C   UNL     1       7.252 -62.958 -24.831  1.00  0.00     0.073 C 
ATOM      7  O   UNL     1       6.420 -62.158 -24.273  1.00  0.00    -0.547 OA
ATOM      8  O   UNL     1       7.183 -64.211 -24.928  1.00  0.00    -0.547 OA
ENDBRANCH   5   6
BRANCH   5   9
ATOM      9  O   UNL     1       9.626 -62.349 -24.711  1.00  0.00    -0.384 OA
ATOM     10  H   UNL     1      10.324 -62.106 -25.370  1.00  0.00     0.211 HD
ENDBRANCH   5   9
ENDBRANCH   1   5
BRANCH   1  11
ATOM     11  O   UNL     1       7.628 -63.319 -27.617  1.00  0.00    -0.384 OA
ATOM     12  H   UNL     1       8.051 -63.604 -28.465  1.00  0.00     0.211 HD
ENDBRANCH   1  11
TORSDOF 5
ENDMDL
MODEL 8
REMARK VINA RESULT:    -4.693      3.980      5.665
REMARK INTER + INTRA:          -6.246
REMARK INTER:                  -5.751
REMARK INTRA:                  -0.495
REMARK UNBOUND:                -0.456
REMARK SMILES O=C([O-])[C@@H](O)[C@@H](O)C(=O)[O-]
REMARK SMILES IDX 6 1 8 2 9 3 10 4 4 5 2 6 1 7 3 8 5 9 7 11
REMARK H PARENT 5 10 7 12
ROOT
ATOM      1  C   UNL     1       8.107 -61.956 -25.028  1.00  0.00     0.194 C 
ENDROOT
BRANCH   1   2
ATOM      2  C   UNL     1       7.303 -63.288 -24.923  1.00  0.00     0.073 C 
ATOM      3  O   UNL     1       6.885 -63.798 -26.004  1.00  0.00    -0.547 OA
ATOM      4  O   UNL     1       7.292 -63.785 -23.747  1.00  0.00    -0.547 OA
ENDBRANCH   1   2
BRANCH   1   5
ATOM      5  C   UNL     1       7.672 -60.847 -24.082  1.00  0.00     0.194 C 
BRANCH   5   6
ATOM      6  C   UNL     1       8.000 -59.384 -24.519  1.00  0.00     0.073 C 
ATOM      7  O   UNL     1       9.103 -59.295 -25.166  1.00  0.00    -0.547 OA
ATOM      8  O   UNL     1       7.159 -58.477 -24.283  1.00  0.00    -0.547 OA
ENDBRANCH   5   6
BRANCH   5   9
ATOM      9  O   UNL     1       6.217 -60.942 -23.872  1.00  0.00    -0.384 OA
ATOM     10  H   UNL     1       6.147 -61.880 -23.564  1.00  0.00     0.211 HD
ENDBRANCH   5   9
ENDBRANCH   1   5
BRANCH   1  11
ATOM     11  O   UNL     1       9.535 -62.238 -24.942  1.00  0.00    -0.384 OA
ATOM     12  H   UNL     1       9.591 -62.620 -24.031  1.00  0.00     0.211 HD
ENDBRANCH   1  11
TORSDOF 5
ENDMDL
MODEL 9
REMARK VINA RESULT:    -4.550      2.332      3.864
REMARK INTER + INTRA:          -6.070
REMARK INTER:                  -5.573
REMARK INTRA:                  -0.497
REMARK UNBOUND:                -0.456
REMARK SMILES O=C([O-])[C@@H](O)[C@@H](O)C(=O)[O-]
REMARK SMILES IDX 6 1 8 2 9 3 10 4 4 5 2 6 1 7 3 8 5 9 7 11
REMARK H PARENT 5 10 7 12
ROOT
ATOM      1  C   UNL     1      10.897 -58.553 -22.987  1.00  0.00     0.194 C 
ENDROOT
BRANCH   1   2
ATOM      2  C   UNL     1       9.346 -58.524 -23.142  1.00  0.00     0.073 C 
ATOM      3  O   UNL     1       8.839 -57.502 -23.692  1.00  0.00    -0.547 OA
ATOM      4  O   UNL     1       8.781 -59.622 -22.819  1.00  0.00    -0.547 OA
ENDBRANCH   1   2
BRANCH   1   5
ATOM      5  C   UNL     1      11.664 -59.166 -24.149  1.00  0.00     0.194 C 
BRANCH   5   6
ATOM      6  C   UNL     1      12.364 -60.537 -23.881  1.00  0.00     0.073 C 
ATOM      7  O   UNL     1      13.642 -60.448 -23.871  1.00  0.00    -0.547 OA
ATOM      8  O   UNL     1      11.649 -61.543 -23.631  1.00  0.00    -0.547 OA
ENDBRANCH   5   6
BRANCH   5   9
ATOM      9  O   UNL     1      10.748 -59.339 -25.288  1.00  0.00    -0.384 OA
ATOM     10  H   UNL     1      11.298 -58.953 -26.014  1.00  0.00     0.211 HD
ENDBRANCH   5   9
ENDBRANCH   1   5
BRANCH   1  11
ATOM     11  O   UNL     1      11.379 -57.221 -22.638  1.00  0.00    -0.384 OA
ATOM     12  H   UNL     1      12.306 -57.427 -22.364  1.00  0.00     0.211 HD
ENDBRANCH   1  11
TORSDOF 5
ENDMDL
