MODEL 1
REMARK VINA RESULT:    -9.295      0.000      0.000
REMARK INTER + INTRA:         -14.200
REMARK INTER:                 -12.827
REMARK INTRA:                  -1.373
REMARK UNBOUND:                -1.373
REMARK SMILES COc1ccc([C@@H]2C=C(c3cc(F)ccc3F)NN2c2ccc(S(N)(=O)=O)cc2)cc1OC
REMARK SMILES IDX 20 1 21 2 22 3 23 4 28 5 29 6 19 7 18 8 9 9 8 10 7 11 10 13
REMARK SMILES IDX 11 14 16 15 12 16 15 17 14 18 17 19 13 20 6 21 5 22 30 23
REMARK SMILES IDX 4 24 31 25 3 26 32 27 33 28 2 29 1 30 24 31 26 32 27 33
REMARK SMILES IDX 25 34
REMARK H PARENT 18 12 25 35 25 36
ROOT
ATOM      1  C   UNL     1      12.825 -51.821 -24.705  1.00  0.00     0.058 A 
ATOM      2  C   UNL     1      12.874 -53.027 -25.431  1.00  0.00     0.029 A 
ATOM      3  C   UNL     1      12.282 -54.202 -24.954  1.00  0.00     0.024 A 
ATOM      4  C   UNL     1      11.621 -54.184 -23.729  1.00  0.00     0.082 A 
ATOM      5  C   UNL     1      11.528 -53.002 -22.996  1.00  0.00     0.024 A 
ATOM      6  C   UNL     1      12.126 -51.835 -23.486  1.00  0.00     0.029 A 
ENDROOT
BRANCH   1   7
ATOM      7  N   UNL     1      13.415 -50.653 -25.224  1.00  0.00    -0.276 N 
ATOM      8  N   UNL     1      14.045 -50.622 -26.465  1.00  0.00    -0.297 N 
ATOM      9  C   UNL     1      15.020 -49.633 -26.492  1.00  0.00     0.063 C 
ATOM     10  C   UNL     1      15.133 -49.079 -25.275  1.00  0.00     0.033 C 
ATOM     11  C   UNL     1      14.125 -49.692 -24.321  1.00  0.00     0.161 C 
ATOM     12  H   UNL     1      13.417 -50.572 -27.268  1.00  0.00     0.188 HD
BRANCH   9  13
ATOM     13  C   UNL     1      15.761 -49.308 -27.715  1.00  0.00     0.038 A 
ATOM     14  C   UNL     1      15.093 -48.723 -28.801  1.00  0.00     0.052 A 
ATOM     15  C   UNL     1      17.138 -49.547 -27.845  1.00  0.00     0.132 A 
ATOM     16  C   UNL     1      15.788 -48.401 -29.966  1.00  0.00     0.124 A 
ATOM     17  C   UNL     1      17.831 -49.222 -29.013  1.00  0.00     0.043 A 
ATOM     18  C   UNL     1      17.150 -48.645 -30.081  1.00  0.00     0.042 A 
ATOM     19  F   UNL     1      17.839 -50.088 -26.836  1.00  0.00    -0.206 F 
ATOM     20  F   UNL     1      15.129 -47.847 -30.991  1.00  0.00    -0.207 F 
ENDBRANCH   9  13
BRANCH  11  21
ATOM     21  C   UNL     1      13.211 -48.635 -23.725  1.00  0.00    -0.016 A 
ATOM     22  C   UNL     1      12.143 -48.084 -24.444  1.00  0.00     0.010 A 
ATOM     23  C   UNL     1      13.457 -48.160 -22.423  1.00  0.00     0.056 A 
ATOM     24  C   UNL     1      11.325 -47.103 -23.877  1.00  0.00     0.051 A 
ATOM     25  C   UNL     1      12.646 -47.176 -21.846  1.00  0.00     0.161 A 
ATOM     26  C   UNL     1      11.565 -46.645 -22.579  1.00  0.00     0.160 A 
BRANCH  25  27
ATOM     27  O   UNL     1      12.820 -46.671 -20.581  1.00  0.00    -0.493 OA
ATOM     28  C   UNL     1      13.971 -47.077 -19.855  1.00  0.00     0.278 C 
ENDBRANCH  25  27
BRANCH  26  29
ATOM     29  O   UNL     1      10.816 -45.688 -21.942  1.00  0.00    -0.493 OA
ATOM     30  C   UNL     1      10.677 -44.428 -22.581  1.00  0.00     0.278 C 
ENDBRANCH  26  29
ENDBRANCH  11  21
ENDBRANCH   1   7
BRANCH   4  31
ATOM     31  S   UNL     1      10.860 -55.659 -23.112  1.00  0.00     0.238 S 
ATOM     32  O   UNL     1       9.502 -55.719 -23.605  1.00  0.00    -0.207 OA
ATOM     33  O   UNL     1      11.185 -55.794 -21.712  1.00  0.00    -0.207 OA
BRANCH  31  34
ATOM     34  N   UNL     1      11.702 -56.849 -23.958  1.00  0.00    -0.225 NA
ATOM     35  H   UNL     1      12.238 -56.403 -24.703  1.00  0.00     0.137 HD
ATOM     36  H   UNL     1      12.289 -57.427 -23.358  1.00  0.00     0.137 HD
ENDBRANCH  31  34
ENDBRANCH   4  31
TORSDOF 7
ENDMDL
MODEL 2
REMARK VINA RESULT:    -9.104      3.470      6.153
REMARK INTER + INTRA:         -13.937
REMARK INTER:                 -12.971
REMARK INTRA:                  -0.966
REMARK UNBOUND:                -1.373
REMARK SMILES COc1ccc([C@@H]2C=C(c3cc(F)ccc3F)NN2c2ccc(S(N)(=O)=O)cc2)cc1OC
REMARK SMILES IDX 20 1 21 2 22 3 23 4 28 5 29 6 19 7 18 8 9 9 8 10 7 11 10 13
REMARK SMILES IDX 11 14 16 15 12 16 15 17 14 18 17 19 13 20 6 21 5 22 30 23
REMARK SMILES IDX 4 24 31 25 3 26 32 27 33 28 2 29 1 30 24 31 26 32 27 33
REMARK SMILES IDX 25 34
REMARK H PARENT 18 12 25 35 25 36
ROOT
ATOM      1  C   UNL     1      12.138 -52.240 -23.566  1.00  0.00     0.058 A 
ATOM      2  C   UNL     1      11.497 -52.638 -22.378  1.00  0.00     0.029 A 
ATOM      3  C   UNL     1      11.018 -53.941 -22.196  1.00  0.00     0.024 A 
ATOM      4  C   UNL     1      11.181 -54.876 -23.215  1.00  0.00     0.082 A 
ATOM      5  C   UNL     1      11.836 -54.525 -24.395  1.00  0.00     0.024 A 
ATOM      6  C   UNL     1      12.308 -53.218 -24.561  1.00  0.00     0.029 A 
ENDROOT
BRANCH   1   7
ATOM      7  N   UNL     1      12.625 -50.927 -23.707  1.00  0.00    -0.276 N 
ATOM      8  N   UNL     1      11.912 -49.815 -23.267  1.00  0.00    -0.297 N 
ATOM      9  C   UNL     1      12.253 -48.692 -24.012  1.00  0.00     0.063 C 
ATOM     10  C   UNL     1      13.086 -49.045 -25.003  1.00  0.00     0.033 C 
ATOM     11  C   UNL     1      13.399 -50.528 -24.926  1.00  0.00     0.161 C 
ATOM     12  H   UNL     1      11.955 -49.644 -22.262  1.00  0.00     0.188 HD
BRANCH   9  13
ATOM     13  C   UNL     1      11.733 -47.360 -23.687  1.00  0.00     0.038 A 
ATOM     14  C   UNL     1      12.274 -46.228 -24.315  1.00  0.00     0.052 A 
ATOM     15  C   UNL     1      10.690 -47.164 -22.769  1.00  0.00     0.132 A 
ATOM     16  C   UNL     1      11.782 -44.957 -24.022  1.00  0.00     0.124 A 
ATOM     17  C   UNL     1      10.199 -45.889 -22.479  1.00  0.00     0.043 A 
ATOM     18  C   UNL     1      10.750 -44.777 -23.111  1.00  0.00     0.042 A 
ATOM     19  F   UNL     1      10.118 -48.206 -22.147  1.00  0.00    -0.206 F 
ATOM     20  F   UNL     1      12.316 -43.891 -24.631  1.00  0.00    -0.207 F 
ENDBRANCH   9  13
BRANCH  11  21
ATOM     21  C   UNL     1      14.893 -50.773 -24.800  1.00  0.00    -0.016 A 
ATOM     22  C   UNL     1      15.466 -51.296 -23.633  1.00  0.00     0.010 A 
ATOM     23  C   UNL     1      15.743 -50.435 -25.869  1.00  0.00     0.056 A 
ATOM     24  C   UNL     1      16.845 -51.500 -23.540  1.00  0.00     0.051 A 
ATOM     25  C   UNL     1      17.127 -50.633 -25.785  1.00  0.00     0.161 A 
ATOM     26  C   UNL     1      17.683 -51.176 -24.610  1.00  0.00     0.160 A 
BRANCH  25  27
ATOM     27  O   UNL     1      18.015 -50.335 -26.789  1.00  0.00    -0.493 OA
ATOM     28  C   UNL     1      17.535 -49.602 -27.907  1.00  0.00     0.278 C 
ENDBRANCH  25  27
BRANCH  26  29
ATOM     29  O   UNL     1      19.045 -51.342 -24.608  1.00  0.00    -0.493 OA
ATOM     30  C   UNL     1      19.819 -50.423 -23.851  1.00  0.00     0.278 C 
ENDBRANCH  26  29
ENDBRANCH  11  21
ENDBRANCH   1   7
BRANCH   4  31
ATOM     31  S   UNL     1      10.587 -56.531 -23.002  1.00  0.00     0.238 S 
ATOM     32  O   UNL     1       9.221 -56.594 -23.472  1.00  0.00    -0.207 OA
ATOM     33  O   UNL     1      10.982 -56.997 -21.695  1.00  0.00    -0.207 OA
BRANCH  31  34
ATOM     34  N   UNL     1      11.499 -57.364 -24.149  1.00  0.00    -0.225 NA
ATOM     35  H   UNL     1      11.714 -58.293 -23.784  1.00  0.00     0.137 HD
ATOM     36  H   UNL     1      11.050 -57.408 -25.063  1.00  0.00     0.137 HD
ENDBRANCH  31  34
ENDBRANCH   4  31
TORSDOF 7
ENDMDL
MODEL 3
REMARK VINA RESULT:    -9.071      4.445      8.524
REMARK INTER + INTRA:         -13.892
REMARK INTER:                 -12.482
REMARK INTRA:                  -1.410
REMARK UNBOUND:                -1.373
REMARK SMILES COc1ccc([C@@H]2C=C(c3cc(F)ccc3F)NN2c2ccc(S(N)(=O)=O)cc2)cc1OC
REMARK SMILES IDX 20 1 21 2 22 3 23 4 28 5 29 6 19 7 18 8 9 9 8 10 7 11 10 13
REMARK SMILES IDX 11 14 16 15 12 16 15 17 14 18 17 19 13 20 6 21 5 22 30 23
REMARK SMILES IDX 4 24 31 25 3 26 32 27 33 28 2 29 1 30 24 31 26 32 27 33
REMARK SMILES IDX 25 34
REMARK H PARENT 18 12 25 35 25 36
ROOT
ATOM      1  C   UNL     1      12.467 -47.798 -23.716  1.00  0.00     0.058 A 
ATOM      2  C   UNL     1      11.261 -47.213 -24.146  1.00  0.00     0.029 A 
ATOM      3  C   UNL     1      11.001 -45.847 -23.981  1.00  0.00     0.024 A 
ATOM      4  C   UNL     1      11.960 -45.039 -23.378  1.00  0.00     0.082 A 
ATOM      5  C   UNL     1      13.177 -45.578 -22.965  1.00  0.00     0.024 A 
ATOM      6  C   UNL     1      13.422 -46.945 -23.136  1.00  0.00     0.029 A 
ENDROOT
BRANCH   1   7
ATOM      7  N   UNL     1      12.703 -49.171 -23.915  1.00  0.00    -0.276 N 
ATOM      8  N   UNL     1      11.830 -50.154 -23.456  1.00  0.00    -0.297 N 
ATOM      9  C   UNL     1      12.513 -51.341 -23.222  1.00  0.00     0.063 C 
ATOM     10  C   UNL     1      13.828 -51.148 -23.406  1.00  0.00     0.033 C 
ATOM     11  C   UNL     1      14.094 -49.722 -23.852  1.00  0.00     0.161 C 
ATOM     12  H   UNL     1      10.994 -50.290 -24.026  1.00  0.00     0.188 HD
BRANCH   9  13
ATOM     13  C   UNL     1      11.816 -52.573 -22.839  1.00  0.00     0.038 A 
ATOM     14  C   UNL     1      11.329 -52.721 -21.531  1.00  0.00     0.052 A 
ATOM     15  C   UNL     1      11.597 -53.625 -23.741  1.00  0.00     0.132 A 
ATOM     16  C   UNL     1      10.657 -53.883 -21.156  1.00  0.00     0.124 A 
ATOM     17  C   UNL     1      10.922 -54.787 -23.363  1.00  0.00     0.043 A 
ATOM     18  C   UNL     1      10.449 -54.917 -22.060  1.00  0.00     0.042 A 
ATOM     19  F   UNL     1      12.022 -53.538 -25.012  1.00  0.00    -0.206 F 
ATOM     20  F   UNL     1      10.205 -54.004 -19.901  1.00  0.00    -0.207 F 
ENDBRANCH   9  13
BRANCH  11  21
ATOM     21  C   UNL     1      14.820 -49.686 -25.187  1.00  0.00    -0.016 A 
ATOM     22  C   UNL     1      14.212 -49.199 -26.351  1.00  0.00     0.010 A 
ATOM     23  C   UNL     1      16.132 -50.187 -25.275  1.00  0.00     0.056 A 
ATOM     24  C   UNL     1      14.898 -49.189 -27.568  1.00  0.00     0.051 A 
ATOM     25  C   UNL     1      16.828 -50.183 -26.490  1.00  0.00     0.161 A 
ATOM     26  C   UNL     1      16.206 -49.674 -27.648  1.00  0.00     0.160 A 
BRANCH  25  27
ATOM     27  O   UNL     1      18.110 -50.647 -26.651  1.00  0.00    -0.493 OA
ATOM     28  C   UNL     1      18.386 -51.987 -26.269  1.00  0.00     0.278 C 
ENDBRANCH  25  27
BRANCH  26  29
ATOM     29  O   UNL     1      16.955 -49.703 -28.798  1.00  0.00    -0.493 OA
ATOM     30  C   UNL     1      16.563 -48.847 -29.860  1.00  0.00     0.278 C 
ENDBRANCH  26  29
ENDBRANCH  11  21
ENDBRANCH   1   7
BRANCH   4  31
ATOM     31  S   UNL     1      11.653 -43.307 -23.166  1.00  0.00     0.238 S 
ATOM     32  O   UNL     1      11.940 -42.632 -24.411  1.00  0.00    -0.207 OA
ATOM     33  O   UNL     1      12.219 -42.890 -21.906  1.00  0.00    -0.207 OA
BRANCH  31  34
ATOM     34  N   UNL     1       9.974 -43.282 -23.014  1.00  0.00    -0.225 NA
ATOM     35  H   UNL     1       9.588 -42.692 -23.752  1.00  0.00     0.137 HD
ATOM     36  H   UNL     1       9.558 -44.212 -23.013  1.00  0.00     0.137 HD
ENDBRANCH  31  34
ENDBRANCH   4  31
TORSDOF 7
ENDMDL
MODEL 4
REMARK VINA RESULT:    -8.855      4.738      8.564
REMARK INTER + INTRA:         -13.593
REMARK INTER:                 -12.263
REMARK INTRA:                  -1.329
REMARK UNBOUND:                -1.373
REMARK SMILES COc1ccc([C@@H]2C=C(c3cc(F)ccc3F)NN2c2ccc(S(N)(=O)=O)cc2)cc1OC
REMARK SMILES IDX 20 1 21 2 22 3 23 4 28 5 29 6 19 7 18 8 9 9 8 10 7 11 10 13
REMARK SMILES IDX 11 14 16 15 12 16 15 17 14 18 17 19 13 20 6 21 5 22 30 23
REMARK SMILES IDX 4 24 31 25 3 26 32 27 33 28 2 29 1 30 24 31 26 32 27 33
REMARK SMILES IDX 25 34
REMARK H PARENT 18 12 25 35 25 36
ROOT
ATOM      1  C   UNL     1      12.543 -47.506 -24.181  1.00  0.00     0.058 A 
ATOM      2  C   UNL     1      11.223 -47.028 -24.074  1.00  0.00     0.029 A 
ATOM      3  C   UNL     1      10.934 -45.659 -24.022  1.00  0.00     0.024 A 
ATOM      4  C   UNL     1      11.977 -44.739 -24.081  1.00  0.00     0.082 A 
ATOM      5  C   UNL     1      13.294 -45.175 -24.215  1.00  0.00     0.024 A 
ATOM      6  C   UNL     1      13.567 -46.547 -24.265  1.00  0.00     0.029 A 
ENDROOT
BRANCH   1   7
ATOM      7  N   UNL     1      12.795 -48.889 -24.251  1.00  0.00    -0.276 N 
ATOM      8  N   UNL     1      11.921 -49.836 -23.723  1.00  0.00    -0.297 N 
ATOM      9  C   UNL     1      12.609 -50.989 -23.369  1.00  0.00     0.063 C 
ATOM     10  C   UNL     1      13.926 -50.799 -23.541  1.00  0.00     0.033 C 
ATOM     11  C   UNL     1      14.190 -49.417 -24.108  1.00  0.00     0.161 C 
ATOM     12  H   UNL     1      11.099 -50.032 -24.296  1.00  0.00     0.188 HD
BRANCH   9  13
ATOM     13  C   UNL     1      11.915 -52.189 -22.891  1.00  0.00     0.038 A 
ATOM     14  C   UNL     1      11.859 -53.333 -23.702  1.00  0.00     0.052 A 
ATOM     15  C   UNL     1      11.304 -52.252 -21.629  1.00  0.00     0.132 A 
ATOM     16  C   UNL     1      11.210 -54.483 -23.256  1.00  0.00     0.124 A 
ATOM     17  C   UNL     1      10.656 -53.406 -21.184  1.00  0.00     0.043 A 
ATOM     18  C   UNL     1      10.609 -54.530 -22.005  1.00  0.00     0.042 A 
ATOM     19  F   UNL     1      11.337 -51.198 -20.798  1.00  0.00    -0.206 F 
ATOM     20  F   UNL     1      11.166 -55.561 -24.049  1.00  0.00    -0.207 F 
ENDBRANCH   9  13
BRANCH  11  21
ATOM     21  C   UNL     1      14.945 -49.493 -25.425  1.00  0.00    -0.016 A 
ATOM     22  C   UNL     1      14.326 -49.231 -26.654  1.00  0.00     0.010 A 
ATOM     23  C   UNL     1      16.300 -49.871 -25.425  1.00  0.00     0.056 A 
ATOM     24  C   UNL     1      15.040 -49.321 -27.851  1.00  0.00     0.051 A 
ATOM     25  C   UNL     1      17.025 -49.966 -26.619  1.00  0.00     0.161 A 
ATOM     26  C   UNL     1      16.390 -49.683 -27.844  1.00  0.00     0.160 A 
BRANCH  25  27
ATOM     27  O   UNL     1      18.350 -50.320 -26.696  1.00  0.00    -0.493 OA
ATOM     28  C   UNL     1      18.707 -51.645 -26.330  1.00  0.00     0.278 C 
ENDBRANCH  25  27
BRANCH  26  29
ATOM     29  O   UNL     1      17.169 -49.795 -28.969  1.00  0.00    -0.493 OA
ATOM     30  C   UNL     1      17.445 -48.610 -29.699  1.00  0.00     0.278 C 
ENDBRANCH  26  29
ENDBRANCH  11  21
ENDBRANCH   1   7
BRANCH   4  31
ATOM     31  S   UNL     1      11.631 -43.003 -24.022  1.00  0.00     0.238 S 
ATOM     32  O   UNL     1      12.696 -42.298 -24.701  1.00  0.00    -0.207 OA
ATOM     33  O   UNL     1      11.202 -42.664 -22.687  1.00  0.00    -0.207 OA
BRANCH  31  34
ATOM     34  N   UNL     1      10.294 -42.893 -25.041  1.00  0.00    -0.225 NA
ATOM     35  H   UNL     1       9.446 -42.917 -24.473  1.00  0.00     0.137 HD
ATOM     36  H   UNL     1      10.320 -42.077 -25.651  1.00  0.00     0.137 HD
ENDBRANCH  31  34
ENDBRANCH   4  31
TORSDOF 7
ENDMDL
MODEL 5
REMARK VINA RESULT:    -8.825      3.163      6.512
REMARK INTER + INTRA:         -13.551
REMARK INTER:                 -12.239
REMARK INTRA:                  -1.312
REMARK UNBOUND:                -1.373
REMARK SMILES COc1ccc([C@@H]2C=C(c3cc(F)ccc3F)NN2c2ccc(S(N)(=O)=O)cc2)cc1OC
REMARK SMILES IDX 20 1 21 2 22 3 23 4 28 5 29 6 19 7 18 8 9 9 8 10 7 11 10 13
REMARK SMILES IDX 11 14 16 15 12 16 15 17 14 18 17 19 13 20 6 21 5 22 30 23
REMARK SMILES IDX 4 24 31 25 3 26 32 27 33 28 2 29 1 30 24 31 26 32 27 33
REMARK SMILES IDX 25 34
REMARK H PARENT 18 12 25 35 25 36
ROOT
ATOM      1  C   UNL     1      13.566 -48.561 -24.056  1.00  0.00     0.058 A 
ATOM      2  C   UNL     1      12.690 -47.896 -24.936  1.00  0.00     0.029 A 
ATOM      3  C   UNL     1      11.937 -46.788 -24.532  1.00  0.00     0.024 A 
ATOM      4  C   UNL     1      12.054 -46.323 -23.225  1.00  0.00     0.082 A 
ATOM      5  C   UNL     1      12.931 -46.940 -22.334  1.00  0.00     0.024 A 
ATOM      6  C   UNL     1      13.677 -48.047 -22.753  1.00  0.00     0.029 A 
ENDROOT
BRANCH   1   7
ATOM      7  N   UNL     1      14.323 -49.660 -24.502  1.00  0.00    -0.276 N 
ATOM      8  N   UNL     1      15.697 -49.585 -24.712  1.00  0.00    -0.297 N 
ATOM      9  C   UNL     1      16.095 -50.510 -25.670  1.00  0.00     0.063 C 
ATOM     10  C   UNL     1      15.015 -51.120 -26.182  1.00  0.00     0.033 C 
ATOM     11  C   UNL     1      13.754 -50.623 -25.499  1.00  0.00     0.161 C 
ATOM     12  H   UNL     1      16.267 -49.631 -23.866  1.00  0.00     0.188 HD
BRANCH   9  13
ATOM     13  C   UNL     1      17.507 -50.722 -26.003  1.00  0.00     0.038 A 
ATOM     14  C   UNL     1      18.234 -49.703 -26.638  1.00  0.00     0.052 A 
ATOM     15  C   UNL     1      18.180 -51.914 -25.698  1.00  0.00     0.132 A 
ATOM     16  C   UNL     1      19.579 -49.888 -26.952  1.00  0.00     0.124 A 
ATOM     17  C   UNL     1      19.529 -52.096 -26.013  1.00  0.00     0.043 A 
ATOM     18  C   UNL     1      20.233 -51.075 -26.645  1.00  0.00     0.042 A 
ATOM     19  F   UNL     1      17.547 -52.921 -25.076  1.00  0.00    -0.206 F 
ATOM     20  F   UNL     1      20.253 -48.904 -27.561  1.00  0.00    -0.207 F 
ENDBRANCH   9  13
BRANCH  11  21
ATOM     21  C   UNL     1      12.981 -51.766 -24.863  1.00  0.00    -0.016 A 
ATOM     22  C   UNL     1      12.948 -53.048 -25.427  1.00  0.00     0.010 A 
ATOM     23  C   UNL     1      12.242 -51.532 -23.688  1.00  0.00     0.056 A 
ATOM     24  C   UNL     1      12.218 -54.077 -24.828  1.00  0.00     0.051 A 
ATOM     25  C   UNL     1      11.506 -52.556 -23.081  1.00  0.00     0.161 A 
ATOM     26  C   UNL     1      11.497 -53.843 -23.654  1.00  0.00     0.160 A 
BRANCH  25  27
ATOM     27  O   UNL     1      10.769 -52.405 -21.932  1.00  0.00    -0.493 OA
ATOM     28  C   UNL     1       9.502 -51.770 -22.032  1.00  0.00     0.278 C 
ENDBRANCH  25  27
BRANCH  26  29
ATOM     29  O   UNL     1      10.754 -54.793 -22.997  1.00  0.00    -0.493 OA
ATOM     30  C   UNL     1      11.221 -56.133 -23.031  1.00  0.00     0.278 C 
ENDBRANCH  26  29
ENDBRANCH  11  21
ENDBRANCH   1   7
BRANCH   4  31
ATOM     31  S   UNL     1      11.112 -44.919 -22.696  1.00  0.00     0.238 S 
ATOM     32  O   UNL     1      10.467 -44.336 -23.850  1.00  0.00    -0.207 OA
ATOM     33  O   UNL     1      11.915 -44.145 -21.780  1.00  0.00    -0.207 OA
BRANCH  31  34
ATOM     34  N   UNL     1       9.880 -45.655 -21.813  1.00  0.00    -0.225 NA
ATOM     35  H   UNL     1       9.134 -44.975 -21.662  1.00  0.00     0.137 HD
ATOM     36  H   UNL     1       9.534 -46.511 -22.244  1.00  0.00     0.137 HD
ENDBRANCH  31  34
ENDBRANCH   4  31
TORSDOF 7
ENDMDL
MODEL 6
REMARK VINA RESULT:    -8.671      3.962      6.115
REMARK INTER + INTRA:         -13.338
REMARK INTER:                 -11.784
REMARK INTRA:                  -1.555
REMARK UNBOUND:                -1.373
REMARK SMILES COc1ccc([C@@H]2C=C(c3cc(F)ccc3F)NN2c2ccc(S(N)(=O)=O)cc2)cc1OC
REMARK SMILES IDX 20 1 21 2 22 3 23 4 28 5 29 6 19 7 18 8 9 9 8 10 7 11 10 13
REMARK SMILES IDX 11 14 16 15 12 16 15 17 14 18 17 19 13 20 6 21 5 22 30 23
REMARK SMILES IDX 4 24 31 25 3 26 32 27 33 28 2 29 1 30 24 31 26 32 27 33
REMARK SMILES IDX 25 34
REMARK H PARENT 18 12 25 35 25 36
ROOT
ATOM      1  C   UNL     1      12.491 -50.525 -22.935  1.00  0.00     0.058 A 
ATOM      2  C   UNL     1      11.648 -51.127 -21.982  1.00  0.00     0.029 A 
ATOM      3  C   UNL     1      11.167 -52.433 -22.139  1.00  0.00     0.024 A 
ATOM      4  C   UNL     1      11.533 -53.162 -23.267  1.00  0.00     0.082 A 
ATOM      5  C   UNL     1      12.388 -52.609 -24.218  1.00  0.00     0.024 A 
ATOM      6  C   UNL     1      12.860 -51.302 -24.047  1.00  0.00     0.029 A 
ENDROOT
BRANCH   1   7
ATOM      7  N   UNL     1      12.971 -49.217 -22.735  1.00  0.00    -0.276 N 
ATOM      8  N   UNL     1      12.124 -48.116 -22.643  1.00  0.00    -0.297 N 
ATOM      9  C   UNL     1      12.781 -46.961 -23.049  1.00  0.00     0.063 C 
ATOM     10  C   UNL     1      14.000 -47.275 -23.512  1.00  0.00     0.033 C 
ATOM     11  C   UNL     1      14.246 -48.767 -23.379  1.00  0.00     0.161 C 
ATOM     12  H   UNL     1      11.658 -48.003 -21.741  1.00  0.00     0.188 HD
BRANCH   9  13
ATOM     13  C   UNL     1      12.156 -45.638 -22.946  1.00  0.00     0.038 A 
ATOM     14  C   UNL     1      12.726 -44.661 -22.116  1.00  0.00     0.052 A 
ATOM     15  C   UNL     1      11.002 -45.294 -23.666  1.00  0.00     0.132 A 
ATOM     16  C   UNL     1      12.147 -43.396 -22.017  1.00  0.00     0.124 A 
ATOM     17  C   UNL     1      10.425 -44.026 -23.565  1.00  0.00     0.043 A 
ATOM     18  C   UNL     1      11.003 -43.070 -22.734  1.00  0.00     0.042 A 
ATOM     19  F   UNL     1      10.418 -46.178 -24.490  1.00  0.00    -0.206 F 
ATOM     20  F   UNL     1      12.706 -42.480 -21.215  1.00  0.00    -0.207 F 
ENDBRANCH   9  13
BRANCH  11  21
ATOM     21  C   UNL     1      15.481 -49.052 -22.540  1.00  0.00    -0.016 A 
ATOM     22  C   UNL     1      16.215 -50.238 -22.675  1.00  0.00     0.010 A 
ATOM     23  C   UNL     1      15.888 -48.119 -21.569  1.00  0.00     0.056 A 
ATOM     24  C   UNL     1      17.339 -50.481 -21.882  1.00  0.00     0.051 A 
ATOM     25  C   UNL     1      17.012 -48.354 -20.767  1.00  0.00     0.161 A 
ATOM     26  C   UNL     1      17.748 -49.545 -20.929  1.00  0.00     0.160 A 
BRANCH  25  27
ATOM     27  O   UNL     1      17.474 -47.488 -19.806  1.00  0.00    -0.493 OA
ATOM     28  C   UNL     1      16.532 -46.636 -19.171  1.00  0.00     0.278 C 
ENDBRANCH  25  27
BRANCH  26  29
ATOM     29  O   UNL     1      18.837 -49.698 -20.107  1.00  0.00    -0.493 OA
ATOM     30  C   UNL     1      18.802 -50.752 -19.157  1.00  0.00     0.278 C 
ENDBRANCH  26  29
ENDBRANCH  11  21
ENDBRANCH   1   7
BRANCH   4  31
ATOM     31  S   UNL     1      10.940 -54.818 -23.482  1.00  0.00     0.238 S 
ATOM     32  O   UNL     1       9.583 -54.760 -23.977  1.00  0.00    -0.207 OA
ATOM     33  O   UNL     1      11.313 -55.594 -22.324  1.00  0.00    -0.207 OA
BRANCH  31  34
ATOM     34  N   UNL     1      11.875 -55.343 -24.782  1.00  0.00    -0.225 NA
ATOM     35  H   UNL     1      11.350 -56.050 -25.298  1.00  0.00     0.137 HD
ATOM     36  H   UNL     1      12.184 -54.582 -25.385  1.00  0.00     0.137 HD
ENDBRANCH  31  34
ENDBRANCH   4  31
TORSDOF 7
ENDMDL
MODEL 7
REMARK VINA RESULT:    -8.640      1.168      2.098
REMARK INTER + INTRA:         -13.296
REMARK INTER:                 -11.951
REMARK INTRA:                  -1.345
REMARK UNBOUND:                -1.373
REMARK SMILES COc1ccc([C@@H]2C=C(c3cc(F)ccc3F)NN2c2ccc(S(N)(=O)=O)cc2)cc1OC
REMARK SMILES IDX 20 1 21 2 22 3 23 4 28 5 29 6 19 7 18 8 9 9 8 10 7 11 10 13
REMARK SMILES IDX 11 14 16 15 12 16 15 17 14 18 17 19 13 20 6 21 5 22 30 23
REMARK SMILES IDX 4 24 31 25 3 26 32 27 33 28 2 29 1 30 24 31 26 32 27 33
REMARK SMILES IDX 25 34
REMARK H PARENT 18 12 25 35 25 36
ROOT
ATOM      1  C   UNL     1      12.894 -51.634 -24.601  1.00  0.00     0.058 A 
ATOM      2  C   UNL     1      12.196 -51.466 -23.390  1.00  0.00     0.029 A 
ATOM      3  C   UNL     1      11.452 -52.503 -22.814  1.00  0.00     0.024 A 
ATOM      4  C   UNL     1      11.399 -53.739 -23.452  1.00  0.00     0.082 A 
ATOM      5  C   UNL     1      12.099 -53.951 -24.638  1.00  0.00     0.024 A 
ATOM      6  C   UNL     1      12.838 -52.904 -25.201  1.00  0.00     0.029 A 
ENDROOT
BRANCH   1   7
ATOM      7  N   UNL     1      13.648 -50.576 -25.141  1.00  0.00    -0.276 N 
ATOM      8  N   UNL     1      14.404 -50.713 -26.302  1.00  0.00    -0.297 N 
ATOM      9  C   UNL     1      15.470 -49.822 -26.297  1.00  0.00     0.063 C 
ATOM     10  C   UNL     1      15.511 -49.175 -25.123  1.00  0.00     0.033 C 
ATOM     11  C   UNL     1      14.352 -49.606 -24.242  1.00  0.00     0.161 C 
ATOM     12  H   UNL     1      13.871 -50.679 -27.172  1.00  0.00     0.188 HD
BRANCH   9  13
ATOM     13  C   UNL     1      16.363 -49.677 -27.451  1.00  0.00     0.038 A 
ATOM     14  C   UNL     1      17.699 -50.096 -27.356  1.00  0.00     0.052 A 
ATOM     15  C   UNL     1      15.931 -49.140 -28.673  1.00  0.00     0.132 A 
ATOM     16  C   UNL     1      18.556 -49.972 -28.449  1.00  0.00     0.124 A 
ATOM     17  C   UNL     1      16.792 -49.018 -29.766  1.00  0.00     0.043 A 
ATOM     18  C   UNL     1      18.114 -49.437 -29.652  1.00  0.00     0.042 A 
ATOM     19  F   UNL     1      14.661 -48.736 -28.835  1.00  0.00    -0.206 F 
ATOM     20  F   UNL     1      19.827 -50.375 -28.334  1.00  0.00    -0.207 F 
ENDBRANCH   9  13
BRANCH  11  21
ATOM     21  C   UNL     1      13.492 -48.421 -23.839  1.00  0.00    -0.016 A 
ATOM     22  C   UNL     1      12.474 -47.924 -24.664  1.00  0.00     0.010 A 
ATOM     23  C   UNL     1      13.738 -47.772 -22.615  1.00  0.00     0.056 A 
ATOM     24  C   UNL     1      11.706 -46.825 -24.274  1.00  0.00     0.051 A 
ATOM     25  C   UNL     1      12.975 -46.668 -22.215  1.00  0.00     0.161 A 
ATOM     26  C   UNL     1      11.945 -46.193 -23.051  1.00  0.00     0.160 A 
BRANCH  25  27
ATOM     27  O   UNL     1      13.151 -45.990 -21.033  1.00  0.00    -0.493 OA
ATOM     28  C   UNL     1      14.403 -45.359 -20.809  1.00  0.00     0.278 C 
ENDBRANCH  25  27
BRANCH  26  29
ATOM     29  O   UNL     1      11.241 -45.109 -22.586  1.00  0.00    -0.493 OA
ATOM     30  C   UNL     1      10.533 -44.328 -23.536  1.00  0.00     0.278 C 
ENDBRANCH  26  29
ENDBRANCH  11  21
ENDBRANCH   1   7
BRANCH   4  31
ATOM     31  S   UNL     1      10.467 -55.065 -22.737  1.00  0.00     0.238 S 
ATOM     32  O   UNL     1      11.358 -55.875 -21.937  1.00  0.00    -0.207 OA
ATOM     33  O   UNL     1       9.608 -55.624 -23.753  1.00  0.00    -0.207 OA
BRANCH  31  34
ATOM     34  N   UNL     1       9.497 -54.237 -21.635  1.00  0.00    -0.225 NA
ATOM     35  H   UNL     1       9.996 -54.168 -20.747  1.00  0.00     0.137 HD
ATOM     36  H   UNL     1       9.196 -53.324 -21.974  1.00  0.00     0.137 HD
ENDBRANCH  31  34
ENDBRANCH   4  31
TORSDOF 7
ENDMDL
MODEL 8
REMARK VINA RESULT:    -8.598      4.839      7.331
REMARK INTER + INTRA:         -13.239
REMARK INTER:                 -11.689
REMARK INTRA:                  -1.550
REMARK UNBOUND:                -1.373
REMARK SMILES COc1ccc([C@@H]2C=C(c3cc(F)ccc3F)NN2c2ccc(S(N)(=O)=O)cc2)cc1OC
REMARK SMILES IDX 20 1 21 2 22 3 23 4 28 5 29 6 19 7 18 8 9 9 8 10 7 11 10 13
REMARK SMILES IDX 11 14 16 15 12 16 15 17 14 18 17 19 13 20 6 21 5 22 30 23
REMARK SMILES IDX 4 24 31 25 3 26 32 27 33 28 2 29 1 30 24 31 26 32 27 33
REMARK SMILES IDX 25 34
REMARK H PARENT 18 12 25 35 25 36
ROOT
ATOM      1  C   UNL     1      16.890 -51.022 -25.307  1.00  0.00     0.058 A 
ATOM      2  C   UNL     1      17.483 -52.233 -25.712  1.00  0.00     0.029 A 
ATOM      3  C   UNL     1      18.866 -52.355 -25.894  1.00  0.00     0.024 A 
ATOM      4  C   UNL     1      19.684 -51.252 -25.665  1.00  0.00     0.082 A 
ATOM      5  C   UNL     1      19.135 -50.045 -25.236  1.00  0.00     0.024 A 
ATOM      6  C   UNL     1      17.750 -49.938 -25.060  1.00  0.00     0.029 A 
ENDROOT
BRANCH   1   7
ATOM      7  N   UNL     1      15.498 -50.940 -25.116  1.00  0.00    -0.276 N 
ATOM      8  N   UNL     1      14.788 -51.886 -24.382  1.00  0.00    -0.297 N 
ATOM      9  C   UNL     1      13.470 -51.952 -24.818  1.00  0.00     0.063 C 
ATOM     10  C   UNL     1      13.311 -51.162 -25.890  1.00  0.00     0.033 C 
ATOM     11  C   UNL     1      14.606 -50.439 -26.210  1.00  0.00     0.161 C 
ATOM     12  H   UNL     1      14.858 -51.789 -23.368  1.00  0.00     0.188 HD
BRANCH   9  13
ATOM     13  C   UNL     1      12.472 -52.788 -24.144  1.00  0.00     0.038 A 
ATOM     14  C   UNL     1      11.921 -52.368 -22.923  1.00  0.00     0.052 A 
ATOM     15  C   UNL     1      12.023 -54.004 -24.681  1.00  0.00     0.132 A 
ATOM     16  C   UNL     1      10.964 -53.149 -22.276  1.00  0.00     0.124 A 
ATOM     17  C   UNL     1      11.063 -54.783 -24.031  1.00  0.00     0.043 A 
ATOM     18  C   UNL     1      10.530 -54.351 -22.819  1.00  0.00     0.042 A 
ATOM     19  F   UNL     1      12.497 -54.453 -25.854  1.00  0.00    -0.206 F 
ATOM     20  F   UNL     1      10.455 -52.731 -21.110  1.00  0.00    -0.207 F 
ENDBRANCH   9  13
BRANCH  11  21
ATOM     21  C   UNL     1      14.419 -48.932 -26.195  1.00  0.00    -0.016 A 
ATOM     22  C   UNL     1      15.095 -48.088 -27.087  1.00  0.00     0.010 A 
ATOM     23  C   UNL     1      13.570 -48.349 -25.236  1.00  0.00     0.056 A 
ATOM     24  C   UNL     1      14.914 -46.704 -27.043  1.00  0.00     0.051 A 
ATOM     25  C   UNL     1      13.383 -46.962 -25.182  1.00  0.00     0.161 A 
ATOM     26  C   UNL     1      14.058 -46.132 -26.098  1.00  0.00     0.160 A 
BRANCH  25  27
ATOM     27  O   UNL     1      12.566 -46.325 -24.281  1.00  0.00    -0.493 OA
ATOM     28  C   UNL     1      11.183 -46.648 -24.292  1.00  0.00     0.278 C 
ENDBRANCH  25  27
BRANCH  26  29
ATOM     29  O   UNL     1      13.820 -44.785 -25.981  1.00  0.00    -0.493 OA
ATOM     30  C   UNL     1      14.883 -43.898 -26.296  1.00  0.00     0.278 C 
ENDBRANCH  26  29
ENDBRANCH  11  21
ENDBRANCH   1   7
BRANCH   4  31
ATOM     31  S   UNL     1      21.436 -51.388 -25.884  1.00  0.00     0.238 S 
ATOM     32  O   UNL     1      21.942 -52.365 -24.946  1.00  0.00    -0.207 OA
ATOM     33  O   UNL     1      21.990 -50.061 -25.999  1.00  0.00    -0.207 OA
BRANCH  31  34
ATOM     34  N   UNL     1      21.529 -52.123 -27.397  1.00  0.00    -0.225 NA
ATOM     35  H   UNL     1      20.927 -51.614 -28.046  1.00  0.00     0.137 HD
ATOM     36  H   UNL     1      22.483 -52.203 -27.746  1.00  0.00     0.137 HD
ENDBRANCH  31  34
ENDBRANCH   4  31
TORSDOF 7
ENDMDL
MODEL 9
REMARK VINA RESULT:    -8.578      3.604      6.565
REMARK INTER + INTRA:         -13.211
REMARK INTER:                 -11.916
REMARK INTRA:                  -1.295
REMARK UNBOUND:                -1.373
REMARK SMILES COc1ccc([C@@H]2C=C(c3cc(F)ccc3F)NN2c2ccc(S(N)(=O)=O)cc2)cc1OC
REMARK SMILES IDX 20 1 21 2 22 3 23 4 28 5 29 6 19 7 18 8 9 9 8 10 7 11 10 13
REMARK SMILES IDX 11 14 16 15 12 16 15 17 14 18 17 19 13 20 6 21 5 22 30 23
REMARK SMILES IDX 4 24 31 25 3 26 32 27 33 28 2 29 1 30 24 31 26 32 27 33
REMARK SMILES IDX 25 34
REMARK H PARENT 18 12 25 35 25 36
ROOT
ATOM      1  C   UNL     1      12.212 -50.535 -23.241  1.00  0.00     0.058 A 
ATOM      2  C   UNL     1      11.371 -50.692 -22.123  1.00  0.00     0.029 A 
ATOM      3  C   UNL     1      10.784 -51.922 -21.806  1.00  0.00     0.024 A 
ATOM      4  C   UNL     1      11.036 -53.027 -22.614  1.00  0.00     0.082 A 
ATOM      5  C   UNL     1      11.885 -52.916 -23.714  1.00  0.00     0.024 A 
ATOM      6  C   UNL     1      12.465 -51.679 -24.018  1.00  0.00     0.029 A 
ENDROOT
BRANCH   1   7
ATOM      7  N   UNL     1      12.802 -49.288 -23.519  1.00  0.00    -0.276 N 
ATOM      8  N   UNL     1      12.437 -48.123 -22.850  1.00  0.00    -0.297 N 
ATOM      9  C   UNL     1      12.665 -47.010 -23.650  1.00  0.00     0.063 C 
ATOM     10  C   UNL     1      13.066 -47.406 -24.868  1.00  0.00     0.033 C 
ATOM     11  C   UNL     1      13.178 -48.918 -24.921  1.00  0.00     0.161 C 
ATOM     12  H   UNL     1      12.833 -48.018 -21.915  1.00  0.00     0.188 HD
BRANCH   9  13
ATOM     13  C   UNL     1      12.472 -45.645 -23.152  1.00  0.00     0.038 A 
ATOM     14  C   UNL     1      13.522 -44.989 -22.490  1.00  0.00     0.052 A 
ATOM     15  C   UNL     1      11.268 -44.946 -23.322  1.00  0.00     0.132 A 
ATOM     16  C   UNL     1      13.354 -43.688 -22.020  1.00  0.00     0.124 A 
ATOM     17  C   UNL     1      11.104 -43.641 -22.850  1.00  0.00     0.043 A 
ATOM     18  C   UNL     1      12.156 -43.008 -22.194  1.00  0.00     0.042 A 
ATOM     19  F   UNL     1      10.231 -45.510 -23.961  1.00  0.00    -0.206 F 
ATOM     20  F   UNL     1      14.368 -43.083 -21.388  1.00  0.00    -0.207 F 
ENDBRANCH   9  13
BRANCH  11  21
ATOM     21  C   UNL     1      14.580 -49.357 -25.307  1.00  0.00    -0.016 A 
ATOM     22  C   UNL     1      15.514 -49.787 -24.355  1.00  0.00     0.010 A 
ATOM     23  C   UNL     1      14.977 -49.301 -26.656  1.00  0.00     0.056 A 
ATOM     24  C   UNL     1      16.802 -50.174 -24.735  1.00  0.00     0.051 A 
ATOM     25  C   UNL     1      16.266 -49.684 -27.048  1.00  0.00     0.161 A 
ATOM     26  C   UNL     1      17.186 -50.130 -26.078  1.00  0.00     0.160 A 
BRANCH  25  27
ATOM     27  O   UNL     1      16.721 -49.663 -28.343  1.00  0.00    -0.493 OA
ATOM     28  C   UNL     1      15.915 -49.021 -29.321  1.00  0.00     0.278 C 
ENDBRANCH  25  27
BRANCH  26  29
ATOM     29  O   UNL     1      18.426 -50.490 -26.543  1.00  0.00    -0.493 OA
ATOM     30  C   UNL     1      18.927 -51.763 -26.164  1.00  0.00     0.278 C 
ENDBRANCH  26  29
ENDBRANCH  11  21
ENDBRANCH   1   7
BRANCH   4  31
ATOM     31  S   UNL     1      10.306 -54.594 -22.227  1.00  0.00     0.238 S 
ATOM     32  O   UNL     1       9.061 -54.361 -21.530  1.00  0.00    -0.207 OA
ATOM     33  O   UNL     1      11.334 -55.466 -21.712  1.00  0.00    -0.207 OA
BRANCH  31  34
ATOM     34  N   UNL     1       9.871 -55.148 -23.758  1.00  0.00    -0.225 NA
ATOM     35  H   UNL     1       9.751 -56.161 -23.717  1.00  0.00     0.137 HD
ATOM     36  H   UNL     1       9.047 -54.682 -24.133  1.00  0.00     0.137 HD
ENDBRANCH  31  34
ENDBRANCH   4  31
TORSDOF 7
ENDMDL
