MODEL 1
REMARK VINA RESULT:   -11.868      0.000      0.000
REMARK INTER + INTRA:         -15.917
REMARK INTER:                 -15.337
REMARK INTRA:                  -0.580
REMARK UNBOUND:                -0.580
REMARK SMILES O=c1[nH]c2cc(Cl)ccc2c(=O)n1CC[C@H]1CC[N@@H+](Cc2ccccc2)CC1
REMARK SMILES IDX 15 1 16 2 18 3 19 4 17 5 27 6 28 7 20 9 21 10 22 11 26 12
REMARK SMILES IDX 23 13 25 14 24 15 14 16 13 17 11 18 2 19 10 20 3 21 9 22
REMARK SMILES IDX 4 23 8 24 5 25 6 26 12 27 1 28 7 30
REMARK H PARENT 19 8 3 29
ROOT
ATOM      1  C   UNL     1      11.028 -56.620 -22.517  1.00  0.00     0.026 C 
ENDROOT
BRANCH   1   2
ATOM      2  C   UNL     1      10.216 -57.871 -22.130  1.00  0.00     0.002 C 
ATOM      3  C   UNL     1       8.602 -59.625 -22.984  1.00  0.00     0.262 C 
ATOM      4  N   UNL     1       9.496 -60.708 -22.439  1.00  0.00    -0.331 N 
ATOM      5  C   UNL     1       9.409 -58.381 -23.336  1.00  0.00     0.065 C 
ATOM      6  C   UNL     1      10.286 -60.237 -21.242  1.00  0.00     0.262 C 
ATOM      7  C   UNL     1      11.106 -59.002 -21.589  1.00  0.00     0.065 C 
ATOM      8  H   UNL     1       8.870 -61.437 -22.075  1.00  0.00     0.348 HD
BRANCH   4   9
ATOM      9  C   UNL     1      10.308 -61.411 -23.510  1.00  0.00     0.299 C 
BRANCH   9  10
ATOM     10  C   UNL     1       9.458 -61.985 -24.611  1.00  0.00     0.006 A 
ATOM     11  C   UNL     1       8.407 -62.866 -24.313  1.00  0.00     0.009 A 
ATOM     12  C   UNL     1       9.719 -61.665 -25.953  1.00  0.00     0.009 A 
ATOM     13  C   UNL     1       7.638 -63.419 -25.338  1.00  0.00     0.001 A 
ATOM     14  C   UNL     1       8.947 -62.220 -26.973  1.00  0.00     0.001 A 
ATOM     15  C   UNL     1       7.909 -63.098 -26.666  1.00  0.00     0.000 A 
ENDBRANCH   9  10
ENDBRANCH   4   9
ENDBRANCH   1   2
BRANCH   1  16
ATOM     16  C   UNL     1      10.203 -55.456 -23.092  1.00  0.00     0.131 C 
BRANCH  16  17
ATOM     17  N   UNL     1      10.981 -54.235 -23.297  1.00  0.00    -0.260 N 
ATOM     18  C   UNL     1      11.779 -54.134 -24.434  1.00  0.00     0.264 A 
ATOM     19  C   UNL     1      10.917 -53.265 -22.307  1.00  0.00     0.328 A 
ATOM     20  C   UNL     1      12.465 -52.846 -24.655  1.00  0.00     0.064 A 
ATOM     21  N   UNL     1      11.606 -52.109 -22.533  1.00  0.00    -0.307 N 
ATOM     22  C   UNL     1      13.219 -52.614 -25.810  1.00  0.00     0.017 A 
ATOM     23  C   UNL     1      12.355 -51.859 -23.679  1.00  0.00     0.057 A 
ATOM     24  C   UNL     1      13.863 -51.386 -25.979  1.00  0.00     0.021 A 
ATOM     25  C   UNL     1      12.998 -50.632 -23.841  1.00  0.00     0.047 A 
ATOM     26  C   UNL     1      13.751 -50.402 -24.994  1.00  0.00     0.043 A 
ATOM     27  O   UNL     1      11.968 -55.056 -25.226  1.00  0.00    -0.268 OA
ATOM     28  O   UNL     1      10.296 -53.402 -21.254  1.00  0.00    -0.248 OA
ATOM     29  H   UNL     1      11.521 -51.405 -21.807  1.00  0.00     0.171 HD
ATOM     30  Cl  UNL     1      14.549 -48.895 -25.202  1.00  0.00    -0.084 Cl
ENDBRANCH  16  17
ENDBRANCH   1  16
TORSDOF 5
ENDMDL
MODEL 2
REMARK VINA RESULT:   -11.721      1.033      1.607
REMARK INTER + INTRA:         -15.727
REMARK INTER:                 -15.170
REMARK INTRA:                  -0.557
REMARK UNBOUND:                -0.580
REMARK SMILES O=c1[nH]c2cc(Cl)ccc2c(=O)n1CC[C@H]1CC[N@@H+](Cc2ccccc2)CC1
REMARK SMILES IDX 15 1 16 2 18 3 19 4 17 5 27 6 28 7 20 9 21 10 22 11 26 12
REMARK SMILES IDX 23 13 25 14 24 15 14 16 13 17 11 18 2 19 10 20 3 21 9 22
REMARK SMILES IDX 4 23 8 24 5 25 6 26 12 27 1 28 7 30
REMARK H PARENT 19 8 3 29
ROOT
ATOM      1  C   UNL     1      11.366 -57.180 -21.857  1.00  0.00     0.026 C 
ENDROOT
BRANCH   1   2
ATOM      2  C   UNL     1      11.440 -58.654 -22.301  1.00  0.00     0.002 C 
ATOM      3  C   UNL     1      10.293 -60.907 -22.164  1.00  0.00     0.262 C 
ATOM      4  N   UNL     1      10.347 -61.022 -23.665  1.00  0.00    -0.331 N 
ATOM      5  C   UNL     1      10.250 -59.446 -21.733  1.00  0.00     0.065 C 
ATOM      6  C   UNL     1      11.519 -60.267 -24.246  1.00  0.00     0.262 C 
ATOM      7  C   UNL     1      11.476 -58.803 -23.831  1.00  0.00     0.065 C 
ATOM      8  H   UNL     1      10.541 -62.011 -23.867  1.00  0.00     0.348 HD
BRANCH   4   9
ATOM      9  C   UNL     1       9.014 -60.755 -24.336  1.00  0.00     0.299 C 
BRANCH   9  10
ATOM     10  C   UNL     1       8.763 -61.646 -25.522  1.00  0.00     0.006 A 
ATOM     11  C   UNL     1       9.378 -61.378 -26.756  1.00  0.00     0.009 A 
ATOM     12  C   UNL     1       7.895 -62.745 -25.419  1.00  0.00     0.009 A 
ATOM     13  C   UNL     1       9.122 -62.191 -27.862  1.00  0.00     0.001 A 
ATOM     14  C   UNL     1       7.644 -63.552 -26.527  1.00  0.00     0.001 A 
ATOM     15  C   UNL     1       8.255 -63.274 -27.748  1.00  0.00     0.000 A 
ENDBRANCH   9  10
ENDBRANCH   4   9
ENDBRANCH   1   2
BRANCH   1  16
ATOM     16  C   UNL     1      10.439 -56.288 -22.702  1.00  0.00     0.131 C 
BRANCH  16  17
ATOM     17  N   UNL     1      11.007 -54.975 -22.999  1.00  0.00    -0.260 N 
ATOM     18  C   UNL     1      11.795 -54.829 -24.139  1.00  0.00     0.264 A 
ATOM     19  C   UNL     1      10.768 -53.956 -22.088  1.00  0.00     0.328 A 
ATOM     20  C   UNL     1      12.261 -53.465 -24.457  1.00  0.00     0.064 A 
ATOM     21  N   UNL     1      11.259 -52.721 -22.401  1.00  0.00    -0.307 N 
ATOM     22  C   UNL     1      12.984 -53.200 -25.625  1.00  0.00     0.017 A 
ATOM     23  C   UNL     1      11.974 -52.439 -23.562  1.00  0.00     0.057 A 
ATOM     24  C   UNL     1      13.418 -51.898 -25.888  1.00  0.00     0.021 A 
ATOM     25  C   UNL     1      12.407 -51.138 -23.817  1.00  0.00     0.047 A 
ATOM     26  C   UNL     1      13.129 -50.875 -24.982  1.00  0.00     0.043 A 
ATOM     27  O   UNL     1      12.147 -55.764 -24.856  1.00  0.00    -0.268 OA
ATOM     28  O   UNL     1      10.162 -54.114 -21.029  1.00  0.00    -0.248 OA
ATOM     29  H   UNL     1      11.047 -51.988 -21.733  1.00  0.00     0.171 HD
ATOM     30  Cl  UNL     1      13.669 -49.276 -25.306  1.00  0.00    -0.084 Cl
ENDBRANCH  16  17
ENDBRANCH   1  16
TORSDOF 5
ENDMDL
MODEL 3
REMARK VINA RESULT:   -11.310      1.309      2.575
REMARK INTER + INTRA:         -15.196
REMARK INTER:                 -14.712
REMARK INTRA:                  -0.484
REMARK UNBOUND:                -0.580
REMARK SMILES O=c1[nH]c2cc(Cl)ccc2c(=O)n1CC[C@H]1CC[N@@H+](Cc2ccccc2)CC1
REMARK SMILES IDX 15 1 16 2 18 3 19 4 17 5 27 6 28 7 20 9 21 10 22 11 26 12
REMARK SMILES IDX 23 13 25 14 24 15 14 16 13 17 11 18 2 19 10 20 3 21 9 22
REMARK SMILES IDX 4 23 8 24 5 25 6 26 12 27 1 28 7 30
REMARK H PARENT 19 8 3 29
ROOT
ATOM      1  C   UNL     1      11.297 -56.932 -22.000  1.00  0.00     0.026 C 
ENDROOT
BRANCH   1   2
ATOM      2  C   UNL     1      11.468 -58.408 -22.409  1.00  0.00     0.002 C 
ATOM      3  C   UNL     1      10.601 -60.759 -22.050  1.00  0.00     0.262 C 
ATOM      4  N   UNL     1      10.460 -60.931 -23.540  1.00  0.00    -0.331 N 
ATOM      5  C   UNL     1      10.460 -59.293 -21.657  1.00  0.00     0.065 C 
ATOM      6  C   UNL     1      11.452 -60.084 -24.301  1.00  0.00     0.262 C 
ATOM      7  C   UNL     1      11.309 -58.616 -23.924  1.00  0.00     0.065 C 
ATOM      8  H   UNL     1      10.729 -61.902 -23.741  1.00  0.00     0.348 HD
BRANCH   4   9
ATOM      9  C   UNL     1       9.026 -60.831 -24.022  1.00  0.00     0.299 C 
BRANCH   9  10
ATOM     10  C   UNL     1       8.757 -61.666 -25.245  1.00  0.00     0.006 A 
ATOM     11  C   UNL     1       9.388 -61.368 -26.463  1.00  0.00     0.009 A 
ATOM     12  C   UNL     1       7.855 -62.740 -25.191  1.00  0.00     0.009 A 
ATOM     13  C   UNL     1       9.116 -62.126 -27.603  1.00  0.00     0.001 A 
ATOM     14  C   UNL     1       7.587 -63.495 -26.333  1.00  0.00     0.001 A 
ATOM     15  C   UNL     1       8.215 -63.187 -27.538  1.00  0.00     0.000 A 
ENDBRANCH   9  10
ENDBRANCH   4   9
ENDBRANCH   1   2
BRANCH   1  16
ATOM     16  C   UNL     1      10.385 -56.099 -22.917  1.00  0.00     0.131 C 
BRANCH  16  17
ATOM     17  N   UNL     1      10.911 -54.767 -23.209  1.00  0.00    -0.260 N 
ATOM     18  C   UNL     1      10.521 -53.702 -22.400  1.00  0.00     0.264 A 
ATOM     19  C   UNL     1      11.732 -54.635 -24.319  1.00  0.00     0.328 A 
ATOM     20  C   UNL     1      11.156 -52.396 -22.665  1.00  0.00     0.064 A 
ATOM     21  N   UNL     1      12.259 -53.398 -24.552  1.00  0.00    -0.307 N 
ATOM     22  C   UNL     1      10.897 -51.286 -21.854  1.00  0.00     0.017 A 
ATOM     23  C   UNL     1      12.017 -52.285 -23.752  1.00  0.00     0.057 A 
ATOM     24  C   UNL     1      11.508 -50.064 -22.142  1.00  0.00     0.021 A 
ATOM     25  C   UNL     1      12.629 -51.066 -24.046  1.00  0.00     0.047 A 
ATOM     26  C   UNL     1      12.369 -49.959 -23.237  1.00  0.00     0.043 A 
ATOM     27  O   UNL     1       9.664 -53.784 -21.521  1.00  0.00    -0.268 OA
ATOM     28  O   UNL     1      11.988 -55.556 -25.093  1.00  0.00    -0.248 OA
ATOM     29  H   UNL     1      12.878 -53.334 -25.353  1.00  0.00     0.171 HD
ATOM     30  Cl  UNL     1      13.114 -48.452 -23.592  1.00  0.00    -0.084 Cl
ENDBRANCH  16  17
ENDBRANCH   1  16
TORSDOF 5
ENDMDL
MODEL 4
REMARK VINA RESULT:   -11.233      1.337      1.803
REMARK INTER + INTRA:         -15.096
REMARK INTER:                 -14.974
REMARK INTRA:                  -0.123
REMARK UNBOUND:                -0.580
REMARK SMILES O=c1[nH]c2cc(Cl)ccc2c(=O)n1CC[C@H]1CC[N@@H+](Cc2ccccc2)CC1
REMARK SMILES IDX 15 1 16 2 18 3 19 4 17 5 27 6 28 7 20 9 21 10 22 11 26 12
REMARK SMILES IDX 23 13 25 14 24 15 14 16 13 17 11 18 2 19 10 20 3 21 9 22
REMARK SMILES IDX 4 23 8 24 5 25 6 26 12 27 1 28 7 30
REMARK H PARENT 19 8 3 29
ROOT
ATOM      1  C   UNL     1      10.918 -56.240 -21.932  1.00  0.00     0.026 C 
ENDROOT
BRANCH   1   2
ATOM      2  C   UNL     1      11.500 -57.622 -22.291  1.00  0.00     0.002 C 
ATOM      3  C   UNL     1      11.134 -60.121 -22.113  1.00  0.00     0.262 C 
ATOM      4  N   UNL     1      11.344 -60.254 -23.599  1.00  0.00    -0.331 N 
ATOM      5  C   UNL     1      10.587 -58.741 -21.764  1.00  0.00     0.065 C 
ATOM      6  C   UNL     1      12.253 -59.175 -24.138  1.00  0.00     0.262 C 
ATOM      7  C   UNL     1      11.707 -57.794 -23.805  1.00  0.00     0.065 C 
ATOM      8  H   UNL     1      11.862 -61.131 -23.735  1.00  0.00     0.348 HD
BRANCH   4   9
ATOM      9  C   UNL     1      10.056 -60.455 -24.372  1.00  0.00     0.299 C 
BRANCH   9  10
ATOM     10  C   UNL     1       9.236 -61.608 -23.860  1.00  0.00     0.006 A 
ATOM     11  C   UNL     1       9.861 -62.733 -23.301  1.00  0.00     0.009 A 
ATOM     12  C   UNL     1       7.835 -61.584 -23.954  1.00  0.00     0.009 A 
ATOM     13  C   UNL     1       9.099 -63.814 -22.852  1.00  0.00     0.001 A 
ATOM     14  C   UNL     1       7.079 -62.666 -23.503  1.00  0.00     0.001 A 
ATOM     15  C   UNL     1       7.711 -63.781 -22.955  1.00  0.00     0.000 A 
ENDBRANCH   9  10
ENDBRANCH   4   9
ENDBRANCH   1   2
BRANCH   1  16
ATOM     16  C   UNL     1      10.362 -55.435 -23.120  1.00  0.00     0.131 C 
BRANCH  16  17
ATOM     17  N   UNL     1      11.050 -54.165 -23.337  1.00  0.00    -0.260 N 
ATOM     18  C   UNL     1      11.893 -54.040 -24.439  1.00  0.00     0.264 A 
ATOM     19  C   UNL     1      10.862 -53.168 -22.390  1.00  0.00     0.328 A 
ATOM     20  C   UNL     1      12.486 -52.709 -24.678  1.00  0.00     0.064 A 
ATOM     21  N   UNL     1      11.468 -51.969 -22.628  1.00  0.00    -0.307 N 
ATOM     22  C   UNL     1      13.276 -52.458 -25.805  1.00  0.00     0.017 A 
ATOM     23  C   UNL     1      12.251 -51.701 -23.748  1.00  0.00     0.057 A 
ATOM     24  C   UNL     1      13.828 -51.190 -25.992  1.00  0.00     0.021 A 
ATOM     25  C   UNL     1      12.803 -50.432 -23.928  1.00  0.00     0.047 A 
ATOM     26  C   UNL     1      13.591 -50.184 -25.053  1.00  0.00     0.043 A 
ATOM     27  O   UNL     1      12.193 -54.971 -25.184  1.00  0.00    -0.268 OA
ATOM     28  O   UNL     1      10.203 -53.318 -21.362  1.00  0.00    -0.248 OA
ATOM     29  H   UNL     1      11.293 -51.249 -21.936  1.00  0.00     0.171 HD
ATOM     30  Cl  UNL     1      14.278 -48.625 -25.283  1.00  0.00    -0.084 Cl
ENDBRANCH  16  17
ENDBRANCH   1  16
TORSDOF 5
ENDMDL
MODEL 5
REMARK VINA RESULT:   -10.494      3.777      9.632
REMARK INTER + INTRA:         -14.141
REMARK INTER:                 -13.901
REMARK INTRA:                  -0.240
REMARK UNBOUND:                -0.580
REMARK SMILES O=c1[nH]c2cc(Cl)ccc2c(=O)n1CC[C@H]1CC[N@@H+](Cc2ccccc2)CC1
REMARK SMILES IDX 15 1 16 2 18 3 19 4 17 5 27 6 28 7 20 9 21 10 22 11 26 12
REMARK SMILES IDX 23 13 25 14 24 15 14 16 13 17 11 18 2 19 10 20 3 21 9 22
REMARK SMILES IDX 4 23 8 24 5 25 6 26 12 27 1 28 7 30
REMARK H PARENT 19 8 3 29
ROOT
ATOM      1  C   UNL     1      11.216 -57.553 -21.967  1.00  0.00     0.026 C 
ENDROOT
BRANCH   1   2
ATOM      2  C   UNL     1      10.614 -56.263 -22.559  1.00  0.00     0.002 C 
ATOM      3  C   UNL     1       9.935 -53.880 -22.042  1.00  0.00     0.262 C 
ATOM      4  N   UNL     1      10.735 -53.399 -23.224  1.00  0.00    -0.331 N 
ATOM      5  C   UNL     1      10.519 -55.171 -21.481  1.00  0.00     0.065 C 
ATOM      6  C   UNL     1      10.828 -54.448 -24.306  1.00  0.00     0.262 C 
ATOM      7  C   UNL     1      11.423 -55.737 -23.756  1.00  0.00     0.065 C 
ATOM      8  H   UNL     1      10.192 -52.633 -23.642  1.00  0.00     0.348 HD
BRANCH   4   9
ATOM      9  C   UNL     1      12.052 -52.757 -22.835  1.00  0.00     0.299 C 
BRANCH   9  10
ATOM     10  C   UNL     1      12.656 -51.934 -23.942  1.00  0.00     0.006 A 
ATOM     11  C   UNL     1      12.649 -50.532 -23.872  1.00  0.00     0.009 A 
ATOM     12  C   UNL     1      13.214 -52.556 -25.070  1.00  0.00     0.009 A 
ATOM     13  C   UNL     1      13.184 -49.771 -24.912  1.00  0.00     0.001 A 
ATOM     14  C   UNL     1      13.748 -51.791 -26.106  1.00  0.00     0.001 A 
ATOM     15  C   UNL     1      13.732 -50.399 -26.028  1.00  0.00     0.000 A 
ENDBRANCH   9  10
ENDBRANCH   4   9
ENDBRANCH   1   2
BRANCH   1  16
ATOM     16  C   UNL     1      11.979 -58.439 -22.967  1.00  0.00     0.131 C 
BRANCH  16  17
ATOM     17  N   UNL     1      11.142 -59.454 -23.603  1.00  0.00    -0.260 N 
ATOM     18  C   UNL     1      10.493 -60.386 -22.796  1.00  0.00     0.264 A 
ATOM     19  C   UNL     1      11.089 -59.460 -24.989  1.00  0.00     0.328 A 
ATOM     20  C   UNL     1       9.576 -61.327 -23.470  1.00  0.00     0.064 A 
ATOM     21  N   UNL     1      10.264 -60.379 -25.571  1.00  0.00    -0.307 N 
ATOM     22  C   UNL     1       8.812 -62.244 -22.740  1.00  0.00     0.017 A 
ATOM     23  C   UNL     1       9.492 -61.293 -24.859  1.00  0.00     0.057 A 
ATOM     24  C   UNL     1       7.964 -63.126 -23.413  1.00  0.00     0.021 A 
ATOM     25  C   UNL     1       8.648 -62.173 -25.537  1.00  0.00     0.047 A 
ATOM     26  C   UNL     1       7.887 -63.087 -24.807  1.00  0.00     0.043 A 
ATOM     27  O   UNL     1      10.670 -60.489 -21.584  1.00  0.00    -0.268 OA
ATOM     28  O   UNL     1      11.747 -58.704 -25.702  1.00  0.00    -0.248 OA
ATOM     29  H   UNL     1      10.222 -60.344 -26.583  1.00  0.00     0.171 HD
ATOM     30  Cl  UNL     1       6.847 -64.178 -25.633  1.00  0.00    -0.084 Cl
ENDBRANCH  16  17
ENDBRANCH   1  16
TORSDOF 5
ENDMDL
MODEL 6
REMARK VINA RESULT:   -10.440      3.731      9.737
REMARK INTER + INTRA:         -14.071
REMARK INTER:                 -13.682
REMARK INTRA:                  -0.390
REMARK UNBOUND:                -0.580
REMARK SMILES O=c1[nH]c2cc(Cl)ccc2c(=O)n1CC[C@H]1CC[N@@H+](Cc2ccccc2)CC1
REMARK SMILES IDX 15 1 16 2 18 3 19 4 17 5 27 6 28 7 20 9 21 10 22 11 26 12
REMARK SMILES IDX 23 13 25 14 24 15 14 16 13 17 11 18 2 19 10 20 3 21 9 22
REMARK SMILES IDX 4 23 8 24 5 25 6 26 12 27 1 28 7 30
REMARK H PARENT 19 8 3 29
ROOT
ATOM      1  C   UNL     1      11.136 -57.350 -21.872  1.00  0.00     0.026 C 
ENDROOT
BRANCH   1   2
ATOM      2  C   UNL     1      10.675 -56.143 -22.713  1.00  0.00     0.002 C 
ATOM      3  C   UNL     1       9.889 -53.739 -22.609  1.00  0.00     0.262 C 
ATOM      4  N   UNL     1      10.928 -53.358 -23.630  1.00  0.00    -0.331 N 
ATOM      5  C   UNL     1      10.340 -54.950 -21.802  1.00  0.00     0.065 C 
ATOM      6  C   UNL     1      11.262 -54.509 -24.550  1.00  0.00     0.262 C 
ATOM      7  C   UNL     1      11.726 -55.719 -23.752  1.00  0.00     0.065 C 
ATOM      8  H   UNL     1      10.488 -52.653 -24.235  1.00  0.00     0.348 HD
BRANCH   4   9
ATOM      9  C   UNL     1      12.125 -52.645 -23.032  1.00  0.00     0.299 C 
BRANCH   9  10
ATOM     10  C   UNL     1      12.494 -51.390 -23.775  1.00  0.00     0.006 A 
ATOM     11  C   UNL     1      13.209 -51.460 -24.981  1.00  0.00     0.009 A 
ATOM     12  C   UNL     1      12.148 -50.129 -23.262  1.00  0.00     0.009 A 
ATOM     13  C   UNL     1      13.574 -50.293 -25.654  1.00  0.00     0.001 A 
ATOM     14  C   UNL     1      12.515 -48.967 -23.939  1.00  0.00     0.001 A 
ATOM     15  C   UNL     1      13.229 -49.048 -25.133  1.00  0.00     0.000 A 
ENDBRANCH   9  10
ENDBRANCH   4   9
ENDBRANCH   1   2
BRANCH   1  16
ATOM     16  C   UNL     1      11.758 -58.507 -22.673  1.00  0.00     0.131 C 
BRANCH  16  17
ATOM     17  N   UNL     1      10.798 -59.546 -23.036  1.00  0.00    -0.260 N 
ATOM     18  C   UNL     1      10.506 -59.746 -24.384  1.00  0.00     0.264 A 
ATOM     19  C   UNL     1      10.188 -60.241 -22.001  1.00  0.00     0.328 A 
ATOM     20  C   UNL     1       9.612 -60.874 -24.712  1.00  0.00     0.064 A 
ATOM     21  N   UNL     1       9.332 -61.244 -22.353  1.00  0.00    -0.307 N 
ATOM     22  C   UNL     1       9.328 -61.211 -26.040  1.00  0.00     0.017 A 
ATOM     23  C   UNL     1       9.044 -61.597 -23.668  1.00  0.00     0.057 A 
ATOM     24  C   UNL     1       8.469 -62.278 -26.312  1.00  0.00     0.021 A 
ATOM     25  C   UNL     1       8.183 -62.662 -23.933  1.00  0.00     0.047 A 
ATOM     26  C   UNL     1       7.900 -62.997 -25.259  1.00  0.00     0.043 A 
ATOM     27  O   UNL     1      10.916 -59.023 -25.291  1.00  0.00    -0.268 OA
ATOM     28  O   UNL     1      10.367 -59.990 -20.811  1.00  0.00    -0.248 OA
ATOM     29  H   UNL     1       8.921 -61.754 -21.579  1.00  0.00     0.171 HD
ATOM     30  Cl  UNL     1       6.838 -64.305 -25.597  1.00  0.00    -0.084 Cl
ENDBRANCH  16  17
ENDBRANCH   1  16
TORSDOF 5
ENDMDL
MODEL 7
REMARK VINA RESULT:    -9.943      3.246      5.374
REMARK INTER + INTRA:         -13.429
REMARK INTER:                 -12.807
REMARK INTRA:                  -0.622
REMARK UNBOUND:                -0.580
REMARK SMILES O=c1[nH]c2cc(Cl)ccc2c(=O)n1CC[C@H]1CC[N@@H+](Cc2ccccc2)CC1
REMARK SMILES IDX 15 1 16 2 18 3 19 4 17 5 27 6 28 7 20 9 21 10 22 11 26 12
REMARK SMILES IDX 23 13 25 14 24 15 14 16 13 17 11 18 2 19 10 20 3 21 9 22
REMARK SMILES IDX 4 23 8 24 5 25 6 26 12 27 1 28 7 30
REMARK H PARENT 19 8 3 29
ROOT
ATOM      1  C   UNL     1      12.120 -52.011 -23.475  1.00  0.00     0.026 C 
ENDROOT
BRANCH   1   2
ATOM      2  C   UNL     1      11.060 -53.116 -23.297  1.00  0.00     0.002 C 
ATOM      3  C   UNL     1      10.430 -55.486 -23.926  1.00  0.00     0.262 C 
ATOM      4  N   UNL     1      10.225 -55.815 -22.471  1.00  0.00    -0.331 N 
ATOM      5  C   UNL     1      11.457 -54.372 -24.091  1.00  0.00     0.065 C 
ATOM      6  C   UNL     1       9.817 -54.600 -21.672  1.00  0.00     0.262 C 
ATOM      7  C   UNL     1      10.844 -53.487 -21.821  1.00  0.00     0.065 C 
ATOM      8  H   UNL     1       9.413 -56.444 -22.433  1.00  0.00     0.348 HD
BRANCH   4   9
ATOM      9  C   UNL     1      11.357 -56.627 -21.873  1.00  0.00     0.299 C 
BRANCH   9  10
ATOM     10  C   UNL     1      11.275 -58.091 -22.213  1.00  0.00     0.006 A 
ATOM     11  C   UNL     1      11.829 -58.576 -23.408  1.00  0.00     0.009 A 
ATOM     12  C   UNL     1      10.624 -58.988 -21.351  1.00  0.00     0.009 A 
ATOM     13  C   UNL     1      11.728 -59.930 -23.734  1.00  0.00     0.001 A 
ATOM     14  C   UNL     1      10.527 -60.339 -21.681  1.00  0.00     0.001 A 
ATOM     15  C   UNL     1      11.076 -60.809 -22.873  1.00  0.00     0.000 A 
ENDBRANCH   9  10
ENDBRANCH   4   9
ENDBRANCH   1   2
BRANCH   1  16
ATOM     16  C   UNL     1      12.318 -51.092 -22.257  1.00  0.00     0.131 C 
BRANCH  16  17
ATOM     17  N   UNL     1      11.900 -49.712 -22.492  1.00  0.00    -0.260 N 
ATOM     18  C   UNL     1      12.863 -48.775 -22.862  1.00  0.00     0.264 A 
ATOM     19  C   UNL     1      10.564 -49.406 -22.278  1.00  0.00     0.328 A 
ATOM     20  C   UNL     1      12.381 -47.419 -23.191  1.00  0.00     0.064 A 
ATOM     21  N   UNL     1      10.173 -48.127 -22.551  1.00  0.00    -0.307 N 
ATOM     22  C   UNL     1      13.256 -46.432 -23.656  1.00  0.00     0.017 A 
ATOM     23  C   UNL     1      11.030 -47.135 -23.020  1.00  0.00     0.057 A 
ATOM     24  C   UNL     1      12.766 -45.157 -23.947  1.00  0.00     0.021 A 
ATOM     25  C   UNL     1      10.534 -45.862 -23.307  1.00  0.00     0.047 A 
ATOM     26  C   UNL     1      11.409 -44.878 -23.770  1.00  0.00     0.043 A 
ATOM     27  O   UNL     1      14.071 -49.004 -22.889  1.00  0.00    -0.268 OA
ATOM     28  O   UNL     1       9.738 -50.210 -21.849  1.00  0.00    -0.248 OA
ATOM     29  H   UNL     1       9.187 -47.936 -22.412  1.00  0.00     0.171 HD
ATOM     30  Cl  UNL     1      10.810 -43.306 -24.123  1.00  0.00    -0.084 Cl
ENDBRANCH  16  17
ENDBRANCH   1  16
TORSDOF 5
ENDMDL
MODEL 8
REMARK VINA RESULT:    -9.934      1.720      2.293
REMARK INTER + INTRA:         -13.417
REMARK INTER:                 -13.206
REMARK INTRA:                  -0.211
REMARK UNBOUND:                -0.580
REMARK SMILES O=c1[nH]c2cc(Cl)ccc2c(=O)n1CC[C@H]1CC[N@@H+](Cc2ccccc2)CC1
REMARK SMILES IDX 15 1 16 2 18 3 19 4 17 5 27 6 28 7 20 9 21 10 22 11 26 12
REMARK SMILES IDX 23 13 25 14 24 15 14 16 13 17 11 18 2 19 10 20 3 21 9 22
REMARK SMILES IDX 4 23 8 24 5 25 6 26 12 27 1 28 7 30
REMARK H PARENT 19 8 3 29
ROOT
ATOM      1  C   UNL     1      10.112 -54.631 -23.150  1.00  0.00     0.026 C 
ENDROOT
BRANCH   1   2
ATOM      2  C   UNL     1       9.963 -56.048 -22.562  1.00  0.00     0.002 C 
ATOM      3  C   UNL     1       8.969 -58.345 -22.946  1.00  0.00     0.262 C 
ATOM      4  N   UNL     1      10.314 -58.968 -22.679  1.00  0.00    -0.331 N 
ATOM      5  C   UNL     1       9.125 -56.933 -23.500  1.00  0.00     0.065 C 
ATOM      6  C   UNL     1      11.150 -58.125 -21.745  1.00  0.00     0.262 C 
ATOM      7  C   UNL     1      11.321 -56.717 -22.298  1.00  0.00     0.065 C 
ATOM      8  H   UNL     1      10.127 -59.835 -22.161  1.00  0.00     0.348 HD
BRANCH   4   9
ATOM      9  C   UNL     1      11.022 -59.428 -23.938  1.00  0.00     0.299 C 
BRANCH   9  10
ATOM     10  C   UNL     1      10.235 -60.446 -24.718  1.00  0.00     0.006 A 
ATOM     11  C   UNL     1       9.723 -61.589 -24.083  1.00  0.00     0.009 A 
ATOM     12  C   UNL     1      10.020 -60.279 -26.095  1.00  0.00     0.009 A 
ATOM     13  C   UNL     1       9.017 -62.545 -24.814  1.00  0.00     0.001 A 
ATOM     14  C   UNL     1       9.314 -61.238 -26.820  1.00  0.00     0.001 A 
ATOM     15  C   UNL     1       8.814 -62.371 -26.181  1.00  0.00     0.000 A 
ENDBRANCH   9  10
ENDBRANCH   4   9
ENDBRANCH   1   2
BRANCH   1  16
ATOM     16  C   UNL     1      11.553 -54.097 -23.213  1.00  0.00     0.131 C 
BRANCH  16  17
ATOM     17  N   UNL     1      11.650 -52.654 -23.004  1.00  0.00    -0.260 N 
ATOM     18  C   UNL     1      12.364 -51.891 -23.925  1.00  0.00     0.264 A 
ATOM     19  C   UNL     1      11.063 -52.135 -21.859  1.00  0.00     0.328 A 
ATOM     20  C   UNL     1      12.348 -50.427 -23.733  1.00  0.00     0.064 A 
ATOM     21  N   UNL     1      11.114 -50.781 -21.700  1.00  0.00    -0.307 N 
ATOM     22  C   UNL     1      12.962 -49.568 -24.652  1.00  0.00     0.017 A 
ATOM     23  C   UNL     1      11.714 -49.912 -22.607  1.00  0.00     0.057 A 
ATOM     24  C   UNL     1      12.935 -48.190 -24.431  1.00  0.00     0.021 A 
ATOM     25  C   UNL     1      11.687 -48.536 -22.379  1.00  0.00     0.047 A 
ATOM     26  C   UNL     1      12.300 -47.681 -23.296  1.00  0.00     0.043 A 
ATOM     27  O   UNL     1      13.025 -52.366 -24.847  1.00  0.00    -0.268 OA
ATOM     28  O   UNL     1      10.526 -52.825 -20.993  1.00  0.00    -0.248 OA
ATOM     29  H   UNL     1      10.655 -50.424 -20.869  1.00  0.00     0.171 HD
ATOM     30  Cl  UNL     1      12.275 -45.983 -23.025  1.00  0.00    -0.084 Cl
ENDBRANCH  16  17
ENDBRANCH   1  16
TORSDOF 5
ENDMDL
MODEL 9
REMARK VINA RESULT:    -9.845      2.460      3.982
REMARK INTER + INTRA:         -13.302
REMARK INTER:                 -12.640
REMARK INTRA:                  -0.663
REMARK UNBOUND:                -0.580
REMARK SMILES O=c1[nH]c2cc(Cl)ccc2c(=O)n1CC[C@H]1CC[N@@H+](Cc2ccccc2)CC1
REMARK SMILES IDX 15 1 16 2 18 3 19 4 17 5 27 6 28 7 20 9 21 10 22 11 26 12
REMARK SMILES IDX 23 13 25 14 24 15 14 16 13 17 11 18 2 19 10 20 3 21 9 22
REMARK SMILES IDX 4 23 8 24 5 25 6 26 12 27 1 28 7 30
REMARK H PARENT 19 8 3 29
ROOT
ATOM      1  C   UNL     1      10.173 -52.898 -22.616  1.00  0.00     0.026 C 
ENDROOT
BRANCH   1   2
ATOM      2  C   UNL     1      10.984 -54.209 -22.646  1.00  0.00     0.002 C 
ATOM      3  C   UNL     1      11.286 -56.470 -21.548  1.00  0.00     0.262 C 
ATOM      4  N   UNL     1      11.199 -57.133 -22.897  1.00  0.00    -0.331 N 
ATOM      5  C   UNL     1      10.507 -55.160 -21.536  1.00  0.00     0.065 C 
ATOM      6  C   UNL     1      11.680 -56.224 -24.004  1.00  0.00     0.262 C 
ATOM      7  C   UNL     1      10.897 -54.919 -24.006  1.00  0.00     0.065 C 
ATOM      8  H   UNL     1      11.874 -57.908 -22.877  1.00  0.00     0.348 HD
BRANCH   4   9
ATOM      9  C   UNL     1       9.864 -57.805 -23.151  1.00  0.00     0.299 C 
BRANCH   9  10
ATOM     10  C   UNL     1       9.998 -59.249 -23.553  1.00  0.00     0.006 A 
ATOM     11  C   UNL     1       9.250 -59.761 -24.625  1.00  0.00     0.009 A 
ATOM     12  C   UNL     1      10.856 -60.109 -22.850  1.00  0.00     0.009 A 
ATOM     13  C   UNL     1       9.355 -61.108 -24.979  1.00  0.00     0.001 A 
ATOM     14  C   UNL     1      10.958 -61.452 -23.208  1.00  0.00     0.001 A 
ATOM     15  C   UNL     1      10.207 -61.952 -24.270  1.00  0.00     0.000 A 
ENDBRANCH   9  10
ENDBRANCH   4   9
ENDBRANCH   1   2
BRANCH   1  16
ATOM     16  C   UNL     1      10.693 -51.830 -21.638  1.00  0.00     0.131 C 
BRANCH  16  17
ATOM     17  N   UNL     1      10.947 -50.536 -22.270  1.00  0.00    -0.260 N 
ATOM     18  C   UNL     1      12.193 -50.307 -22.848  1.00  0.00     0.264 A 
ATOM     19  C   UNL     1       9.937 -49.586 -22.205  1.00  0.00     0.328 A 
ATOM     20  C   UNL     1      12.370 -49.029 -23.565  1.00  0.00     0.064 A 
ATOM     21  N   UNL     1      10.164 -48.401 -22.842  1.00  0.00    -0.307 N 
ATOM     22  C   UNL     1      13.554 -48.741 -24.253  1.00  0.00     0.017 A 
ATOM     23  C   UNL     1      11.333 -48.102 -23.536  1.00  0.00     0.057 A 
ATOM     24  C   UNL     1      13.690 -47.517 -24.911  1.00  0.00     0.021 A 
ATOM     25  C   UNL     1      11.463 -46.876 -24.189  1.00  0.00     0.047 A 
ATOM     26  C   UNL     1      12.645 -46.590 -24.875  1.00  0.00     0.043 A 
ATOM     27  O   UNL     1      13.145 -51.081 -22.761  1.00  0.00    -0.268 OA
ATOM     28  O   UNL     1       8.879 -49.754 -21.600  1.00  0.00    -0.248 OA
ATOM     29  H   UNL     1       9.401 -47.735 -22.803  1.00  0.00     0.171 HD
ATOM     30  Cl  UNL     1      12.818 -45.082 -25.680  1.00  0.00    -0.084 Cl
ENDBRANCH  16  17
ENDBRANCH   1  16
TORSDOF 5
ENDMDL
