MODEL 1
REMARK VINA RESULT:    -9.164      0.000      0.000
REMARK INTER + INTRA:         -13.873
REMARK INTER:                 -12.646
REMARK INTRA:                  -1.226
REMARK UNBOUND:                -1.226
REMARK SMILES COc1ccc(OC)c([C@H]2C=C(c3cc(F)cc(F)c3)NN2c2ccc(S(N)(=O)=O)cc2)c1
REMARK SMILES IDX 23 1 24 2 25 3 26 4 31 5 32 6 22 7 21 8 12 9 11 10 10 11
REMARK SMILES IDX 13 13 14 14 20 15 15 16 18 17 17 18 16 19 19 20 9 21 33 22
REMARK SMILES IDX 6 23 3 24 5 25 4 26 7 27 8 28 2 29 1 30 27 31 29 32 30 33
REMARK SMILES IDX 28 34
REMARK H PARENT 21 12 28 35 28 36
ROOT
ATOM      1  C   UNL     1      12.774 -48.364 -24.671  1.00  0.00     0.058 A 
ATOM      2  C   UNL     1      11.770 -47.727 -23.917  1.00  0.00     0.029 A 
ATOM      3  C   UNL     1      11.635 -46.335 -23.886  1.00  0.00     0.024 A 
ATOM      4  C   UNL     1      12.512 -45.549 -24.630  1.00  0.00     0.082 A 
ATOM      5  C   UNL     1      13.523 -46.143 -25.381  1.00  0.00     0.024 A 
ATOM      6  C   UNL     1      13.643 -47.539 -25.401  1.00  0.00     0.029 A 
ENDROOT
BRANCH   1   7
ATOM      7  N   UNL     1      12.874 -49.753 -24.670  1.00  0.00    -0.276 N 
ATOM      8  N   UNL     1      12.255 -50.593 -23.755  1.00  0.00    -0.297 N 
ATOM      9  C   UNL     1      12.426 -51.918 -24.141  1.00  0.00     0.060 C 
ATOM     10  C   UNL     1      13.189 -51.983 -25.245  1.00  0.00     0.033 C 
ATOM     11  C   UNL     1      13.564 -50.584 -25.699  1.00  0.00     0.165 C 
ATOM     12  H   UNL     1      11.275 -50.385 -23.557  1.00  0.00     0.188 HD
BRANCH   9  13
ATOM     13  C   UNL     1      11.820 -53.023 -23.394  1.00  0.00     0.005 A 
ATOM     14  C   UNL     1      11.339 -52.846 -22.091  1.00  0.00     0.049 A 
ATOM     15  C   UNL     1      11.723 -54.297 -23.974  1.00  0.00     0.049 A 
ATOM     16  C   UNL     1      10.776 -53.918 -21.398  1.00  0.00     0.126 A 
ATOM     17  C   UNL     1      11.157 -55.352 -23.262  1.00  0.00     0.126 A 
ATOM     18  C   UNL     1      10.680 -55.176 -21.972  1.00  0.00     0.078 A 
ATOM     19  F   UNL     1      10.325 -53.728 -20.151  1.00  0.00    -0.207 F 
ATOM     20  F   UNL     1      11.074 -56.560 -23.834  1.00  0.00    -0.207 F 
ENDBRANCH   9  13
BRANCH  11  21
ATOM     21  C   UNL     1      15.061 -50.360 -25.803  1.00  0.00     0.026 A 
ATOM     22  C   UNL     1      15.851 -50.577 -24.655  1.00  0.00     0.056 A 
ATOM     23  C   UNL     1      15.717 -49.941 -26.970  1.00  0.00     0.124 A 
ATOM     24  C   UNL     1      17.239 -50.399 -24.665  1.00  0.00     0.119 A 
ATOM     25  C   UNL     1      17.101 -49.736 -26.981  1.00  0.00     0.050 A 
ATOM     26  C   UNL     1      17.862 -49.974 -25.835  1.00  0.00     0.050 A 
BRANCH  23  27
ATOM     27  O   UNL     1      14.998 -49.634 -28.093  1.00  0.00    -0.496 OA
ATOM     28  C   UNL     1      15.780 -48.884 -29.020  1.00  0.00     0.278 C 
ENDBRANCH  23  27
BRANCH  24  29
ATOM     29  O   UNL     1      17.856 -50.663 -23.474  1.00  0.00    -0.497 OA
ATOM     30  C   UNL     1      17.032 -51.137 -22.416  1.00  0.00     0.278 C 
ENDBRANCH  24  29
ENDBRANCH  11  21
ENDBRANCH   1   7
BRANCH   4  31
ATOM     31  S   UNL     1      12.368 -43.785 -24.599  1.00  0.00     0.238 S 
ATOM     32  O   UNL     1      13.505 -43.244 -23.893  1.00  0.00    -0.207 OA
ATOM     33  O   UNL     1      11.005 -43.439 -24.264  1.00  0.00    -0.207 OA
BRANCH  31  34
ATOM     34  N   UNL     1      12.542 -43.406 -26.231  1.00  0.00    -0.225 NA
ATOM     35  H   UNL     1      13.090 -42.547 -26.312  1.00  0.00     0.137 HD
ATOM     36  H   UNL     1      11.653 -43.339 -26.726  1.00  0.00     0.137 HD
ENDBRANCH  31  34
ENDBRANCH   4  31
TORSDOF 7
ENDMDL
MODEL 2
REMARK VINA RESULT:    -9.143      0.681      1.604
REMARK INTER + INTRA:         -13.843
REMARK INTER:                 -12.559
REMARK INTRA:                  -1.284
REMARK UNBOUND:                -1.226
REMARK SMILES COc1ccc(OC)c([C@H]2C=C(c3cc(F)cc(F)c3)NN2c2ccc(S(N)(=O)=O)cc2)c1
REMARK SMILES IDX 23 1 24 2 25 3 26 4 31 5 32 6 22 7 21 8 12 9 11 10 10 11
REMARK SMILES IDX 13 13 14 14 20 15 15 16 18 17 17 18 16 19 19 20 9 21 33 22
REMARK SMILES IDX 6 23 3 24 5 25 4 26 7 27 8 28 2 29 1 30 27 31 29 32 30 33
REMARK SMILES IDX 28 34
REMARK H PARENT 21 12 28 35 28 36
ROOT
ATOM      1  C   UNL     1      12.653 -48.316 -24.617  1.00  0.00     0.058 A 
ATOM      2  C   UNL     1      11.631 -47.716 -23.857  1.00  0.00     0.029 A 
ATOM      3  C   UNL     1      11.450 -46.329 -23.821  1.00  0.00     0.024 A 
ATOM      4  C   UNL     1      12.297 -45.512 -24.566  1.00  0.00     0.082 A 
ATOM      5  C   UNL     1      13.324 -46.069 -25.324  1.00  0.00     0.024 A 
ATOM      6  C   UNL     1      13.491 -47.460 -25.348  1.00  0.00     0.029 A 
ENDROOT
BRANCH   1   7
ATOM      7  N   UNL     1      12.801 -49.701 -24.621  1.00  0.00    -0.276 N 
ATOM      8  N   UNL     1      12.194 -50.566 -23.721  1.00  0.00    -0.297 N 
ATOM      9  C   UNL     1      12.416 -51.882 -24.109  1.00  0.00     0.060 C 
ATOM     10  C   UNL     1      13.201 -51.916 -25.200  1.00  0.00     0.033 C 
ATOM     11  C   UNL     1      13.537 -50.503 -25.640  1.00  0.00     0.165 C 
ATOM     12  H   UNL     1      11.204 -50.392 -23.539  1.00  0.00     0.188 HD
BRANCH   9  13
ATOM     13  C   UNL     1      11.835 -53.011 -23.379  1.00  0.00     0.005 A 
ATOM     14  C   UNL     1      11.722 -54.279 -23.965  1.00  0.00     0.049 A 
ATOM     15  C   UNL     1      11.361 -52.836 -22.070  1.00  0.00     0.049 A 
ATOM     16  C   UNL     1      11.154 -55.334 -23.251  1.00  0.00     0.126 A 
ATOM     17  C   UNL     1      10.797 -53.906 -21.378  1.00  0.00     0.126 A 
ATOM     18  C   UNL     1      10.688 -55.160 -21.958  1.00  0.00     0.078 A 
ATOM     19  F   UNL     1      11.053 -56.538 -23.831  1.00  0.00    -0.207 F 
ATOM     20  F   UNL     1      10.352 -53.718 -20.129  1.00  0.00    -0.207 F 
ENDBRANCH   9  13
BRANCH  11  21
ATOM     21  C   UNL     1      15.027 -50.228 -25.717  1.00  0.00     0.026 A 
ATOM     22  C   UNL     1      15.788 -50.339 -24.535  1.00  0.00     0.056 A 
ATOM     23  C   UNL     1      15.702 -49.860 -26.889  1.00  0.00     0.124 A 
ATOM     24  C   UNL     1      17.169 -50.107 -24.517  1.00  0.00     0.119 A 
ATOM     25  C   UNL     1      17.078 -49.603 -26.874  1.00  0.00     0.050 A 
ATOM     26  C   UNL     1      17.812 -49.736 -25.694  1.00  0.00     0.050 A 
BRANCH  23  27
ATOM     27  O   UNL     1      15.008 -49.656 -28.050  1.00  0.00    -0.496 OA
ATOM     28  C   UNL     1      15.232 -48.344 -28.564  1.00  0.00     0.278 C 
ENDBRANCH  23  27
BRANCH  24  29
ATOM     29  O   UNL     1      17.757 -50.270 -23.294  1.00  0.00    -0.497 OA
ATOM     30  C   UNL     1      17.165 -51.221 -22.418  1.00  0.00     0.278 C 
ENDBRANCH  24  29
ENDBRANCH  11  21
ENDBRANCH   1   7
BRANCH   4  31
ATOM     31  S   UNL     1      12.093 -43.754 -24.530  1.00  0.00     0.238 S 
ATOM     32  O   UNL     1      12.515 -43.216 -25.801  1.00  0.00    -0.207 OA
ATOM     33  O   UNL     1      12.593 -43.257 -23.268  1.00  0.00    -0.207 OA
BRANCH  31  34
ATOM     34  N   UNL     1      10.417 -43.613 -24.438  1.00  0.00    -0.225 NA
ATOM     35  H   UNL     1      10.140 -43.627 -23.454  1.00  0.00     0.137 HD
ATOM     36  H   UNL     1       9.923 -44.318 -24.983  1.00  0.00     0.137 HD
ENDBRANCH  31  34
ENDBRANCH   4  31
TORSDOF 7
ENDMDL
MODEL 3
REMARK VINA RESULT:    -8.979      1.033      2.444
REMARK INTER + INTRA:         -13.617
REMARK INTER:                 -12.466
REMARK INTRA:                  -1.151
REMARK UNBOUND:                -1.226
REMARK SMILES COc1ccc(OC)c([C@H]2C=C(c3cc(F)cc(F)c3)NN2c2ccc(S(N)(=O)=O)cc2)c1
REMARK SMILES IDX 23 1 24 2 25 3 26 4 31 5 32 6 22 7 21 8 12 9 11 10 10 11
REMARK SMILES IDX 13 13 14 14 20 15 15 16 18 17 17 18 16 19 19 20 9 21 33 22
REMARK SMILES IDX 6 23 3 24 5 25 4 26 7 27 8 28 2 29 1 30 27 31 29 32 30 33
REMARK SMILES IDX 28 34
REMARK H PARENT 21 12 28 35 28 36
ROOT
ATOM      1  C   UNL     1      12.345 -48.086 -24.159  1.00  0.00     0.058 A 
ATOM      2  C   UNL     1      11.439 -47.565 -23.216  1.00  0.00     0.029 A 
ATOM      3  C   UNL     1      11.223 -46.189 -23.076  1.00  0.00     0.024 A 
ATOM      4  C   UNL     1      11.916 -45.304 -23.899  1.00  0.00     0.082 A 
ATOM      5  C   UNL     1      12.827 -45.783 -24.837  1.00  0.00     0.024 A 
ATOM      6  C   UNL     1      13.030 -47.163 -24.964  1.00  0.00     0.029 A 
ENDROOT
BRANCH   1   7
ATOM      7  N   UNL     1      12.532 -49.463 -24.262  1.00  0.00    -0.276 N 
ATOM      8  N   UNL     1      12.000 -50.403 -23.391  1.00  0.00    -0.297 N 
ATOM      9  C   UNL     1      12.239 -51.684 -23.877  1.00  0.00     0.060 C 
ATOM     10  C   UNL     1      12.965 -51.622 -25.006  1.00  0.00     0.033 C 
ATOM     11  C   UNL     1      13.235 -50.173 -25.369  1.00  0.00     0.165 C 
ATOM     12  H   UNL     1      11.017 -50.274 -23.147  1.00  0.00     0.188 HD
BRANCH   9  13
ATOM     13  C   UNL     1      11.731 -52.876 -23.193  1.00  0.00     0.005 A 
ATOM     14  C   UNL     1      11.267 -52.818 -21.873  1.00  0.00     0.049 A 
ATOM     15  C   UNL     1      11.714 -54.114 -23.852  1.00  0.00     0.049 A 
ATOM     16  C   UNL     1      10.798 -53.970 -21.241  1.00  0.00     0.126 A 
ATOM     17  C   UNL     1      11.241 -55.251 -23.200  1.00  0.00     0.126 A 
ATOM     18  C   UNL     1      10.781 -55.192 -21.894  1.00  0.00     0.078 A 
ATOM     19  F   UNL     1      10.362 -53.893 -19.977  1.00  0.00    -0.207 F 
ATOM     20  F   UNL     1      11.233 -56.423 -23.849  1.00  0.00    -0.207 F 
ENDBRANCH   9  13
BRANCH  11  21
ATOM     21  C   UNL     1      14.710 -49.845 -25.505  1.00  0.00     0.026 A 
ATOM     22  C   UNL     1      15.198 -49.477 -26.776  1.00  0.00     0.056 A 
ATOM     23  C   UNL     1      15.629 -49.891 -24.447  1.00  0.00     0.124 A 
ATOM     24  C   UNL     1      16.544 -49.155 -26.989  1.00  0.00     0.119 A 
ATOM     25  C   UNL     1      16.981 -49.594 -24.658  1.00  0.00     0.050 A 
ATOM     26  C   UNL     1      17.435 -49.217 -25.922  1.00  0.00     0.050 A 
BRANCH  23  27
ATOM     27  O   UNL     1      15.235 -50.320 -23.209  1.00  0.00    -0.496 OA
ATOM     28  C   UNL     1      16.080 -51.363 -22.728  1.00  0.00     0.278 C 
ENDBRANCH  23  27
BRANCH  24  29
ATOM     29  O   UNL     1      16.849 -48.808 -28.276  1.00  0.00    -0.497 OA
ATOM     30  C   UNL     1      15.806 -48.920 -29.235  1.00  0.00     0.278 C 
ENDBRANCH  24  29
ENDBRANCH  11  21
ENDBRANCH   1   7
BRANCH   4  31
ATOM     31  S   UNL     1      11.667 -43.559 -23.734  1.00  0.00     0.238 S 
ATOM     32  O   UNL     1      12.749 -42.876 -24.403  1.00  0.00    -0.207 OA
ATOM     33  O   UNL     1      11.290 -43.274 -22.369  1.00  0.00    -0.207 OA
BRANCH  31  34
ATOM     34  N   UNL     1      10.269 -43.332 -24.645  1.00  0.00    -0.225 NA
ATOM     35  H   UNL     1       9.968 -42.360 -24.548  1.00  0.00     0.137 HD
ATOM     36  H   UNL     1       9.524 -43.987 -24.410  1.00  0.00     0.137 HD
ENDBRANCH  31  34
ENDBRANCH   4  31
TORSDOF 7
ENDMDL
MODEL 4
REMARK VINA RESULT:    -8.744      4.372      7.759
REMARK INTER + INTRA:         -13.293
REMARK INTER:                 -11.856
REMARK INTRA:                  -1.437
REMARK UNBOUND:                -1.226
REMARK SMILES COc1ccc(OC)c([C@H]2C=C(c3cc(F)cc(F)c3)NN2c2ccc(S(N)(=O)=O)cc2)c1
REMARK SMILES IDX 23 1 24 2 25 3 26 4 31 5 32 6 22 7 21 8 12 9 11 10 10 11
REMARK SMILES IDX 13 13 14 14 20 15 15 16 18 17 17 18 16 19 19 20 9 21 33 22
REMARK SMILES IDX 6 23 3 24 5 25 4 26 7 27 8 28 2 29 1 30 27 31 29 32 30 33
REMARK SMILES IDX 28 34
REMARK H PARENT 21 12 28 35 28 36
ROOT
ATOM      1  C   UNL     1      12.511 -51.039 -23.544  1.00  0.00     0.058 A 
ATOM      2  C   UNL     1      12.779 -52.015 -24.522  1.00  0.00     0.029 A 
ATOM      3  C   UNL     1      12.270 -53.315 -24.432  1.00  0.00     0.024 A 
ATOM      4  C   UNL     1      11.465 -53.658 -23.348  1.00  0.00     0.082 A 
ATOM      5  C   UNL     1      11.184 -52.721 -22.357  1.00  0.00     0.024 A 
ATOM      6  C   UNL     1      11.702 -51.423 -22.463  1.00  0.00     0.029 A 
ENDROOT
BRANCH   1   7
ATOM      7  N   UNL     1      13.040 -49.757 -23.671  1.00  0.00    -0.276 N 
ATOM      8  N   UNL     1      12.315 -48.631 -24.035  1.00  0.00    -0.297 N 
ATOM      9  C   UNL     1      13.108 -47.497 -23.902  1.00  0.00     0.060 C 
ATOM     10  C   UNL     1      14.349 -47.842 -23.523  1.00  0.00     0.033 C 
ATOM     11  C   UNL     1      14.435 -49.346 -23.339  1.00  0.00     0.165 C 
ATOM     12  H   UNL     1      11.415 -48.515 -23.568  1.00  0.00     0.188 HD
BRANCH   9  13
ATOM     13  C   UNL     1      12.581 -46.153 -24.156  1.00  0.00     0.005 A 
ATOM     14  C   UNL     1      13.204 -45.284 -25.061  1.00  0.00     0.049 A 
ATOM     15  C   UNL     1      11.438 -45.703 -23.477  1.00  0.00     0.049 A 
ATOM     16  C   UNL     1      12.688 -44.006 -25.276  1.00  0.00     0.126 A 
ATOM     17  C   UNL     1      10.942 -44.422 -23.709  1.00  0.00     0.126 A 
ATOM     18  C   UNL     1      11.559 -43.563 -24.606  1.00  0.00     0.078 A 
ATOM     19  F   UNL     1      13.301 -43.190 -26.143  1.00  0.00    -0.207 F 
ATOM     20  F   UNL     1       9.850 -44.013 -23.051  1.00  0.00    -0.207 F 
ENDBRANCH   9  13
BRANCH  11  21
ATOM     21  C   UNL     1      15.513 -50.001 -24.183  1.00  0.00     0.026 A 
ATOM     22  C   UNL     1      15.554 -49.705 -25.561  1.00  0.00     0.056 A 
ATOM     23  C   UNL     1      16.473 -50.893 -23.684  1.00  0.00     0.124 A 
ATOM     24  C   UNL     1      16.517 -50.262 -26.411  1.00  0.00     0.119 A 
ATOM     25  C   UNL     1      17.424 -51.472 -24.532  1.00  0.00     0.050 A 
ATOM     26  C   UNL     1      17.453 -51.150 -25.890  1.00  0.00     0.050 A 
BRANCH  23  27
ATOM     27  O   UNL     1      16.436 -51.284 -22.373  1.00  0.00    -0.496 OA
ATOM     28  C   UNL     1      17.631 -50.911 -21.688  1.00  0.00     0.278 C 
ENDBRANCH  23  27
BRANCH  24  29
ATOM     29  O   UNL     1      16.424 -49.862 -27.715  1.00  0.00    -0.497 OA
ATOM     30  C   UNL     1      15.232 -49.187 -28.096  1.00  0.00     0.278 C 
ENDBRANCH  24  29
ENDBRANCH  11  21
ENDBRANCH   1   7
BRANCH   4  31
ATOM     31  S   UNL     1      10.818 -55.300 -23.207  1.00  0.00     0.238 S 
ATOM     32  O   UNL     1       9.483 -55.316 -23.757  1.00  0.00    -0.207 OA
ATOM     33  O   UNL     1      11.125 -55.805 -21.889  1.00  0.00    -0.207 OA
BRANCH  31  34
ATOM     34  N   UNL     1      11.823 -56.147 -24.260  1.00  0.00    -0.225 NA
ATOM     35  H   UNL     1      12.285 -55.480 -24.881  1.00  0.00     0.137 HD
ATOM     36  H   UNL     1      11.338 -56.878 -24.780  1.00  0.00     0.137 HD
ENDBRANCH  31  34
ENDBRANCH   4  31
TORSDOF 7
ENDMDL
MODEL 5
REMARK VINA RESULT:    -8.679      4.578      8.001
REMARK INTER + INTRA:         -13.203
REMARK INTER:                 -12.097
REMARK INTRA:                  -1.106
REMARK UNBOUND:                -1.226
REMARK SMILES COc1ccc(OC)c([C@H]2C=C(c3cc(F)cc(F)c3)NN2c2ccc(S(N)(=O)=O)cc2)c1
REMARK SMILES IDX 23 1 24 2 25 3 26 4 31 5 32 6 22 7 21 8 12 9 11 10 10 11
REMARK SMILES IDX 13 13 14 14 20 15 15 16 18 17 17 18 16 19 19 20 9 21 33 22
REMARK SMILES IDX 6 23 3 24 5 25 4 26 7 27 8 28 2 29 1 30 27 31 29 32 30 33
REMARK SMILES IDX 28 34
REMARK H PARENT 21 12 28 35 28 36
ROOT
ATOM      1  C   UNL     1      12.793 -51.422 -24.665  1.00  0.00     0.058 A 
ATOM      2  C   UNL     1      12.053 -51.130 -23.503  1.00  0.00     0.029 A 
ATOM      3  C   UNL     1      11.340 -52.115 -22.810  1.00  0.00     0.024 A 
ATOM      4  C   UNL     1      11.367 -53.428 -23.274  1.00  0.00     0.082 A 
ATOM      5  C   UNL     1      12.082 -53.752 -24.425  1.00  0.00     0.024 A 
ATOM      6  C   UNL     1      12.790 -52.754 -25.105  1.00  0.00     0.029 A 
ENDROOT
BRANCH   1   7
ATOM      7  N   UNL     1      13.485 -50.410 -25.325  1.00  0.00    -0.276 N 
ATOM      8  N   UNL     1      14.427 -50.614 -26.324  1.00  0.00    -0.297 N 
ATOM      9  C   UNL     1      14.797 -49.395 -26.880  1.00  0.00     0.060 C 
ATOM     10  C   UNL     1      14.177 -48.388 -26.241  1.00  0.00     0.033 C 
ATOM     11  C   UNL     1      13.265 -48.944 -25.161  1.00  0.00     0.165 C 
ATOM     12  H   UNL     1      14.169 -51.290 -27.044  1.00  0.00     0.188 HD
BRANCH   9  13
ATOM     13  C   UNL     1      15.732 -49.311 -28.005  1.00  0.00     0.005 A 
ATOM     14  C   UNL     1      15.308 -48.909 -29.278  1.00  0.00     0.049 A 
ATOM     15  C   UNL     1      17.081 -49.651 -27.827  1.00  0.00     0.049 A 
ATOM     16  C   UNL     1      16.216 -48.849 -30.334  1.00  0.00     0.126 A 
ATOM     17  C   UNL     1      17.970 -49.583 -28.898  1.00  0.00     0.126 A 
ATOM     18  C   UNL     1      17.550 -49.184 -30.157  1.00  0.00     0.078 A 
ATOM     19  F   UNL     1      15.790 -48.465 -31.545  1.00  0.00    -0.207 F 
ATOM     20  F   UNL     1      19.255 -49.911 -28.707  1.00  0.00    -0.207 F 
ENDBRANCH   9  13
BRANCH  11  21
ATOM     21  C   UNL     1      13.565 -48.403 -23.776  1.00  0.00     0.026 A 
ATOM     22  C   UNL     1      12.604 -47.574 -23.160  1.00  0.00     0.056 A 
ATOM     23  C   UNL     1      14.744 -48.666 -23.064  1.00  0.00     0.124 A 
ATOM     24  C   UNL     1      12.798 -47.037 -21.882  1.00  0.00     0.119 A 
ATOM     25  C   UNL     1      14.955 -48.113 -21.796  1.00  0.00     0.050 A 
ATOM     26  C   UNL     1      13.981 -47.309 -21.201  1.00  0.00     0.050 A 
BRANCH  23  27
ATOM     27  O   UNL     1      15.749 -49.396 -23.639  1.00  0.00    -0.496 OA
ATOM     28  C   UNL     1      16.063 -50.549 -22.860  1.00  0.00     0.278 C 
ENDBRANCH  23  27
BRANCH  24  29
ATOM     29  O   UNL     1      11.765 -46.265 -21.426  1.00  0.00    -0.497 OA
ATOM     30  C   UNL     1      10.585 -46.240 -22.219  1.00  0.00     0.278 C 
ENDBRANCH  24  29
ENDBRANCH  11  21
ENDBRANCH   1   7
BRANCH   4  31
ATOM     31  S   UNL     1      10.465 -54.689 -22.420  1.00  0.00     0.238 S 
ATOM     32  O   UNL     1       9.431 -54.061 -21.632  1.00  0.00    -0.207 OA
ATOM     33  O   UNL     1      11.406 -55.633 -21.862  1.00  0.00    -0.207 OA
BRANCH  31  34
ATOM     34  N   UNL     1       9.724 -55.495 -23.700  1.00  0.00    -0.225 NA
ATOM     35  H   UNL     1       8.813 -55.065 -23.876  1.00  0.00     0.137 HD
ATOM     36  H   UNL     1       9.647 -56.501 -23.553  1.00  0.00     0.137 HD
ENDBRANCH  31  34
ENDBRANCH   4  31
TORSDOF 7
ENDMDL
MODEL 6
REMARK VINA RESULT:    -8.650      3.689      5.516
REMARK INTER + INTRA:         -13.163
REMARK INTER:                 -11.678
REMARK INTRA:                  -1.485
REMARK UNBOUND:                -1.226
REMARK SMILES COc1ccc(OC)c([C@H]2C=C(c3cc(F)cc(F)c3)NN2c2ccc(S(N)(=O)=O)cc2)c1
REMARK SMILES IDX 23 1 24 2 25 3 26 4 31 5 32 6 22 7 21 8 12 9 11 10 10 11
REMARK SMILES IDX 13 13 14 14 20 15 15 16 18 17 17 18 16 19 19 20 9 21 33 22
REMARK SMILES IDX 6 23 3 24 5 25 4 26 7 27 8 28 2 29 1 30 27 31 29 32 30 33
REMARK SMILES IDX 28 34
REMARK H PARENT 21 12 28 35 28 36
ROOT
ATOM      1  C   UNL     1      14.253 -47.696 -21.161  1.00  0.00     0.058 A 
ATOM      2  C   UNL     1      13.879 -47.087 -19.948  1.00  0.00     0.029 A 
ATOM      3  C   UNL     1      14.801 -46.413 -19.140  1.00  0.00     0.024 A 
ATOM      4  C   UNL     1      16.130 -46.330 -19.548  1.00  0.00     0.082 A 
ATOM      5  C   UNL     1      16.539 -46.927 -20.738  1.00  0.00     0.024 A 
ATOM      6  C   UNL     1      15.602 -47.598 -21.534  1.00  0.00     0.029 A 
ENDROOT
BRANCH   1   7
ATOM      7  N   UNL     1      13.303 -48.360 -21.932  1.00  0.00    -0.276 N 
ATOM      8  N   UNL     1      13.253 -49.735 -22.120  1.00  0.00    -0.297 N 
ATOM      9  C   UNL     1      12.089 -50.076 -22.800  1.00  0.00     0.060 C 
ATOM     10  C   UNL     1      11.401 -48.967 -23.122  1.00  0.00     0.033 C 
ATOM     11  C   UNL     1      12.121 -47.739 -22.597  1.00  0.00     0.165 C 
ATOM     12  H   UNL     1      13.373 -50.301 -21.279  1.00  0.00     0.188 HD
BRANCH   9  13
ATOM     13  C   UNL     1      11.739 -51.470 -23.080  1.00  0.00     0.005 A 
ATOM     14  C   UNL     1      10.761 -52.141 -22.335  1.00  0.00     0.049 A 
ATOM     15  C   UNL     1      12.397 -52.172 -24.102  1.00  0.00     0.049 A 
ATOM     16  C   UNL     1      10.454 -53.472 -22.615  1.00  0.00     0.126 A 
ATOM     17  C   UNL     1      12.074 -53.502 -24.362  1.00  0.00     0.126 A 
ATOM     18  C   UNL     1      11.104 -54.164 -23.625  1.00  0.00     0.078 A 
ATOM     19  F   UNL     1       9.517 -54.096 -21.889  1.00  0.00    -0.207 F 
ATOM     20  F   UNL     1      12.714 -54.153 -25.342  1.00  0.00    -0.207 F 
ENDBRANCH   9  13
BRANCH  11  21
ATOM     21  C   UNL     1      12.453 -46.723 -23.673  1.00  0.00     0.026 A 
ATOM     22  C   UNL     1      13.378 -47.088 -24.674  1.00  0.00     0.056 A 
ATOM     23  C   UNL     1      11.907 -45.433 -23.736  1.00  0.00     0.124 A 
ATOM     24  C   UNL     1      13.737 -46.213 -25.706  1.00  0.00     0.119 A 
ATOM     25  C   UNL     1      12.280 -44.544 -24.751  1.00  0.00     0.050 A 
ATOM     26  C   UNL     1      13.185 -44.936 -25.739  1.00  0.00     0.050 A 
BRANCH  23  27
ATOM     27  O   UNL     1      11.068 -44.990 -22.750  1.00  0.00    -0.496 OA
ATOM     28  C   UNL     1      10.602 -43.669 -23.021  1.00  0.00     0.278 C 
ENDBRANCH  23  27
BRANCH  24  29
ATOM     29  O   UNL     1      14.635 -46.727 -26.600  1.00  0.00    -0.497 OA
ATOM     30  C   UNL     1      14.676 -48.142 -26.727  1.00  0.00     0.278 C 
ENDBRANCH  24  29
ENDBRANCH  11  21
ENDBRANCH   1   7
BRANCH   4  31
ATOM     31  S   UNL     1      17.318 -45.490 -18.538  1.00  0.00     0.238 S 
ATOM     32  O   UNL     1      17.146 -44.068 -18.713  1.00  0.00    -0.207 OA
ATOM     33  O   UNL     1      18.597 -46.145 -18.690  1.00  0.00    -0.207 OA
BRANCH  31  34
ATOM     34  N   UNL     1      16.786 -45.892 -16.992  1.00  0.00    -0.225 NA
ATOM     35  H   UNL     1      17.252 -45.283 -16.316  1.00  0.00     0.137 HD
ATOM     36  H   UNL     1      16.910 -46.878 -16.766  1.00  0.00     0.137 HD
ENDBRANCH  31  34
ENDBRANCH   4  31
TORSDOF 7
ENDMDL
MODEL 7
REMARK VINA RESULT:    -8.627      3.784      5.877
REMARK INTER + INTRA:         -13.131
REMARK INTER:                 -11.652
REMARK INTRA:                  -1.479
REMARK UNBOUND:                -1.226
REMARK SMILES COc1ccc(OC)c([C@H]2C=C(c3cc(F)cc(F)c3)NN2c2ccc(S(N)(=O)=O)cc2)c1
REMARK SMILES IDX 23 1 24 2 25 3 26 4 31 5 32 6 22 7 21 8 12 9 11 10 10 11
REMARK SMILES IDX 13 13 14 14 20 15 15 16 18 17 17 18 16 19 19 20 9 21 33 22
REMARK SMILES IDX 6 23 3 24 5 25 4 26 7 27 8 28 2 29 1 30 27 31 29 32 30 33
REMARK SMILES IDX 28 34
REMARK H PARENT 21 12 28 35 28 36
ROOT
ATOM      1  C   UNL     1      14.409 -47.756 -21.127  1.00  0.00     0.058 A 
ATOM      2  C   UNL     1      13.992 -47.124 -19.940  1.00  0.00     0.029 A 
ATOM      3  C   UNL     1      14.889 -46.452 -19.102  1.00  0.00     0.024 A 
ATOM      4  C   UNL     1      16.236 -46.393 -19.454  1.00  0.00     0.082 A 
ATOM      5  C   UNL     1      16.686 -47.014 -20.617  1.00  0.00     0.024 A 
ATOM      6  C   UNL     1      15.774 -47.682 -21.443  1.00  0.00     0.029 A 
ENDROOT
BRANCH   1   7
ATOM      7  N   UNL     1      13.483 -48.417 -21.929  1.00  0.00    -0.276 N 
ATOM      8  N   UNL     1      13.563 -49.753 -22.298  1.00  0.00    -0.297 N 
ATOM      9  C   UNL     1      12.398 -50.131 -22.955  1.00  0.00     0.060 C 
ATOM     10  C   UNL     1      11.578 -49.075 -23.089  1.00  0.00     0.033 C 
ATOM     11  C   UNL     1      12.201 -47.851 -22.441  1.00  0.00     0.165 C 
ATOM     12  H   UNL     1      13.797 -50.405 -21.548  1.00  0.00     0.188 HD
BRANCH   9  13
ATOM     13  C   UNL     1      12.176 -51.509 -23.401  1.00  0.00     0.005 A 
ATOM     14  C   UNL     1      12.823 -52.023 -24.532  1.00  0.00     0.049 A 
ATOM     15  C   UNL     1      11.289 -52.343 -22.704  1.00  0.00     0.049 A 
ATOM     16  C   UNL     1      12.586 -53.335 -24.942  1.00  0.00     0.126 A 
ATOM     17  C   UNL     1      11.068 -53.650 -23.133  1.00  0.00     0.126 A 
ATOM     18  C   UNL     1      11.710 -54.158 -24.251  1.00  0.00     0.078 A 
ATOM     19  F   UNL     1      13.213 -53.806 -26.028  1.00  0.00    -0.207 F 
ATOM     20  F   UNL     1      10.218 -54.429 -22.452  1.00  0.00    -0.207 F 
ENDBRANCH   9  13
BRANCH  11  21
ATOM     21  C   UNL     1      12.354 -46.675 -23.386  1.00  0.00     0.026 A 
ATOM     22  C   UNL     1      11.443 -45.604 -23.273  1.00  0.00     0.056 A 
ATOM     23  C   UNL     1      13.341 -46.582 -24.378  1.00  0.00     0.124 A 
ATOM     24  C   UNL     1      11.515 -44.478 -24.102  1.00  0.00     0.119 A 
ATOM     25  C   UNL     1      13.404 -45.470 -25.226  1.00  0.00     0.050 A 
ATOM     26  C   UNL     1      12.501 -44.416 -25.083  1.00  0.00     0.050 A 
BRANCH  23  27
ATOM     27  O   UNL     1      14.203 -47.623 -24.592  1.00  0.00    -0.496 OA
ATOM     28  C   UNL     1      13.944 -48.261 -25.841  1.00  0.00     0.278 C 
ENDBRANCH  23  27
BRANCH  24  29
ATOM     29  O   UNL     1      10.565 -43.526 -23.853  1.00  0.00    -0.497 OA
ATOM     30  C   UNL     1      10.865 -42.568 -22.846  1.00  0.00     0.278 C 
ENDBRANCH  24  29
ENDBRANCH  11  21
ENDBRANCH   1   7
BRANCH   4  31
ATOM     31  S   UNL     1      17.391 -45.557 -18.405  1.00  0.00     0.238 S 
ATOM     32  O   UNL     1      17.323 -44.142 -18.683  1.00  0.00    -0.207 OA
ATOM     33  O   UNL     1      18.635 -46.294 -18.409  1.00  0.00    -0.207 OA
BRANCH  31  34
ATOM     34  N   UNL     1      16.715 -45.820 -16.885  1.00  0.00    -0.225 NA
ATOM     35  H   UNL     1      15.706 -45.943 -16.992  1.00  0.00     0.137 HD
ATOM     36  H   UNL     1      16.941 -45.089 -16.212  1.00  0.00     0.137 HD
ENDBRANCH  31  34
ENDBRANCH   4  31
TORSDOF 7
ENDMDL
MODEL 8
REMARK VINA RESULT:    -8.617      4.753      7.434
REMARK INTER + INTRA:         -13.117
REMARK INTER:                 -11.680
REMARK INTRA:                  -1.437
REMARK UNBOUND:                -1.226
REMARK SMILES COc1ccc(OC)c([C@H]2C=C(c3cc(F)cc(F)c3)NN2c2ccc(S(N)(=O)=O)cc2)c1
REMARK SMILES IDX 23 1 24 2 25 3 26 4 31 5 32 6 22 7 21 8 12 9 11 10 10 11
REMARK SMILES IDX 13 13 14 14 20 15 15 16 18 17 17 18 16 19 19 20 9 21 33 22
REMARK SMILES IDX 6 23 3 24 5 25 4 26 7 27 8 28 2 29 1 30 27 31 29 32 30 33
REMARK SMILES IDX 28 34
REMARK H PARENT 21 12 28 35 28 36
ROOT
ATOM      1  C   UNL     1      13.333 -50.869 -24.644  1.00  0.00     0.058 A 
ATOM      2  C   UNL     1      13.092 -52.229 -24.916  1.00  0.00     0.029 A 
ATOM      3  C   UNL     1      12.156 -52.976 -24.191  1.00  0.00     0.024 A 
ATOM      4  C   UNL     1      11.432 -52.357 -23.175  1.00  0.00     0.082 A 
ATOM      5  C   UNL     1      11.650 -51.015 -22.872  1.00  0.00     0.024 A 
ATOM      6  C   UNL     1      12.590 -50.283 -23.608  1.00  0.00     0.029 A 
ENDROOT
BRANCH   1   7
ATOM      7  N   UNL     1      14.276 -50.164 -25.388  1.00  0.00    -0.276 N 
ATOM      8  N   UNL     1      14.436 -50.262 -26.764  1.00  0.00    -0.297 N 
ATOM      9  C   UNL     1      15.345 -49.305 -27.201  1.00  0.00     0.060 C 
ATOM     10  C   UNL     1      15.837 -48.621 -26.154  1.00  0.00     0.033 C 
ATOM     11  C   UNL     1      15.198 -49.112 -24.868  1.00  0.00     0.165 C 
ATOM     12  H   UNL     1      13.576 -50.238 -27.311  1.00  0.00     0.188 HD
BRANCH   9  13
ATOM     13  C   UNL     1      15.660 -49.132 -28.622  1.00  0.00     0.005 A 
ATOM     14  C   UNL     1      16.911 -49.490 -29.141  1.00  0.00     0.049 A 
ATOM     15  C   UNL     1      14.707 -48.585 -29.494  1.00  0.00     0.049 A 
ATOM     16  C   UNL     1      17.188 -49.305 -30.495  1.00  0.00     0.126 A 
ATOM     17  C   UNL     1      15.008 -48.409 -30.843  1.00  0.00     0.126 A 
ATOM     18  C   UNL     1      16.246 -48.765 -31.356  1.00  0.00     0.078 A 
ATOM     19  F   UNL     1      18.392 -49.651 -30.971  1.00  0.00    -0.207 F 
ATOM     20  F   UNL     1      14.084 -47.886 -31.659  1.00  0.00    -0.207 F 
ENDBRANCH   9  13
BRANCH  11  21
ATOM     21  C   UNL     1      16.200 -49.594 -23.837  1.00  0.00     0.026 A 
ATOM     22  C   UNL     1      16.288 -48.897 -22.613  1.00  0.00     0.056 A 
ATOM     23  C   UNL     1      17.058 -50.688 -24.020  1.00  0.00     0.124 A 
ATOM     24  C   UNL     1      17.182 -49.276 -21.605  1.00  0.00     0.119 A 
ATOM     25  C   UNL     1      17.972 -51.058 -23.026  1.00  0.00     0.050 A 
ATOM     26  C   UNL     1      18.027 -50.361 -21.819  1.00  0.00     0.050 A 
BRANCH  23  27
ATOM     27  O   UNL     1      17.079 -51.355 -25.215  1.00  0.00    -0.496 OA
ATOM     28  C   UNL     1      16.828 -52.747 -25.035  1.00  0.00     0.278 C 
ENDBRANCH  23  27
BRANCH  24  29
ATOM     29  O   UNL     1      17.131 -48.502 -20.479  1.00  0.00    -0.497 OA
ATOM     30  C   UNL     1      18.193 -48.656 -19.546  1.00  0.00     0.278 C 
ENDBRANCH  24  29
ENDBRANCH  11  21
ENDBRANCH   1   7
BRANCH   4  31
ATOM     31  S   UNL     1      10.250 -53.284 -22.237  1.00  0.00     0.238 S 
ATOM     32  O   UNL     1      10.675 -53.308 -20.858  1.00  0.00    -0.207 OA
ATOM     33  O   UNL     1       9.916 -54.483 -22.971  1.00  0.00    -0.207 OA
BRANCH  31  34
ATOM     34  N   UNL     1       8.889 -52.296 -22.343  1.00  0.00    -0.225 NA
ATOM     35  H   UNL     1       8.112 -52.755 -21.863  1.00  0.00     0.137 HD
ATOM     36  H   UNL     1       8.649 -52.043 -23.301  1.00  0.00     0.137 HD
ENDBRANCH  31  34
ENDBRANCH   4  31
TORSDOF 7
ENDMDL
MODEL 9
REMARK VINA RESULT:    -8.343      3.293      5.836
REMARK INTER + INTRA:         -12.739
REMARK INTER:                 -10.990
REMARK INTRA:                  -1.749
REMARK UNBOUND:                -1.226
REMARK SMILES COc1ccc(OC)c([C@H]2C=C(c3cc(F)cc(F)c3)NN2c2ccc(S(N)(=O)=O)cc2)c1
REMARK SMILES IDX 23 1 24 2 25 3 26 4 31 5 32 6 22 7 21 8 12 9 11 10 10 11
REMARK SMILES IDX 13 13 14 14 20 15 15 16 18 17 17 18 16 19 19 20 9 21 33 22
REMARK SMILES IDX 6 23 3 24 5 25 4 26 7 27 8 28 2 29 1 30 27 31 29 32 30 33
REMARK SMILES IDX 28 34
REMARK H PARENT 21 12 28 35 28 36
ROOT
ATOM      1  C   UNL     1      15.570 -48.989 -28.305  1.00  0.00     0.058 A 
ATOM      2  C   UNL     1      14.794 -48.224 -29.196  1.00  0.00     0.029 A 
ATOM      3  C   UNL     1      15.305 -47.756 -30.411  1.00  0.00     0.024 A 
ATOM      4  C   UNL     1      16.618 -48.062 -30.761  1.00  0.00     0.082 A 
ATOM      5  C   UNL     1      17.418 -48.810 -29.901  1.00  0.00     0.024 A 
ATOM      6  C   UNL     1      16.890 -49.271 -28.688  1.00  0.00     0.029 A 
ENDROOT
BRANCH   1   7
ATOM      7  N   UNL     1      15.022 -49.432 -27.103  1.00  0.00    -0.276 N 
ATOM      8  N   UNL     1      14.222 -50.557 -26.962  1.00  0.00    -0.297 N 
ATOM      9  C   UNL     1      13.988 -50.804 -25.614  1.00  0.00     0.060 C 
ATOM     10  C   UNL     1      14.555 -49.844 -24.864  1.00  0.00     0.033 C 
ATOM     11  C   UNL     1      15.280 -48.851 -25.754  1.00  0.00     0.165 C 
ATOM     12  H   UNL     1      14.550 -51.395 -27.444  1.00  0.00     0.188 HD
BRANCH   9  13
ATOM     13  C   UNL     1      13.226 -51.971 -25.164  1.00  0.00     0.005 A 
ATOM     14  C   UNL     1      13.254 -53.179 -25.873  1.00  0.00     0.049 A 
ATOM     15  C   UNL     1      12.433 -51.893 -24.009  1.00  0.00     0.049 A 
ATOM     16  C   UNL     1      12.510 -54.272 -25.429  1.00  0.00     0.126 A 
ATOM     17  C   UNL     1      11.698 -52.999 -23.586  1.00  0.00     0.126 A 
ATOM     18  C   UNL     1      11.728 -54.194 -24.287  1.00  0.00     0.078 A 
ATOM     19  F   UNL     1      12.548 -55.416 -26.123  1.00  0.00    -0.207 F 
ATOM     20  F   UNL     1      10.948 -52.903 -22.480  1.00  0.00    -0.207 F 
ENDBRANCH   9  13
BRANCH  11  21
ATOM     21  C   UNL     1      14.812 -47.419 -25.574  1.00  0.00     0.026 A 
ATOM     22  C   UNL     1      13.498 -47.199 -25.109  1.00  0.00     0.056 A 
ATOM     23  C   UNL     1      15.599 -46.291 -25.847  1.00  0.00     0.124 A 
ATOM     24  C   UNL     1      12.988 -45.911 -24.911  1.00  0.00     0.119 A 
ATOM     25  C   UNL     1      15.086 -45.000 -25.675  1.00  0.00     0.050 A 
ATOM     26  C   UNL     1      13.789 -44.809 -25.198  1.00  0.00     0.050 A 
BRANCH  23  27
ATOM     27  O   UNL     1      16.852 -46.436 -26.377  1.00  0.00    -0.496 OA
ATOM     28  C   UNL     1      17.011 -45.648 -27.555  1.00  0.00     0.278 C 
ENDBRANCH  23  27
BRANCH  24  29
ATOM     29  O   UNL     1      11.702 -45.874 -24.446  1.00  0.00    -0.497 OA
ATOM     30  C   UNL     1      11.094 -47.122 -24.140  1.00  0.00     0.278 C 
ENDBRANCH  24  29
ENDBRANCH  11  21
ENDBRANCH   1   7
BRANCH   4  31
ATOM     31  S   UNL     1      17.290 -47.473 -32.289  1.00  0.00     0.238 S 
ATOM     32  O   UNL     1      18.452 -48.264 -32.615  1.00  0.00    -0.207 OA
ATOM     33  O   UNL     1      17.315 -46.028 -32.256  1.00  0.00    -0.207 OA
BRANCH  31  34
ATOM     34  N   UNL     1      16.066 -47.879 -33.372  1.00  0.00    -0.225 NA
ATOM     35  H   UNL     1      15.842 -47.057 -33.938  1.00  0.00     0.137 HD
ATOM     36  H   UNL     1      15.239 -48.266 -32.919  1.00  0.00     0.137 HD
ENDBRANCH  31  34
ENDBRANCH   4  31
TORSDOF 7
ENDMDL
