MODEL 1
REMARK VINA RESULT:   -11.765      0.000      0.000
REMARK INTER + INTRA:         -16.103
REMARK INTER:                 -15.547
REMARK INTRA:                  -0.556
REMARK UNBOUND:                -0.556
REMARK SMILES Nc1ccc2c(c1)C(=O)N(CC[C@H]1CC[N@@H+](Cc3ccccc3)CC1)C2=O
REMARK SMILES IDX 12 1 13 2 15 3 16 4 14 5 24 6 25 7 17 9 18 10 19 11 23 12
REMARK SMILES IDX 20 13 22 14 21 15 11 16 10 17 8 18 26 19 6 20 5 21 7 22 4 23
REMARK SMILES IDX 2 24 3 25 9 26 27 27 1 28
REMARK H PARENT 16 8 1 29 1 30
ROOT
ATOM      1  C   UNL     1      11.344 -56.908 -22.195  1.00  0.00     0.026 C 
ENDROOT
BRANCH   1   2
ATOM      2  C   UNL     1      10.981 -58.400 -22.008  1.00  0.00     0.002 C 
ATOM      3  C   UNL     1      11.944 -59.891 -23.890  1.00  0.00     0.262 C 
ATOM      4  N   UNL     1      10.550 -60.417 -24.113  1.00  0.00    -0.331 N 
ATOM      5  C   UNL     1      12.073 -59.380 -22.464  1.00  0.00     0.065 C 
ATOM      6  C   UNL     1       9.513 -59.341 -23.928  1.00  0.00     0.262 C 
ATOM      7  C   UNL     1       9.583 -58.790 -22.510  1.00  0.00     0.065 C 
ATOM      8  H   UNL     1      10.371 -61.144 -23.409  1.00  0.00     0.348 HD
BRANCH   4   9
ATOM      9  C   UNL     1      10.444 -61.108 -25.459  1.00  0.00     0.299 C 
BRANCH   9  10
ATOM     10  C   UNL     1       9.301 -62.084 -25.531  1.00  0.00     0.006 A 
ATOM     11  C   UNL     1       8.731 -62.602 -24.356  1.00  0.00     0.009 A 
ATOM     12  C   UNL     1       8.776 -62.478 -26.772  1.00  0.00     0.009 A 
ATOM     13  C   UNL     1       7.655 -63.487 -24.424  1.00  0.00     0.001 A 
ATOM     14  C   UNL     1       7.698 -63.363 -26.833  1.00  0.00     0.001 A 
ATOM     15  C   UNL     1       7.138 -63.864 -25.661  1.00  0.00     0.000 A 
ENDBRANCH   9  10
ENDBRANCH   4   9
ENDBRANCH   1   2
BRANCH   1  16
ATOM     16  C   UNL     1      10.278 -55.967 -22.763  1.00  0.00     0.129 C 
BRANCH  16  17
ATOM     17  N   UNL     1      10.772 -54.612 -22.889  1.00  0.00    -0.274 N 
ATOM     18  C   UNL     1      10.700 -53.679 -21.888  1.00  0.00     0.261 C 
ATOM     19  C   UNL     1      11.480 -54.147 -23.964  1.00  0.00     0.261 C 
ATOM     20  C   UNL     1      11.374 -52.481 -22.388  1.00  0.00     0.055 A 
ATOM     21  C   UNL     1      11.851 -52.767 -23.655  1.00  0.00     0.053 A 
ATOM     22  C   UNL     1      11.582 -51.258 -21.783  1.00  0.00     0.040 A 
ATOM     23  C   UNL     1      12.572 -51.845 -24.384  1.00  0.00     0.017 A 
ATOM     24  C   UNL     1      12.265 -50.278 -22.514  1.00  0.00     0.032 A 
ATOM     25  C   UNL     1      12.790 -50.596 -23.788  1.00  0.00     0.026 A 
ATOM     26  O   UNL     1      10.201 -53.790 -20.787  1.00  0.00    -0.269 OA
ATOM     27  O   UNL     1      11.781 -54.748 -24.980  1.00  0.00    -0.269 OA
BRANCH  24  28
ATOM     28  N   UNL     1      12.622 -49.074 -21.901  1.00  0.00    -0.399 N 
ATOM     29  H   UNL     1      12.107 -48.258 -22.223  1.00  0.00     0.156 HD
ATOM     30  H   UNL     1      13.620 -48.897 -21.845  1.00  0.00     0.156 HD
ENDBRANCH  24  28
ENDBRANCH  16  17
ENDBRANCH   1  16
TORSDOF 6
ENDMDL
MODEL 2
REMARK VINA RESULT:   -11.742      1.535      2.426
REMARK INTER + INTRA:         -16.073
REMARK INTER:                 -15.445
REMARK INTRA:                  -0.627
REMARK UNBOUND:                -0.556
REMARK SMILES Nc1ccc2c(c1)C(=O)N(CC[C@H]1CC[N@@H+](Cc3ccccc3)CC1)C2=O
REMARK SMILES IDX 12 1 13 2 15 3 16 4 14 5 24 6 25 7 17 9 18 10 19 11 23 12
REMARK SMILES IDX 20 13 22 14 21 15 11 16 10 17 8 18 26 19 6 20 5 21 7 22 4 23
REMARK SMILES IDX 2 24 3 25 9 26 27 27 1 28
REMARK H PARENT 16 8 1 29 1 30
ROOT
ATOM      1  C   UNL     1      11.373 -56.314 -22.705  1.00  0.00     0.026 C 
ENDROOT
BRANCH   1   2
ATOM      2  C   UNL     1      10.621 -57.551 -22.160  1.00  0.00     0.002 C 
ATOM      3  C   UNL     1      11.828 -59.767 -22.730  1.00  0.00     0.262 C 
ATOM      4  N   UNL     1      10.536 -60.255 -23.329  1.00  0.00    -0.331 N 
ATOM      5  C   UNL     1      11.536 -58.694 -21.693  1.00  0.00     0.065 C 
ATOM      6  C   UNL     1       9.794 -59.147 -24.029  1.00  0.00     0.262 C 
ATOM      7  C   UNL     1       9.461 -58.038 -23.039  1.00  0.00     0.065 C 
ATOM      8  H   UNL     1       9.939 -60.591 -22.562  1.00  0.00     0.348 HD
BRANCH   4   9
ATOM      9  C   UNL     1      10.775 -61.456 -24.224  1.00  0.00     0.299 C 
BRANCH   9  10
ATOM     10  C   UNL     1       9.553 -62.318 -24.392  1.00  0.00     0.006 A 
ATOM     11  C   UNL     1       9.082 -63.102 -23.326  1.00  0.00     0.009 A 
ATOM     12  C   UNL     1       8.856 -62.337 -25.610  1.00  0.00     0.009 A 
ATOM     13  C   UNL     1       7.935 -63.881 -23.476  1.00  0.00     0.001 A 
ATOM     14  C   UNL     1       7.708 -63.118 -25.753  1.00  0.00     0.001 A 
ATOM     15  C   UNL     1       7.247 -63.886 -24.688  1.00  0.00     0.000 A 
ENDBRANCH   9  10
ENDBRANCH   4   9
ENDBRANCH   1   2
BRANCH   1  16
ATOM     16  C   UNL     1      10.558 -55.210 -23.383  1.00  0.00     0.129 C 
BRANCH  16  17
ATOM     17  N   UNL     1      11.398 -54.111 -23.814  1.00  0.00    -0.274 N 
ATOM     18  C   UNL     1      12.103 -54.108 -24.989  1.00  0.00     0.261 C 
ATOM     19  C   UNL     1      11.482 -52.907 -23.170  1.00  0.00     0.261 C 
ATOM     20  C   UNL     1      12.749 -52.800 -25.082  1.00  0.00     0.055 A 
ATOM     21  C   UNL     1      12.369 -52.066 -23.971  1.00  0.00     0.053 A 
ATOM     22  C   UNL     1      13.571 -52.278 -26.061  1.00  0.00     0.040 A 
ATOM     23  C   UNL     1      12.786 -50.765 -23.785  1.00  0.00     0.017 A 
ATOM     24  C   UNL     1      14.056 -50.978 -25.879  1.00  0.00     0.032 A 
ATOM     25  C   UNL     1      13.623 -50.219 -24.765  1.00  0.00     0.026 A 
ATOM     26  O   UNL     1      12.187 -54.988 -25.821  1.00  0.00    -0.269 OA
ATOM     27  O   UNL     1      10.920 -52.565 -22.144  1.00  0.00    -0.269 OA
BRANCH  24  28
ATOM     28  N   UNL     1      14.777 -50.354 -26.900  1.00  0.00    -0.399 N 
ATOM     29  H   UNL     1      15.772 -50.563 -26.914  1.00  0.00     0.156 HD
ATOM     30  H   UNL     1      14.594 -49.362 -27.014  1.00  0.00     0.156 HD
ENDBRANCH  24  28
ENDBRANCH  16  17
ENDBRANCH   1  16
TORSDOF 6
ENDMDL
MODEL 3
REMARK VINA RESULT:   -10.571      2.301     10.130
REMARK INTER + INTRA:         -14.526
REMARK INTER:                 -14.035
REMARK INTRA:                  -0.491
REMARK UNBOUND:                -0.556
REMARK SMILES Nc1ccc2c(c1)C(=O)N(CC[C@H]1CC[N@@H+](Cc3ccccc3)CC1)C2=O
REMARK SMILES IDX 12 1 13 2 15 3 16 4 14 5 24 6 25 7 17 9 18 10 19 11 23 12
REMARK SMILES IDX 20 13 22 14 21 15 11 16 10 17 8 18 26 19 6 20 5 21 7 22 4 23
REMARK SMILES IDX 2 24 3 25 9 26 27 27 1 28
REMARK H PARENT 16 8 1 29 1 30
ROOT
ATOM      1  C   UNL     1      10.854 -56.140 -22.397  1.00  0.00     0.026 C 
ENDROOT
BRANCH   1   2
ATOM      2  C   UNL     1      10.273 -54.785 -22.867  1.00  0.00     0.002 C 
ATOM      3  C   UNL     1      12.080 -53.238 -23.883  1.00  0.00     0.262 C 
ATOM      4  N   UNL     1      11.635 -52.172 -22.917  1.00  0.00    -0.331 N 
ATOM      5  C   UNL     1      10.939 -54.213 -24.127  1.00  0.00     0.065 C 
ATOM      6  C   UNL     1      11.251 -52.755 -21.583  1.00  0.00     0.262 C 
ATOM      7  C   UNL     1      10.102 -53.739 -21.756  1.00  0.00     0.065 C 
ATOM      8  H   UNL     1      10.798 -51.720 -23.309  1.00  0.00     0.348 HD
BRANCH   4   9
ATOM      9  C   UNL     1      12.680 -51.079 -22.800  1.00  0.00     0.299 C 
BRANCH   9  10
ATOM     10  C   UNL     1      12.164 -49.725 -23.208  1.00  0.00     0.006 A 
ATOM     11  C   UNL     1      12.829 -48.976 -24.192  1.00  0.00     0.009 A 
ATOM     12  C   UNL     1      11.001 -49.200 -22.624  1.00  0.00     0.009 A 
ATOM     13  C   UNL     1      12.335 -47.732 -24.587  1.00  0.00     0.001 A 
ATOM     14  C   UNL     1      10.511 -47.956 -23.024  1.00  0.00     0.001 A 
ATOM     15  C   UNL     1      11.175 -47.225 -24.005  1.00  0.00     0.000 A 
ENDBRANCH   9  10
ENDBRANCH   4   9
ENDBRANCH   1   2
BRANCH   1  16
ATOM     16  C   UNL     1      11.401 -57.101 -23.455  1.00  0.00     0.129 C 
BRANCH  16  17
ATOM     17  N   UNL     1      10.809 -58.418 -23.341  1.00  0.00    -0.274 N 
ATOM     18  C   UNL     1       9.467 -58.663 -23.471  1.00  0.00     0.261 C 
ATOM     19  C   UNL     1      11.525 -59.577 -23.222  1.00  0.00     0.261 C 
ATOM     20  C   UNL     1       9.297 -60.111 -23.367  1.00  0.00     0.055 A 
ATOM     21  C   UNL     1      10.554 -60.670 -23.215  1.00  0.00     0.053 A 
ATOM     22  C   UNL     1       8.153 -60.881 -23.431  1.00  0.00     0.040 A 
ATOM     23  C   UNL     1      10.735 -62.034 -23.127  1.00  0.00     0.017 A 
ATOM     24  C   UNL     1       8.293 -62.267 -23.292  1.00  0.00     0.032 A 
ATOM     25  C   UNL     1       9.586 -62.832 -23.185  1.00  0.00     0.026 A 
ATOM     26  O   UNL     1       8.569 -57.866 -23.654  1.00  0.00    -0.269 OA
ATOM     27  O   UNL     1      12.735 -59.708 -23.157  1.00  0.00    -0.269 OA
BRANCH  24  28
ATOM     28  N   UNL     1       7.189 -63.102 -23.483  1.00  0.00    -0.399 N 
ATOM     29  H   UNL     1       6.292 -62.627 -23.527  1.00  0.00     0.156 HD
ATOM     30  H   UNL     1       7.158 -63.921 -22.884  1.00  0.00     0.156 HD
ENDBRANCH  24  28
ENDBRANCH  16  17
ENDBRANCH   1  16
TORSDOF 6
ENDMDL
MODEL 4
REMARK VINA RESULT:   -10.422      2.241      9.537
REMARK INTER + INTRA:         -14.328
REMARK INTER:                 -14.342
REMARK INTRA:                   0.014
REMARK UNBOUND:                -0.556
REMARK SMILES Nc1ccc2c(c1)C(=O)N(CC[C@H]1CC[N@@H+](Cc3ccccc3)CC1)C2=O
REMARK SMILES IDX 12 1 13 2 15 3 16 4 14 5 24 6 25 7 17 9 18 10 19 11 23 12
REMARK SMILES IDX 20 13 22 14 21 15 11 16 10 17 8 18 26 19 6 20 5 21 7 22 4 23
REMARK SMILES IDX 2 24 3 25 9 26 27 27 1 28
REMARK H PARENT 16 8 1 29 1 30
ROOT
ATOM      1  C   UNL     1      11.082 -56.371 -22.160  1.00  0.00     0.026 C 
ENDROOT
BRANCH   1   2
ATOM      2  C   UNL     1      10.233 -55.114 -22.464  1.00  0.00     0.002 C 
ATOM      3  C   UNL     1      11.565 -53.319 -23.767  1.00  0.00     0.262 C 
ATOM      4  N   UNL     1      11.174 -52.331 -22.699  1.00  0.00    -0.331 N 
ATOM      5  C   UNL     1      10.548 -54.448 -23.812  1.00  0.00     0.065 C 
ATOM      6  C   UNL     1      11.150 -52.967 -21.335  1.00  0.00     0.262 C 
ATOM      7  C   UNL     1      10.139 -54.107 -21.309  1.00  0.00     0.065 C 
ATOM      8  H   UNL     1      10.221 -52.004 -22.905  1.00  0.00     0.348 HD
BRANCH   4   9
ATOM      9  C   UNL     1      12.056 -51.098 -22.756  1.00  0.00     0.299 C 
BRANCH   9  10
ATOM     10  C   UNL     1      13.183 -51.227 -23.744  1.00  0.00     0.006 A 
ATOM     11  C   UNL     1      12.940 -51.108 -25.122  1.00  0.00     0.009 A 
ATOM     12  C   UNL     1      14.497 -51.450 -23.302  1.00  0.00     0.009 A 
ATOM     13  C   UNL     1      13.990 -51.202 -26.035  1.00  0.00     0.001 A 
ATOM     14  C   UNL     1      15.544 -51.543 -24.221  1.00  0.00     0.001 A 
ATOM     15  C   UNL     1      15.291 -51.416 -25.584  1.00  0.00     0.000 A 
ENDBRANCH   9  10
ENDBRANCH   4   9
ENDBRANCH   1   2
BRANCH   1  16
ATOM     16  C   UNL     1      11.495 -57.269 -23.330  1.00  0.00     0.129 C 
BRANCH  16  17
ATOM     17  N   UNL     1      10.838 -58.559 -23.273  1.00  0.00    -0.274 N 
ATOM     18  C   UNL     1       9.485 -58.731 -23.404  1.00  0.00     0.261 C 
ATOM     19  C   UNL     1      11.498 -59.756 -23.215  1.00  0.00     0.261 C 
ATOM     20  C   UNL     1       9.244 -60.172 -23.368  1.00  0.00     0.055 A 
ATOM     21  C   UNL     1      10.473 -60.799 -23.253  1.00  0.00     0.053 A 
ATOM     22  C   UNL     1       8.063 -60.882 -23.458  1.00  0.00     0.040 A 
ATOM     23  C   UNL     1      10.587 -62.173 -23.231  1.00  0.00     0.017 A 
ATOM     24  C   UNL     1       8.136 -62.278 -23.387  1.00  0.00     0.032 A 
ATOM     25  C   UNL     1       9.400 -62.910 -23.318  1.00  0.00     0.026 A 
ATOM     26  O   UNL     1       8.626 -57.883 -23.541  1.00  0.00    -0.269 OA
ATOM     27  O   UNL     1      12.699 -59.949 -23.167  1.00  0.00    -0.269 OA
BRANCH  24  28
ATOM     28  N   UNL     1       6.991 -63.047 -23.609  1.00  0.00    -0.399 N 
ATOM     29  H   UNL     1       7.140 -63.897 -24.146  1.00  0.00     0.156 HD
ATOM     30  H   UNL     1       6.179 -62.530 -23.931  1.00  0.00     0.156 HD
ENDBRANCH  24  28
ENDBRANCH  16  17
ENDBRANCH   1  16
TORSDOF 6
ENDMDL
MODEL 5
REMARK VINA RESULT:   -10.256      1.704      2.490
REMARK INTER + INTRA:         -14.110
REMARK INTER:                 -13.927
REMARK INTRA:                  -0.183
REMARK UNBOUND:                -0.556
REMARK SMILES Nc1ccc2c(c1)C(=O)N(CC[C@H]1CC[N@@H+](Cc3ccccc3)CC1)C2=O
REMARK SMILES IDX 12 1 13 2 15 3 16 4 14 5 24 6 25 7 17 9 18 10 19 11 23 12
REMARK SMILES IDX 20 13 22 14 21 15 11 16 10 17 8 18 26 19 6 20 5 21 7 22 4 23
REMARK SMILES IDX 2 24 3 25 9 26 27 27 1 28
REMARK H PARENT 16 8 1 29 1 30
ROOT
ATOM      1  C   UNL     1      11.277 -56.231 -22.503  1.00  0.00     0.026 C 
ENDROOT
BRANCH   1   2
ATOM      2  C   UNL     1      10.616 -57.521 -21.965  1.00  0.00     0.002 C 
ATOM      3  C   UNL     1      11.865 -59.657 -22.719  1.00  0.00     0.262 C 
ATOM      4  N   UNL     1      10.553 -60.173 -23.248  1.00  0.00    -0.331 N 
ATOM      5  C   UNL     1      11.605 -58.643 -21.616  1.00  0.00     0.065 C 
ATOM      6  C   UNL     1       9.720 -59.069 -23.843  1.00  0.00     0.262 C 
ATOM      7  C   UNL     1       9.415 -58.018 -22.783  1.00  0.00     0.065 C 
ATOM      8  H   UNL     1      10.027 -60.567 -22.458  1.00  0.00     0.348 HD
BRANCH   4   9
ATOM      9  C   UNL     1      10.775 -61.323 -24.212  1.00  0.00     0.299 C 
BRANCH   9  10
ATOM     10  C   UNL     1      10.964 -60.871 -25.634  1.00  0.00     0.006 A 
ATOM     11  C   UNL     1      12.087 -60.110 -25.997  1.00  0.00     0.009 A 
ATOM     12  C   UNL     1      10.030 -61.218 -26.623  1.00  0.00     0.009 A 
ATOM     13  C   UNL     1      12.273 -59.712 -27.321  1.00  0.00     0.001 A 
ATOM     14  C   UNL     1      10.222 -60.819 -27.947  1.00  0.00     0.001 A 
ATOM     15  C   UNL     1      11.343 -60.070 -28.295  1.00  0.00     0.000 A 
ENDBRANCH   9  10
ENDBRANCH   4   9
ENDBRANCH   1   2
BRANCH   1  16
ATOM     16  C   UNL     1      10.405 -54.983 -22.670  1.00  0.00     0.129 C 
BRANCH  16  17
ATOM     17  N   UNL     1      11.146 -53.887 -23.259  1.00  0.00    -0.274 N 
ATOM     18  C   UNL     1      11.387 -52.700 -22.618  1.00  0.00     0.261 C 
ATOM     19  C   UNL     1      11.798 -53.955 -24.460  1.00  0.00     0.261 C 
ATOM     20  C   UNL     1      12.224 -51.906 -23.515  1.00  0.00     0.055 A 
ATOM     21  C   UNL     1      12.476 -52.672 -24.640  1.00  0.00     0.053 A 
ATOM     22  C   UNL     1      12.750 -50.639 -23.356  1.00  0.00     0.040 A 
ATOM     23  C   UNL     1      13.276 -52.214 -25.665  1.00  0.00     0.017 A 
ATOM     24  C   UNL     1      13.524 -50.120 -24.401  1.00  0.00     0.032 A 
ATOM     25  C   UNL     1      13.815 -50.929 -25.525  1.00  0.00     0.026 A 
ATOM     26  O   UNL     1      11.012 -52.346 -21.518  1.00  0.00    -0.269 OA
ATOM     27  O   UNL     1      11.845 -54.893 -25.236  1.00  0.00    -0.269 OA
BRANCH  24  28
ATOM     28  N   UNL     1      14.189 -48.902 -24.237  1.00  0.00    -0.399 N 
ATOM     29  H   UNL     1      14.032 -48.222 -24.976  1.00  0.00     0.156 HD
ATOM     30  H   UNL     1      15.172 -48.977 -23.990  1.00  0.00     0.156 HD
ENDBRANCH  24  28
ENDBRANCH  16  17
ENDBRANCH   1  16
TORSDOF 6
ENDMDL
MODEL 6
REMARK VINA RESULT:    -9.985      2.835      5.006
REMARK INTER + INTRA:         -13.751
REMARK INTER:                 -13.222
REMARK INTRA:                  -0.529
REMARK UNBOUND:                -0.556
REMARK SMILES Nc1ccc2c(c1)C(=O)N(CC[C@H]1CC[N@@H+](Cc3ccccc3)CC1)C2=O
REMARK SMILES IDX 12 1 13 2 15 3 16 4 14 5 24 6 25 7 17 9 18 10 19 11 23 12
REMARK SMILES IDX 20 13 22 14 21 15 11 16 10 17 8 18 26 19 6 20 5 21 7 22 4 23
REMARK SMILES IDX 2 24 3 25 9 26 27 27 1 28
REMARK H PARENT 16 8 1 29 1 30
ROOT
ATOM      1  C   UNL     1      11.712 -52.308 -23.071  1.00  0.00     0.026 C 
ENDROOT
BRANCH   1   2
ATOM      2  C   UNL     1      10.595 -53.377 -23.042  1.00  0.00     0.002 C 
ATOM      3  C   UNL     1      10.945 -55.116 -21.159  1.00  0.00     0.262 C 
ATOM      4  N   UNL     1      10.832 -56.193 -22.206  1.00  0.00    -0.331 N 
ATOM      5  C   UNL     1      10.222 -53.866 -21.634  1.00  0.00     0.065 C 
ATOM      6  C   UNL     1      11.467 -55.775 -23.506  1.00  0.00     0.262 C 
ATOM      7  C   UNL     1      10.779 -54.527 -24.043  1.00  0.00     0.065 C 
ATOM      8  H   UNL     1       9.832 -56.353 -22.387  1.00  0.00     0.348 HD
BRANCH   4   9
ATOM      9  C   UNL     1      11.374 -57.511 -21.685  1.00  0.00     0.299 C 
BRANCH   9  10
ATOM     10  C   UNL     1      10.495 -58.684 -22.024  1.00  0.00     0.006 A 
ATOM     11  C   UNL     1      10.659 -59.911 -21.362  1.00  0.00     0.009 A 
ATOM     12  C   UNL     1       9.488 -58.564 -22.995  1.00  0.00     0.009 A 
ATOM     13  C   UNL     1       9.827 -60.991 -21.659  1.00  0.00     0.001 A 
ATOM     14  C   UNL     1       8.658 -59.647 -23.287  1.00  0.00     0.001 A 
ATOM     15  C   UNL     1       8.825 -60.857 -22.619  1.00  0.00     0.000 A 
ENDBRANCH   9  10
ENDBRANCH   4   9
ENDBRANCH   1   2
BRANCH   1  16
ATOM     16  C   UNL     1      11.680 -51.196 -22.018  1.00  0.00     0.129 C 
BRANCH  16  17
ATOM     17  N   UNL     1      11.759 -49.883 -22.623  1.00  0.00    -0.274 N 
ATOM     18  C   UNL     1      10.718 -48.991 -22.646  1.00  0.00     0.261 C 
ATOM     19  C   UNL     1      12.908 -49.332 -23.121  1.00  0.00     0.261 C 
ATOM     20  C   UNL     1      11.229 -47.772 -23.271  1.00  0.00     0.055 A 
ATOM     21  C   UNL     1      12.566 -47.980 -23.561  1.00  0.00     0.053 A 
ATOM     22  C   UNL     1      10.597 -46.574 -23.537  1.00  0.00     0.040 A 
ATOM     23  C   UNL     1      13.347 -46.994 -24.126  1.00  0.00     0.017 A 
ATOM     24  C   UNL     1      11.345 -45.568 -24.159  1.00  0.00     0.032 A 
ATOM     25  C   UNL     1      12.723 -45.772 -24.407  1.00  0.00     0.026 A 
ATOM     26  O   UNL     1       9.588 -49.140 -22.227  1.00  0.00    -0.269 OA
ATOM     27  O   UNL     1      14.017 -49.833 -23.178  1.00  0.00    -0.269 OA
BRANCH  24  28
ATOM     28  N   UNL     1      10.795 -44.294 -24.327  1.00  0.00    -0.399 N 
ATOM     29  H   UNL     1      11.408 -43.523 -24.071  1.00  0.00     0.156 HD
ATOM     30  H   UNL     1       9.858 -44.176 -23.955  1.00  0.00     0.156 HD
ENDBRANCH  24  28
ENDBRANCH  16  17
ENDBRANCH   1  16
TORSDOF 6
ENDMDL
MODEL 7
REMARK VINA RESULT:    -9.975      2.347     10.195
REMARK INTER + INTRA:         -13.738
REMARK INTER:                 -13.244
REMARK INTRA:                  -0.494
REMARK UNBOUND:                -0.556
REMARK SMILES Nc1ccc2c(c1)C(=O)N(CC[C@H]1CC[N@@H+](Cc3ccccc3)CC1)C2=O
REMARK SMILES IDX 12 1 13 2 15 3 16 4 14 5 24 6 25 7 17 9 18 10 19 11 23 12
REMARK SMILES IDX 20 13 22 14 21 15 11 16 10 17 8 18 26 19 6 20 5 21 7 22 4 23
REMARK SMILES IDX 2 24 3 25 9 26 27 27 1 28
REMARK H PARENT 16 8 1 29 1 30
ROOT
ATOM      1  C   UNL     1      11.040 -55.900 -22.452  1.00  0.00     0.026 C 
ENDROOT
BRANCH   1   2
ATOM      2  C   UNL     1      10.420 -54.562 -22.920  1.00  0.00     0.002 C 
ATOM      3  C   UNL     1      12.217 -52.835 -23.615  1.00  0.00     0.262 C 
ATOM      4  N   UNL     1      11.576 -51.864 -22.658  1.00  0.00    -0.331 N 
ATOM      5  C   UNL     1      11.191 -53.869 -24.053  1.00  0.00     0.065 C 
ATOM      6  C   UNL     1      11.076 -52.554 -21.416  1.00  0.00     0.262 C 
ATOM      7  C   UNL     1      10.034 -53.601 -21.787  1.00  0.00     0.065 C 
ATOM      8  H   UNL     1      10.763 -51.447 -23.129  1.00  0.00     0.348 HD
BRANCH   4   9
ATOM      9  C   UNL     1      12.514 -50.711 -22.352  1.00  0.00     0.299 C 
BRANCH   9  10
ATOM     10  C   UNL     1      12.106 -49.427 -23.022  1.00  0.00     0.006 A 
ATOM     11  C   UNL     1      12.900 -48.871 -24.038  1.00  0.00     0.009 A 
ATOM     12  C   UNL     1      10.918 -48.776 -22.654  1.00  0.00     0.009 A 
ATOM     13  C   UNL     1      12.508 -47.694 -24.676  1.00  0.00     0.001 A 
ATOM     14  C   UNL     1      10.531 -47.599 -23.296  1.00  0.00     0.001 A 
ATOM     15  C   UNL     1      11.323 -47.061 -24.307  1.00  0.00     0.000 A 
ENDBRANCH   9  10
ENDBRANCH   4   9
ENDBRANCH   1   2
BRANCH   1  16
ATOM     16  C   UNL     1      11.539 -56.880 -23.517  1.00  0.00     0.129 C 
BRANCH  16  17
ATOM     17  N   UNL     1      10.866 -58.159 -23.426  1.00  0.00    -0.274 N 
ATOM     18  C   UNL     1      11.495 -59.330 -23.093  1.00  0.00     0.261 C 
ATOM     19  C   UNL     1       9.512 -58.325 -23.532  1.00  0.00     0.261 C 
ATOM     20  C   UNL     1      10.458 -60.358 -23.036  1.00  0.00     0.055 A 
ATOM     21  C   UNL     1       9.246 -59.745 -23.304  1.00  0.00     0.053 A 
ATOM     22  C   UNL     1      10.552 -61.705 -22.746  1.00  0.00     0.040 A 
ATOM     23  C   UNL     1       8.059 -60.447 -23.287  1.00  0.00     0.017 A 
ATOM     24  C   UNL     1       9.373 -62.460 -22.772  1.00  0.00     0.032 A 
ATOM     25  C   UNL     1       8.135 -61.815 -23.000  1.00  0.00     0.026 A 
ATOM     26  O   UNL     1      12.674 -59.515 -22.865  1.00  0.00    -0.269 OA
ATOM     27  O   UNL     1       8.666 -57.475 -23.747  1.00  0.00    -0.269 OA
BRANCH  24  28
ATOM     28  N   UNL     1       9.391 -63.794 -22.356  1.00  0.00    -0.399 N 
ATOM     29  H   UNL     1       9.879 -64.433 -22.977  1.00  0.00     0.156 HD
ATOM     30  H   UNL     1       8.494 -64.164 -22.055  1.00  0.00     0.156 HD
ENDBRANCH  24  28
ENDBRANCH  16  17
ENDBRANCH   1  16
TORSDOF 6
ENDMDL
MODEL 8
REMARK VINA RESULT:    -9.902      2.722      4.988
REMARK INTER + INTRA:         -13.642
REMARK INTER:                 -13.315
REMARK INTRA:                  -0.327
REMARK UNBOUND:                -0.556
REMARK SMILES Nc1ccc2c(c1)C(=O)N(CC[C@H]1CC[N@@H+](Cc3ccccc3)CC1)C2=O
REMARK SMILES IDX 12 1 13 2 15 3 16 4 14 5 24 6 25 7 17 9 18 10 19 11 23 12
REMARK SMILES IDX 20 13 22 14 21 15 11 16 10 17 8 18 26 19 6 20 5 21 7 22 4 23
REMARK SMILES IDX 2 24 3 25 9 26 27 27 1 28
REMARK H PARENT 16 8 1 29 1 30
ROOT
ATOM      1  C   UNL     1      11.548 -52.808 -23.400  1.00  0.00     0.026 C 
ENDROOT
BRANCH   1   2
ATOM      2  C   UNL     1      10.483 -53.892 -23.108  1.00  0.00     0.002 C 
ATOM      3  C   UNL     1      11.046 -55.282 -21.000  1.00  0.00     0.262 C 
ATOM      4  N   UNL     1      10.902 -56.521 -21.845  1.00  0.00    -0.331 N 
ATOM      5  C   UNL     1      10.236 -54.151 -21.614  1.00  0.00     0.065 C 
ATOM      6  C   UNL     1      11.421 -56.306 -23.242  1.00  0.00     0.262 C 
ATOM      7  C   UNL     1      10.643 -55.185 -23.919  1.00  0.00     0.065 C 
ATOM      8  H   UNL     1       9.900 -56.739 -21.917  1.00  0.00     0.348 HD
BRANCH   4   9
ATOM      9  C   UNL     1      11.538 -57.716 -21.161  1.00  0.00     0.299 C 
BRANCH   9  10
ATOM     10  C   UNL     1      11.304 -59.008 -21.896  1.00  0.00     0.006 A 
ATOM     11  C   UNL     1      12.132 -59.378 -22.968  1.00  0.00     0.009 A 
ATOM     12  C   UNL     1      10.265 -59.870 -21.510  1.00  0.00     0.009 A 
ATOM     13  C   UNL     1      11.929 -60.588 -23.633  1.00  0.00     0.001 A 
ATOM     14  C   UNL     1      10.068 -61.080 -22.179  1.00  0.00     0.001 A 
ATOM     15  C   UNL     1      10.900 -61.439 -23.235  1.00  0.00     0.000 A 
ENDBRANCH   9  10
ENDBRANCH   4   9
ENDBRANCH   1   2
BRANCH   1  16
ATOM     16  C   UNL     1      11.919 -51.834 -22.279  1.00  0.00     0.129 C 
BRANCH  16  17
ATOM     17  N   UNL     1      11.856 -50.457 -22.723  1.00  0.00    -0.274 N 
ATOM     18  C   UNL     1      12.808 -49.867 -23.513  1.00  0.00     0.261 C 
ATOM     19  C   UNL     1      10.786 -49.630 -22.517  1.00  0.00     0.261 C 
ATOM     20  C   UNL     1      12.334 -48.513 -23.795  1.00  0.00     0.055 A 
ATOM     21  C   UNL     1      11.099 -48.368 -23.187  1.00  0.00     0.053 A 
ATOM     22  C   UNL     1      12.909 -47.504 -24.541  1.00  0.00     0.040 A 
ATOM     23  C   UNL     1      10.368 -47.205 -23.300  1.00  0.00     0.017 A 
ATOM     24  C   UNL     1      12.220 -46.290 -24.634  1.00  0.00     0.032 A 
ATOM     25  C   UNL     1      10.937 -46.167 -24.050  1.00  0.00     0.026 A 
ATOM     26  O   UNL     1      13.843 -50.345 -23.931  1.00  0.00    -0.269 OA
ATOM     27  O   UNL     1       9.752 -49.874 -21.921  1.00  0.00    -0.269 OA
BRANCH  24  28
ATOM     28  N   UNL     1      12.689 -45.285 -25.484  1.00  0.00    -0.399 N 
ATOM     29  H   UNL     1      12.417 -45.383 -26.459  1.00  0.00     0.156 HD
ATOM     30  H   UNL     1      13.675 -45.060 -25.384  1.00  0.00     0.156 HD
ENDBRANCH  24  28
ENDBRANCH  16  17
ENDBRANCH   1  16
TORSDOF 6
ENDMDL
MODEL 9
REMARK VINA RESULT:    -9.585      2.317      9.654
REMARK INTER + INTRA:         -13.223
REMARK INTER:                 -13.179
REMARK INTRA:                  -0.044
REMARK UNBOUND:                -0.556
REMARK SMILES Nc1ccc2c(c1)C(=O)N(CC[C@H]1CC[N@@H+](Cc3ccccc3)CC1)C2=O
REMARK SMILES IDX 12 1 13 2 15 3 16 4 14 5 24 6 25 7 17 9 18 10 19 11 23 12
REMARK SMILES IDX 20 13 22 14 21 15 11 16 10 17 8 18 26 19 6 20 5 21 7 22 4 23
REMARK SMILES IDX 2 24 3 25 9 26 27 27 1 28
REMARK H PARENT 16 8 1 29 1 30
ROOT
ATOM      1  C   UNL     1      11.153 -56.126 -22.397  1.00  0.00     0.026 C 
ENDROOT
BRANCH   1   2
ATOM      2  C   UNL     1      10.375 -54.850 -22.798  1.00  0.00     0.002 C 
ATOM      3  C   UNL     1      11.906 -53.055 -23.858  1.00  0.00     0.262 C 
ATOM      4  N   UNL     1      11.377 -52.079 -22.841  1.00  0.00    -0.331 N 
ATOM      5  C   UNL     1      10.892 -54.167 -24.073  1.00  0.00     0.065 C 
ATOM      6  C   UNL     1      11.145 -52.737 -21.506  1.00  0.00     0.262 C 
ATOM      7  C   UNL     1      10.126 -53.861 -21.650  1.00  0.00     0.065 C 
ATOM      8  H   UNL     1      10.469 -51.734 -23.178  1.00  0.00     0.348 HD
BRANCH   4   9
ATOM      9  C   UNL     1      12.274 -50.860 -22.745  1.00  0.00     0.299 C 
BRANCH   9  10
ATOM     10  C   UNL     1      13.379 -50.861 -23.766  1.00  0.00     0.006 A 
ATOM     11  C   UNL     1      14.690 -51.200 -23.396  1.00  0.00     0.009 A 
ATOM     12  C   UNL     1      13.112 -50.540 -25.106  1.00  0.00     0.009 A 
ATOM     13  C   UNL     1      15.709 -51.226 -24.350  1.00  0.00     0.001 A 
ATOM     14  C   UNL     1      14.135 -50.567 -26.055  1.00  0.00     0.001 A 
ATOM     15  C   UNL     1      15.430 -50.912 -25.678  1.00  0.00     0.000 A 
ENDBRANCH   9  10
ENDBRANCH   4   9
ENDBRANCH   1   2
BRANCH   1  16
ATOM     16  C   UNL     1      11.606 -57.078 -23.506  1.00  0.00     0.129 C 
BRANCH  16  17
ATOM     17  N   UNL     1      10.925 -58.354 -23.428  1.00  0.00    -0.274 N 
ATOM     18  C   UNL     1      11.543 -59.528 -23.085  1.00  0.00     0.261 C 
ATOM     19  C   UNL     1       9.573 -58.514 -23.558  1.00  0.00     0.261 C 
ATOM     20  C   UNL     1      10.500 -60.552 -23.048  1.00  0.00     0.055 A 
ATOM     21  C   UNL     1       9.296 -59.933 -23.336  1.00  0.00     0.053 A 
ATOM     22  C   UNL     1      10.583 -61.899 -22.758  1.00  0.00     0.040 A 
ATOM     23  C   UNL     1       8.106 -60.628 -23.341  1.00  0.00     0.017 A 
ATOM     24  C   UNL     1       9.401 -62.648 -22.805  1.00  0.00     0.032 A 
ATOM     25  C   UNL     1       8.170 -61.998 -23.053  1.00  0.00     0.026 A 
ATOM     26  O   UNL     1      12.717 -59.718 -22.838  1.00  0.00    -0.269 OA
ATOM     27  O   UNL     1       8.735 -57.659 -23.787  1.00  0.00    -0.269 OA
BRANCH  24  28
ATOM     28  N   UNL     1       9.405 -63.982 -22.389  1.00  0.00    -0.399 N 
ATOM     29  H   UNL     1       9.901 -64.624 -23.003  1.00  0.00     0.156 HD
ATOM     30  H   UNL     1       8.501 -64.349 -22.105  1.00  0.00     0.156 HD
ENDBRANCH  24  28
ENDBRANCH  16  17
ENDBRANCH   1  16
TORSDOF 6
ENDMDL
