MODEL 1
REMARK VINA RESULT:    -9.827      0.000      0.000
REMARK INTER + INTRA:         -10.114
REMARK INTER:                 -10.114
REMARK INTRA:                   0.000
REMARK UNBOUND:                 0.000
REMARK SMILES CC1=C[C@@H]2Cc3[nH]c4cc(Cl)ccc4c(=N)c3[C@H](C1)C2
REMARK SMILES IDX 7 1 6 2 17 3 15 4 14 5 13 6 12 7 10 8 11 9 9 10 8 11 18 12
REMARK SMILES IDX 19 13 2 14 1 15 3 16 4 17 5 18 20 19 16 21
REMARK H PARENT 7 20 16 22
ROOT
ATOM      1  N   UNL     1      10.925 -57.101 -22.027  1.00  0.00    -0.358 N 
ATOM      2  C   UNL     1      11.279 -58.242 -22.715  1.00  0.00     0.021 A 
ATOM      3  C   UNL     1      11.848 -58.222 -23.943  1.00  0.00     0.000 A 
ATOM      4  C   UNL     1      12.078 -56.885 -24.601  1.00  0.00     0.068 A 
ATOM      5  C   UNL     1      11.650 -55.669 -23.845  1.00  0.00     0.023 A 
ATOM      6  C   UNL     1      11.824 -54.392 -24.395  1.00  0.00     0.014 A 
ATOM      7  C   UNL     1      11.423 -53.264 -23.677  1.00  0.00     0.021 A 
ATOM      8  C   UNL     1      10.853 -53.419 -22.416  1.00  0.00     0.043 A 
ATOM      9  Cl  UNL     1      10.364 -52.029 -21.525  1.00  0.00    -0.084 Cl
ATOM     10  C   UNL     1      10.677 -54.689 -21.863  1.00  0.00     0.047 A 
ATOM     11  C   UNL     1      11.064 -55.826 -22.581  1.00  0.00     0.049 A 
ATOM     12  C   UNL     1      12.269 -59.491 -24.669  1.00  0.00     0.028 C 
ATOM     13  C   UNL     1      11.200 -59.919 -25.702  1.00  0.00     0.039 C 
ATOM     14  C   UNL     1      10.012 -60.638 -25.088  1.00  0.00    -0.076 C 
ATOM     15  C   UNL     1       8.844 -60.877 -25.998  1.00  0.00     0.039 C 
ATOM     16  C   UNL     1      10.012 -61.023 -23.797  1.00  0.00    -0.024 C 
ATOM     17  C   UNL     1      11.192 -60.810 -22.872  1.00  0.00     0.018 C 
ATOM     18  C   UNL     1      10.984 -59.556 -22.001  1.00  0.00     0.062 C 
ATOM     19  C   UNL     1      12.484 -60.640 -23.675  1.00  0.00     0.017 C 
ATOM     20  H   UNL     1      10.388 -57.205 -21.174  1.00  0.00     0.166 HD
ENDROOT
BRANCH   4  21
ATOM     21  N   UNL     1      12.610 -56.730 -25.773  1.00  0.00    -0.300 NA
ATOM     22  H   UNL     1      13.260 -57.480 -26.008  1.00  0.00     0.188 HD
ENDBRANCH   4  21
TORSDOF 1
ENDMDL
MODEL 2
REMARK VINA RESULT:    -9.220      1.543      2.020
REMARK INTER + INTRA:          -9.490
REMARK INTER:                  -9.490
REMARK INTRA:                   0.000
REMARK UNBOUND:                 0.000
REMARK SMILES CC1=C[C@@H]2Cc3[nH]c4cc(Cl)ccc4c(=N)c3[C@H](C1)C2
REMARK SMILES IDX 7 1 6 2 17 3 15 4 14 5 13 6 12 7 10 8 11 9 9 10 8 11 18 12
REMARK SMILES IDX 19 13 2 14 1 15 3 16 4 17 5 18 20 19 16 21
REMARK H PARENT 7 20 16 22
ROOT
ATOM      1  N   UNL     1       9.008 -58.202 -22.721  1.00  0.00    -0.358 N 
ATOM      2  C   UNL     1       9.437 -59.464 -23.069  1.00  0.00     0.021 A 
ATOM      3  C   UNL     1      10.639 -59.710 -23.640  1.00  0.00     0.000 A 
ATOM      4  C   UNL     1      11.541 -58.537 -23.935  1.00  0.00     0.068 A 
ATOM      5  C   UNL     1      11.033 -57.178 -23.578  1.00  0.00     0.023 A 
ATOM      6  C   UNL     1      11.812 -56.040 -23.829  1.00  0.00     0.014 A 
ATOM      7  C   UNL     1      11.326 -54.776 -23.488  1.00  0.00     0.021 A 
ATOM      8  C   UNL     1      10.070 -54.658 -22.899  1.00  0.00     0.043 A 
ATOM      9  Cl  UNL     1       9.473 -53.101 -22.471  1.00  0.00    -0.084 Cl
ATOM     10  C   UNL     1       9.291 -55.789 -22.647  1.00  0.00     0.047 A 
ATOM     11  C   UNL     1       9.763 -57.058 -22.997  1.00  0.00     0.049 A 
ATOM     12  C   UNL     1      11.111 -61.115 -23.980  1.00  0.00     0.028 C 
ATOM     13  C   UNL     1      10.878 -61.431 -25.477  1.00  0.00     0.039 C 
ATOM     14  C   UNL     1       9.444 -61.808 -25.805  1.00  0.00    -0.076 C 
ATOM     15  C   UNL     1       9.106 -61.905 -27.263  1.00  0.00     0.039 C 
ATOM     16  C   UNL     1       8.535 -62.029 -24.837  1.00  0.00    -0.024 C 
ATOM     17  C   UNL     1       8.867 -61.958 -23.360  1.00  0.00     0.018 C 
ATOM     18  C   UNL     1       8.457 -60.594 -22.773  1.00  0.00     0.062 C 
ATOM     19  C   UNL     1      10.367 -62.158 -23.134  1.00  0.00     0.017 C 
ATOM     20  H   UNL     1       8.047 -58.088 -22.420  1.00  0.00     0.166 HD
ENDROOT
BRANCH   4  21
ATOM     21  N   UNL     1      12.713 -58.638 -24.480  1.00  0.00    -0.300 NA
ATOM     22  H   UNL     1      13.294 -59.343 -24.028  1.00  0.00     0.188 HD
ENDBRANCH   4  21
TORSDOF 1
ENDMDL
MODEL 3
REMARK VINA RESULT:    -8.946      4.378      8.685
REMARK INTER + INTRA:          -9.208
REMARK INTER:                  -9.208
REMARK INTRA:                   0.000
REMARK UNBOUND:                 0.000
REMARK SMILES CC1=C[C@@H]2Cc3[nH]c4cc(Cl)ccc4c(=N)c3[C@H](C1)C2
REMARK SMILES IDX 7 1 6 2 17 3 15 4 14 5 13 6 12 7 10 8 11 9 9 10 8 11 18 12
REMARK SMILES IDX 19 13 2 14 1 15 3 16 4 17 5 18 20 19 16 21
REMARK H PARENT 7 20 16 22
ROOT
ATOM      1  N   UNL     1      12.491 -52.521 -24.521  1.00  0.00    -0.358 N 
ATOM      2  C   UNL     1      13.077 -51.304 -24.245  1.00  0.00     0.021 A 
ATOM      3  C   UNL     1      12.931 -50.659 -23.064  1.00  0.00     0.000 A 
ATOM      4  C   UNL     1      12.059 -51.293 -22.009  1.00  0.00     0.068 A 
ATOM      5  C   UNL     1      11.409 -52.594 -22.351  1.00  0.00     0.023 A 
ATOM      6  C   UNL     1      10.580 -53.240 -21.424  1.00  0.00     0.014 A 
ATOM      7  C   UNL     1       9.981 -54.457 -21.755  1.00  0.00     0.021 A 
ATOM      8  C   UNL     1      10.216 -55.021 -23.006  1.00  0.00     0.043 A 
ATOM      9  Cl  UNL     1       9.486 -56.526 -23.414  1.00  0.00    -0.084 Cl
ATOM     10  C   UNL     1      11.042 -54.382 -23.933  1.00  0.00     0.047 A 
ATOM     11  C   UNL     1      11.636 -53.156 -23.616  1.00  0.00     0.049 A 
ATOM     12  C   UNL     1      13.618 -49.336 -22.765  1.00  0.00     0.028 C 
ATOM     13  C   UNL     1      12.651 -48.148 -22.982  1.00  0.00     0.039 C 
ATOM     14  C   UNL     1      12.482 -47.757 -24.439  1.00  0.00    -0.076 C 
ATOM     15  C   UNL     1      11.394 -46.767 -24.734  1.00  0.00     0.039 C 
ATOM     16  C   UNL     1      13.261 -48.281 -25.404  1.00  0.00    -0.024 C 
ATOM     17  C   UNL     1      14.379 -49.263 -25.120  1.00  0.00     0.018 C 
ATOM     18  C   UNL     1      13.913 -50.710 -25.373  1.00  0.00     0.062 C 
ATOM     19  C   UNL     1      14.846 -49.145 -23.667  1.00  0.00     0.017 C 
ATOM     20  H   UNL     1      12.542 -52.873 -25.469  1.00  0.00     0.166 HD
ENDROOT
BRANCH   4  21
ATOM     21  N   UNL     1      11.836 -50.777 -20.841  1.00  0.00    -0.300 NA
ATOM     22  H   UNL     1      12.165 -49.815 -20.771  1.00  0.00     0.188 HD
ENDBRANCH   4  21
TORSDOF 1
ENDMDL
MODEL 4
REMARK VINA RESULT:    -8.342      6.257     10.957
REMARK INTER + INTRA:          -8.586
REMARK INTER:                  -8.586
REMARK INTRA:                   0.000
REMARK UNBOUND:                 0.000
REMARK SMILES CC1=C[C@@H]2Cc3[nH]c4cc(Cl)ccc4c(=N)c3[C@H](C1)C2
REMARK SMILES IDX 7 1 6 2 17 3 15 4 14 5 13 6 12 7 10 8 11 9 9 10 8 11 18 12
REMARK SMILES IDX 19 13 2 14 1 15 3 16 4 17 5 18 20 19 16 21
REMARK H PARENT 7 20 16 22
ROOT
ATOM      1  N   UNL     1      10.391 -48.776 -22.230  1.00  0.00    -0.358 N 
ATOM      2  C   UNL     1      10.938 -47.620 -22.744  1.00  0.00     0.021 A 
ATOM      3  C   UNL     1      11.972 -47.611 -23.617  1.00  0.00     0.000 A 
ATOM      4  C   UNL     1      12.575 -48.933 -24.022  1.00  0.00     0.068 A 
ATOM      5  C   UNL     1      11.984 -50.166 -23.420  1.00  0.00     0.023 A 
ATOM      6  C   UNL     1      12.495 -51.431 -23.744  1.00  0.00     0.014 A 
ATOM      7  C   UNL     1      11.932 -52.575 -23.176  1.00  0.00     0.021 A 
ATOM      8  C   UNL     1      10.863 -52.450 -22.293  1.00  0.00     0.043 A 
ATOM      9  Cl  UNL     1      10.161 -53.859 -21.598  1.00  0.00    -0.084 Cl
ATOM     10  C   UNL     1      10.350 -51.192 -21.967  1.00  0.00     0.047 A 
ATOM     11  C   UNL     1      10.916 -50.039 -22.521  1.00  0.00     0.049 A 
ATOM     12  C   UNL     1      12.536 -46.326 -24.205  1.00  0.00     0.028 C 
ATOM     13  C   UNL     1      13.804 -45.877 -23.441  1.00  0.00     0.039 C 
ATOM     14  C   UNL     1      13.510 -45.174 -22.128  1.00  0.00    -0.076 C 
ATOM     15  C   UNL     1      14.691 -44.917 -21.239  1.00  0.00     0.039 C 
ATOM     16  C   UNL     1      12.257 -44.818 -21.785  1.00  0.00    -0.024 C 
ATOM     17  C   UNL     1      11.058 -45.049 -22.681  1.00  0.00     0.018 C 
ATOM     18  C   UNL     1      10.300 -46.323 -22.261  1.00  0.00     0.062 C 
ATOM     19  C   UNL     1      11.495 -45.198 -24.140  1.00  0.00     0.017 C 
ATOM     20  H   UNL     1       9.708 -48.693 -21.487  1.00  0.00     0.166 HD
ENDROOT
BRANCH   4  21
ATOM     21  N   UNL     1      13.568 -49.060 -24.846  1.00  0.00    -0.300 NA
ATOM     22  H   UNL     1      14.472 -48.970 -24.382  1.00  0.00     0.188 HD
ENDBRANCH   4  21
TORSDOF 1
ENDMDL
MODEL 5
REMARK VINA RESULT:    -8.269      4.604      9.034
REMARK INTER + INTRA:          -8.510
REMARK INTER:                  -8.510
REMARK INTRA:                   0.000
REMARK UNBOUND:                 0.000
REMARK SMILES CC1=C[C@@H]2Cc3[nH]c4cc(Cl)ccc4c(=N)c3[C@H](C1)C2
REMARK SMILES IDX 7 1 6 2 17 3 15 4 14 5 13 6 12 7 10 8 11 9 9 10 8 11 18 12
REMARK SMILES IDX 19 13 2 14 1 15 3 16 4 17 5 18 20 19 16 21
REMARK H PARENT 7 20 16 22
ROOT
ATOM      1  N   UNL     1      11.745 -50.981 -22.910  1.00  0.00    -0.358 N 
ATOM      2  C   UNL     1      12.426 -49.940 -23.504  1.00  0.00     0.021 A 
ATOM      3  C   UNL     1      13.128 -50.073 -24.654  1.00  0.00     0.000 A 
ATOM      4  C   UNL     1      13.192 -51.435 -25.298  1.00  0.00     0.068 A 
ATOM      5  C   UNL     1      12.473 -52.550 -24.610  1.00  0.00     0.023 A 
ATOM      6  C   UNL     1      12.493 -53.845 -25.144  1.00  0.00     0.014 A 
ATOM      7  C   UNL     1      11.815 -54.877 -24.493  1.00  0.00     0.021 A 
ATOM      8  C   UNL     1      11.121 -54.609 -23.316  1.00  0.00     0.043 A 
ATOM      9  Cl  UNL     1      10.278 -55.878 -22.515  1.00  0.00    -0.084 Cl
ATOM     10  C   UNL     1      11.099 -53.320 -22.779  1.00  0.00     0.047 A 
ATOM     11  C   UNL     1      11.786 -52.282 -23.417  1.00  0.00     0.049 A 
ATOM     12  C   UNL     1      13.841 -48.903 -25.316  1.00  0.00     0.028 C 
ATOM     13  C   UNL     1      15.347 -48.898 -24.962  1.00  0.00     0.039 C 
ATOM     14  C   UNL     1      15.648 -48.332 -23.586  1.00  0.00    -0.076 C 
ATOM     15  C   UNL     1      17.055 -48.507 -23.096  1.00  0.00     0.039 C 
ATOM     16  C   UNL     1      14.699 -47.722 -22.851  1.00  0.00    -0.024 C 
ATOM     17  C   UNL     1      13.280 -47.517 -23.342  1.00  0.00     0.018 C 
ATOM     18  C   UNL     1      12.345 -48.603 -22.777  1.00  0.00     0.062 C 
ATOM     19  C   UNL     1      13.224 -47.569 -24.870  1.00  0.00     0.017 C 
ATOM     20  H   UNL     1      11.353 -50.831 -21.987  1.00  0.00     0.166 HD
ENDROOT
BRANCH   4  21
ATOM     21  N   UNL     1      13.833 -51.694 -26.394  1.00  0.00    -0.300 NA
ATOM     22  H   UNL     1      14.272 -50.866 -26.794  1.00  0.00     0.188 HD
ENDBRANCH   4  21
TORSDOF 1
ENDMDL
MODEL 6
REMARK VINA RESULT:    -8.203      7.506      9.575
REMARK INTER + INTRA:          -8.443
REMARK INTER:                  -8.443
REMARK INTRA:                   0.000
REMARK UNBOUND:                 0.000
REMARK SMILES CC1=C[C@@H]2Cc3[nH]c4cc(Cl)ccc4c(=N)c3[C@H](C1)C2
REMARK SMILES IDX 7 1 6 2 17 3 15 4 14 5 13 6 12 7 10 8 11 9 9 10 8 11 18 12
REMARK SMILES IDX 19 13 2 14 1 15 3 16 4 17 5 18 20 19 16 21
REMARK H PARENT 7 20 16 22
ROOT
ATOM      1  N   UNL     1      12.940 -47.480 -25.164  1.00  0.00    -0.358 N 
ATOM      2  C   UNL     1      13.202 -48.833 -25.124  1.00  0.00     0.021 A 
ATOM      3  C   UNL     1      12.651 -49.669 -24.213  1.00  0.00     0.000 A 
ATOM      4  C   UNL     1      11.729 -49.083 -23.173  1.00  0.00     0.068 A 
ATOM      5  C   UNL     1      11.494 -47.608 -23.221  1.00  0.00     0.023 A 
ATOM      6  C   UNL     1      10.654 -46.991 -22.284  1.00  0.00     0.014 A 
ATOM      7  C   UNL     1      10.441 -45.613 -22.342  1.00  0.00     0.021 A 
ATOM      8  C   UNL     1      11.064 -44.862 -23.336  1.00  0.00     0.043 A 
ATOM      9  Cl  UNL     1      10.796 -43.163 -23.415  1.00  0.00    -0.084 Cl
ATOM     10  C   UNL     1      11.901 -45.472 -24.272  1.00  0.00     0.047 A 
ATOM     11  C   UNL     1      12.132 -46.851 -24.214  1.00  0.00     0.049 A 
ATOM     12  C   UNL     1      12.921 -51.166 -24.209  1.00  0.00     0.028 C 
ATOM     13  C   UNL     1      14.010 -51.530 -23.172  1.00  0.00     0.039 C 
ATOM     14  C   UNL     1      15.424 -51.253 -23.648  1.00  0.00    -0.076 C 
ATOM     15  C   UNL     1      16.503 -51.372 -22.613  1.00  0.00     0.039 C 
ATOM     16  C   UNL     1      15.683 -50.910 -24.924  1.00  0.00    -0.024 C 
ATOM     17  C   UNL     1      14.608 -50.809 -25.987  1.00  0.00     0.018 C 
ATOM     18  C   UNL     1      14.171 -49.345 -26.183  1.00  0.00     0.062 C 
ATOM     19  C   UNL     1      13.383 -51.638 -25.595  1.00  0.00     0.017 C 
ATOM     20  H   UNL     1      13.490 -46.905 -25.792  1.00  0.00     0.166 HD
ENDROOT
BRANCH   4  21
ATOM     21  N   UNL     1      11.142 -49.774 -22.246  1.00  0.00    -0.300 NA
ATOM     22  H   UNL     1      10.325 -50.276 -22.593  1.00  0.00     0.188 HD
ENDBRANCH   4  21
TORSDOF 1
ENDMDL
MODEL 7
REMARK VINA RESULT:    -8.049      5.095      9.778
REMARK INTER + INTRA:          -8.284
REMARK INTER:                  -8.284
REMARK INTRA:                   0.000
REMARK UNBOUND:                 0.000
REMARK SMILES CC1=C[C@@H]2Cc3[nH]c4cc(Cl)ccc4c(=N)c3[C@H](C1)C2
REMARK SMILES IDX 7 1 6 2 17 3 15 4 14 5 13 6 12 7 10 8 11 9 9 10 8 11 18 12
REMARK SMILES IDX 19 13 2 14 1 15 3 16 4 17 5 18 20 19 16 21
REMARK H PARENT 7 20 16 22
ROOT
ATOM      1  N   UNL     1      13.904 -50.670 -24.868  1.00  0.00    -0.358 N 
ATOM      2  C   UNL     1      13.794 -49.574 -24.039  1.00  0.00     0.021 A 
ATOM      3  C   UNL     1      12.996 -49.545 -22.947  1.00  0.00     0.000 A 
ATOM      4  C   UNL     1      12.162 -50.765 -22.641  1.00  0.00     0.068 A 
ATOM      5  C   UNL     1      12.276 -51.923 -23.578  1.00  0.00     0.023 A 
ATOM      6  C   UNL     1      11.528 -53.088 -23.363  1.00  0.00     0.014 A 
ATOM      7  C   UNL     1      11.645 -54.164 -24.245  1.00  0.00     0.021 A 
ATOM      8  C   UNL     1      12.510 -54.070 -25.332  1.00  0.00     0.043 A 
ATOM      9  Cl  UNL     1      12.663 -55.398 -26.417  1.00  0.00    -0.084 Cl
ATOM     10  C   UNL     1      13.258 -52.911 -25.551  1.00  0.00     0.047 A 
ATOM     11  C   UNL     1      13.136 -51.823 -24.680  1.00  0.00     0.049 A 
ATOM     12  C   UNL     1      12.919 -48.340 -22.021  1.00  0.00     0.028 C 
ATOM     13  C   UNL     1      11.685 -47.467 -22.351  1.00  0.00     0.039 C 
ATOM     14  C   UNL     1      11.883 -46.560 -23.552  1.00  0.00    -0.076 C 
ATOM     15  C   UNL     1      10.657 -45.858 -24.056  1.00  0.00     0.039 C 
ATOM     16  C   UNL     1      13.090 -46.410 -24.131  1.00  0.00    -0.024 C 
ATOM     17  C   UNL     1      14.341 -47.094 -23.620  1.00  0.00     0.018 C 
ATOM     18  C   UNL     1      14.639 -48.368 -24.433  1.00  0.00     0.062 C 
ATOM     19  C   UNL     1      14.183 -47.478 -22.147  1.00  0.00     0.017 C 
ATOM     20  H   UNL     1      14.421 -50.566 -25.733  1.00  0.00     0.166 HD
ENDROOT
BRANCH   4  21
ATOM     21  N   UNL     1      11.357 -50.863 -21.630  1.00  0.00    -0.300 NA
ATOM     22  H   UNL     1      10.925 -51.784 -21.563  1.00  0.00     0.188 HD
ENDBRANCH   4  21
TORSDOF 1
ENDMDL
MODEL 8
REMARK VINA RESULT:    -7.940      4.594      6.419
REMARK INTER + INTRA:          -8.172
REMARK INTER:                  -8.172
REMARK INTRA:                   0.000
REMARK UNBOUND:                 0.000
REMARK SMILES CC1=C[C@@H]2Cc3[nH]c4cc(Cl)ccc4c(=N)c3[C@H](C1)C2
REMARK SMILES IDX 7 1 6 2 17 3 15 4 14 5 13 6 12 7 10 8 11 9 9 10 8 11 18 12
REMARK SMILES IDX 19 13 2 14 1 15 3 16 4 17 5 18 20 19 16 21
REMARK H PARENT 7 20 16 22
ROOT
ATOM      1  N   UNL     1      11.311 -60.170 -25.954  1.00  0.00    -0.358 N 
ATOM      2  C   UNL     1      10.637 -60.712 -24.882  1.00  0.00     0.021 A 
ATOM      3  C   UNL     1       9.621 -61.598 -25.013  1.00  0.00     0.000 A 
ATOM      4  C   UNL     1       9.189 -61.986 -26.405  1.00  0.00     0.068 A 
ATOM      5  C   UNL     1       9.917 -61.354 -27.547  1.00  0.00     0.023 A 
ATOM      6  C   UNL     1       9.567 -61.660 -28.869  1.00  0.00     0.014 A 
ATOM      7  C   UNL     1      10.257 -61.065 -29.927  1.00  0.00     0.021 A 
ATOM      8  C   UNL     1      11.290 -60.170 -29.658  1.00  0.00     0.043 A 
ATOM      9  Cl  UNL     1      12.146 -59.441 -30.961  1.00  0.00    -0.084 Cl
ATOM     10  C   UNL     1      11.642 -59.862 -28.342  1.00  0.00     0.047 A 
ATOM     11  C   UNL     1      10.948 -60.444 -27.276  1.00  0.00     0.049 A 
ATOM     12  C   UNL     1       8.915 -62.216 -23.816  1.00  0.00     0.028 C 
ATOM     13  C   UNL     1       7.591 -61.477 -23.511  1.00  0.00     0.039 C 
ATOM     14  C   UNL     1       7.778 -60.173 -22.756  1.00  0.00    -0.076 C 
ATOM     15  C   UNL     1       6.562 -59.304 -22.630  1.00  0.00     0.039 C 
ATOM     16  C   UNL     1       8.973 -59.821 -22.245  1.00  0.00    -0.024 C 
ATOM     17  C   UNL     1      10.205 -60.698 -22.344  1.00  0.00     0.018 C 
ATOM     18  C   UNL     1      11.106 -60.245 -23.509  1.00  0.00     0.062 C 
ATOM     19  C   UNL     1       9.810 -62.159 -22.569  1.00  0.00     0.017 C 
ATOM     20  H   UNL     1      11.968 -59.419 -25.776  1.00  0.00     0.166 HD
ENDROOT
BRANCH   4  21
ATOM     21  N   UNL     1       8.231 -62.819 -26.666  1.00  0.00    -0.300 NA
ATOM     22  H   UNL     1       8.086 -63.493 -25.915  1.00  0.00     0.188 HD
ENDBRANCH   4  21
TORSDOF 1
ENDMDL
MODEL 9
REMARK VINA RESULT:    -7.283      6.530     11.031
REMARK INTER + INTRA:          -7.496
REMARK INTER:                  -7.496
REMARK INTRA:                   0.000
REMARK UNBOUND:                 0.000
REMARK SMILES CC1=C[C@@H]2Cc3[nH]c4cc(Cl)ccc4c(=N)c3[C@H](C1)C2
REMARK SMILES IDX 7 1 6 2 17 3 15 4 14 5 13 6 12 7 10 8 11 9 9 10 8 11 18 12
REMARK SMILES IDX 19 13 2 14 1 15 3 16 4 17 5 18 20 19 16 21
REMARK H PARENT 7 20 16 22
ROOT
ATOM      1  N   UNL     1      13.597 -49.603 -22.730  1.00  0.00    -0.358 N 
ATOM      2  C   UNL     1      13.729 -48.232 -22.658  1.00  0.00     0.021 A 
ATOM      3  C   UNL     1      12.693 -47.399 -22.402  1.00  0.00     0.000 A 
ATOM      4  C   UNL     1      11.323 -48.001 -22.216  1.00  0.00     0.068 A 
ATOM      5  C   UNL     1      11.207 -49.486 -22.335  1.00  0.00     0.023 A 
ATOM      6  C   UNL     1       9.965 -50.117 -22.182  1.00  0.00     0.014 A 
ATOM      7  C   UNL     1       9.871 -51.505 -22.293  1.00  0.00     0.021 A 
ATOM      8  C   UNL     1      11.016 -52.253 -22.555  1.00  0.00     0.043 A 
ATOM      9  Cl  UNL     1      10.904 -53.966 -22.685  1.00  0.00    -0.084 Cl
ATOM     10  C   UNL     1      12.256 -51.629 -22.709  1.00  0.00     0.047 A 
ATOM     11  C   UNL     1      12.358 -50.237 -22.612  1.00  0.00     0.049 A 
ATOM     12  C   UNL     1      12.865 -45.892 -22.286  1.00  0.00     0.028 C 
ATOM     13  C   UNL     1      12.478 -45.187 -23.608  1.00  0.00     0.039 C 
ATOM     14  C   UNL     1      13.557 -45.252 -24.673  1.00  0.00    -0.076 C 
ATOM     15  C   UNL     1      13.158 -44.787 -26.043  1.00  0.00     0.039 C 
ATOM     16  C   UNL     1      14.792 -45.712 -24.398  1.00  0.00    -0.024 C 
ATOM     17  C   UNL     1      15.216 -46.162 -23.016  1.00  0.00     0.018 C 
ATOM     18  C   UNL     1      15.136 -47.696 -22.892  1.00  0.00     0.062 C 
ATOM     19  C   UNL     1      14.320 -45.536 -21.945  1.00  0.00     0.017 C 
ATOM     20  H   UNL     1      14.391 -50.143 -23.053  1.00  0.00     0.166 HD
ENDROOT
BRANCH   4  21
ATOM     21  N   UNL     1      10.251 -47.314 -21.969  1.00  0.00    -0.300 NA
ATOM     22  H   UNL     1       9.956 -46.753 -22.768  1.00  0.00     0.188 HD
ENDBRANCH   4  21
TORSDOF 1
ENDMDL
