MODEL 1
REMARK VINA RESULT:    -7.407      0.000      0.000
REMARK INTER + INTRA:          -9.481
REMARK INTER:                  -9.139
REMARK INTRA:                  -0.342
REMARK UNBOUND:                -0.342
REMARK SMILES CC[C@H](C)n1cc(C(=O)C(F)(F)F)cn1
REMARK SMILES IDX 5 1 6 2 7 3 14 4 15 5 3 6 4 7 2 8 1 9 8 10 9 11 10 12 11 13
REMARK SMILES IDX 12 14 13 15
REMARK H PARENT
ROOT
ATOM      1  N   UNL     1      11.171 -55.317 -23.135  1.00  0.00    -0.269 N 
ATOM      2  C   UNL     1      10.965 -55.961 -21.948  1.00  0.00     0.121 A 
ATOM      3  C   UNL     1      11.273 -57.292 -22.160  1.00  0.00     0.065 A 
ATOM      4  C   UNL     1      11.656 -57.338 -23.518  1.00  0.00     0.147 A 
ATOM      5  N   UNL     1      11.596 -56.143 -24.109  1.00  0.00    -0.180 NA
ENDROOT
BRANCH   1   6
ATOM      6  C   UNL     1      10.986 -53.894 -23.422  1.00  0.00     0.104 C 
ATOM      7  C   UNL     1      10.820 -53.098 -22.126  1.00  0.00     0.033 C 
BRANCH   6   8
ATOM      8  C   UNL     1      12.125 -53.367 -24.313  1.00  0.00     0.023 C 
ATOM      9  C   UNL     1      12.530 -51.935 -23.990  1.00  0.00     0.006 C 
ENDBRANCH   6   8
ENDBRANCH   1   6
BRANCH   3  10
ATOM     10  C   UNL     1      11.198 -58.359 -21.166  1.00  0.00     0.269 C 
ATOM     11  O   UNL     1      11.681 -58.198 -20.043  1.00  0.00    -0.284 OA
BRANCH  10  12
ATOM     12  C   UNL     1      10.505 -59.654 -21.585  1.00  0.00     0.454 C 
ATOM     13  F   UNL     1       9.389 -59.454 -22.340  1.00  0.00    -0.163 F 
ATOM     14  F   UNL     1      10.111 -60.399 -20.513  1.00  0.00    -0.163 F 
ATOM     15  F   UNL     1      11.321 -60.462 -22.320  1.00  0.00    -0.163 F 
ENDBRANCH  10  12
ENDBRANCH   3  10
TORSDOF 4
ENDMDL
MODEL 2
REMARK VINA RESULT:    -7.321      3.805      5.073
REMARK INTER + INTRA:          -9.374
REMARK INTER:                  -9.026
REMARK INTRA:                  -0.348
REMARK UNBOUND:                -0.342
REMARK SMILES CC[C@H](C)n1cc(C(=O)C(F)(F)F)cn1
REMARK SMILES IDX 5 1 6 2 7 3 14 4 15 5 3 6 4 7 2 8 1 9 8 10 9 11 10 12 11 13
REMARK SMILES IDX 12 14 13 15
REMARK H PARENT
ROOT
ATOM      1  N   UNL     1       9.770 -58.585 -23.479  1.00  0.00    -0.269 N 
ATOM      2  C   UNL     1       9.553 -59.931 -23.576  1.00  0.00     0.121 A 
ATOM      3  C   UNL     1       8.271 -60.092 -24.065  1.00  0.00     0.065 A 
ATOM      4  C   UNL     1       7.803 -58.770 -24.230  1.00  0.00     0.147 A 
ATOM      5  N   UNL     1       8.710 -57.857 -23.876  1.00  0.00    -0.180 NA
ENDROOT
BRANCH   1   6
ATOM      6  C   UNL     1      10.981 -57.907 -23.015  1.00  0.00     0.104 C 
ATOM      7  C   UNL     1      10.651 -56.503 -22.501  1.00  0.00     0.033 C 
BRANCH   6   8
ATOM      8  C   UNL     1      11.724 -58.770 -21.980  1.00  0.00     0.023 C 
ATOM      9  C   UNL     1      11.436 -58.367 -20.540  1.00  0.00     0.006 C 
ENDBRANCH   6   8
ENDBRANCH   1   6
BRANCH   3  10
ATOM     10  C   UNL     1       7.606 -61.365 -24.329  1.00  0.00     0.269 C 
ATOM     11  O   UNL     1       6.441 -61.545 -23.966  1.00  0.00    -0.284 OA
BRANCH  10  12
ATOM     12  C   UNL     1       8.414 -62.435 -25.060  1.00  0.00     0.454 C 
ATOM     13  F   UNL     1       9.188 -61.939 -26.066  1.00  0.00    -0.163 F 
ATOM     14  F   UNL     1       7.618 -63.387 -25.626  1.00  0.00    -0.163 F 
ATOM     15  F   UNL     1       9.259 -63.105 -24.225  1.00  0.00    -0.163 F 
ENDBRANCH  10  12
ENDBRANCH   3  10
TORSDOF 4
ENDMDL
MODEL 3
REMARK VINA RESULT:    -7.037      4.281      6.109
REMARK INTER + INTRA:          -9.024
REMARK INTER:                  -8.883
REMARK INTRA:                  -0.141
REMARK UNBOUND:                -0.342
REMARK SMILES CC[C@H](C)n1cc(C(=O)C(F)(F)F)cn1
REMARK SMILES IDX 5 1 6 2 7 3 14 4 15 5 3 6 4 7 2 8 1 9 8 10 9 11 10 12 11 13
REMARK SMILES IDX 12 14 13 15
REMARK H PARENT
ROOT
ATOM      1  N   UNL     1      10.976 -56.139 -23.097  1.00  0.00    -0.269 N 
ATOM      2  C   UNL     1      10.400 -55.200 -22.290  1.00  0.00     0.121 A 
ATOM      3  C   UNL     1      10.628 -53.973 -22.884  1.00  0.00     0.065 A 
ATOM      4  C   UNL     1      11.354 -54.293 -24.052  1.00  0.00     0.147 A 
ATOM      5  N   UNL     1      11.565 -55.604 -24.183  1.00  0.00    -0.180 NA
ENDROOT
BRANCH   1   6
ATOM      6  C   UNL     1      11.003 -57.590 -22.900  1.00  0.00     0.104 C 
ATOM      7  C   UNL     1      11.986 -58.248 -23.870  1.00  0.00     0.033 C 
BRANCH   6   8
ATOM      8  C   UNL     1      11.287 -57.933 -21.427  1.00  0.00     0.023 C 
ATOM      9  C   UNL     1      10.863 -59.344 -21.044  1.00  0.00     0.006 C 
ENDBRANCH   6   8
ENDBRANCH   1   6
BRANCH   3  10
ATOM     10  C   UNL     1      10.193 -52.677 -22.372  1.00  0.00     0.269 C 
ATOM     11  O   UNL     1       9.001 -52.473 -22.127  1.00  0.00    -0.284 OA
BRANCH  10  12
ATOM     12  C   UNL     1      11.269 -51.614 -22.161  1.00  0.00     0.454 C 
ATOM     13  F   UNL     1      11.030 -50.456 -22.837  1.00  0.00    -0.163 F 
ATOM     14  F   UNL     1      12.502 -52.040 -22.562  1.00  0.00    -0.163 F 
ATOM     15  F   UNL     1      11.404 -51.268 -20.848  1.00  0.00    -0.163 F 
ENDBRANCH  10  12
ENDBRANCH   3  10
TORSDOF 4
ENDMDL
MODEL 4
REMARK VINA RESULT:    -7.023      2.249      2.967
REMARK INTER + INTRA:          -9.007
REMARK INTER:                  -8.668
REMARK INTRA:                  -0.340
REMARK UNBOUND:                -0.342
REMARK SMILES CC[C@H](C)n1cc(C(=O)C(F)(F)F)cn1
REMARK SMILES IDX 5 1 6 2 7 3 14 4 15 5 3 6 4 7 2 8 1 9 8 10 9 11 10 12 11 13
REMARK SMILES IDX 12 14 13 15
REMARK H PARENT
ROOT
ATOM      1  N   UNL     1      10.415 -57.056 -22.852  1.00  0.00    -0.269 N 
ATOM      2  C   UNL     1      10.963 -58.208 -22.366  1.00  0.00     0.121 A 
ATOM      3  C   UNL     1      10.083 -59.228 -22.675  1.00  0.00     0.065 A 
ATOM      4  C   UNL     1       9.032 -58.573 -23.353  1.00  0.00     0.147 A 
ATOM      5  N   UNL     1       9.232 -57.258 -23.462  1.00  0.00    -0.180 NA
ENDROOT
BRANCH   1   6
ATOM      6  C   UNL     1      10.969 -55.703 -22.778  1.00  0.00     0.104 C 
ATOM      7  C   UNL     1      10.228 -54.762 -23.732  1.00  0.00     0.033 C 
BRANCH   6   8
ATOM      8  C   UNL     1      10.982 -55.200 -21.323  1.00  0.00     0.023 C 
ATOM      9  C   UNL     1      10.597 -53.733 -21.188  1.00  0.00     0.006 C 
ENDBRANCH   6   8
ENDBRANCH   1   6
BRANCH   3  10
ATOM     10  C   UNL     1      10.256 -60.640 -22.347  1.00  0.00     0.269 C 
ATOM     11  O   UNL     1       9.898 -61.072 -21.248  1.00  0.00    -0.284 OA
BRANCH  10  12
ATOM     12  C   UNL     1      10.888 -61.531 -23.414  1.00  0.00     0.454 C 
ATOM     13  F   UNL     1      12.168 -61.184 -23.724  1.00  0.00    -0.163 F 
ATOM     14  F   UNL     1      10.192 -61.505 -24.587  1.00  0.00    -0.163 F 
ATOM     15  F   UNL     1      10.929 -62.841 -23.036  1.00  0.00    -0.163 F 
ENDBRANCH  10  12
ENDBRANCH   3  10
TORSDOF 4
ENDMDL
MODEL 5
REMARK VINA RESULT:    -7.015      2.045      2.825
REMARK INTER + INTRA:          -8.996
REMARK INTER:                  -8.691
REMARK INTRA:                  -0.305
REMARK UNBOUND:                -0.342
REMARK SMILES CC[C@H](C)n1cc(C(=O)C(F)(F)F)cn1
REMARK SMILES IDX 5 1 6 2 7 3 14 4 15 5 3 6 4 7 2 8 1 9 8 10 9 11 10 12 11 13
REMARK SMILES IDX 12 14 13 15
REMARK H PARENT
ROOT
ATOM      1  N   UNL     1      11.481 -53.347 -23.232  1.00  0.00    -0.269 N 
ATOM      2  C   UNL     1      11.236 -54.598 -23.723  1.00  0.00     0.121 A 
ATOM      3  C   UNL     1      10.596 -55.300 -22.719  1.00  0.00     0.065 A 
ATOM      4  C   UNL     1      10.506 -54.369 -21.661  1.00  0.00     0.147 A 
ATOM      5  N   UNL     1      11.040 -53.186 -21.970  1.00  0.00    -0.180 NA
ENDROOT
BRANCH   1   6
ATOM      6  C   UNL     1      12.138 -52.232 -23.916  1.00  0.00     0.104 C 
ATOM      7  C   UNL     1      12.941 -51.387 -22.925  1.00  0.00     0.033 C 
BRANCH   6   8
ATOM      8  C   UNL     1      12.981 -52.741 -25.099  1.00  0.00     0.023 C 
ATOM      9  C   UNL     1      13.590 -51.621 -25.932  1.00  0.00     0.006 C 
ENDBRANCH   6   8
ENDBRANCH   1   6
BRANCH   3  10
ATOM     10  C   UNL     1      10.142 -56.685 -22.795  1.00  0.00     0.269 C 
ATOM     11  O   UNL     1       9.115 -56.970 -23.418  1.00  0.00    -0.284 OA
BRANCH  10  12
ATOM     12  C   UNL     1      10.987 -57.736 -22.078  1.00  0.00     0.454 C 
ATOM     13  F   UNL     1      11.510 -57.301 -20.898  1.00  0.00    -0.163 F 
ATOM     14  F   UNL     1      12.045 -58.150 -22.833  1.00  0.00    -0.163 F 
ATOM     15  F   UNL     1      10.274 -58.862 -21.787  1.00  0.00    -0.163 F 
ENDBRANCH  10  12
ENDBRANCH   3  10
TORSDOF 4
ENDMDL
MODEL 6
REMARK VINA RESULT:    -7.005      3.992      6.473
REMARK INTER + INTRA:          -8.985
REMARK INTER:                  -8.646
REMARK INTRA:                  -0.340
REMARK UNBOUND:                -0.342
REMARK SMILES CC[C@H](C)n1cc(C(=O)C(F)(F)F)cn1
REMARK SMILES IDX 5 1 6 2 7 3 14 4 15 5 3 6 4 7 2 8 1 9 8 10 9 11 10 12 11 13
REMARK SMILES IDX 12 14 13 15
REMARK H PARENT
ROOT
ATOM      1  N   UNL     1       8.139 -60.999 -24.136  1.00  0.00    -0.269 N 
ATOM      2  C   UNL     1       9.319 -60.323 -24.010  1.00  0.00     0.121 A 
ATOM      3  C   UNL     1       9.071 -59.237 -23.194  1.00  0.00     0.065 A 
ATOM      4  C   UNL     1       7.698 -59.356 -22.882  1.00  0.00     0.147 A 
ATOM      5  N   UNL     1       7.133 -60.422 -23.450  1.00  0.00    -0.180 NA
ENDROOT
BRANCH   1   6
ATOM      6  C   UNL     1       7.886 -62.222 -24.899  1.00  0.00     0.104 C 
ATOM      7  C   UNL     1       8.937 -62.400 -25.998  1.00  0.00     0.033 C 
BRANCH   6   8
ATOM      8  C   UNL     1       7.782 -63.437 -23.960  1.00  0.00     0.023 C 
ATOM      9  C   UNL     1       8.956 -63.558 -22.998  1.00  0.00     0.006 C 
ENDBRANCH   6   8
ENDBRANCH   1   6
BRANCH   3  10
ATOM     10  C   UNL     1      10.045 -58.230 -22.784  1.00  0.00     0.269 C 
ATOM     11  O   UNL     1      10.034 -57.108 -23.299  1.00  0.00    -0.284 OA
BRANCH  10  12
ATOM     12  C   UNL     1      11.053 -58.631 -21.710  1.00  0.00     0.454 C 
ATOM     13  F   UNL     1      10.564 -59.536 -20.816  1.00  0.00    -0.163 F 
ATOM     14  F   UNL     1      11.478 -57.563 -20.975  1.00  0.00    -0.163 F 
ATOM     15  F   UNL     1      12.179 -59.190 -22.240  1.00  0.00    -0.163 F 
ENDBRANCH  10  12
ENDBRANCH   3  10
TORSDOF 4
ENDMDL
MODEL 7
REMARK VINA RESULT:    -6.898      3.486      5.840
REMARK INTER + INTRA:          -8.853
REMARK INTER:                  -8.531
REMARK INTRA:                  -0.322
REMARK UNBOUND:                -0.342
REMARK SMILES CC[C@H](C)n1cc(C(=O)C(F)(F)F)cn1
REMARK SMILES IDX 5 1 6 2 7 3 14 4 15 5 3 6 4 7 2 8 1 9 8 10 9 11 10 12 11 13
REMARK SMILES IDX 12 14 13 15
REMARK H PARENT
ROOT
ATOM      1  N   UNL     1       9.841 -59.476 -22.343  1.00  0.00    -0.269 N 
ATOM      2  C   UNL     1       9.807 -58.299 -23.036  1.00  0.00     0.121 A 
ATOM      3  C   UNL     1      10.799 -57.497 -22.505  1.00  0.00     0.065 A 
ATOM      4  C   UNL     1      11.373 -58.296 -21.492  1.00  0.00     0.147 A 
ATOM      5  N   UNL     1      10.795 -59.494 -21.393  1.00  0.00    -0.180 NA
ENDROOT
BRANCH   1   6
ATOM      6  C   UNL     1       8.987 -60.650 -22.534  1.00  0.00     0.104 C 
ATOM      7  C   UNL     1       7.928 -60.379 -23.605  1.00  0.00     0.033 C 
BRANCH   6   8
ATOM      8  C   UNL     1       9.838 -61.898 -22.826  1.00  0.00     0.023 C 
ATOM      9  C   UNL     1       9.827 -62.305 -24.294  1.00  0.00     0.006 C 
ENDBRANCH   6   8
ENDBRANCH   1   6
BRANCH   3  10
ATOM     10  C   UNL     1      11.129 -56.141 -22.935  1.00  0.00     0.269 C 
ATOM     11  O   UNL     1      11.678 -55.951 -24.023  1.00  0.00    -0.284 OA
BRANCH  10  12
ATOM     12  C   UNL     1      10.766 -55.001 -21.986  1.00  0.00     0.454 C 
ATOM     13  F   UNL     1      11.259 -53.792 -22.375  1.00  0.00    -0.163 F 
ATOM     14  F   UNL     1      11.233 -55.213 -20.722  1.00  0.00    -0.163 F 
ATOM     15  F   UNL     1       9.417 -54.841 -21.863  1.00  0.00    -0.163 F 
ENDBRANCH  10  12
ENDBRANCH   3  10
TORSDOF 4
ENDMDL
MODEL 8
REMARK VINA RESULT:    -6.877      4.073      5.324
REMARK INTER + INTRA:          -8.826
REMARK INTER:                  -8.530
REMARK INTRA:                  -0.296
REMARK UNBOUND:                -0.342
REMARK SMILES CC[C@H](C)n1cc(C(=O)C(F)(F)F)cn1
REMARK SMILES IDX 5 1 6 2 7 3 14 4 15 5 3 6 4 7 2 8 1 9 8 10 9 11 10 12 11 13
REMARK SMILES IDX 12 14 13 15
REMARK H PARENT
ROOT
ATOM      1  N   UNL     1       9.901 -59.599 -22.347  1.00  0.00    -0.269 N 
ATOM      2  C   UNL     1       8.743 -59.739 -23.059  1.00  0.00     0.121 A 
ATOM      3  C   UNL     1       8.504 -61.096 -23.165  1.00  0.00     0.065 A 
ATOM      4  C   UNL     1       9.587 -61.684 -22.476  1.00  0.00     0.147 A 
ATOM      5  N   UNL     1      10.433 -60.780 -21.980  1.00  0.00    -0.180 NA
ENDROOT
BRANCH   1   6
ATOM      6  C   UNL     1      10.571 -58.354 -21.969  1.00  0.00     0.104 C 
ATOM      7  C   UNL     1      11.376 -58.543 -20.681  1.00  0.00     0.033 C 
BRANCH   6   8
ATOM      8  C   UNL     1      11.417 -57.815 -23.136  1.00  0.00     0.023 C 
ATOM      9  C   UNL     1      11.371 -56.298 -23.264  1.00  0.00     0.006 C 
ENDBRANCH   6   8
ENDBRANCH   1   6
BRANCH   3  10
ATOM     10  C   UNL     1       7.373 -61.718 -23.846  1.00  0.00     0.269 C 
ATOM     11  O   UNL     1       6.273 -61.158 -23.864  1.00  0.00    -0.284 OA
BRANCH  10  12
ATOM     12  C   UNL     1       7.620 -63.067 -24.519  1.00  0.00     0.454 C 
ATOM     13  F   UNL     1       7.849 -64.080 -23.637  1.00  0.00    -0.163 F 
ATOM     14  F   UNL     1       8.699 -63.038 -25.353  1.00  0.00    -0.163 F 
ATOM     15  F   UNL     1       6.565 -63.462 -25.288  1.00  0.00    -0.163 F 
ENDBRANCH  10  12
ENDBRANCH   3  10
TORSDOF 4
ENDMDL
MODEL 9
REMARK VINA RESULT:    -6.686      3.484      5.670
REMARK INTER + INTRA:          -8.591
REMARK INTER:                  -8.181
REMARK INTRA:                  -0.411
REMARK UNBOUND:                -0.342
REMARK SMILES CC[C@H](C)n1cc(C(=O)C(F)(F)F)cn1
REMARK SMILES IDX 5 1 6 2 7 3 14 4 15 5 3 6 4 7 2 8 1 9 8 10 9 11 10 12 11 13
REMARK SMILES IDX 12 14 13 15
REMARK H PARENT
ROOT
ATOM      1  N   UNL     1      10.439 -58.336 -23.273  1.00  0.00    -0.269 N 
ATOM      2  C   UNL     1      11.201 -57.346 -22.719  1.00  0.00     0.121 A 
ATOM      3  C   UNL     1      10.399 -56.223 -22.647  1.00  0.00     0.065 A 
ATOM      4  C   UNL     1       9.167 -56.651 -23.187  1.00  0.00     0.147 A 
ATOM      5  N   UNL     1       9.189 -57.930 -23.567  1.00  0.00    -0.180 NA
ENDROOT
BRANCH   1   6
ATOM      6  C   UNL     1      10.837 -59.716 -23.555  1.00  0.00     0.104 C 
ATOM      7  C   UNL     1      12.349 -59.887 -23.395  1.00  0.00     0.033 C 
BRANCH   6   8
ATOM      8  C   UNL     1      10.023 -60.702 -22.698  1.00  0.00     0.023 C 
ATOM      9  C   UNL     1      10.116 -60.421 -21.204  1.00  0.00     0.006 C 
ENDBRANCH   6   8
ENDBRANCH   1   6
BRANCH   3  10
ATOM     10  C   UNL     1      10.794 -54.919 -22.122  1.00  0.00     0.269 C 
ATOM     11  O   UNL     1      11.046 -54.782 -20.922  1.00  0.00    -0.284 OA
BRANCH  10  12
ATOM     12  C   UNL     1      10.875 -53.763 -23.116  1.00  0.00     0.454 C 
ATOM     13  F   UNL     1      11.212 -54.152 -24.377  1.00  0.00    -0.163 F 
ATOM     14  F   UNL     1      11.799 -52.829 -22.747  1.00  0.00    -0.163 F 
ATOM     15  F   UNL     1       9.692 -53.093 -23.227  1.00  0.00    -0.163 F 
ENDBRANCH  10  12
ENDBRANCH   3  10
TORSDOF 4
ENDMDL
