MODEL 1
REMARK VINA RESULT:   -14.113      0.000      0.000
REMARK INTER + INTRA:         -18.346
REMARK INTER:                 -17.413
REMARK INTRA:                  -0.933
REMARK UNBOUND:                -0.933
REMARK SMILES Cc1cccc(C(=O)Nc2ccc3c(c2)CN(C(=O)c2cccc(Cl)c2)C(=O)C3)c1
REMARK SMILES IDX 10 1 11 2 12 3 13 4 14 5 15 6 16 7 17 8 27 9 28 10 29 11
REMARK SMILES IDX 9 12 7 13 8 14 6 16 2 17 3 18 30 19 4 20 5 21 1 22 18 23
REMARK SMILES IDX 19 24 20 25 21 26 26 27 22 28 24 29 23 30 25 31
REMARK H PARENT 9 15
ROOT
ATOM      1  C   UNL     1      10.782 -56.970 -22.417  1.00  0.00     0.041 A 
ATOM      2  C   UNL     1      11.575 -57.650 -21.484  1.00  0.00     0.026 A 
ATOM      3  C   UNL     1      11.297 -58.977 -21.141  1.00  0.00     0.007 A 
ATOM      4  C   UNL     1      10.228 -59.644 -21.740  1.00  0.00    -0.033 A 
ATOM      5  C   UNL     1       9.428 -58.973 -22.669  1.00  0.00    -0.022 A 
ATOM      6  C   UNL     1       9.702 -57.636 -22.998  1.00  0.00     0.032 A 
ATOM      7  C   UNL     1       8.252 -59.704 -23.250  1.00  0.00     0.164 C 
ATOM      8  N   UNL     1       8.555 -61.108 -23.486  1.00  0.00    -0.274 N 
ATOM      9  C   UNL     1       9.132 -61.838 -22.447  1.00  0.00     0.234 C 
ATOM     10  O   UNL     1       9.078 -63.067 -22.361  1.00  0.00    -0.274 OA
ATOM     11  C   UNL     1       9.870 -61.056 -21.367  1.00  0.00     0.136 C 
ENDROOT
BRANCH   1  12
ATOM     12  N   UNL     1      11.124 -55.631 -22.698  1.00  0.00    -0.322 N 
ATOM     13  C   UNL     1      10.480 -54.490 -22.255  1.00  0.00     0.255 C 
ATOM     14  O   UNL     1       9.454 -54.438 -21.588  1.00  0.00    -0.269 OA
ATOM     15  H   UNL     1      11.882 -55.501 -23.356  1.00  0.00     0.170 HD
BRANCH  13  16
ATOM     16  C   UNL     1      11.108 -53.210 -22.691  1.00  0.00     0.040 A 
ATOM     17  C   UNL     1      12.504 -52.033 -24.298  1.00  0.00    -0.050 A 
ATOM     18  C   UNL     1      12.300 -50.846 -23.582  1.00  0.00     0.003 A 
ATOM     19  C   UNL     1      11.888 -53.210 -23.856  1.00  0.00     0.017 A 
ATOM     20  C   UNL     1      11.507 -50.838 -22.433  1.00  0.00     0.001 A 
ATOM     21  C   UNL     1      10.907 -52.016 -21.986  1.00  0.00     0.014 A 
ATOM     22  C   UNL     1      13.315 -52.030 -25.560  1.00  0.00     0.044 C 
ENDBRANCH  13  16
ENDBRANCH   1  12
BRANCH   8  23
ATOM     23  C   UNL     1       7.728 -61.738 -24.417  1.00  0.00     0.260 C 
ATOM     24  O   UNL     1       6.564 -62.055 -24.170  1.00  0.00    -0.269 OA
BRANCH  23  25
ATOM     25  C   UNL     1       8.269 -62.026 -25.775  1.00  0.00     0.041 A 
ATOM     26  C   UNL     1       7.734 -63.101 -26.498  1.00  0.00     0.014 A 
ATOM     27  C   UNL     1       9.245 -61.208 -26.358  1.00  0.00     0.034 A 
ATOM     28  C   UNL     1       8.197 -63.378 -27.786  1.00  0.00     0.002 A 
ATOM     29  C   UNL     1       9.700 -61.495 -27.643  1.00  0.00     0.041 A 
ATOM     30  C   UNL     1       9.184 -62.577 -28.357  1.00  0.00     0.020 A 
ATOM     31  Cl  UNL     1      10.905 -60.497 -28.361  1.00  0.00    -0.084 Cl
ENDBRANCH  23  25
ENDBRANCH   8  23
TORSDOF 4
ENDMDL
MODEL 2
REMARK VINA RESULT:   -11.673      1.948      2.457
REMARK INTER + INTRA:         -15.336
REMARK INTER:                 -15.533
REMARK INTRA:                   0.198
REMARK UNBOUND:                -0.933
REMARK SMILES Cc1cccc(C(=O)Nc2ccc3c(c2)CN(C(=O)c2cccc(Cl)c2)C(=O)C3)c1
REMARK SMILES IDX 10 1 11 2 12 3 13 4 14 5 15 6 16 7 17 8 27 9 28 10 29 11
REMARK SMILES IDX 9 12 7 13 8 14 6 16 2 17 3 18 30 19 4 20 5 21 1 22 18 23
REMARK SMILES IDX 19 24 20 25 21 26 26 27 22 28 24 29 23 30 25 31
REMARK H PARENT 9 15
ROOT
ATOM      1  C   UNL     1      10.825 -55.952 -22.108  1.00  0.00     0.041 A 
ATOM      2  C   UNL     1      11.385 -56.577 -20.986  1.00  0.00     0.026 A 
ATOM      3  C   UNL     1      11.466 -57.971 -20.910  1.00  0.00     0.007 A 
ATOM      4  C   UNL     1      11.000 -58.757 -21.965  1.00  0.00    -0.033 A 
ATOM      5  C   UNL     1      10.436 -58.142 -23.086  1.00  0.00    -0.022 A 
ATOM      6  C   UNL     1      10.342 -56.744 -23.151  1.00  0.00     0.032 A 
ATOM      7  C   UNL     1       9.892 -59.020 -24.176  1.00  0.00     0.164 C 
ATOM      8  N   UNL     1      10.720 -60.201 -24.379  1.00  0.00    -0.274 N 
ATOM      9  C   UNL     1      11.070 -60.955 -23.259  1.00  0.00     0.234 C 
ATOM     10  O   UNL     1      11.409 -62.140 -23.309  1.00  0.00    -0.274 OA
ATOM     11  C   UNL     1      11.030 -60.258 -21.904  1.00  0.00     0.136 C 
ENDROOT
BRANCH   1  12
ATOM     12  N   UNL     1      10.772 -54.542 -22.099  1.00  0.00    -0.322 N 
ATOM     13  C   UNL     1      11.214 -53.680 -23.086  1.00  0.00     0.255 C 
ATOM     14  O   UNL     1      11.793 -53.984 -24.122  1.00  0.00    -0.269 OA
ATOM     15  H   UNL     1      10.438 -54.122 -21.242  1.00  0.00     0.170 HD
BRANCH  13  16
ATOM     16  C   UNL     1      10.982 -52.235 -22.802  1.00  0.00     0.040 A 
ATOM     17  C   UNL     1      11.781 -49.943 -22.953  1.00  0.00    -0.050 A 
ATOM     18  C   UNL     1      10.607 -49.509 -22.323  1.00  0.00     0.003 A 
ATOM     19  C   UNL     1      11.953 -51.309 -23.207  1.00  0.00     0.017 A 
ATOM     20  C   UNL     1       9.628 -50.426 -21.937  1.00  0.00     0.001 A 
ATOM     21  C   UNL     1       9.810 -51.789 -22.177  1.00  0.00     0.014 A 
ATOM     22  C   UNL     1      12.809 -48.952 -23.412  1.00  0.00     0.044 C 
ENDBRANCH  13  16
ENDBRANCH   1  12
BRANCH   8  23
ATOM     23  C   UNL     1      10.575 -60.813 -25.625  1.00  0.00     0.260 C 
ATOM     24  O   UNL     1      11.336 -60.594 -26.568  1.00  0.00    -0.269 OA
BRANCH  23  25
ATOM     25  C   UNL     1       9.464 -61.785 -25.819  1.00  0.00     0.041 A 
ATOM     26  C   UNL     1       8.659 -62.116 -24.720  1.00  0.00     0.014 A 
ATOM     27  C   UNL     1       9.173 -62.314 -27.083  1.00  0.00     0.034 A 
ATOM     28  C   UNL     1       7.590 -63.000 -24.876  1.00  0.00     0.002 A 
ATOM     29  C   UNL     1       8.104 -63.196 -27.226  1.00  0.00     0.041 A 
ATOM     30  C   UNL     1       7.314 -63.544 -26.130  1.00  0.00     0.020 A 
ATOM     31  Cl  UNL     1       7.747 -63.856 -28.776  1.00  0.00    -0.084 Cl
ENDBRANCH  23  25
ENDBRANCH   8  23
TORSDOF 4
ENDMDL
MODEL 3
REMARK VINA RESULT:   -11.218      4.598     10.707
REMARK INTER + INTRA:         -14.775
REMARK INTER:                 -14.062
REMARK INTRA:                  -0.713
REMARK UNBOUND:                -0.933
REMARK SMILES Cc1cccc(C(=O)Nc2ccc3c(c2)CN(C(=O)c2cccc(Cl)c2)C(=O)C3)c1
REMARK SMILES IDX 10 1 11 2 12 3 13 4 14 5 15 6 16 7 17 8 27 9 28 10 29 11
REMARK SMILES IDX 9 12 7 13 8 14 6 16 2 17 3 18 30 19 4 20 5 21 1 22 18 23
REMARK SMILES IDX 19 24 20 25 21 26 26 27 22 28 24 29 23 30 25 31
REMARK H PARENT 9 15
ROOT
ATOM      1  C   UNL     1      10.703 -53.526 -22.356  1.00  0.00     0.041 A 
ATOM      2  C   UNL     1       9.398 -53.022 -22.280  1.00  0.00     0.026 A 
ATOM      3  C   UNL     1       9.161 -51.644 -22.288  1.00  0.00     0.007 A 
ATOM      4  C   UNL     1      10.229 -50.753 -22.387  1.00  0.00    -0.033 A 
ATOM      5  C   UNL     1      11.535 -51.245 -22.459  1.00  0.00    -0.022 A 
ATOM      6  C   UNL     1      11.769 -52.629 -22.434  1.00  0.00     0.032 A 
ATOM      7  C   UNL     1      12.664 -50.255 -22.506  1.00  0.00     0.164 C 
ATOM      8  N   UNL     1      12.321 -49.087 -23.304  1.00  0.00    -0.274 N 
ATOM      9  C   UNL     1      11.108 -48.448 -23.045  1.00  0.00     0.234 C 
ATOM     10  O   UNL     1      10.874 -47.276 -23.343  1.00  0.00    -0.274 OA
ATOM     11  C   UNL     1      10.021 -49.264 -22.356  1.00  0.00     0.136 C 
ENDROOT
BRANCH   1  12
ATOM     12  N   UNL     1      10.854 -54.928 -22.331  1.00  0.00    -0.322 N 
ATOM     13  C   UNL     1      11.339 -55.738 -23.342  1.00  0.00     0.255 C 
ATOM     14  O   UNL     1      11.667 -55.389 -24.470  1.00  0.00    -0.269 OA
ATOM     15  H   UNL     1      10.498 -55.393 -21.506  1.00  0.00     0.170 HD
BRANCH  13  16
ATOM     16  C   UNL     1      11.417 -57.186 -22.998  1.00  0.00     0.040 A 
ATOM     17  C   UNL     1      11.934 -59.456 -23.706  1.00  0.00    -0.050 A 
ATOM     18  C   UNL     1      11.608 -59.913 -22.423  1.00  0.00     0.003 A 
ATOM     19  C   UNL     1      11.854 -58.085 -23.981  1.00  0.00     0.017 A 
ATOM     20  C   UNL     1      11.193 -59.019 -21.434  1.00  0.00     0.001 A 
ATOM     21  C   UNL     1      11.099 -57.655 -21.717  1.00  0.00     0.014 A 
ATOM     22  C   UNL     1      12.428 -60.411 -24.752  1.00  0.00     0.044 C 
ENDBRANCH  13  16
ENDBRANCH   1  12
BRANCH   8  23
ATOM     23  C   UNL     1      13.413 -48.360 -23.781  1.00  0.00     0.260 C 
ATOM     24  O   UNL     1      13.983 -47.497 -23.113  1.00  0.00    -0.269 OA
BRANCH  23  25
ATOM     25  C   UNL     1      13.924 -48.652 -25.149  1.00  0.00     0.041 A 
ATOM     26  C   UNL     1      13.903 -49.976 -25.607  1.00  0.00     0.014 A 
ATOM     27  C   UNL     1      14.359 -47.626 -25.997  1.00  0.00     0.034 A 
ATOM     28  C   UNL     1      14.345 -50.279 -26.896  1.00  0.00     0.002 A 
ATOM     29  C   UNL     1      14.799 -47.940 -27.281  1.00  0.00     0.041 A 
ATOM     30  C   UNL     1      14.798 -49.260 -27.733  1.00  0.00     0.020 A 
ATOM     31  Cl  UNL     1      15.342 -46.683 -28.325  1.00  0.00    -0.084 Cl
ENDBRANCH  23  25
ENDBRANCH   8  23
TORSDOF 4
ENDMDL
MODEL 4
REMARK VINA RESULT:   -11.160      2.460      9.284
REMARK INTER + INTRA:         -14.702
REMARK INTER:                 -14.333
REMARK INTRA:                  -0.370
REMARK UNBOUND:                -0.933
REMARK SMILES Cc1cccc(C(=O)Nc2ccc3c(c2)CN(C(=O)c2cccc(Cl)c2)C(=O)C3)c1
REMARK SMILES IDX 10 1 11 2 12 3 13 4 14 5 15 6 16 7 17 8 27 9 28 10 29 11
REMARK SMILES IDX 9 12 7 13 8 14 6 16 2 17 3 18 30 19 4 20 5 21 1 22 18 23
REMARK SMILES IDX 19 24 20 25 21 26 26 27 22 28 24 29 23 30 25 31
REMARK H PARENT 9 15
ROOT
ATOM      1  C   UNL     1      10.007 -59.085 -23.505  1.00  0.00     0.041 A 
ATOM      2  C   UNL     1      10.448 -59.539 -22.255  1.00  0.00     0.026 A 
ATOM      3  C   UNL     1      10.934 -58.642 -21.298  1.00  0.00     0.007 A 
ATOM      4  C   UNL     1      10.971 -57.275 -21.578  1.00  0.00    -0.033 A 
ATOM      5  C   UNL     1      10.537 -56.813 -22.824  1.00  0.00    -0.022 A 
ATOM      6  C   UNL     1      10.066 -57.719 -23.786  1.00  0.00     0.032 A 
ATOM      7  C   UNL     1      10.645 -55.343 -23.110  1.00  0.00     0.164 C 
ATOM      8  N   UNL     1      10.343 -54.542 -21.933  1.00  0.00    -0.274 N 
ATOM      9  C   UNL     1      10.984 -54.865 -20.737  1.00  0.00     0.234 C 
ATOM     10  O   UNL     1      11.132 -54.074 -19.804  1.00  0.00    -0.274 OA
ATOM     11  C   UNL     1      11.525 -56.283 -20.594  1.00  0.00     0.136 C 
ENDROOT
BRANCH   1  12
ATOM     12  N   UNL     1       9.543 -60.057 -24.415  1.00  0.00    -0.322 N 
ATOM     13  C   UNL     1       9.989 -60.279 -25.706  1.00  0.00     0.255 C 
ATOM     14  O   UNL     1      10.829 -59.626 -26.315  1.00  0.00    -0.269 OA
ATOM     15  H   UNL     1       8.746 -60.600 -24.109  1.00  0.00     0.170 HD
BRANCH  13  16
ATOM     16  C   UNL     1       9.326 -61.413 -26.409  1.00  0.00     0.040 A 
ATOM     17  C   UNL     1       7.786 -63.294 -26.308  1.00  0.00    -0.050 A 
ATOM     18  C   UNL     1       8.029 -63.545 -27.664  1.00  0.00     0.003 A 
ATOM     19  C   UNL     1       8.425 -62.212 -25.691  1.00  0.00     0.017 A 
ATOM     20  C   UNL     1       8.910 -62.740 -28.389  1.00  0.00     0.001 A 
ATOM     21  C   UNL     1       9.558 -61.672 -27.766  1.00  0.00     0.014 A 
ATOM     22  C   UNL     1       6.801 -64.128 -25.543  1.00  0.00     0.044 C 
ENDBRANCH  13  16
ENDBRANCH   1  12
BRANCH   8  23
ATOM     23  C   UNL     1       9.970 -53.224 -22.200  1.00  0.00     0.260 C 
ATOM     24  O   UNL     1       8.825 -52.806 -22.028  1.00  0.00    -0.269 OA
BRANCH  23  25
ATOM     25  C   UNL     1      11.004 -52.275 -22.698  1.00  0.00     0.041 A 
ATOM     26  C   UNL     1      11.185 -51.060 -22.023  1.00  0.00     0.014 A 
ATOM     27  C   UNL     1      11.833 -52.605 -23.778  1.00  0.00     0.034 A 
ATOM     28  C   UNL     1      12.167 -50.163 -22.445  1.00  0.00     0.002 A 
ATOM     29  C   UNL     1      12.810 -51.700 -24.192  1.00  0.00     0.041 A 
ATOM     30  C   UNL     1      12.978 -50.481 -23.534  1.00  0.00     0.020 A 
ATOM     31  Cl  UNL     1      13.827 -52.097 -25.523  1.00  0.00    -0.084 Cl
ENDBRANCH  23  25
ENDBRANCH   8  23
TORSDOF 4
ENDMDL
