MODEL 1
REMARK VINA RESULT:    -8.536      0.000      0.000
REMARK INTER + INTRA:         -10.532
REMARK INTER:                 -10.282
REMARK INTRA:                  -0.250
REMARK UNBOUND:                -0.250
REMARK SMILES CN(C)S(=O)(=O)N[C@@H]1CCc2ccc(O)cc2C1
REMARK SMILES IDX 7 1 4 3 5 4 6 5 2 6 1 7 3 8 8 9 9 10 18 11 10 12 17 13 11 14
REMARK SMILES IDX 16 15 12 16 14 17 13 18 15 19
REMARK H PARENT 7 2 15 20
ROOT
ATOM      1  N   UNL     1      10.674 -54.568 -22.889  1.00  0.00    -0.199 NA
ATOM      2  H   UNL     1      11.656 -54.515 -23.168  1.00  0.00     0.142 HD
ENDROOT
BRANCH   1   3
ATOM      3  S   UNL     1      10.341 -53.268 -21.887  1.00  0.00     0.279 S 
ATOM      4  O   UNL     1      10.632 -53.735 -20.553  1.00  0.00    -0.195 OA
ATOM      5  O   UNL     1       9.048 -52.737 -22.240  1.00  0.00    -0.195 OA
BRANCH   3   6
ATOM      6  N   UNL     1      11.541 -52.196 -22.353  1.00  0.00    -0.195 NA
ATOM      7  C   UNL     1      12.134 -52.400 -23.683  1.00  0.00     0.125 C 
ATOM      8  C   UNL     1      11.411 -50.783 -21.977  1.00  0.00     0.125 C 
ENDBRANCH   3   6
ENDBRANCH   1   3
BRANCH   1   9
ATOM      9  C   UNL     1      10.249 -55.922 -22.461  1.00  0.00     0.075 C 
ATOM     10  C   UNL     1      11.397 -56.916 -22.640  1.00  0.00     0.025 C 
ATOM     11  C   UNL     1       9.055 -56.353 -23.324  1.00  0.00     0.056 C 
ATOM     12  C   UNL     1      10.981 -58.292 -22.127  1.00  0.00     0.037 C 
ATOM     13  C   UNL     1       8.703 -57.812 -23.162  1.00  0.00    -0.040 A 
ATOM     14  C   UNL     1       9.628 -58.732 -22.630  1.00  0.00    -0.044 A 
ATOM     15  C   UNL     1       7.450 -58.266 -23.603  1.00  0.00     0.050 A 
ATOM     16  C   UNL     1       9.266 -60.082 -22.513  1.00  0.00     0.008 A 
ATOM     17  C   UNL     1       7.118 -59.613 -23.486  1.00  0.00     0.115 A 
ATOM     18  C   UNL     1       8.014 -60.522 -22.942  1.00  0.00     0.046 A 
BRANCH  17  19
ATOM     19  O   UNL     1       5.907 -60.086 -23.900  1.00  0.00    -0.508 OA
ATOM     20  H   UNL     1       5.864 -61.037 -23.707  1.00  0.00     0.293 HD
ENDBRANCH  17  19
ENDBRANCH   1   9
TORSDOF 4
ENDMDL
MODEL 2
REMARK VINA RESULT:    -8.370      3.161      7.143
REMARK INTER + INTRA:         -10.332
REMARK INTER:                 -10.079
REMARK INTRA:                  -0.253
REMARK UNBOUND:                -0.250
REMARK SMILES CN(C)S(=O)(=O)N[C@@H]1CCc2ccc(O)cc2C1
REMARK SMILES IDX 7 1 4 3 5 4 6 5 2 6 1 7 3 8 8 9 9 10 18 11 10 12 17 13 11 14
REMARK SMILES IDX 16 15 12 16 14 17 13 18 15 19
REMARK H PARENT 7 2 15 20
ROOT
ATOM      1  N   UNL     1      10.408 -56.871 -23.071  1.00  0.00    -0.199 NA
ATOM      2  H   UNL     1       9.421 -56.949 -22.818  1.00  0.00     0.142 HD
ENDROOT
BRANCH   1   3
ATOM      3  S   UNL     1      11.194 -58.259 -22.559  1.00  0.00     0.279 S 
ATOM      4  O   UNL     1      11.459 -58.046 -21.156  1.00  0.00    -0.195 OA
ATOM      5  O   UNL     1      12.249 -58.560 -23.494  1.00  0.00    -0.195 OA
BRANCH   3   6
ATOM      6  N   UNL     1       9.965 -59.389 -22.706  1.00  0.00    -0.195 NA
ATOM      7  C   UNL     1       9.942 -60.478 -21.719  1.00  0.00     0.125 C 
ATOM      8  C   UNL     1       8.630 -58.931 -23.109  1.00  0.00     0.125 C 
ENDBRANCH   3   6
ENDBRANCH   1   3
BRANCH   1   9
ATOM      9  C   UNL     1      11.005 -55.555 -22.743  1.00  0.00     0.075 C 
ATOM     10  C   UNL     1       9.982 -54.677 -22.021  1.00  0.00     0.025 C 
ATOM     11  C   UNL     1      11.434 -54.875 -24.051  1.00  0.00     0.056 C 
ATOM     12  C   UNL     1      10.622 -53.353 -21.616  1.00  0.00     0.037 C 
ATOM     13  C   UNL     1      11.812 -53.425 -23.869  1.00  0.00    -0.040 A 
ATOM     14  C   UNL     1      11.396 -52.699 -22.736  1.00  0.00    -0.044 A 
ATOM     15  C   UNL     1      12.543 -52.777 -24.877  1.00  0.00     0.050 A 
ATOM     16  C   UNL     1      11.754 -51.348 -22.614  1.00  0.00     0.008 A 
ATOM     17  C   UNL     1      12.878 -51.433 -24.739  1.00  0.00     0.115 A 
ATOM     18  C   UNL     1      12.492 -50.716 -23.615  1.00  0.00     0.046 A 
BRANCH  17  19
ATOM     19  O   UNL     1      13.592 -50.775 -25.696  1.00  0.00    -0.508 OA
ATOM     20  H   UNL     1      13.011 -50.611 -26.458  1.00  0.00     0.293 HD
ENDBRANCH  17  19
ENDBRANCH   1   9
TORSDOF 4
ENDMDL
MODEL 3
REMARK VINA RESULT:    -8.141      4.082      7.422
REMARK INTER + INTRA:         -10.056
REMARK INTER:                 -10.118
REMARK INTRA:                   0.062
REMARK UNBOUND:                -0.250
REMARK SMILES CN(C)S(=O)(=O)N[C@@H]1CCc2ccc(O)cc2C1
REMARK SMILES IDX 7 1 4 3 5 4 6 5 2 6 1 7 3 8 8 9 9 10 18 11 10 12 17 13 11 14
REMARK SMILES IDX 16 15 12 16 14 17 13 18 15 19
REMARK H PARENT 7 2 15 20
ROOT
ATOM      1  N   UNL     1       8.669 -61.564 -22.884  1.00  0.00    -0.199 NA
ATOM      2  H   UNL     1       9.070 -62.471 -22.635  1.00  0.00     0.142 HD
ENDROOT
BRANCH   1   3
ATOM      3  S   UNL     1       7.809 -61.743 -24.310  1.00  0.00     0.279 S 
ATOM      4  O   UNL     1       8.684 -61.243 -25.344  1.00  0.00    -0.195 OA
ATOM      5  O   UNL     1       6.483 -61.212 -24.115  1.00  0.00    -0.195 OA
BRANCH   3   6
ATOM      6  N   UNL     1       7.740 -63.413 -24.428  1.00  0.00    -0.195 NA
ATOM      7  C   UNL     1       7.825 -64.172 -23.172  1.00  0.00     0.125 C 
ATOM      8  C   UNL     1       6.839 -64.015 -25.419  1.00  0.00     0.125 C 
ENDBRANCH   3   6
ENDBRANCH   1   3
BRANCH   1   9
ATOM      9  C   UNL     1       9.626 -60.438 -22.768  1.00  0.00     0.075 C 
ATOM     10  C   UNL     1      10.162 -60.346 -21.339  1.00  0.00     0.025 C 
ATOM     11  C   UNL     1       8.894 -59.138 -23.129  1.00  0.00     0.056 C 
ATOM     12  C   UNL     1      11.203 -59.235 -21.242  1.00  0.00     0.037 C 
ATOM     13  C   UNL     1       9.687 -57.898 -22.794  1.00  0.00    -0.040 A 
ATOM     14  C   UNL     1      10.754 -57.940 -21.875  1.00  0.00    -0.044 A 
ATOM     15  C   UNL     1       9.317 -56.673 -23.369  1.00  0.00     0.050 A 
ATOM     16  C   UNL     1      11.455 -56.761 -21.580  1.00  0.00     0.008 A 
ATOM     17  C   UNL     1      10.020 -55.514 -23.052  1.00  0.00     0.115 A 
ATOM     18  C   UNL     1      11.087 -55.550 -22.166  1.00  0.00     0.046 A 
BRANCH  17  19
ATOM     19  O   UNL     1       9.689 -54.308 -23.597  1.00  0.00    -0.508 OA
ATOM     20  H   UNL     1      10.093 -54.245 -24.478  1.00  0.00     0.293 HD
ENDBRANCH  17  19
ENDBRANCH   1   9
TORSDOF 4
ENDMDL
MODEL 4
REMARK VINA RESULT:    -7.961      2.468      2.971
REMARK INTER + INTRA:          -9.840
REMARK INTER:                  -9.698
REMARK INTRA:                  -0.142
REMARK UNBOUND:                -0.250
REMARK SMILES CN(C)S(=O)(=O)N[C@@H]1CCc2ccc(O)cc2C1
REMARK SMILES IDX 7 1 4 3 5 4 6 5 2 6 1 7 3 8 8 9 9 10 18 11 10 12 17 13 11 14
REMARK SMILES IDX 16 15 12 16 14 17 13 18 15 19
REMARK H PARENT 7 2 15 20
ROOT
ATOM      1  N   UNL     1      11.402 -56.682 -22.354  1.00  0.00    -0.199 NA
ATOM      2  H   UNL     1      11.564 -56.289 -21.424  1.00  0.00     0.142 HD
ENDROOT
BRANCH   1   3
ATOM      3  S   UNL     1      10.895 -55.447 -23.365  1.00  0.00     0.279 S 
ATOM      4  O   UNL     1       9.464 -55.609 -23.470  1.00  0.00    -0.195 OA
ATOM      5  O   UNL     1      11.744 -55.431 -24.530  1.00  0.00    -0.195 OA
BRANCH   3   6
ATOM      6  N   UNL     1      11.214 -54.108 -22.411  1.00  0.00    -0.195 NA
ATOM      7  C   UNL     1      11.330 -52.814 -23.100  1.00  0.00     0.125 C 
ATOM      8  C   UNL     1      10.585 -54.016 -21.088  1.00  0.00     0.125 C 
ENDBRANCH   3   6
ENDBRANCH   1   3
BRANCH   1   9
ATOM      9  C   UNL     1      10.633 -57.949 -22.338  1.00  0.00     0.075 C 
ATOM     10  C   UNL     1      11.187 -58.890 -21.268  1.00  0.00     0.025 C 
ATOM     11  C   UNL     1      10.758 -58.611 -23.719  1.00  0.00     0.056 C 
ATOM     12  C   UNL     1      10.346 -60.161 -21.203  1.00  0.00     0.037 C 
ATOM     13  C   UNL     1      10.240 -60.028 -23.745  1.00  0.00    -0.040 A 
ATOM     14  C   UNL     1      10.081 -60.770 -22.559  1.00  0.00    -0.044 A 
ATOM     15  C   UNL     1       9.966 -60.633 -24.982  1.00  0.00     0.050 A 
ATOM     16  C   UNL     1       9.613 -62.091 -22.630  1.00  0.00     0.008 A 
ATOM     17  C   UNL     1       9.513 -61.948 -25.028  1.00  0.00     0.115 A 
ATOM     18  C   UNL     1       9.332 -62.679 -23.862  1.00  0.00     0.046 A 
BRANCH  17  19
ATOM     19  O   UNL     1       9.233 -62.564 -26.212  1.00  0.00    -0.508 OA
ATOM     20  H   UNL     1       9.331 -61.917 -26.930  1.00  0.00     0.293 HD
ENDBRANCH  17  19
ENDBRANCH   1   9
TORSDOF 4
ENDMDL
MODEL 5
REMARK VINA RESULT:    -7.878      3.582      6.803
REMARK INTER + INTRA:          -9.740
REMARK INTER:                  -9.506
REMARK INTRA:                  -0.233
REMARK UNBOUND:                -0.250
REMARK SMILES CN(C)S(=O)(=O)N[C@@H]1CCc2ccc(O)cc2C1
REMARK SMILES IDX 7 1 4 3 5 4 6 5 2 6 1 7 3 8 8 9 9 10 18 11 10 12 17 13 11 14
REMARK SMILES IDX 16 15 12 16 14 17 13 18 15 19
REMARK H PARENT 7 2 15 20
ROOT
ATOM      1  N   UNL     1      11.356 -60.059 -22.369  1.00  0.00    -0.199 NA
ATOM      2  H   UNL     1      12.339 -60.339 -22.393  1.00  0.00     0.142 HD
ENDROOT
BRANCH   1   3
ATOM      3  S   UNL     1      10.428 -61.352 -22.890  1.00  0.00     0.279 S 
ATOM      4  O   UNL     1       9.516 -61.624 -21.805  1.00  0.00    -0.195 OA
ATOM      5  O   UNL     1      11.309 -62.367 -23.414  1.00  0.00    -0.195 OA
BRANCH   3   6
ATOM      6  N   UNL     1       9.573 -60.641 -24.143  1.00  0.00    -0.195 NA
ATOM      7  C   UNL     1       9.972 -61.005 -25.511  1.00  0.00     0.125 C 
ATOM      8  C   UNL     1       8.128 -60.438 -23.986  1.00  0.00     0.125 C 
ENDBRANCH   3   6
ENDBRANCH   1   3
BRANCH   1   9
ATOM      9  C   UNL     1      11.104 -58.721 -22.955  1.00  0.00     0.075 C 
ATOM     10  C   UNL     1      12.190 -58.379 -23.975  1.00  0.00     0.025 C 
ATOM     11  C   UNL     1      11.115 -57.684 -21.823  1.00  0.00     0.056 C 
ATOM     12  C   UNL     1      11.885 -57.036 -24.632  1.00  0.00     0.037 C 
ATOM     13  C   UNL     1      11.132 -56.260 -22.324  1.00  0.00    -0.040 A 
ATOM     14  C   UNL     1      11.531 -55.954 -23.640  1.00  0.00    -0.044 A 
ATOM     15  C   UNL     1      10.797 -55.221 -21.443  1.00  0.00     0.050 A 
ATOM     16  C   UNL     1      11.549 -54.616 -24.061  1.00  0.00     0.008 A 
ATOM     17  C   UNL     1      10.833 -53.900 -21.879  1.00  0.00     0.115 A 
ATOM     18  C   UNL     1      11.203 -53.591 -23.181  1.00  0.00     0.046 A 
BRANCH  17  19
ATOM     19  O   UNL     1      10.508 -52.866 -21.050  1.00  0.00    -0.508 OA
ATOM     20  H   UNL     1      11.312 -52.353 -20.866  1.00  0.00     0.293 HD
ENDBRANCH  17  19
ENDBRANCH   1   9
TORSDOF 4
ENDMDL
MODEL 6
REMARK VINA RESULT:    -7.746      4.025      6.934
REMARK INTER + INTRA:          -9.581
REMARK INTER:                  -9.618
REMARK INTRA:                   0.037
REMARK UNBOUND:                -0.250
REMARK SMILES CN(C)S(=O)(=O)N[C@@H]1CCc2ccc(O)cc2C1
REMARK SMILES IDX 7 1 4 3 5 4 6 5 2 6 1 7 3 8 8 9 9 10 18 11 10 12 17 13 11 14
REMARK SMILES IDX 16 15 12 16 14 17 13 18 15 19
REMARK H PARENT 7 2 15 20
ROOT
ATOM      1  N   UNL     1      12.115 -58.509 -25.086  1.00  0.00    -0.199 NA
ATOM      2  H   UNL     1      11.255 -58.527 -25.638  1.00  0.00     0.142 HD
ENDROOT
BRANCH   1   3
ATOM      3  S   UNL     1      12.590 -60.090 -24.802  1.00  0.00     0.279 S 
ATOM      4  O   UNL     1      13.270 -60.057 -23.529  1.00  0.00    -0.195 OA
ATOM      5  O   UNL     1      13.229 -60.597 -25.991  1.00  0.00    -0.195 OA
BRANCH   3   6
ATOM      6  N   UNL     1      11.103 -60.834 -24.597  1.00  0.00    -0.195 NA
ATOM      7  C   UNL     1      10.283 -61.024 -25.802  1.00  0.00     0.125 C 
ATOM      8  C   UNL     1      10.990 -61.932 -23.629  1.00  0.00     0.125 C 
ENDBRANCH   3   6
ENDBRANCH   1   3
BRANCH   1   9
ATOM      9  C   UNL     1      12.070 -57.565 -23.945  1.00  0.00     0.075 C 
ATOM     10  C   UNL     1      10.976 -57.977 -22.961  1.00  0.00     0.025 C 
ATOM     11  C   UNL     1      11.772 -56.159 -24.488  1.00  0.00     0.056 C 
ATOM     12  C   UNL     1      10.984 -57.048 -21.750  1.00  0.00     0.037 C 
ATOM     13  C   UNL     1      11.443 -55.163 -23.403  1.00  0.00    -0.040 A 
ATOM     14  C   UNL     1      11.035 -55.586 -22.122  1.00  0.00    -0.044 A 
ATOM     15  C   UNL     1      11.490 -53.791 -23.696  1.00  0.00     0.050 A 
ATOM     16  C   UNL     1      10.722 -54.627 -21.148  1.00  0.00     0.008 A 
ATOM     17  C   UNL     1      11.164 -52.858 -22.717  1.00  0.00     0.115 A 
ATOM     18  C   UNL     1      10.784 -53.265 -21.446  1.00  0.00     0.046 A 
BRANCH  17  19
ATOM     19  O   UNL     1      11.204 -51.518 -22.967  1.00  0.00    -0.508 OA
ATOM     20  H   UNL     1      10.556 -51.076 -22.395  1.00  0.00     0.293 HD
ENDBRANCH  17  19
ENDBRANCH   1   9
TORSDOF 4
ENDMDL
MODEL 7
REMARK VINA RESULT:    -7.627      2.465      3.242
REMARK INTER + INTRA:          -9.437
REMARK INTER:                  -9.719
REMARK INTRA:                   0.282
REMARK UNBOUND:                -0.250
REMARK SMILES CN(C)S(=O)(=O)N[C@@H]1CCc2ccc(O)cc2C1
REMARK SMILES IDX 7 1 4 3 5 4 6 5 2 6 1 7 3 8 8 9 9 10 18 11 10 12 17 13 11 14
REMARK SMILES IDX 16 15 12 16 14 17 13 18 15 19
REMARK H PARENT 7 2 15 20
ROOT
ATOM      1  N   UNL     1       9.540 -57.136 -23.161  1.00  0.00    -0.199 NA
ATOM      2  H   UNL     1       9.385 -56.945 -24.152  1.00  0.00     0.142 HD
ENDROOT
BRANCH   1   3
ATOM      3  S   UNL     1      10.923 -56.324 -22.678  1.00  0.00     0.279 S 
ATOM      4  O   UNL     1      11.763 -56.281 -23.851  1.00  0.00    -0.195 OA
ATOM      5  O   UNL     1      11.381 -56.896 -21.437  1.00  0.00    -0.195 OA
BRANCH   3   6
ATOM      6  N   UNL     1      10.307 -54.790 -22.403  1.00  0.00    -0.195 NA
ATOM      7  C   UNL     1      10.630 -54.166 -21.112  1.00  0.00     0.125 C 
ATOM      8  C   UNL     1      10.256 -53.839 -23.520  1.00  0.00     0.125 C 
ENDBRANCH   3   6
ENDBRANCH   1   3
BRANCH   1   9
ATOM      9  C   UNL     1       9.393 -58.567 -22.800  1.00  0.00     0.075 C 
ATOM     10  C   UNL     1      10.737 -59.284 -22.934  1.00  0.00     0.025 C 
ATOM     11  C   UNL     1       8.370 -59.206 -23.750  1.00  0.00     0.056 C 
ATOM     12  C   UNL     1      10.599 -60.737 -22.488  1.00  0.00     0.037 C 
ATOM     13  C   UNL     1       8.333 -60.712 -23.653  1.00  0.00    -0.040 A 
ATOM     14  C   UNL     1       9.403 -61.435 -23.090  1.00  0.00    -0.044 A 
ATOM     15  C   UNL     1       7.234 -61.404 -24.186  1.00  0.00     0.050 A 
ATOM     16  C   UNL     1       9.335 -62.835 -23.035  1.00  0.00     0.008 A 
ATOM     17  C   UNL     1       7.194 -62.794 -24.130  1.00  0.00     0.115 A 
ATOM     18  C   UNL     1       8.233 -63.513 -23.556  1.00  0.00     0.046 A 
BRANCH  17  19
ATOM     19  O   UNL     1       6.140 -63.497 -24.634  1.00  0.00    -0.508 OA
ATOM     20  H   UNL     1       5.522 -62.874 -25.051  1.00  0.00     0.293 HD
ENDBRANCH  17  19
ENDBRANCH   1   9
TORSDOF 4
ENDMDL
MODEL 8
REMARK VINA RESULT:    -7.615      2.625      3.673
REMARK INTER + INTRA:          -9.423
REMARK INTER:                  -9.497
REMARK INTRA:                   0.074
REMARK UNBOUND:                -0.250
REMARK SMILES CN(C)S(=O)(=O)N[C@@H]1CCc2ccc(O)cc2C1
REMARK SMILES IDX 7 1 4 3 5 4 6 5 2 6 1 7 3 8 8 9 9 10 18 11 10 12 17 13 11 14
REMARK SMILES IDX 16 15 12 16 14 17 13 18 15 19
REMARK H PARENT 7 2 15 20
ROOT
ATOM      1  N   UNL     1       9.414 -56.745 -23.001  1.00  0.00    -0.199 NA
ATOM      2  H   UNL     1       9.030 -55.970 -23.545  1.00  0.00     0.142 HD
ENDROOT
BRANCH   1   3
ATOM      3  S   UNL     1      11.048 -56.462 -22.763  1.00  0.00     0.279 S 
ATOM      4  O   UNL     1      11.693 -56.952 -23.958  1.00  0.00    -0.195 OA
ATOM      5  O   UNL     1      11.410 -56.941 -21.453  1.00  0.00    -0.195 OA
BRANCH   3   6
ATOM      6  N   UNL     1      11.083 -54.787 -22.784  1.00  0.00    -0.195 NA
ATOM      7  C   UNL     1      11.424 -54.145 -24.062  1.00  0.00     0.125 C 
ATOM      8  C   UNL     1      10.081 -54.050 -22.004  1.00  0.00     0.125 C 
ENDBRANCH   3   6
ENDBRANCH   1   3
BRANCH   1   9
ATOM      9  C   UNL     1       8.987 -58.080 -23.482  1.00  0.00     0.075 C 
ATOM     10  C   UNL     1       7.463 -58.194 -23.438  1.00  0.00     0.025 C 
ATOM     11  C   UNL     1       9.610 -59.148 -22.571  1.00  0.00     0.056 C 
ATOM     12  C   UNL     1       7.023 -59.541 -24.006  1.00  0.00     0.037 C 
ATOM     13  C   UNL     1       9.038 -60.527 -22.798  1.00  0.00    -0.040 A 
ATOM     14  C   UNL     1       7.799 -60.707 -23.443  1.00  0.00    -0.044 A 
ATOM     15  C   UNL     1       9.731 -61.644 -22.305  1.00  0.00     0.050 A 
ATOM     16  C   UNL     1       7.297 -62.005 -23.619  1.00  0.00     0.008 A 
ATOM     17  C   UNL     1       9.207 -62.921 -22.481  1.00  0.00     0.115 A 
ATOM     18  C   UNL     1       7.999 -63.109 -23.136  1.00  0.00     0.046 A 
BRANCH  17  19
ATOM     19  O   UNL     1       9.857 -64.028 -22.020  1.00  0.00    -0.508 OA
ATOM     20  H   UNL     1      10.787 -63.797 -21.861  1.00  0.00     0.293 HD
ENDBRANCH  17  19
ENDBRANCH   1   9
TORSDOF 4
ENDMDL
MODEL 9
REMARK VINA RESULT:    -7.530      3.880      6.627
REMARK INTER + INTRA:          -9.320
REMARK INTER:                  -9.067
REMARK INTRA:                  -0.254
REMARK UNBOUND:                -0.250
REMARK SMILES CN(C)S(=O)(=O)N[C@@H]1CCc2ccc(O)cc2C1
REMARK SMILES IDX 7 1 4 3 5 4 6 5 2 6 1 7 3 8 8 9 9 10 18 11 10 12 17 13 11 14
REMARK SMILES IDX 16 15 12 16 14 17 13 18 15 19
REMARK H PARENT 7 2 15 20
ROOT
ATOM      1  N   UNL     1       9.630 -60.407 -23.597  1.00  0.00    -0.199 NA
ATOM      2  H   UNL     1       9.056 -60.853 -22.878  1.00  0.00     0.142 HD
ENDROOT
BRANCH   1   3
ATOM      3  S   UNL     1      10.496 -61.600 -24.393  1.00  0.00     0.279 S 
ATOM      4  O   UNL     1       9.578 -62.706 -24.528  1.00  0.00    -0.195 OA
ATOM      5  O   UNL     1      11.774 -61.749 -23.744  1.00  0.00    -0.195 OA
BRANCH   3   6
ATOM      6  N   UNL     1      10.702 -60.889 -25.896  1.00  0.00    -0.195 NA
ATOM      7  C   UNL     1       9.501 -60.338 -26.541  1.00  0.00     0.125 C 
ATOM      8  C   UNL     1      11.916 -60.103 -26.146  1.00  0.00     0.125 C 
ENDBRANCH   3   6
ENDBRANCH   1   3
BRANCH   1   9
ATOM      9  C   UNL     1      10.353 -59.204 -23.121  1.00  0.00     0.075 C 
ATOM     10  C   UNL     1      10.614 -59.306 -21.617  1.00  0.00     0.025 C 
ATOM     11  C   UNL     1       9.486 -57.970 -23.410  1.00  0.00     0.056 C 
ATOM     12  C   UNL     1      11.424 -58.102 -21.145  1.00  0.00     0.037 C 
ATOM     13  C   UNL     1       9.994 -56.718 -22.737  1.00  0.00    -0.040 A 
ATOM     14  C   UNL     1      10.880 -56.785 -21.644  1.00  0.00    -0.044 A 
ATOM     15  C   UNL     1       9.528 -55.469 -23.174  1.00  0.00     0.050 A 
ATOM     16  C   UNL     1      11.314 -55.598 -21.036  1.00  0.00     0.008 A 
ATOM     17  C   UNL     1       9.964 -54.305 -22.548  1.00  0.00     0.115 A 
ATOM     18  C   UNL     1      10.855 -54.360 -21.486  1.00  0.00     0.046 A 
BRANCH  17  19
ATOM     19  O   UNL     1       9.535 -53.075 -22.952  1.00  0.00    -0.508 OA
ATOM     20  H   UNL     1      10.163 -52.727 -23.607  1.00  0.00     0.293 HD
ENDBRANCH  17  19
ENDBRANCH   1   9
TORSDOF 4
ENDMDL
