MODEL 1
REMARK VINA RESULT:   -11.210      0.000      0.000
REMARK INTER + INTRA:         -17.857
REMARK INTER:                 -17.108
REMARK INTRA:                  -0.749
REMARK UNBOUND:                -0.749
REMARK SMILES CC[N@@H+](CCC(=O)N1CC[NH+](CCN=c2c3c([nH]c4ccccc24)CCCC3)CC1)C1CCCCC1
REMARK SMILES IDX 11 1 10 2 9 3 8 4 6 5 7 6 30 7 29 8 12 10 13 11 14 12 15 13
REMARK SMILES IDX 18 14 17 15 19 16 16 17 25 18 20 19 24 20 28 21 26 22 21 23
REMARK SMILES IDX 23 24 27 25 22 26 5 28 4 29 3 30 2 32 1 33 31 34 32 35 36 36
REMARK SMILES IDX 33 37 35 38 34 39
REMARK H PARENT 11 9 18 27 3 31
ROOT
ATOM      1  N   UNL     1      10.644 -53.190 -22.488  1.00  0.00    -0.330 N 
ATOM      2  C   UNL     1      11.620 -53.569 -23.586  1.00  0.00     0.284 C 
ATOM      3  C   UNL     1      11.326 -54.998 -24.071  1.00  0.00     0.181 C 
ATOM      4  N   UNL     1      11.252 -55.988 -22.978  1.00  0.00    -0.331 N 
ATOM      5  C   UNL     1      11.561 -57.307 -23.308  1.00  0.00     0.228 C 
ATOM      6  O   UNL     1      11.971 -57.608 -24.426  1.00  0.00    -0.275 OA
ATOM      7  C   UNL     1      10.437 -55.598 -21.813  1.00  0.00     0.181 C 
ATOM      8  C   UNL     1      10.721 -54.162 -21.325  1.00  0.00     0.284 C 
ATOM      9  H   UNL     1       9.701 -53.281 -22.890  1.00  0.00     0.348 HD
ENDROOT
BRANCH   1  10
ATOM     10  C   UNL     1      10.716 -51.731 -22.073  1.00  0.00     0.286 C 
BRANCH  10  11
ATOM     11  C   UNL     1      12.131 -51.128 -22.109  1.00  0.00     0.204 C 
BRANCH  11  12
ATOM     12  N   UNL     1      11.974 -49.697 -22.259  1.00  0.00    -0.278 NA
BRANCH  12  13
ATOM     13  C   UNL     1      12.212 -49.032 -23.343  1.00  0.00     0.072 A 
ATOM     14  N   UNL     1      13.457 -47.151 -25.001  1.00  0.00    -0.358 N 
ATOM     15  C   UNL     1      12.404 -46.750 -24.198  1.00  0.00     0.021 A 
ATOM     16  C   UNL     1      13.599 -48.509 -25.332  1.00  0.00     0.048 A 
ATOM     17  C   UNL     1      11.739 -47.602 -23.390  1.00  0.00    -0.003 A 
ATOM     18  C   UNL     1      12.013 -45.288 -24.284  1.00  0.00     0.054 C 
ATOM     19  C   UNL     1      14.390 -48.892 -26.420  1.00  0.00     0.027 A 
ATOM     20  C   UNL     1      12.961 -49.493 -24.557  1.00  0.00     0.024 A 
ATOM     21  C   UNL     1      10.611 -47.190 -22.482  1.00  0.00     0.039 C 
ATOM     22  C   UNL     1      10.638 -44.983 -23.691  1.00  0.00     0.007 C 
ATOM     23  C   UNL     1      14.469 -50.234 -26.795  1.00  0.00     0.002 A 
ATOM     24  C   UNL     1      12.995 -50.828 -24.975  1.00  0.00     0.012 A 
ATOM     25  C   UNL     1      10.463 -45.674 -22.346  1.00  0.00     0.005 C 
ATOM     26  C   UNL     1      13.753 -51.197 -26.089  1.00  0.00     0.001 A 
ATOM     27  H   UNL     1      13.737 -46.489 -25.721  1.00  0.00     0.166 HD
ENDBRANCH  12  13
ENDBRANCH  11  12
ENDBRANCH  10  11
ENDBRANCH   1  10
BRANCH   5  28
ATOM     28  C   UNL     1      11.361 -58.382 -22.254  1.00  0.00     0.161 C 
BRANCH  28  29
ATOM     29  C   UNL     1       9.984 -59.056 -22.361  1.00  0.00     0.272 C 
BRANCH  29  30
ATOM     30  N   UNL     1       9.694 -59.632 -23.755  1.00  0.00    -0.332 N 
ATOM     31  H   UNL     1      10.491 -59.391 -24.357  1.00  0.00     0.348 HD
BRANCH  30  32
ATOM     32  C   UNL     1       8.482 -58.945 -24.391  1.00  0.00     0.258 C 
ATOM     33  C   UNL     1       7.712 -58.161 -23.341  1.00  0.00     0.071 C 
ENDBRANCH  30  32
BRANCH  30  34
ATOM     34  C   UNL     1       9.613 -61.166 -23.772  1.00  0.00     0.184 C 
ATOM     35  C   UNL     1       8.310 -61.615 -24.453  1.00  0.00     0.065 C 
ATOM     36  C   UNL     1       9.772 -61.780 -22.377  1.00  0.00     0.065 C 
ATOM     37  C   UNL     1       8.226 -63.141 -24.508  1.00  0.00     0.006 C 
ATOM     38  C   UNL     1       9.685 -63.306 -22.449  1.00  0.00     0.006 C 
ATOM     39  C   UNL     1       8.396 -63.766 -23.125  1.00  0.00     0.000 C 
ENDBRANCH  30  34
ENDBRANCH  29  30
ENDBRANCH  28  29
ENDBRANCH   5  28
TORSDOF 9
ENDMDL
MODEL 2
REMARK VINA RESULT:   -10.841      2.525      4.698
REMARK INTER + INTRA:         -17.293
REMARK INTER:                 -15.833
REMARK INTRA:                  -1.460
REMARK UNBOUND:                -0.749
REMARK SMILES CC[N@@H+](CCC(=O)N1CC[NH+](CCN=c2c3c([nH]c4ccccc24)CCCC3)CC1)C1CCCCC1
REMARK SMILES IDX 11 1 10 2 9 3 8 4 6 5 7 6 30 7 29 8 12 10 13 11 14 12 15 13
REMARK SMILES IDX 18 14 17 15 19 16 16 17 25 18 20 19 24 20 28 21 26 22 21 23
REMARK SMILES IDX 23 24 27 25 22 26 5 28 4 29 3 30 2 32 1 33 31 34 32 35 36 36
REMARK SMILES IDX 33 37 35 38 34 39
REMARK H PARENT 11 9 18 27 3 31
ROOT
ATOM      1  N   UNL     1      10.028 -57.592 -22.393  1.00  0.00    -0.330 N 
ATOM      2  C   UNL     1       9.037 -57.383 -23.523  1.00  0.00     0.284 C 
ATOM      3  C   UNL     1       7.828 -58.314 -23.332  1.00  0.00     0.181 C 
ATOM      4  N   UNL     1       8.200 -59.727 -23.125  1.00  0.00    -0.331 N 
ATOM      5  C   UNL     1       7.259 -60.683 -23.506  1.00  0.00     0.228 C 
ATOM      6  O   UNL     1       6.218 -60.365 -24.077  1.00  0.00    -0.275 OA
ATOM      7  C   UNL     1       9.273 -59.972 -22.144  1.00  0.00     0.181 C 
ATOM      8  C   UNL     1      10.487 -59.037 -22.325  1.00  0.00     0.284 C 
ATOM      9  H   UNL     1       9.520 -57.400 -21.519  1.00  0.00     0.348 HD
ENDROOT
BRANCH   1  10
ATOM     10  C   UNL     1      11.165 -56.585 -22.374  1.00  0.00     0.286 C 
BRANCH  10  11
ATOM     11  C   UNL     1      10.828 -55.258 -21.673  1.00  0.00     0.204 C 
BRANCH  11  12
ATOM     12  N   UNL     1      10.316 -54.364 -22.690  1.00  0.00    -0.278 NA
BRANCH  12  13
ATOM     13  C   UNL     1      11.010 -53.461 -23.304  1.00  0.00     0.072 A 
ATOM     14  N   UNL     1      12.985 -51.505 -23.642  1.00  0.00    -0.358 N 
ATOM     15  C   UNL     1      11.764 -51.144 -23.101  1.00  0.00     0.021 A 
ATOM     16  C   UNL     1      13.083 -52.673 -24.417  1.00  0.00     0.048 A 
ATOM     17  C   UNL     1      10.755 -52.025 -22.929  1.00  0.00    -0.003 A 
ATOM     18  C   UNL     1      11.602 -49.685 -22.724  1.00  0.00     0.054 C 
ATOM     19  C   UNL     1      14.170 -52.862 -25.277  1.00  0.00     0.027 A 
ATOM     20  C   UNL     1      12.096 -53.670 -24.316  1.00  0.00     0.024 A 
ATOM     21  C   UNL     1       9.427 -51.669 -22.316  1.00  0.00     0.039 C 
ATOM     22  C   UNL     1      10.149 -49.265 -22.500  1.00  0.00     0.007 C 
ATOM     23  C   UNL     1      14.227 -53.985 -26.103  1.00  0.00     0.002 A 
ATOM     24  C   UNL     1      12.129 -54.762 -25.191  1.00  0.00     0.012 A 
ATOM     25  C   UNL     1       9.414 -50.292 -21.650  1.00  0.00     0.005 C 
ATOM     26  C   UNL     1      13.196 -54.921 -26.078  1.00  0.00     0.001 A 
ATOM     27  H   UNL     1      13.584 -50.735 -23.927  1.00  0.00     0.166 HD
ENDBRANCH  12  13
ENDBRANCH  11  12
ENDBRANCH  10  11
ENDBRANCH   1  10
BRANCH   5  28
ATOM     28  C   UNL     1       7.535 -62.141 -23.182  1.00  0.00     0.161 C 
BRANCH  28  29
ATOM     29  C   UNL     1       8.497 -62.790 -24.190  1.00  0.00     0.272 C 
BRANCH  29  30
ATOM     30  N   UNL     1       8.464 -62.128 -25.576  1.00  0.00    -0.332 N 
ATOM     31  H   UNL     1       7.784 -61.360 -25.532  1.00  0.00     0.348 HD
BRANCH  30  32
ATOM     32  C   UNL     1       7.918 -63.095 -26.632  1.00  0.00     0.258 C 
ATOM     33  C   UNL     1       8.722 -62.980 -27.916  1.00  0.00     0.071 C 
ENDBRANCH  30  32
BRANCH  30  34
ATOM     34  C   UNL     1       9.799 -61.477 -25.968  1.00  0.00     0.184 C 
ATOM     35  C   UNL     1      10.773 -61.520 -24.780  1.00  0.00     0.065 C 
ATOM     36  C   UNL     1       9.624 -60.057 -26.516  1.00  0.00     0.065 C 
ATOM     37  C   UNL     1      12.120 -60.904 -25.162  1.00  0.00     0.006 C 
ATOM     38  C   UNL     1      10.979 -59.455 -26.893  1.00  0.00     0.006 C 
ATOM     39  C   UNL     1      11.957 -59.493 -25.721  1.00  0.00     0.000 C 
ENDBRANCH  30  34
ENDBRANCH  29  30
ENDBRANCH  28  29
ENDBRANCH   5  28
TORSDOF 9
ENDMDL
MODEL 3
REMARK VINA RESULT:   -10.837      2.402     11.375
REMARK INTER + INTRA:         -17.287
REMARK INTER:                 -16.440
REMARK INTRA:                  -0.847
REMARK UNBOUND:                -0.749
REMARK SMILES CC[N@@H+](CCC(=O)N1CC[NH+](CCN=c2c3c([nH]c4ccccc24)CCCC3)CC1)C1CCCCC1
REMARK SMILES IDX 11 1 10 2 9 3 8 4 6 5 7 6 30 7 29 8 12 10 13 11 14 12 15 13
REMARK SMILES IDX 18 14 17 15 19 16 16 17 25 18 20 19 24 20 28 21 26 22 21 23
REMARK SMILES IDX 23 24 27 25 22 26 5 28 4 29 3 30 2 32 1 33 31 34 32 35 36 36
REMARK SMILES IDX 33 37 35 38 34 39
REMARK H PARENT 11 9 18 27 3 31
ROOT
ATOM      1  N   UNL     1      11.253 -56.823 -23.514  1.00  0.00    -0.330 N 
ATOM      2  C   UNL     1      11.376 -56.549 -22.027  1.00  0.00     0.284 C 
ATOM      3  C   UNL     1      10.640 -55.245 -21.678  1.00  0.00     0.181 C 
ATOM      4  N   UNL     1      11.034 -54.101 -22.525  1.00  0.00    -0.331 N 
ATOM      5  C   UNL     1      10.893 -52.832 -21.966  1.00  0.00     0.228 C 
ATOM      6  O   UNL     1      10.555 -52.682 -20.794  1.00  0.00    -0.275 OA
ATOM      7  C   UNL     1      11.081 -54.363 -23.975  1.00  0.00     0.181 C 
ATOM      8  C   UNL     1      11.811 -55.674 -24.333  1.00  0.00     0.284 C 
ATOM      9  H   UNL     1      10.246 -56.874 -23.721  1.00  0.00     0.348 HD
ENDROOT
BRANCH   1  10
ATOM     10  C   UNL     1      11.773 -58.187 -23.936  1.00  0.00     0.286 C 
BRANCH  10  11
ATOM     11  C   UNL     1      11.817 -59.228 -22.805  1.00  0.00     0.204 C 
BRANCH  11  12
ATOM     12  N   UNL     1      12.045 -60.515 -23.428  1.00  0.00    -0.278 NA
BRANCH  12  13
ATOM     13  C   UNL     1      11.368 -60.990 -24.423  1.00  0.00     0.072 A 
ATOM     14  N   UNL     1       9.197 -61.284 -26.166  1.00  0.00    -0.358 N 
ATOM     15  C   UNL     1       9.207 -61.992 -24.977  1.00  0.00     0.021 A 
ATOM     16  C   UNL     1      10.406 -60.810 -26.702  1.00  0.00     0.048 A 
ATOM     17  C   UNL     1      10.228 -61.921 -24.097  1.00  0.00    -0.003 A 
ATOM     18  C   UNL     1       8.009 -62.881 -24.714  1.00  0.00     0.054 C 
ATOM     19  C   UNL     1      10.486 -60.444 -28.050  1.00  0.00     0.027 A 
ATOM     20  C   UNL     1      11.539 -60.682 -25.879  1.00  0.00     0.024 A 
ATOM     21  C   UNL     1      10.255 -62.653 -22.782  1.00  0.00     0.039 C 
ATOM     22  C   UNL     1       8.236 -63.910 -23.607  1.00  0.00     0.007 C 
ATOM     23  C   UNL     1      11.705 -60.047 -28.600  1.00  0.00     0.002 A 
ATOM     24  C   UNL     1      12.770 -60.343 -26.452  1.00  0.00     0.012 A 
ATOM     25  C   UNL     1       8.906 -63.267 -22.401  1.00  0.00     0.005 C 
ATOM     26  C   UNL     1      12.850 -60.020 -27.808  1.00  0.00     0.001 A 
ATOM     27  H   UNL     1       8.497 -61.575 -26.844  1.00  0.00     0.166 HD
ENDBRANCH  12  13
ENDBRANCH  11  12
ENDBRANCH  10  11
ENDBRANCH   1  10
BRANCH   5  28
ATOM     28  C   UNL     1      11.149 -51.621 -22.846  1.00  0.00     0.161 C 
BRANCH  28  29
ATOM     29  C   UNL     1      11.604 -50.397 -22.036  1.00  0.00     0.272 C 
BRANCH  29  30
ATOM     30  N   UNL     1      12.932 -49.800 -22.528  1.00  0.00    -0.332 N 
ATOM     31  H   UNL     1      13.593 -49.838 -21.743  1.00  0.00     0.348 HD
BRANCH  30  32
ATOM     32  C   UNL     1      12.775 -48.311 -22.854  1.00  0.00     0.258 C 
ATOM     33  C   UNL     1      11.362 -47.850 -22.539  1.00  0.00     0.071 C 
ENDBRANCH  30  32
BRANCH  30  34
ATOM     34  C   UNL     1      13.581 -50.614 -23.657  1.00  0.00     0.184 C 
ATOM     35  C   UNL     1      15.035 -50.952 -23.292  1.00  0.00     0.065 C 
ATOM     36  C   UNL     1      13.478 -49.920 -25.019  1.00  0.00     0.065 C 
ATOM     37  C   UNL     1      15.688 -51.791 -24.391  1.00  0.00     0.006 C 
ATOM     38  C   UNL     1      14.136 -50.771 -26.107  1.00  0.00     0.006 C 
ATOM     39  C   UNL     1      15.581 -51.115 -25.755  1.00  0.00     0.000 C 
ENDBRANCH  30  34
ENDBRANCH  29  30
ENDBRANCH  28  29
ENDBRANCH   5  28
TORSDOF 9
ENDMDL
MODEL 4
REMARK VINA RESULT:   -10.805      2.370     11.425
REMARK INTER + INTRA:         -17.239
REMARK INTER:                 -16.236
REMARK INTRA:                  -1.004
REMARK UNBOUND:                -0.749
REMARK SMILES CC[N@@H+](CCC(=O)N1CC[NH+](CCN=c2c3c([nH]c4ccccc24)CCCC3)CC1)C1CCCCC1
REMARK SMILES IDX 11 1 10 2 9 3 8 4 6 5 7 6 30 7 29 8 12 10 13 11 14 12 15 13
REMARK SMILES IDX 18 14 17 15 19 16 16 17 25 18 20 19 24 20 28 21 26 22 21 23
REMARK SMILES IDX 23 24 27 25 22 26 5 28 4 29 3 30 2 32 1 33 31 34 32 35 36 36
REMARK SMILES IDX 33 37 35 38 34 39
REMARK H PARENT 11 9 18 27 3 31
ROOT
ATOM      1  N   UNL     1      11.610 -57.196 -24.207  1.00  0.00    -0.330 N 
ATOM      2  C   UNL     1      11.542 -57.199 -22.691  1.00  0.00     0.284 C 
ATOM      3  C   UNL     1      10.614 -56.070 -22.212  1.00  0.00     0.181 C 
ATOM      4  N   UNL     1      10.945 -54.751 -22.787  1.00  0.00    -0.331 N 
ATOM      5  C   UNL     1      10.587 -53.634 -22.034  1.00  0.00     0.228 C 
ATOM      6  O   UNL     1      10.113 -53.747 -20.906  1.00  0.00    -0.275 OA
ATOM      7  C   UNL     1      11.176 -54.725 -24.243  1.00  0.00     0.181 C 
ATOM      8  C   UNL     1      12.100 -55.859 -24.733  1.00  0.00     0.284 C 
ATOM      9  H   UNL     1      10.645 -57.312 -24.544  1.00  0.00     0.348 HD
ENDROOT
BRANCH   1  10
ATOM     10  C   UNL     1      12.340 -58.391 -24.795  1.00  0.00     0.286 C 
BRANCH  10  11
ATOM     11  C   UNL     1      11.574 -59.721 -24.685  1.00  0.00     0.204 C 
BRANCH  11  12
ATOM     12  N   UNL     1      10.487 -59.660 -25.638  1.00  0.00    -0.278 NA
BRANCH  12  13
ATOM     13  C   UNL     1       9.306 -60.154 -25.451  1.00  0.00     0.072 A 
ATOM     14  N   UNL     1       7.378 -61.971 -24.546  1.00  0.00    -0.358 N 
ATOM     15  C   UNL     1       8.006 -62.203 -25.757  1.00  0.00     0.021 A 
ATOM     16  C   UNL     1       7.349 -60.670 -24.016  1.00  0.00     0.048 A 
ATOM     17  C   UNL     1       8.928 -61.361 -26.271  1.00  0.00    -0.003 A 
ATOM     18  C   UNL     1       7.589 -63.455 -26.500  1.00  0.00     0.054 C 
ATOM     19  C   UNL     1       6.421 -60.330 -23.025  1.00  0.00     0.027 A 
ATOM     20  C   UNL     1       8.269 -59.706 -24.466  1.00  0.00     0.024 A 
ATOM     21  C   UNL     1       9.651 -61.601 -27.569  1.00  0.00     0.039 C 
ATOM     22  C   UNL     1       8.011 -63.467 -27.970  1.00  0.00     0.007 C 
ATOM     23  C   UNL     1       6.342 -59.019 -22.555  1.00  0.00     0.002 A 
ATOM     24  C   UNL     1       8.143 -58.381 -24.035  1.00  0.00     0.012 A 
ATOM     25  C   UNL     1       9.457 -63.014 -28.121  1.00  0.00     0.005 C 
ATOM     26  C   UNL     1       7.185 -58.041 -23.077  1.00  0.00     0.001 A 
ATOM     27  H   UNL     1       6.556 -62.541 -24.361  1.00  0.00     0.166 HD
ENDBRANCH  12  13
ENDBRANCH  11  12
ENDBRANCH  10  11
ENDBRANCH   1  10
BRANCH   5  28
ATOM     28  C   UNL     1      10.778 -52.257 -22.646  1.00  0.00     0.161 C 
BRANCH  28  29
ATOM     29  C   UNL     1      11.434 -51.269 -21.668  1.00  0.00     0.272 C 
BRANCH  29  30
ATOM     30  N   UNL     1      12.642 -50.531 -22.265  1.00  0.00    -0.332 N 
ATOM     31  H   UNL     1      13.291 -50.334 -21.494  1.00  0.00     0.348 HD
BRANCH  30  32
ATOM     32  C   UNL     1      12.231 -49.160 -22.812  1.00  0.00     0.258 C 
ATOM     33  C   UNL     1      10.740 -48.943 -22.616  1.00  0.00     0.071 C 
ENDBRANCH  30  32
BRANCH  30  34
ATOM     34  C   UNL     1      13.436 -51.382 -23.268  1.00  0.00     0.184 C 
ATOM     35  C   UNL     1      14.934 -51.052 -23.166  1.00  0.00     0.065 C 
ATOM     36  C   UNL     1      12.914 -51.245 -24.702  1.00  0.00     0.065 C 
ATOM     37  C   UNL     1      15.745 -51.913 -24.135  1.00  0.00     0.006 C 
ATOM     38  C   UNL     1      13.736 -52.111 -25.658  1.00  0.00     0.006 C 
ATOM     39  C   UNL     1      15.227 -51.794 -25.566  1.00  0.00     0.000 C 
ENDBRANCH  30  34
ENDBRANCH  29  30
ENDBRANCH  28  29
ENDBRANCH   5  28
TORSDOF 9
ENDMDL
MODEL 5
REMARK VINA RESULT:   -10.726      2.310     11.906
REMARK INTER + INTRA:         -17.119
REMARK INTER:                 -16.196
REMARK INTRA:                  -0.923
REMARK UNBOUND:                -0.749
REMARK SMILES CC[N@@H+](CCC(=O)N1CC[NH+](CCN=c2c3c([nH]c4ccccc24)CCCC3)CC1)C1CCCCC1
REMARK SMILES IDX 11 1 10 2 9 3 8 4 6 5 7 6 30 7 29 8 12 10 13 11 14 12 15 13
REMARK SMILES IDX 18 14 17 15 19 16 16 17 25 18 20 19 24 20 28 21 26 22 21 23
REMARK SMILES IDX 23 24 27 25 22 26 5 28 4 29 3 30 2 32 1 33 31 34 32 35 36 36
REMARK SMILES IDX 33 37 35 38 34 39
REMARK H PARENT 11 9 18 27 3 31
ROOT
ATOM      1  N   UNL     1      10.704 -56.646 -23.174  1.00  0.00    -0.330 N 
ATOM      2  C   UNL     1      10.776 -55.959 -21.822  1.00  0.00     0.284 C 
ATOM      3  C   UNL     1      10.553 -54.448 -21.996  1.00  0.00     0.181 C 
ATOM      4  N   UNL     1      11.428 -53.837 -23.017  1.00  0.00    -0.331 N 
ATOM      5  C   UNL     1      11.720 -52.483 -22.860  1.00  0.00     0.228 C 
ATOM      6  O   UNL     1      11.351 -51.859 -21.867  1.00  0.00    -0.275 OA
ATOM      7  C   UNL     1      11.514 -54.555 -24.301  1.00  0.00     0.181 C 
ATOM      8  C   UNL     1      11.730 -56.074 -24.136  1.00  0.00     0.284 C 
ATOM      9  H   UNL     1       9.777 -56.428 -23.564  1.00  0.00     0.348 HD
ENDROOT
BRANCH   1  10
ATOM     10  C   UNL     1      10.712 -58.163 -23.098  1.00  0.00     0.286 C 
BRANCH  10  11
ATOM     11  C   UNL     1      12.103 -58.800 -23.258  1.00  0.00     0.204 C 
BRANCH  11  12
ATOM     12  N   UNL     1      11.897 -60.224 -23.413  1.00  0.00    -0.278 NA
BRANCH  12  13
ATOM     13  C   UNL     1      11.259 -60.781 -24.391  1.00  0.00     0.072 A 
ATOM     14  N   UNL     1       9.125 -61.283 -26.132  1.00  0.00    -0.358 N 
ATOM     15  C   UNL     1       9.172 -61.940 -24.915  1.00  0.00     0.021 A 
ATOM     16  C   UNL     1      10.305 -60.754 -26.681  1.00  0.00     0.048 A 
ATOM     17  C   UNL     1      10.180 -61.769 -24.034  1.00  0.00    -0.003 A 
ATOM     18  C   UNL     1       8.030 -62.893 -24.623  1.00  0.00     0.054 C 
ATOM     19  C   UNL     1      10.371 -60.437 -28.042  1.00  0.00     0.027 A 
ATOM     20  C   UNL     1      11.421 -60.521 -25.859  1.00  0.00     0.024 A 
ATOM     21  C   UNL     1      10.243 -62.446 -22.691  1.00  0.00     0.039 C 
ATOM     22  C   UNL     1       8.315 -63.861 -23.474  1.00  0.00     0.007 C 
ATOM     23  C   UNL     1      11.566 -59.985 -28.602  1.00  0.00     0.002 A 
ATOM     24  C   UNL     1      12.633 -60.126 -26.438  1.00  0.00     0.012 A 
ATOM     25  C   UNL     1       8.934 -63.129 -22.292  1.00  0.00     0.005 C 
ATOM     26  C   UNL     1      12.702 -59.853 -27.806  1.00  0.00     0.001 A 
ATOM     27  H   UNL     1       8.450 -61.645 -26.801  1.00  0.00     0.166 HD
ENDBRANCH  12  13
ENDBRANCH  11  12
ENDBRANCH  10  11
ENDBRANCH   1  10
BRANCH   5  28
ATOM     28  C   UNL     1      12.496 -51.778 -23.958  1.00  0.00     0.161 C 
BRANCH  28  29
ATOM     29  C   UNL     1      13.106 -50.450 -23.482  1.00  0.00     0.272 C 
BRANCH  29  30
ATOM     30  N   UNL     1      12.921 -49.300 -24.483  1.00  0.00    -0.332 N 
ATOM     31  H   UNL     1      12.174 -49.577 -25.132  1.00  0.00     0.348 HD
BRANCH  30  32
ATOM     32  C   UNL     1      14.170 -49.125 -25.353  1.00  0.00     0.258 C 
ATOM     33  C   UNL     1      14.107 -50.052 -26.556  1.00  0.00     0.071 C 
ENDBRANCH  30  32
BRANCH  30  34
ATOM     34  C   UNL     1      12.439 -47.997 -23.828  1.00  0.00     0.184 C 
ATOM     35  C   UNL     1      11.113 -48.240 -23.089  1.00  0.00     0.065 C 
ATOM     36  C   UNL     1      12.335 -46.838 -24.825  1.00  0.00     0.065 C 
ATOM     37  C   UNL     1      10.633 -46.961 -22.402  1.00  0.00     0.006 C 
ATOM     38  C   UNL     1      11.854 -45.567 -24.123  1.00  0.00     0.006 C 
ATOM     39  C   UNL     1      10.538 -45.796 -23.383  1.00  0.00     0.000 C 
ENDBRANCH  30  34
ENDBRANCH  29  30
ENDBRANCH  28  29
ENDBRANCH   5  28
TORSDOF 9
ENDMDL
MODEL 6
REMARK VINA RESULT:   -10.693      1.809      2.323
REMARK INTER + INTRA:         -17.067
REMARK INTER:                 -15.817
REMARK INTRA:                  -1.250
REMARK UNBOUND:                -0.749
REMARK SMILES CC[N@@H+](CCC(=O)N1CC[NH+](CCN=c2c3c([nH]c4ccccc24)CCCC3)CC1)C1CCCCC1
REMARK SMILES IDX 11 1 10 2 9 3 8 4 6 5 7 6 30 7 29 8 12 10 13 11 14 12 15 13
REMARK SMILES IDX 18 14 17 15 19 16 16 17 25 18 20 19 24 20 28 21 26 22 21 23
REMARK SMILES IDX 23 24 27 25 22 26 5 28 4 29 3 30 2 32 1 33 31 34 32 35 36 36
REMARK SMILES IDX 33 37 35 38 34 39
REMARK H PARENT 11 9 18 27 3 31
ROOT
ATOM      1  N   UNL     1      10.612 -53.529 -22.517  1.00  0.00    -0.330 N 
ATOM      2  C   UNL     1      10.212 -54.367 -21.317  1.00  0.00     0.284 C 
ATOM      3  C   UNL     1      11.102 -55.618 -21.238  1.00  0.00     0.181 C 
ATOM      4  N   UNL     1      11.159 -56.381 -22.501  1.00  0.00    -0.331 N 
ATOM      5  C   UNL     1      11.428 -57.745 -22.395  1.00  0.00     0.228 C 
ATOM      6  O   UNL     1      11.512 -58.299 -21.301  1.00  0.00    -0.275 OA
ATOM      7  C   UNL     1      11.392 -55.588 -23.721  1.00  0.00     0.181 C 
ATOM      8  C   UNL     1      10.507 -54.326 -23.804  1.00  0.00     0.284 C 
ATOM      9  H   UNL     1      11.607 -53.295 -22.392  1.00  0.00     0.348 HD
ENDROOT
BRANCH   1  10
ATOM     10  C   UNL     1       9.932 -52.172 -22.578  1.00  0.00     0.286 C 
BRANCH  10  11
ATOM     11  C   UNL     1      10.632 -51.072 -21.762  1.00  0.00     0.204 C 
BRANCH  11  12
ATOM     12  N   UNL     1      11.041 -50.049 -22.701  1.00  0.00    -0.278 NA
BRANCH  12  13
ATOM     13  C   UNL     1      12.265 -49.785 -23.025  1.00  0.00     0.072 A 
ATOM     14  N   UNL     1      15.022 -49.456 -22.662  1.00  0.00    -0.358 N 
ATOM     15  C   UNL     1      14.173 -48.402 -22.374  1.00  0.00     0.021 A 
ATOM     16  C   UNL     1      14.594 -50.473 -23.532  1.00  0.00     0.048 A 
ATOM     17  C   UNL     1      12.836 -48.476 -22.545  1.00  0.00    -0.003 A 
ATOM     18  C   UNL     1      14.828 -47.132 -21.867  1.00  0.00     0.054 C 
ATOM     19  C   UNL     1      15.526 -51.323 -24.139  1.00  0.00     0.027 A 
ATOM     20  C   UNL     1      13.223 -50.656 -23.782  1.00  0.00     0.024 A 
ATOM     21  C   UNL     1      11.885 -47.358 -22.211  1.00  0.00     0.039 C 
ATOM     22  C   UNL     1      13.920 -45.904 -21.930  1.00  0.00     0.007 C 
ATOM     23  C   UNL     1      15.107 -52.282 -25.061  1.00  0.00     0.002 A 
ATOM     24  C   UNL     1      12.816 -51.578 -24.753  1.00  0.00     0.012 A 
ATOM     25  C   UNL     1      12.530 -46.232 -21.402  1.00  0.00     0.005 C 
ATOM     26  C   UNL     1      13.758 -52.393 -25.386  1.00  0.00     0.001 A 
ATOM     27  H   UNL     1      16.011 -49.224 -22.707  1.00  0.00     0.166 HD
ENDBRANCH  12  13
ENDBRANCH  11  12
ENDBRANCH  10  11
ENDBRANCH   1  10
BRANCH   5  28
ATOM     28  C   UNL     1      11.637 -58.543 -23.670  1.00  0.00     0.161 C 
BRANCH  28  29
ATOM     29  C   UNL     1      10.383 -59.331 -24.078  1.00  0.00     0.272 C 
BRANCH  29  30
ATOM     30  N   UNL     1      10.679 -60.499 -25.031  1.00  0.00    -0.332 N 
ATOM     31  H   UNL     1      11.695 -60.651 -25.022  1.00  0.00     0.348 HD
BRANCH  30  32
ATOM     32  C   UNL     1      10.338 -60.126 -26.477  1.00  0.00     0.258 C 
ATOM     33  C   UNL     1      11.590 -59.685 -27.216  1.00  0.00     0.071 C 
ENDBRANCH  30  32
BRANCH  30  34
ATOM     34  C   UNL     1      10.058 -61.828 -24.574  1.00  0.00     0.184 C 
ATOM     35  C   UNL     1       8.587 -61.898 -25.013  1.00  0.00     0.065 C 
ATOM     36  C   UNL     1      10.220 -62.068 -23.070  1.00  0.00     0.065 C 
ATOM     37  C   UNL     1       7.960 -63.229 -24.595  1.00  0.00     0.006 C 
ATOM     38  C   UNL     1       9.588 -63.401 -22.667  1.00  0.00     0.006 C 
ATOM     39  C   UNL     1       8.126 -63.485 -23.099  1.00  0.00     0.000 C 
ENDBRANCH  30  34
ENDBRANCH  29  30
ENDBRANCH  28  29
ENDBRANCH   5  28
TORSDOF 9
ENDMDL
MODEL 7
REMARK VINA RESULT:   -10.526      1.174      3.398
REMARK INTER + INTRA:         -16.814
REMARK INTER:                 -15.977
REMARK INTRA:                  -0.837
REMARK UNBOUND:                -0.749
REMARK SMILES CC[N@@H+](CCC(=O)N1CC[NH+](CCN=c2c3c([nH]c4ccccc24)CCCC3)CC1)C1CCCCC1
REMARK SMILES IDX 11 1 10 2 9 3 8 4 6 5 7 6 30 7 29 8 12 10 13 11 14 12 15 13
REMARK SMILES IDX 18 14 17 15 19 16 16 17 25 18 20 19 24 20 28 21 26 22 21 23
REMARK SMILES IDX 23 24 27 25 22 26 5 28 4 29 3 30 2 32 1 33 31 34 32 35 36 36
REMARK SMILES IDX 33 37 35 38 34 39
REMARK H PARENT 11 9 18 27 3 31
ROOT
ATOM      1  N   UNL     1      10.435 -52.656 -22.506  1.00  0.00    -0.330 N 
ATOM      2  C   UNL     1      11.559 -52.952 -23.482  1.00  0.00     0.284 C 
ATOM      3  C   UNL     1      11.368 -54.356 -24.081  1.00  0.00     0.181 C 
ATOM      4  N   UNL     1      11.175 -55.409 -23.065  1.00  0.00    -0.331 N 
ATOM      5  C   UNL     1      11.558 -56.701 -23.424  1.00  0.00     0.228 C 
ATOM      6  O   UNL     1      12.121 -56.929 -24.492  1.00  0.00    -0.275 OA
ATOM      7  C   UNL     1      10.202 -55.103 -22.001  1.00  0.00     0.181 C 
ATOM      8  C   UNL     1      10.381 -53.694 -21.399  1.00  0.00     0.284 C 
ATOM      9  H   UNL     1       9.557 -52.740 -23.036  1.00  0.00     0.348 HD
ENDROOT
BRANCH   1  10
ATOM     10  C   UNL     1      10.414 -51.222 -22.005  1.00  0.00     0.286 C 
BRANCH  10  11
ATOM     11  C   UNL     1      11.744 -50.469 -22.176  1.00  0.00     0.204 C 
BRANCH  11  12
ATOM     12  N   UNL     1      11.527 -49.456 -23.186  1.00  0.00    -0.278 NA
BRANCH  12  13
ATOM     13  C   UNL     1      12.417 -48.611 -23.596  1.00  0.00     0.072 A 
ATOM     14  N   UNL     1      13.585 -46.695 -25.270  1.00  0.00    -0.358 N 
ATOM     15  C   UNL     1      13.771 -48.038 -25.550  1.00  0.00     0.021 A 
ATOM     16  C   UNL     1      13.236 -46.299 -23.968  1.00  0.00     0.048 A 
ATOM     17  C   UNL     1      13.259 -49.020 -24.777  1.00  0.00    -0.003 A 
ATOM     18  C   UNL     1      14.605 -48.360 -26.773  1.00  0.00     0.054 C 
ATOM     19  C   UNL     1      13.415 -44.973 -23.561  1.00  0.00     0.027 A 
ATOM     20  C   UNL     1      12.683 -47.232 -23.073  1.00  0.00     0.024 A 
ATOM     21  C   UNL     1      13.418 -50.487 -25.071  1.00  0.00     0.039 C 
ATOM     22  C   UNL     1      15.095 -49.807 -26.820  1.00  0.00     0.007 C 
ATOM     23  C   UNL     1      13.140 -44.598 -22.245  1.00  0.00     0.002 A 
ATOM     24  C   UNL     1      12.469 -46.863 -21.740  1.00  0.00     0.012 A 
ATOM     25  C   UNL     1      13.969 -50.771 -26.470  1.00  0.00     0.005 C 
ATOM     26  C   UNL     1      12.691 -45.546 -21.330  1.00  0.00     0.001 A 
ATOM     27  H   UNL     1      14.186 -46.054 -25.781  1.00  0.00     0.166 HD
ENDBRANCH  12  13
ENDBRANCH  11  12
ENDBRANCH  10  11
ENDBRANCH   1  10
BRANCH   5  28
ATOM     28  C   UNL     1      11.247 -57.839 -22.468  1.00  0.00     0.161 C 
BRANCH  28  29
ATOM     29  C   UNL     1      10.102 -58.730 -22.974  1.00  0.00     0.272 C 
BRANCH  29  30
ATOM     30  N   UNL     1      10.551 -60.155 -23.332  1.00  0.00    -0.332 N 
ATOM     31  H   UNL     1      11.366 -60.375 -22.747  1.00  0.00     0.348 HD
BRANCH  30  32
ATOM     32  C   UNL     1      11.058 -60.223 -24.776  1.00  0.00     0.258 C 
ATOM     33  C   UNL     1      12.549 -60.510 -24.796  1.00  0.00     0.071 C 
ENDBRANCH  30  32
BRANCH  30  34
ATOM     34  C   UNL     1       9.500 -61.224 -22.996  1.00  0.00     0.184 C 
ATOM     35  C   UNL     1      10.162 -62.609 -22.928  1.00  0.00     0.065 C 
ATOM     36  C   UNL     1       8.310 -61.205 -23.961  1.00  0.00     0.065 C 
ATOM     37  C   UNL     1       9.136 -63.683 -22.562  1.00  0.00     0.006 C 
ATOM     38  C   UNL     1       7.293 -62.284 -23.583  1.00  0.00     0.006 C 
ATOM     39  C   UNL     1       7.940 -63.665 -23.510  1.00  0.00     0.000 C 
ENDBRANCH  30  34
ENDBRANCH  29  30
ENDBRANCH  28  29
ENDBRANCH   5  28
TORSDOF 9
ENDMDL
MODEL 8
REMARK VINA RESULT:    -9.758      1.565      4.017
REMARK INTER + INTRA:         -15.641
REMARK INTER:                 -14.992
REMARK INTRA:                  -0.649
REMARK UNBOUND:                -0.749
REMARK SMILES CC[N@@H+](CCC(=O)N1CC[NH+](CCN=c2c3c([nH]c4ccccc24)CCCC3)CC1)C1CCCCC1
REMARK SMILES IDX 11 1 10 2 9 3 8 4 6 5 7 6 30 7 29 8 12 10 13 11 14 12 15 13
REMARK SMILES IDX 18 14 17 15 19 16 16 17 25 18 20 19 24 20 28 21 26 22 21 23
REMARK SMILES IDX 23 24 27 25 22 26 5 28 4 29 3 30 2 32 1 33 31 34 32 35 36 36
REMARK SMILES IDX 33 37 35 38 34 39
REMARK H PARENT 11 9 18 27 3 31
ROOT
ATOM      1  N   UNL     1      11.730 -50.520 -22.881  1.00  0.00    -0.330 N 
ATOM      2  C   UNL     1      12.818 -51.300 -23.594  1.00  0.00     0.284 C 
ATOM      3  C   UNL     1      12.209 -52.538 -24.273  1.00  0.00     0.181 C 
ATOM      4  N   UNL     1      11.387 -53.363 -23.365  1.00  0.00    -0.331 N 
ATOM      5  C   UNL     1      11.279 -54.718 -23.678  1.00  0.00     0.228 C 
ATOM      6  O   UNL     1      11.918 -55.214 -24.602  1.00  0.00    -0.275 OA
ATOM      7  C   UNL     1      10.416 -52.629 -22.533  1.00  0.00     0.181 C 
ATOM      8  C   UNL     1      11.018 -51.381 -21.854  1.00  0.00     0.284 C 
ATOM      9  H   UNL     1      11.032 -50.271 -23.595  1.00  0.00     0.348 HD
ENDROOT
BRANCH   1  10
ATOM     10  C   UNL     1      12.186 -49.174 -22.344  1.00  0.00     0.286 C 
BRANCH  10  11
ATOM     11  C   UNL     1      11.210 -48.017 -22.617  1.00  0.00     0.204 C 
BRANCH  11  12
ATOM     12  N   UNL     1      11.400 -47.624 -23.997  1.00  0.00    -0.278 NA
BRANCH  12  13
ATOM     13  C   UNL     1      12.059 -46.582 -24.389  1.00  0.00     0.072 A 
ATOM     14  N   UNL     1      12.922 -44.580 -26.147  1.00  0.00    -0.358 N 
ATOM     15  C   UNL     1      13.560 -45.808 -26.157  1.00  0.00     0.021 A 
ATOM     16  C   UNL     1      12.198 -44.184 -25.010  1.00  0.00     0.048 A 
ATOM     17  C   UNL     1      13.218 -46.814 -25.324  1.00  0.00    -0.003 A 
ATOM     18  C   UNL     1      14.695 -45.966 -27.149  1.00  0.00     0.054 C 
ATOM     19  C   UNL     1      11.875 -42.837 -24.811  1.00  0.00     0.027 A 
ATOM     20  C   UNL     1      11.776 -45.144 -24.074  1.00  0.00     0.024 A 
ATOM     21  C   UNL     1      13.872 -48.169 -25.332  1.00  0.00     0.039 C 
ATOM     22  C   UNL     1      15.598 -47.166 -26.864  1.00  0.00     0.007 C 
ATOM     23  C   UNL     1      11.224 -42.434 -23.645  1.00  0.00     0.002 A 
ATOM     24  C   UNL     1      11.179 -44.725 -22.879  1.00  0.00     0.012 A 
ATOM     25  C   UNL     1      14.771 -48.403 -26.548  1.00  0.00     0.005 C 
ATOM     26  C   UNL     1      10.899 -43.373 -22.670  1.00  0.00     0.001 A 
ATOM     27  H   UNL     1      13.395 -43.835 -26.652  1.00  0.00     0.166 HD
ENDBRANCH  12  13
ENDBRANCH  11  12
ENDBRANCH  10  11
ENDBRANCH   1  10
BRANCH   5  28
ATOM     28  C   UNL     1      10.331 -55.576 -22.859  1.00  0.00     0.161 C 
BRANCH  28  29
ATOM     29  C   UNL     1      10.842 -57.016 -22.696  1.00  0.00     0.272 C 
BRANCH  29  30
ATOM     30  N   UNL     1       9.940 -58.063 -23.370  1.00  0.00    -0.332 N 
ATOM     31  H   UNL     1      10.048 -57.950 -24.385  1.00  0.00     0.348 HD
BRANCH  30  32
ATOM     32  C   UNL     1       8.462 -57.777 -23.084  1.00  0.00     0.258 C 
ATOM     33  C   UNL     1       7.603 -58.245 -24.246  1.00  0.00     0.071 C 
ENDBRANCH  30  32
BRANCH  30  34
ATOM     34  C   UNL     1      10.359 -59.509 -23.066  1.00  0.00     0.184 C 
ATOM     35  C   UNL     1      10.747 -60.228 -24.369  1.00  0.00     0.065 C 
ATOM     36  C   UNL     1       9.293 -60.280 -22.281  1.00  0.00     0.065 C 
ATOM     37  C   UNL     1      11.198 -61.660 -24.083  1.00  0.00     0.006 C 
ATOM     38  C   UNL     1       9.759 -61.710 -22.003  1.00  0.00     0.006 C 
ATOM     39  C   UNL     1      10.149 -62.435 -23.290  1.00  0.00     0.000 C 
ENDBRANCH  30  34
ENDBRANCH  29  30
ENDBRANCH  28  29
ENDBRANCH   5  28
TORSDOF 9
ENDMDL
MODEL 9
REMARK VINA RESULT:    -9.694      1.421      2.063
REMARK INTER + INTRA:         -15.543
REMARK INTER:                 -14.609
REMARK INTRA:                  -0.935
REMARK UNBOUND:                -0.749
REMARK SMILES CC[N@@H+](CCC(=O)N1CC[NH+](CCN=c2c3c([nH]c4ccccc24)CCCC3)CC1)C1CCCCC1
REMARK SMILES IDX 11 1 10 2 9 3 8 4 6 5 7 6 30 7 29 8 12 10 13 11 14 12 15 13
REMARK SMILES IDX 18 14 17 15 19 16 16 17 25 18 20 19 24 20 28 21 26 22 21 23
REMARK SMILES IDX 23 24 27 25 22 26 5 28 4 29 3 30 2 32 1 33 31 34 32 35 36 36
REMARK SMILES IDX 33 37 35 38 34 39
REMARK H PARENT 11 9 18 27 3 31
ROOT
ATOM      1  N   UNL     1      11.163 -51.495 -22.399  1.00  0.00    -0.330 N 
ATOM      2  C   UNL     1      12.236 -52.081 -23.299  1.00  0.00     0.284 C 
ATOM      3  C   UNL     1      11.720 -53.379 -23.941  1.00  0.00     0.181 C 
ATOM      4  N   UNL     1      11.175 -54.343 -22.965  1.00  0.00    -0.331 N 
ATOM      5  C   UNL     1      11.222 -55.690 -23.324  1.00  0.00     0.228 C 
ATOM      6  O   UNL     1      11.781 -56.060 -24.353  1.00  0.00    -0.275 OA
ATOM      7  C   UNL     1      10.243 -53.789 -21.967  1.00  0.00     0.181 C 
ATOM      8  C   UNL     1      10.749 -52.481 -21.323  1.00  0.00     0.284 C 
ATOM      9  H   UNL     1      10.337 -51.337 -22.992  1.00  0.00     0.348 HD
ENDROOT
BRANCH   1  10
ATOM     10  C   UNL     1      11.491 -50.109 -21.870  1.00  0.00     0.286 C 
BRANCH  10  11
ATOM     11  C   UNL     1      10.991 -48.955 -22.754  1.00  0.00     0.204 C 
BRANCH  11  12
ATOM     12  N   UNL     1      12.058 -47.980 -22.817  1.00  0.00    -0.278 NA
BRANCH  12  13
ATOM     13  C   UNL     1      12.430 -47.351 -23.885  1.00  0.00     0.072 A 
ATOM     14  N   UNL     1      13.880 -45.529 -25.440  1.00  0.00    -0.358 N 
ATOM     15  C   UNL     1      12.741 -45.098 -24.782  1.00  0.00     0.021 A 
ATOM     16  C   UNL     1      14.050 -46.898 -25.708  1.00  0.00     0.048 A 
ATOM     17  C   UNL     1      11.977 -45.922 -24.034  1.00  0.00    -0.003 A 
ATOM     18  C   UNL     1      12.375 -43.639 -24.961  1.00  0.00     0.054 C 
ATOM     19  C   UNL     1      14.964 -47.319 -26.681  1.00  0.00     0.027 A 
ATOM     20  C   UNL     1      13.316 -47.854 -24.985  1.00  0.00     0.024 A 
ATOM     21  C   UNL     1      10.752 -45.476 -23.282  1.00  0.00     0.039 C 
ATOM     22  C   UNL     1      10.941 -43.309 -24.547  1.00  0.00     0.007 C 
ATOM     23  C   UNL     1      15.076 -48.673 -27.001  1.00  0.00     0.002 A 
ATOM     24  C   UNL     1      13.389 -49.202 -25.354  1.00  0.00     0.012 A 
ATOM     25  C   UNL     1      10.601 -43.955 -23.212  1.00  0.00     0.005 C 
ATOM     26  C   UNL     1      14.273 -49.610 -26.356  1.00  0.00     0.001 A 
ATOM     27  H   UNL     1      14.250 -44.892 -26.140  1.00  0.00     0.166 HD
ENDBRANCH  12  13
ENDBRANCH  11  12
ENDBRANCH  10  11
ENDBRANCH   1  10
BRANCH   5  28
ATOM     28  C   UNL     1      10.546 -56.704 -22.418  1.00  0.00     0.161 C 
BRANCH  28  29
ATOM     29  C   UNL     1       9.401 -57.446 -23.125  1.00  0.00     0.272 C 
BRANCH  29  30
ATOM     30  N   UNL     1       9.353 -58.947 -22.799  1.00  0.00    -0.332 N 
ATOM     31  H   UNL     1       8.555 -59.098 -22.170  1.00  0.00     0.348 HD
BRANCH  30  32
ATOM     32  C   UNL     1      10.588 -59.372 -21.998  1.00  0.00     0.258 C 
ATOM     33  C   UNL     1      10.184 -60.297 -20.862  1.00  0.00     0.071 C 
ENDBRANCH  30  32
BRANCH  30  34
ATOM     34  C   UNL     1       9.083 -59.826 -24.029  1.00  0.00     0.184 C 
ATOM     35  C   UNL     1       8.111 -60.959 -23.662  1.00  0.00     0.065 C 
ATOM     36  C   UNL     1      10.369 -60.358 -24.668  1.00  0.00     0.065 C 
ATOM     37  C   UNL     1       7.804 -61.827 -24.883  1.00  0.00     0.006 C 
ATOM     38  C   UNL     1      10.046 -61.224 -25.887  1.00  0.00     0.006 C 
ATOM     39  C   UNL     1       9.080 -62.353 -25.536  1.00  0.00     0.000 C 
ENDBRANCH  30  34
ENDBRANCH  29  30
ENDBRANCH  28  29
ENDBRANCH   5  28
TORSDOF 9
ENDMDL
