MODEL 1
REMARK VINA RESULT:   -11.315      0.000      0.000
REMARK INTER + INTRA:         -16.079
REMARK INTER:                 -15.615
REMARK INTRA:                  -0.465
REMARK UNBOUND:                -0.465
REMARK SMILES COc1cc2c(cc1OC)C(O)=C(C[C@H]1CC[N@H+](Cc3ccccc3)CC1)C2
REMARK SMILES IDX 14 1 13 2 11 3 6 4 28 5 7 6 5 7 8 8 4 9 3 10 12 11 9 13
REMARK SMILES IDX 10 14 2 15 1 16 15 17 16 18 27 19 17 20 26 21 18 22 19 24
REMARK SMILES IDX 20 25 21 26 25 27 22 28 24 29 23 30
REMARK H PARENT 12 12 18 23
ROOT
ATOM      1  C   UNL     1       9.974 -55.824 -22.350  1.00  0.00     0.039 C 
ENDROOT
BRANCH   1   2
ATOM      2  C   UNL     1      10.699 -54.620 -22.861  1.00  0.00    -0.023 C 
ATOM      3  C   UNL     1      10.792 -53.400 -22.303  1.00  0.00     0.122 C 
ATOM      4  C   UNL     1      11.646 -52.556 -23.120  1.00  0.00     0.024 A 
ATOM      5  C   UNL     1      11.476 -54.679 -24.168  1.00  0.00     0.071 C 
ATOM      6  C   UNL     1      12.059 -51.248 -22.939  1.00  0.00     0.062 A 
ATOM      7  C   UNL     1      12.058 -53.299 -24.235  1.00  0.00    -0.029 A 
ATOM      8  C   UNL     1      12.911 -50.681 -23.893  1.00  0.00     0.161 A 
ATOM      9  C   UNL     1      12.877 -52.745 -25.203  1.00  0.00     0.055 A 
ATOM     10  C   UNL     1      13.280 -51.416 -25.039  1.00  0.00     0.161 A 
BRANCH   3  11
ATOM     11  O   UNL     1      10.254 -52.927 -21.153  1.00  0.00    -0.507 OA
ATOM     12  H   UNL     1       9.739 -53.636 -20.739  1.00  0.00     0.293 HD
ENDBRANCH   3  11
BRANCH   8  13
ATOM     13  O   UNL     1      13.296 -49.388 -23.646  1.00  0.00    -0.493 OA
ATOM     14  C   UNL     1      12.770 -48.871 -22.424  1.00  0.00     0.278 C 
ENDBRANCH   8  13
BRANCH  10  15
ATOM     15  O   UNL     1      14.067 -50.885 -26.029  1.00  0.00    -0.493 OA
ATOM     16  C   UNL     1      15.448 -51.064 -25.704  1.00  0.00     0.278 C 
ENDBRANCH  10  15
ENDBRANCH   1   2
BRANCH   1  17
ATOM     17  C   UNL     1      10.426 -57.137 -23.026  1.00  0.00     0.004 C 
ATOM     18  C   UNL     1       9.206 -58.011 -23.352  1.00  0.00     0.065 C 
ATOM     19  C   UNL     1      11.415 -57.930 -22.155  1.00  0.00     0.065 C 
ATOM     20  C   UNL     1       9.604 -59.337 -23.988  1.00  0.00     0.262 C 
ATOM     21  C   UNL     1      11.803 -59.254 -22.797  1.00  0.00     0.262 C 
ATOM     22  N   UNL     1      10.566 -60.065 -23.080  1.00  0.00    -0.331 N 
ATOM     23  H   UNL     1      10.082 -60.222 -22.187  1.00  0.00     0.348 HD
BRANCH  22  24
ATOM     24  C   UNL     1      10.925 -61.445 -23.599  1.00  0.00     0.299 C 
BRANCH  24  25
ATOM     25  C   UNL     1       9.718 -62.293 -23.899  1.00  0.00     0.006 A 
ATOM     26  C   UNL     1       9.161 -63.115 -22.906  1.00  0.00     0.009 A 
ATOM     27  C   UNL     1       9.121 -62.260 -25.168  1.00  0.00     0.009 A 
ATOM     28  C   UNL     1       8.025 -63.879 -23.177  1.00  0.00     0.001 A 
ATOM     29  C   UNL     1       7.986 -63.027 -25.435  1.00  0.00     0.001 A 
ATOM     30  C   UNL     1       7.438 -63.834 -24.439  1.00  0.00     0.000 A 
ENDBRANCH  24  25
ENDBRANCH  22  24
ENDBRANCH   1  17
TORSDOF 7
ENDMDL
MODEL 2
REMARK VINA RESULT:   -11.006      1.089      2.205
REMARK INTER + INTRA:         -15.653
REMARK INTER:                 -15.466
REMARK INTRA:                  -0.187
REMARK UNBOUND:                -0.465
REMARK SMILES COc1cc2c(cc1OC)C(O)=C(C[C@H]1CC[N@H+](Cc3ccccc3)CC1)C2
REMARK SMILES IDX 14 1 13 2 11 3 6 4 28 5 7 6 5 7 8 8 4 9 3 10 12 11 9 13
REMARK SMILES IDX 10 14 2 15 1 16 15 17 16 18 27 19 17 20 26 21 18 22 19 24
REMARK SMILES IDX 20 25 21 26 25 27 22 28 24 29 23 30
REMARK H PARENT 12 12 18 23
ROOT
ATOM      1  C   UNL     1       9.917 -55.630 -22.111  1.00  0.00     0.039 C 
ENDROOT
BRANCH   1   2
ATOM      2  C   UNL     1      10.644 -54.391 -22.524  1.00  0.00    -0.023 C 
ATOM      3  C   UNL     1      11.389 -54.186 -23.625  1.00  0.00     0.122 C 
ATOM      4  C   UNL     1      11.856 -52.810 -23.645  1.00  0.00     0.024 A 
ATOM      5  C   UNL     1      10.590 -53.135 -21.665  1.00  0.00     0.071 C 
ATOM      6  C   UNL     1      12.619 -52.131 -24.580  1.00  0.00     0.062 A 
ATOM      7  C   UNL     1      11.394 -52.173 -22.486  1.00  0.00    -0.029 A 
ATOM      8  C   UNL     1      12.910 -50.783 -24.348  1.00  0.00     0.161 A 
ATOM      9  C   UNL     1      11.698 -50.849 -22.226  1.00  0.00     0.055 A 
ATOM     10  C   UNL     1      12.486 -50.162 -23.154  1.00  0.00     0.161 A 
BRANCH   3  11
ATOM     11  O   UNL     1      11.694 -55.031 -24.638  1.00  0.00    -0.507 OA
ATOM     12  H   UNL     1      10.868 -55.370 -25.016  1.00  0.00     0.293 HD
ENDBRANCH   3  11
BRANCH   8  13
ATOM     13  O   UNL     1      13.654 -50.165 -25.320  1.00  0.00    -0.493 OA
ATOM     14  C   UNL     1      14.004 -51.035 -26.396  1.00  0.00     0.278 C 
ENDBRANCH   8  13
BRANCH  10  15
ATOM     15  O   UNL     1      12.795 -48.859 -22.856  1.00  0.00    -0.493 OA
ATOM     16  C   UNL     1      11.596 -48.097 -22.694  1.00  0.00     0.278 C 
ENDBRANCH  10  15
ENDBRANCH   1   2
BRANCH   1  17
ATOM     17  C   UNL     1      10.455 -56.906 -22.795  1.00  0.00     0.004 C 
ATOM     18  C   UNL     1       9.289 -57.773 -23.290  1.00  0.00     0.065 C 
ATOM     19  C   UNL     1      11.356 -57.732 -21.861  1.00  0.00     0.065 C 
ATOM     20  C   UNL     1       9.770 -59.064 -23.940  1.00  0.00     0.262 C 
ATOM     21  C   UNL     1      11.828 -59.020 -22.517  1.00  0.00     0.262 C 
ATOM     22  N   UNL     1      10.638 -59.827 -22.969  1.00  0.00    -0.331 N 
ATOM     23  H   UNL     1      10.064 -60.029 -22.142  1.00  0.00     0.348 HD
BRANCH  22  24
ATOM     24  C   UNL     1      11.069 -61.178 -23.510  1.00  0.00     0.299 C 
BRANCH  24  25
ATOM     25  C   UNL     1       9.925 -62.147 -23.648  1.00  0.00     0.006 A 
ATOM     26  C   UNL     1       9.565 -62.980 -22.576  1.00  0.00     0.009 A 
ATOM     27  C   UNL     1       9.191 -62.218 -24.841  1.00  0.00     0.009 A 
ATOM     28  C   UNL     1       8.488 -63.859 -22.697  1.00  0.00     0.001 A 
ATOM     29  C   UNL     1       8.114 -63.099 -24.957  1.00  0.00     0.001 A 
ATOM     30  C   UNL     1       7.763 -63.917 -23.884  1.00  0.00     0.000 A 
ENDBRANCH  24  25
ENDBRANCH  22  24
ENDBRANCH   1  17
TORSDOF 7
ENDMDL
MODEL 3
REMARK VINA RESULT:   -10.238      4.248      9.257
REMARK INTER + INTRA:         -14.593
REMARK INTER:                 -14.066
REMARK INTRA:                  -0.527
REMARK UNBOUND:                -0.465
REMARK SMILES COc1cc2c(cc1OC)C(O)=C(C[C@H]1CC[N@H+](Cc3ccccc3)CC1)C2
REMARK SMILES IDX 14 1 13 2 11 3 6 4 28 5 7 6 5 7 8 8 4 9 3 10 12 11 9 13
REMARK SMILES IDX 10 14 2 15 1 16 15 17 16 18 27 19 17 20 26 21 18 22 19 24
REMARK SMILES IDX 20 25 21 26 25 27 22 28 24 29 23 30
REMARK H PARENT 12 12 18 23
ROOT
ATOM      1  C   UNL     1      10.789 -60.302 -22.389  1.00  0.00     0.039 C 
ENDROOT
BRANCH   1   2
ATOM      2  C   UNL     1      10.603 -60.597 -23.843  1.00  0.00    -0.023 C 
ATOM      3  C   UNL     1       9.789 -61.502 -24.415  1.00  0.00     0.122 C 
ATOM      4  C   UNL     1       9.892 -61.401 -25.861  1.00  0.00     0.024 A 
ATOM      5  C   UNL     1      11.378 -59.821 -24.898  1.00  0.00     0.071 C 
ATOM      6  C   UNL     1       9.233 -62.093 -26.862  1.00  0.00     0.062 A 
ATOM      7  C   UNL     1      10.835 -60.410 -26.165  1.00  0.00    -0.029 A 
ATOM      8  C   UNL     1       9.520 -61.773 -28.192  1.00  0.00     0.161 A 
ATOM      9  C   UNL     1      11.153 -60.101 -27.475  1.00  0.00     0.055 A 
ATOM     10  C   UNL     1      10.508 -60.811 -28.492  1.00  0.00     0.161 A 
BRANCH   3  11
ATOM     11  O   UNL     1       8.939 -62.390 -23.846  1.00  0.00    -0.507 OA
ATOM     12  H   UNL     1       8.049 -62.234 -24.198  1.00  0.00     0.293 HD
ENDBRANCH   3  11
BRANCH   8  13
ATOM     13  O   UNL     1       8.821 -62.484 -29.134  1.00  0.00    -0.493 OA
ATOM     14  C   UNL     1       8.097 -63.583 -28.583  1.00  0.00     0.278 C 
ENDBRANCH   8  13
BRANCH  10  15
ATOM     15  O   UNL     1      10.865 -60.504 -29.781  1.00  0.00    -0.493 OA
ATOM     16  C   UNL     1      11.822 -59.441 -29.783  1.00  0.00     0.278 C 
ENDBRANCH  10  15
ENDBRANCH   1   2
BRANCH   1  17
ATOM     17  C   UNL     1      10.416 -58.851 -22.012  1.00  0.00     0.004 C 
ATOM     18  C   UNL     1       9.515 -58.238 -23.093  1.00  0.00     0.065 C 
ATOM     19  C   UNL     1      11.657 -57.965 -21.808  1.00  0.00     0.065 C 
ATOM     20  C   UNL     1       9.150 -56.792 -22.783  1.00  0.00     0.262 C 
ATOM     21  C   UNL     1      11.283 -56.523 -21.502  1.00  0.00     0.262 C 
ATOM     22  N   UNL     1      10.410 -55.980 -22.603  1.00  0.00    -0.331 N 
ATOM     23  H   UNL     1      10.939 -56.040 -23.482  1.00  0.00     0.348 HD
BRANCH  22  24
ATOM     24  C   UNL     1      10.126 -54.503 -22.396  1.00  0.00     0.299 C 
BRANCH  24  25
ATOM     25  C   UNL     1      11.073 -53.611 -23.154  1.00  0.00     0.006 A 
ATOM     26  C   UNL     1      11.318 -52.299 -22.717  1.00  0.00     0.009 A 
ATOM     27  C   UNL     1      11.737 -54.083 -24.295  1.00  0.00     0.009 A 
ATOM     28  C   UNL     1      12.216 -51.482 -23.405  1.00  0.00     0.001 A 
ATOM     29  C   UNL     1      12.635 -53.262 -24.980  1.00  0.00     0.001 A 
ATOM     30  C   UNL     1      12.875 -51.964 -24.533  1.00  0.00     0.000 A 
ENDBRANCH  24  25
ENDBRANCH  22  24
ENDBRANCH   1  17
TORSDOF 7
ENDMDL
MODEL 4
REMARK VINA RESULT:   -10.086      3.748     10.431
REMARK INTER + INTRA:         -14.383
REMARK INTER:                 -14.286
REMARK INTRA:                  -0.097
REMARK UNBOUND:                -0.465
REMARK SMILES COc1cc2c(cc1OC)C(O)=C(C[C@H]1CC[N@H+](Cc3ccccc3)CC1)C2
REMARK SMILES IDX 14 1 13 2 11 3 6 4 28 5 7 6 5 7 8 8 4 9 3 10 12 11 9 13
REMARK SMILES IDX 10 14 2 15 1 16 15 17 16 18 27 19 17 20 26 21 18 22 19 24
REMARK SMILES IDX 20 25 21 26 25 27 22 28 24 29 23 30
REMARK H PARENT 12 12 18 23
ROOT
ATOM      1  C   UNL     1      11.298 -56.528 -22.934  1.00  0.00     0.039 C 
ENDROOT
BRANCH   1   2
ATOM      2  C   UNL     1      10.140 -57.458 -23.098  1.00  0.00    -0.023 C 
ATOM      3  C   UNL     1      10.152 -58.798 -23.213  1.00  0.00     0.122 C 
ATOM      4  C   UNL     1       8.788 -59.291 -23.294  1.00  0.00     0.024 A 
ATOM      5  C   UNL     1       8.715 -56.924 -23.141  1.00  0.00     0.071 C 
ATOM      6  C   UNL     1       8.301 -60.583 -23.387  1.00  0.00     0.062 A 
ATOM      7  C   UNL     1       7.922 -58.190 -23.257  1.00  0.00    -0.029 A 
ATOM      8  C   UNL     1       6.916 -60.770 -23.433  1.00  0.00     0.161 A 
ATOM      9  C   UNL     1       6.550 -58.355 -23.331  1.00  0.00     0.055 A 
ATOM     10  C   UNL     1       6.050 -59.655 -23.449  1.00  0.00     0.161 A 
BRANCH   3  11
ATOM     11  O   UNL     1      11.197 -59.660 -23.225  1.00  0.00    -0.507 OA
ATOM     12  H   UNL     1      10.912 -60.485 -23.648  1.00  0.00     0.293 HD
ENDBRANCH   3  11
BRANCH   8  13
ATOM     13  O   UNL     1       6.499 -62.074 -23.509  1.00  0.00    -0.493 OA
ATOM     14  C   UNL     1       7.279 -62.860 -24.409  1.00  0.00     0.278 C 
ENDBRANCH   8  13
BRANCH  10  15
ATOM     15  O   UNL     1       4.689 -59.786 -23.549  1.00  0.00    -0.493 OA
ATOM     16  C   UNL     1       4.042 -58.794 -22.747  1.00  0.00     0.278 C 
ENDBRANCH  10  15
ENDBRANCH   1   2
BRANCH   1  17
ATOM     17  C   UNL     1      10.876 -55.048 -22.807  1.00  0.00     0.004 C 
ATOM     18  C   UNL     1      11.728 -54.173 -23.738  1.00  0.00     0.065 C 
ATOM     19  C   UNL     1      10.989 -54.531 -21.363  1.00  0.00     0.065 C 
ATOM     20  C   UNL     1      11.373 -52.696 -23.621  1.00  0.00     0.262 C 
ATOM     21  C   UNL     1      10.636 -53.055 -21.257  1.00  0.00     0.262 C 
ATOM     22  N   UNL     1      11.512 -52.255 -22.184  1.00  0.00    -0.331 N 
ATOM     23  H   UNL     1      12.489 -52.416 -21.910  1.00  0.00     0.348 HD
BRANCH  22  24
ATOM     24  C   UNL     1      11.277 -50.765 -22.007  1.00  0.00     0.299 C 
BRANCH  24  25
ATOM     25  C   UNL     1      11.963 -49.933 -23.058  1.00  0.00     0.006 A 
ATOM     26  C   UNL     1      11.512 -48.634 -23.342  1.00  0.00     0.009 A 
ATOM     27  C   UNL     1      13.071 -50.437 -23.754  1.00  0.00     0.009 A 
ATOM     28  C   UNL     1      12.165 -47.855 -24.298  1.00  0.00     0.001 A 
ATOM     29  C   UNL     1      13.721 -49.653 -24.709  1.00  0.00     0.001 A 
ATOM     30  C   UNL     1      13.269 -48.363 -24.978  1.00  0.00     0.000 A 
ENDBRANCH  24  25
ENDBRANCH  22  24
ENDBRANCH   1  17
TORSDOF 7
ENDMDL
MODEL 5
REMARK VINA RESULT:   -10.068      1.366      2.017
REMARK INTER + INTRA:         -14.359
REMARK INTER:                 -13.819
REMARK INTRA:                  -0.539
REMARK UNBOUND:                -0.465
REMARK SMILES COc1cc2c(cc1OC)C(O)=C(C[C@H]1CC[N@H+](Cc3ccccc3)CC1)C2
REMARK SMILES IDX 14 1 13 2 11 3 6 4 28 5 7 6 5 7 8 8 4 9 3 10 12 11 9 13
REMARK SMILES IDX 10 14 2 15 1 16 15 17 16 18 27 19 17 20 26 21 18 22 19 24
REMARK SMILES IDX 20 25 21 26 25 27 22 28 24 29 23 30
REMARK H PARENT 12 12 18 23
ROOT
ATOM      1  C   UNL     1       9.889 -55.180 -22.196  1.00  0.00     0.039 C 
ENDROOT
BRANCH   1   2
ATOM      2  C   UNL     1      10.639 -54.010 -22.744  1.00  0.00    -0.023 C 
ATOM      3  C   UNL     1      10.676 -52.748 -22.280  1.00  0.00     0.122 C 
ATOM      4  C   UNL     1      11.585 -51.958 -23.093  1.00  0.00     0.024 A 
ATOM      5  C   UNL     1      11.518 -54.159 -23.978  1.00  0.00     0.071 C 
ATOM      6  C   UNL     1      11.970 -50.632 -22.986  1.00  0.00     0.062 A 
ATOM      7  C   UNL     1      12.090 -52.780 -24.109  1.00  0.00    -0.029 A 
ATOM      8  C   UNL     1      12.888 -50.130 -23.913  1.00  0.00     0.161 A 
ATOM      9  C   UNL     1      12.977 -52.291 -25.052  1.00  0.00     0.055 A 
ATOM     10  C   UNL     1      13.353 -50.947 -24.965  1.00  0.00     0.161 A 
BRANCH   3  11
ATOM     11  O   UNL     1      10.045 -52.193 -21.217  1.00  0.00    -0.507 OA
ATOM     12  H   UNL     1      10.659 -52.179 -20.467  1.00  0.00     0.293 HD
ENDBRANCH   3  11
BRANCH   8  13
ATOM     13  O   UNL     1      13.240 -48.816 -23.741  1.00  0.00    -0.493 OA
ATOM     14  C   UNL     1      14.206 -48.624 -22.708  1.00  0.00     0.278 C 
ENDBRANCH   8  13
BRANCH  10  15
ATOM     15  O   UNL     1      14.211 -50.483 -25.929  1.00  0.00    -0.493 OA
ATOM     16  C   UNL     1      15.555 -50.847 -25.604  1.00  0.00     0.278 C 
ENDBRANCH  10  15
ENDBRANCH   1   2
BRANCH   1  17
ATOM     17  C   UNL     1      10.197 -56.500 -22.937  1.00  0.00     0.004 C 
ATOM     18  C   UNL     1       8.902 -57.292 -23.167  1.00  0.00     0.065 C 
ATOM     19  C   UNL     1      11.210 -57.372 -22.176  1.00  0.00     0.065 C 
ATOM     20  C   UNL     1       9.160 -58.623 -23.863  1.00  0.00     0.262 C 
ATOM     21  C   UNL     1      11.458 -58.699 -22.877  1.00  0.00     0.262 C 
ATOM     22  N   UNL     1      10.154 -59.429 -23.061  1.00  0.00    -0.331 N 
ATOM     23  H   UNL     1       9.744 -59.579 -22.132  1.00  0.00     0.348 HD
BRANCH  22  24
ATOM     24  C   UNL     1      10.380 -60.814 -23.639  1.00  0.00     0.299 C 
BRANCH  24  25
ATOM     25  C   UNL     1      10.397 -60.828 -25.144  1.00  0.00     0.006 A 
ATOM     26  C   UNL     1       9.404 -61.515 -25.861  1.00  0.00     0.009 A 
ATOM     27  C   UNL     1      11.394 -60.141 -25.851  1.00  0.00     0.009 A 
ATOM     28  C   UNL     1       9.407 -61.505 -27.256  1.00  0.00     0.001 A 
ATOM     29  C   UNL     1      11.393 -60.133 -27.247  1.00  0.00     0.001 A 
ATOM     30  C   UNL     1      10.398 -60.813 -27.948  1.00  0.00     0.000 A 
ENDBRANCH  24  25
ENDBRANCH  22  24
ENDBRANCH   1  17
TORSDOF 7
ENDMDL
MODEL 6
REMARK VINA RESULT:    -9.931      4.080      9.303
REMARK INTER + INTRA:         -14.169
REMARK INTER:                 -13.579
REMARK INTRA:                  -0.590
REMARK UNBOUND:                -0.465
REMARK SMILES COc1cc2c(cc1OC)C(O)=C(C[C@H]1CC[N@H+](Cc3ccccc3)CC1)C2
REMARK SMILES IDX 14 1 13 2 11 3 6 4 28 5 7 6 5 7 8 8 4 9 3 10 12 11 9 13
REMARK SMILES IDX 10 14 2 15 1 16 15 17 16 18 27 19 17 20 26 21 18 22 19 24
REMARK SMILES IDX 20 25 21 26 25 27 22 28 24 29 23 30
REMARK H PARENT 12 12 18 23
ROOT
ATOM      1  C   UNL     1      11.029 -59.885 -22.512  1.00  0.00     0.039 C 
ENDROOT
BRANCH   1   2
ATOM      2  C   UNL     1      10.793 -60.160 -23.962  1.00  0.00    -0.023 C 
ATOM      3  C   UNL     1      11.363 -59.571 -25.029  1.00  0.00     0.122 C 
ATOM      4  C   UNL     1      10.877 -60.197 -26.246  1.00  0.00     0.024 A 
ATOM      5  C   UNL     1       9.810 -61.237 -24.399  1.00  0.00     0.071 C 
ATOM      6  C   UNL     1      11.195 -59.958 -27.572  1.00  0.00     0.062 A 
ATOM      7  C   UNL     1       9.951 -61.187 -25.890  1.00  0.00    -0.029 A 
ATOM      8  C   UNL     1      10.577 -60.737 -28.555  1.00  0.00     0.161 A 
ATOM      9  C   UNL     1       9.308 -61.946 -26.851  1.00  0.00     0.055 A 
ATOM     10  C   UNL     1       9.606 -61.695 -28.194  1.00  0.00     0.161 A 
BRANCH   3  11
ATOM     11  O   UNL     1      12.279 -58.574 -25.086  1.00  0.00    -0.507 OA
ATOM     12  H   UNL     1      13.070 -58.909 -25.535  1.00  0.00     0.293 HD
ENDBRANCH   3  11
BRANCH   8  13
ATOM     13  O   UNL     1      10.948 -60.460 -29.846  1.00  0.00    -0.493 OA
ATOM     14  C   UNL     1      11.968 -59.466 -29.935  1.00  0.00     0.278 C 
ENDBRANCH   8  13
BRANCH  10  15
ATOM     15  O   UNL     1       8.932 -62.443 -29.126  1.00  0.00    -0.493 OA
ATOM     16  C   UNL     1       8.225 -63.505 -28.480  1.00  0.00     0.278 C 
ENDBRANCH  10  15
ENDBRANCH   1   2
BRANCH   1  17
ATOM     17  C   UNL     1      10.485 -58.512 -22.059  1.00  0.00     0.004 C 
ATOM     18  C   UNL     1       9.555 -57.930 -23.133  1.00  0.00     0.065 C 
ATOM     19  C   UNL     1      11.613 -57.512 -21.752  1.00  0.00     0.065 C 
ATOM     20  C   UNL     1       9.022 -56.556 -22.747  1.00  0.00     0.262 C 
ATOM     21  C   UNL     1      11.071 -56.142 -21.370  1.00  0.00     0.262 C 
ATOM     22  N   UNL     1      10.178 -55.625 -22.468  1.00  0.00    -0.331 N 
ATOM     23  H   UNL     1      10.737 -55.568 -23.328  1.00  0.00     0.348 HD
BRANCH  22  24
ATOM     24  C   UNL     1       9.725 -54.205 -22.180  1.00  0.00     0.299 C 
BRANCH  24  25
ATOM     25  C   UNL     1      10.736 -53.170 -22.596  1.00  0.00     0.006 A 
ATOM     26  C   UNL     1      11.467 -53.328 -23.785  1.00  0.00     0.009 A 
ATOM     27  C   UNL     1      10.948 -52.025 -21.814  1.00  0.00     0.009 A 
ATOM     28  C   UNL     1      12.385 -52.355 -24.183  1.00  0.00     0.001 A 
ATOM     29  C   UNL     1      11.867 -51.054 -22.216  1.00  0.00     0.001 A 
ATOM     30  C   UNL     1      12.582 -51.219 -23.401  1.00  0.00     0.000 A 
ENDBRANCH  24  25
ENDBRANCH  22  24
ENDBRANCH   1  17
TORSDOF 7
ENDMDL
MODEL 7
REMARK VINA RESULT:    -9.893      3.789     10.329
REMARK INTER + INTRA:         -14.117
REMARK INTER:                 -13.355
REMARK INTRA:                  -0.762
REMARK UNBOUND:                -0.465
REMARK SMILES COc1cc2c(cc1OC)C(O)=C(C[C@H]1CC[N@H+](Cc3ccccc3)CC1)C2
REMARK SMILES IDX 14 1 13 2 11 3 6 4 28 5 7 6 5 7 8 8 4 9 3 10 12 11 9 13
REMARK SMILES IDX 10 14 2 15 1 16 15 17 16 18 27 19 17 20 26 21 18 22 19 24
REMARK SMILES IDX 20 25 21 26 25 27 22 28 24 29 23 30
REMARK H PARENT 12 12 18 23
ROOT
ATOM      1  C   UNL     1      11.458 -57.699 -22.326  1.00  0.00     0.039 C 
ENDROOT
BRANCH   1   2
ATOM      2  C   UNL     1      10.725 -58.711 -23.146  1.00  0.00    -0.023 C 
ATOM      3  C   UNL     1      11.020 -59.162 -24.379  1.00  0.00     0.122 C 
ATOM      4  C   UNL     1      10.066 -60.187 -24.762  1.00  0.00     0.024 A 
ATOM      5  C   UNL     1       9.476 -59.392 -22.605  1.00  0.00     0.071 C 
ATOM      6  C   UNL     1       9.981 -60.956 -25.911  1.00  0.00     0.062 A 
ATOM      7  C   UNL     1       9.139 -60.334 -23.722  1.00  0.00    -0.029 A 
ATOM      8  C   UNL     1       8.950 -61.896 -26.007  1.00  0.00     0.161 A 
ATOM      9  C   UNL     1       8.096 -61.239 -23.813  1.00  0.00     0.055 A 
ATOM     10  C   UNL     1       7.989 -62.002 -24.979  1.00  0.00     0.161 A 
BRANCH   3  11
ATOM     11  O   UNL     1      12.034 -58.820 -25.209  1.00  0.00    -0.507 OA
ATOM     12  H   UNL     1      11.832 -59.156 -26.097  1.00  0.00     0.293 HD
ENDBRANCH   3  11
BRANCH   8  13
ATOM     13  O   UNL     1       8.933 -62.635 -27.162  1.00  0.00    -0.493 OA
ATOM     14  C   UNL     1       9.306 -61.881 -28.315  1.00  0.00     0.278 C 
ENDBRANCH   8  13
BRANCH  10  15
ATOM     15  O   UNL     1       6.929 -62.869 -25.053  1.00  0.00    -0.493 OA
ATOM     16  C   UNL     1       7.256 -64.097 -24.397  1.00  0.00     0.278 C 
ENDBRANCH  10  15
ENDBRANCH   1   2
BRANCH   1  17
ATOM     17  C   UNL     1      10.820 -56.294 -22.383  1.00  0.00     0.004 C 
ATOM     18  C   UNL     1      11.357 -55.517 -23.594  1.00  0.00     0.065 C 
ATOM     19  C   UNL     1      11.069 -55.488 -21.097  1.00  0.00     0.065 C 
ATOM     20  C   UNL     1      10.784 -54.108 -23.672  1.00  0.00     0.262 C 
ATOM     21  C   UNL     1      10.496 -54.082 -21.186  1.00  0.00     0.262 C 
ATOM     22  N   UNL     1      11.071 -53.373 -22.385  1.00  0.00    -0.331 N 
ATOM     23  H   UNL     1      12.091 -53.343 -22.273  1.00  0.00     0.348 HD
BRANCH  22  24
ATOM     24  C   UNL     1      10.621 -51.923 -22.430  1.00  0.00     0.299 C 
BRANCH  24  25
ATOM     25  C   UNL     1      11.726 -50.977 -22.813  1.00  0.00     0.006 A 
ATOM     26  C   UNL     1      11.507 -49.590 -22.816  1.00  0.00     0.009 A 
ATOM     27  C   UNL     1      12.996 -51.465 -23.156  1.00  0.00     0.009 A 
ATOM     28  C   UNL     1      12.540 -48.712 -23.147  1.00  0.00     0.001 A 
ATOM     29  C   UNL     1      14.027 -50.583 -23.486  1.00  0.00     0.001 A 
ATOM     30  C   UNL     1      13.798 -49.209 -23.479  1.00  0.00     0.000 A 
ENDBRANCH  24  25
ENDBRANCH  22  24
ENDBRANCH   1  17
TORSDOF 7
ENDMDL
MODEL 8
REMARK VINA RESULT:    -9.739      3.562     10.202
REMARK INTER + INTRA:         -13.904
REMARK INTER:                 -13.315
REMARK INTRA:                  -0.589
REMARK UNBOUND:                -0.465
REMARK SMILES COc1cc2c(cc1OC)C(O)=C(C[C@H]1CC[N@H+](Cc3ccccc3)CC1)C2
REMARK SMILES IDX 14 1 13 2 11 3 6 4 28 5 7 6 5 7 8 8 4 9 3 10 12 11 9 13
REMARK SMILES IDX 10 14 2 15 1 16 15 17 16 18 27 19 17 20 26 21 18 22 19 24
REMARK SMILES IDX 20 25 21 26 25 27 22 28 24 29 23 30
REMARK H PARENT 12 12 18 23
ROOT
ATOM      1  C   UNL     1       9.523 -55.102 -22.376  1.00  0.00     0.039 C 
ENDROOT
BRANCH   1   2
ATOM      2  C   UNL     1       9.922 -56.495 -22.742  1.00  0.00    -0.023 C 
ATOM      3  C   UNL     1       9.135 -57.517 -23.127  1.00  0.00     0.122 C 
ATOM      4  C   UNL     1       9.959 -58.672 -23.441  1.00  0.00     0.024 A 
ATOM      5  C   UNL     1      11.385 -56.915 -22.725  1.00  0.00     0.071 C 
ATOM      6  C   UNL     1       9.610 -59.929 -23.902  1.00  0.00     0.062 A 
ATOM      7  C   UNL     1      11.297 -58.332 -23.203  1.00  0.00    -0.029 A 
ATOM      8  C   UNL     1      10.628 -60.857 -24.140  1.00  0.00     0.161 A 
ATOM      9  C   UNL     1      12.316 -59.247 -23.405  1.00  0.00     0.055 A 
ATOM     10  C   UNL     1      11.969 -60.527 -23.849  1.00  0.00     0.161 A 
BRANCH   3  11
ATOM     11  O   UNL     1       7.790 -57.571 -23.271  1.00  0.00    -0.507 OA
ATOM     12  H   UNL     1       7.446 -56.665 -23.305  1.00  0.00     0.293 HD
ENDBRANCH   3  11
BRANCH   8  13
ATOM     13  O   UNL     1      10.216 -62.077 -24.611  1.00  0.00    -0.493 OA
ATOM     14  C   UNL     1       9.105 -62.609 -23.892  1.00  0.00     0.278 C 
ENDBRANCH   8  13
BRANCH  10  15
ATOM     15  O   UNL     1      12.996 -61.422 -24.012  1.00  0.00    -0.493 OA
ATOM     16  C   UNL     1      13.963 -60.895 -24.924  1.00  0.00     0.278 C 
ENDBRANCH  10  15
ENDBRANCH   1   2
BRANCH   1  17
ATOM     17  C   UNL     1      10.701 -54.104 -22.411  1.00  0.00     0.004 C 
ATOM     18  C   UNL     1      10.353 -52.846 -21.603  1.00  0.00     0.065 C 
ATOM     19  C   UNL     1      11.088 -53.709 -23.846  1.00  0.00     0.065 C 
ATOM     20  C   UNL     1      11.473 -51.814 -21.639  1.00  0.00     0.262 C 
ATOM     21  C   UNL     1      12.204 -52.676 -23.871  1.00  0.00     0.262 C 
ATOM     22  N   UNL     1      11.796 -51.466 -23.072  1.00  0.00    -0.331 N 
ATOM     23  H   UNL     1      10.939 -51.086 -23.493  1.00  0.00     0.348 HD
BRANCH  22  24
ATOM     24  C   UNL     1      12.831 -50.362 -23.184  1.00  0.00     0.299 C 
BRANCH  24  25
ATOM     25  C   UNL     1      12.227 -49.018 -23.489  1.00  0.00     0.006 A 
ATOM     26  C   UNL     1      12.795 -48.188 -24.469  1.00  0.00     0.009 A 
ATOM     27  C   UNL     1      11.078 -48.583 -22.812  1.00  0.00     0.009 A 
ATOM     28  C   UNL     1      12.217 -46.953 -24.769  1.00  0.00     0.001 A 
ATOM     29  C   UNL     1      10.504 -47.347 -23.115  1.00  0.00     0.001 A 
ATOM     30  C   UNL     1      11.073 -46.535 -24.095  1.00  0.00     0.000 A 
ENDBRANCH  24  25
ENDBRANCH  22  24
ENDBRANCH   1  17
TORSDOF 7
ENDMDL
MODEL 9
REMARK VINA RESULT:    -9.716      3.126      5.797
REMARK INTER + INTRA:         -13.872
REMARK INTER:                 -13.403
REMARK INTRA:                  -0.469
REMARK UNBOUND:                -0.465
REMARK SMILES COc1cc2c(cc1OC)C(O)=C(C[C@H]1CC[N@H+](Cc3ccccc3)CC1)C2
REMARK SMILES IDX 14 1 13 2 11 3 6 4 28 5 7 6 5 7 8 8 4 9 3 10 12 11 9 13
REMARK SMILES IDX 10 14 2 15 1 16 15 17 16 18 27 19 17 20 26 21 18 22 19 24
REMARK SMILES IDX 20 25 21 26 25 27 22 28 24 29 23 30
REMARK H PARENT 12 12 18 23
ROOT
ATOM      1  C   UNL     1      12.923 -50.953 -22.896  1.00  0.00     0.039 C 
ENDROOT
BRANCH   1   2
ATOM      2  C   UNL     1      12.549 -49.543 -23.222  1.00  0.00    -0.023 C 
ATOM      3  C   UNL     1      11.476 -48.845 -22.808  1.00  0.00     0.122 C 
ATOM      4  C   UNL     1      11.549 -47.490 -23.326  1.00  0.00     0.024 A 
ATOM      5  C   UNL     1      13.434 -48.692 -24.121  1.00  0.00     0.071 C 
ATOM      6  C   UNL     1      10.702 -46.410 -23.147  1.00  0.00     0.062 A 
ATOM      7  C   UNL     1      12.704 -47.384 -24.112  1.00  0.00    -0.029 A 
ATOM      8  C   UNL     1      11.031 -45.198 -23.761  1.00  0.00     0.161 A 
ATOM      9  C   UNL     1      13.030 -46.200 -24.751  1.00  0.00     0.055 A 
ATOM     10  C   UNL     1      12.167 -45.111 -24.594  1.00  0.00     0.161 A 
BRANCH   3  11
ATOM     11  O   UNL     1      10.450 -49.222 -22.008  1.00  0.00    -0.507 OA
ATOM     12  H   UNL     1      10.158 -48.451 -21.497  1.00  0.00     0.293 HD
ENDBRANCH   3  11
BRANCH   8  13
ATOM     13  O   UNL     1      10.160 -44.164 -23.530  1.00  0.00    -0.493 OA
ATOM     14  C   UNL     1      10.764 -43.064 -22.851  1.00  0.00     0.278 C 
ENDBRANCH   8  13
BRANCH  10  15
ATOM     15  O   UNL     1      12.500 -43.960 -25.262  1.00  0.00    -0.493 OA
ATOM     16  C   UNL     1      13.294 -44.273 -26.409  1.00  0.00     0.278 C 
ENDBRANCH  10  15
ENDBRANCH   1   2
BRANCH   1  17
ATOM     17  C   UNL     1      11.824 -51.974 -23.263  1.00  0.00     0.004 C 
ATOM     18  C   UNL     1      11.140 -52.495 -21.992  1.00  0.00     0.065 C 
ATOM     19  C   UNL     1      12.376 -53.157 -24.077  1.00  0.00     0.065 C 
ATOM     20  C   UNL     1      10.070 -53.535 -22.301  1.00  0.00     0.262 C 
ATOM     21  C   UNL     1      11.302 -54.191 -24.378  1.00  0.00     0.262 C 
ATOM     22  N   UNL     1      10.680 -54.668 -23.091  1.00  0.00    -0.331 N 
ATOM     23  H   UNL     1      11.426 -55.075 -22.513  1.00  0.00     0.348 HD
BRANCH  22  24
ATOM     24  C   UNL     1       9.696 -55.796 -23.345  1.00  0.00     0.299 C 
BRANCH  24  25
ATOM     25  C   UNL     1      10.113 -57.093 -22.706  1.00  0.00     0.006 A 
ATOM     26  C   UNL     1      11.148 -57.119 -21.757  1.00  0.00     0.009 A 
ATOM     27  C   UNL     1       9.462 -58.291 -23.035  1.00  0.00     0.009 A 
ATOM     28  C   UNL     1      11.515 -58.319 -21.146  1.00  0.00     0.001 A 
ATOM     29  C   UNL     1       9.832 -59.489 -22.421  1.00  0.00     0.001 A 
ATOM     30  C   UNL     1      10.857 -59.501 -21.476  1.00  0.00     0.000 A 
ENDBRANCH  24  25
ENDBRANCH  22  24
ENDBRANCH   1  17
TORSDOF 7
ENDMDL
