MODEL 1
REMARK VINA RESULT:   -12.612      0.000      0.000
REMARK INTER + INTRA:         -18.898
REMARK INTER:                 -17.773
REMARK INTRA:                  -1.125
REMARK UNBOUND:                -1.125
REMARK SMILES O=C(c1ccccc1)c1ccc2c(c1)C(=O)N(CC[C@H]1CC[N@@H+](Cc3ccccc3)CC1)C2=O
REMARK SMILES IDX 19 1 20 2 22 3 23 4 21 5 31 6 32 7 24 9 25 10 26 11 30 12
REMARK SMILES IDX 27 13 29 14 28 15 18 16 17 17 15 18 33 19 13 20 12 21 14 22
REMARK SMILES IDX 11 23 9 24 10 25 16 26 34 27 2 28 1 29 3 30 4 31 8 32 5 33
REMARK SMILES IDX 7 34 6 35
REMARK H PARENT 23 8
ROOT
ATOM      1  C   UNL     1      11.381 -56.836 -22.627  1.00  0.00     0.026 C 
ENDROOT
BRANCH   1   2
ATOM      2  C   UNL     1      10.790 -58.105 -21.969  1.00  0.00     0.002 C 
ATOM      3  C   UNL     1      11.884 -59.867 -23.465  1.00  0.00     0.262 C 
ATOM      4  N   UNL     1      10.517 -60.274 -23.951  1.00  0.00    -0.331 N 
ATOM      5  C   UNL     1      11.775 -59.283 -22.062  1.00  0.00     0.065 C 
ATOM      6  C   UNL     1       9.538 -59.123 -23.955  1.00  0.00     0.262 C 
ATOM      7  C   UNL     1       9.436 -58.533 -22.554  1.00  0.00     0.065 C 
ATOM      8  H   UNL     1      10.147 -60.973 -23.296  1.00  0.00     0.348 HD
BRANCH   4   9
ATOM      9  C   UNL     1      10.599 -60.972 -25.295  1.00  0.00     0.299 C 
BRANCH   9  10
ATOM     10  C   UNL     1       9.460 -61.925 -25.536  1.00  0.00     0.006 A 
ATOM     11  C   UNL     1       8.765 -62.491 -24.455  1.00  0.00     0.009 A 
ATOM     12  C   UNL     1       9.064 -62.248 -26.842  1.00  0.00     0.009 A 
ATOM     13  C   UNL     1       7.692 -63.354 -24.679  1.00  0.00     0.001 A 
ATOM     14  C   UNL     1       7.989 -63.111 -27.061  1.00  0.00     0.001 A 
ATOM     15  C   UNL     1       7.305 -63.661 -25.981  1.00  0.00     0.000 A 
ENDBRANCH   9  10
ENDBRANCH   4   9
ENDBRANCH   1   2
BRANCH   1  16
ATOM     16  C   UNL     1      10.383 -55.694 -22.872  1.00  0.00     0.129 C 
BRANCH  16  17
ATOM     17  N   UNL     1      11.024 -54.433 -23.179  1.00  0.00    -0.274 N 
ATOM     18  C   UNL     1      11.017 -53.353 -22.337  1.00  0.00     0.261 C 
ATOM     19  C   UNL     1      11.672 -54.157 -24.351  1.00  0.00     0.261 C 
ATOM     20  C   UNL     1      11.787 -52.302 -23.001  1.00  0.00     0.053 A 
ATOM     21  C   UNL     1      12.189 -52.795 -24.231  1.00  0.00     0.053 A 
ATOM     22  C   UNL     1      12.115 -51.030 -22.577  1.00  0.00     0.027 A 
ATOM     23  C   UNL     1      12.948 -52.043 -25.107  1.00  0.00     0.015 A 
ATOM     24  C   UNL     1      12.878 -50.238 -23.451  1.00  0.00     0.023 A 
ATOM     25  C   UNL     1      13.302 -50.749 -24.703  1.00  0.00     0.013 A 
ATOM     26  O   UNL     1      10.464 -53.237 -21.262  1.00  0.00    -0.269 OA
ATOM     27  O   UNL     1      11.786 -54.858 -25.339  1.00  0.00    -0.269 OA
BRANCH  24  28
ATOM     28  C   UNL     1      13.277 -48.883 -22.989  1.00  0.00     0.193 C 
ATOM     29  O   UNL     1      14.397 -48.735 -22.510  1.00  0.00    -0.289 OA
BRANCH  28  30
ATOM     30  C   UNL     1      12.368 -47.717 -23.099  1.00  0.00     0.022 A 
ATOM     31  C   UNL     1      12.033 -46.937 -21.985  1.00  0.00     0.012 A 
ATOM     32  C   UNL     1      11.878 -47.373 -24.364  1.00  0.00     0.012 A 
ATOM     33  C   UNL     1      11.181 -45.841 -22.136  1.00  0.00     0.001 A 
ATOM     34  C   UNL     1      11.027 -46.277 -24.509  1.00  0.00     0.001 A 
ATOM     35  C   UNL     1      10.676 -45.515 -23.394  1.00  0.00     0.000 A 
ENDBRANCH  28  30
ENDBRANCH  24  28
ENDBRANCH  16  17
ENDBRANCH   1  16
TORSDOF 7
ENDMDL
MODEL 2
REMARK VINA RESULT:   -12.297      3.048     11.036
REMARK INTER + INTRA:         -18.455
REMARK INTER:                 -16.954
REMARK INTRA:                  -1.501
REMARK UNBOUND:                -1.125
REMARK SMILES O=C(c1ccccc1)c1ccc2c(c1)C(=O)N(CC[C@H]1CC[N@@H+](Cc3ccccc3)CC1)C2=O
REMARK SMILES IDX 19 1 20 2 22 3 23 4 21 5 31 6 32 7 24 9 25 10 26 11 30 12
REMARK SMILES IDX 27 13 29 14 28 15 18 16 17 17 15 18 33 19 13 20 12 21 14 22
REMARK SMILES IDX 11 23 9 24 10 25 16 26 34 27 2 28 1 29 3 30 4 31 8 32 5 33
REMARK SMILES IDX 7 34 6 35
REMARK H PARENT 23 8
ROOT
ATOM      1  C   UNL     1      12.235 -51.913 -22.635  1.00  0.00     0.026 C 
ENDROOT
BRANCH   1   2
ATOM      2  C   UNL     1      12.731 -50.872 -23.667  1.00  0.00     0.002 C 
ATOM      3  C   UNL     1      14.104 -52.425 -25.162  1.00  0.00     0.262 C 
ATOM      4  N   UNL     1      15.347 -51.668 -24.773  1.00  0.00    -0.331 N 
ATOM      5  C   UNL     1      12.892 -51.508 -25.057  1.00  0.00     0.065 C 
ATOM      6  C   UNL     1      15.263 -51.094 -23.378  1.00  0.00     0.262 C 
ATOM      7  C   UNL     1      14.046 -50.185 -23.271  1.00  0.00     0.065 C 
ATOM      8  H   UNL     1      15.441 -50.870 -25.415  1.00  0.00     0.348 HD
BRANCH   4   9
ATOM      9  C   UNL     1      16.591 -52.511 -24.982  1.00  0.00     0.299 C 
BRANCH   9  10
ATOM     10  C   UNL     1      17.699 -51.767 -25.674  1.00  0.00     0.006 A 
ATOM     11  C   UNL     1      19.020 -52.239 -25.614  1.00  0.00     0.009 A 
ATOM     12  C   UNL     1      17.428 -50.600 -26.405  1.00  0.00     0.009 A 
ATOM     13  C   UNL     1      20.044 -51.563 -26.278  1.00  0.00     0.001 A 
ATOM     14  C   UNL     1      18.455 -49.928 -27.069  1.00  0.00     0.001 A 
ATOM     15  C   UNL     1      19.760 -50.410 -27.006  1.00  0.00     0.000 A 
ENDBRANCH   9  10
ENDBRANCH   4   9
ENDBRANCH   1   2
BRANCH   1  16
ATOM     16  C   UNL     1      10.977 -52.695 -23.040  1.00  0.00     0.129 C 
BRANCH  16  17
ATOM     17  N   UNL     1      11.105 -54.124 -22.841  1.00  0.00    -0.274 N 
ATOM     18  C   UNL     1      11.376 -55.009 -23.850  1.00  0.00     0.261 C 
ATOM     19  C   UNL     1      10.934 -54.759 -21.642  1.00  0.00     0.261 C 
ATOM     20  C   UNL     1      11.448 -56.333 -23.233  1.00  0.00     0.053 A 
ATOM     21  C   UNL     1      11.180 -56.179 -21.884  1.00  0.00     0.053 A 
ATOM     22  C   UNL     1      11.726 -57.565 -23.791  1.00  0.00     0.027 A 
ATOM     23  C   UNL     1      11.179 -57.251 -21.013  1.00  0.00     0.015 A 
ATOM     24  C   UNL     1      11.721 -58.675 -22.932  1.00  0.00     0.023 A 
ATOM     25  C   UNL     1      11.463 -58.514 -21.547  1.00  0.00     0.013 A 
ATOM     26  O   UNL     1      11.501 -54.786 -25.037  1.00  0.00    -0.269 OA
ATOM     27  O   UNL     1      10.602 -54.284 -20.573  1.00  0.00    -0.269 OA
BRANCH  24  28
ATOM     28  C   UNL     1      12.063 -60.001 -23.509  1.00  0.00     0.193 C 
ATOM     29  O   UNL     1      13.247 -60.287 -23.658  1.00  0.00    -0.289 OA
BRANCH  28  30
ATOM     30  C   UNL     1      11.020 -60.980 -23.899  1.00  0.00     0.022 A 
ATOM     31  C   UNL     1      10.592 -61.987 -23.025  1.00  0.00     0.012 A 
ATOM     32  C   UNL     1      10.428 -60.854 -25.160  1.00  0.00     0.012 A 
ATOM     33  C   UNL     1       9.599 -62.882 -23.429  1.00  0.00     0.001 A 
ATOM     34  C   UNL     1       9.437 -61.752 -25.560  1.00  0.00     0.001 A 
ATOM     35  C   UNL     1       9.028 -62.767 -24.696  1.00  0.00     0.000 A 
ENDBRANCH  28  30
ENDBRANCH  24  28
ENDBRANCH  16  17
ENDBRANCH   1  16
TORSDOF 7
ENDMDL
MODEL 3
REMARK VINA RESULT:   -12.256      2.044     12.118
REMARK INTER + INTRA:         -18.397
REMARK INTER:                 -17.309
REMARK INTRA:                  -1.088
REMARK UNBOUND:                -1.125
REMARK SMILES O=C(c1ccccc1)c1ccc2c(c1)C(=O)N(CC[C@H]1CC[N@@H+](Cc3ccccc3)CC1)C2=O
REMARK SMILES IDX 19 1 20 2 22 3 23 4 21 5 31 6 32 7 24 9 25 10 26 11 30 12
REMARK SMILES IDX 27 13 29 14 28 15 18 16 17 17 15 18 33 19 13 20 12 21 14 22
REMARK SMILES IDX 11 23 9 24 10 25 16 26 34 27 2 28 1 29 3 30 4 31 8 32 5 33
REMARK SMILES IDX 7 34 6 35
REMARK H PARENT 23 8
ROOT
ATOM      1  C   UNL     1      12.191 -52.065 -23.600  1.00  0.00     0.026 C 
ENDROOT
BRANCH   1   2
ATOM      2  C   UNL     1      12.827 -51.041 -22.629  1.00  0.00     0.002 C 
ATOM      3  C   UNL     1      11.021 -49.234 -22.728  1.00  0.00     0.262 C 
ATOM      4  N   UNL     1      12.025 -48.293 -23.344  1.00  0.00    -0.331 N 
ATOM      5  C   UNL     1      11.744 -50.261 -21.866  1.00  0.00     0.065 C 
ATOM      6  C   UNL     1      13.062 -49.015 -24.174  1.00  0.00     0.262 C 
ATOM      7  C   UNL     1      13.777 -50.048 -23.313  1.00  0.00     0.065 C 
ATOM      8  H   UNL     1      12.530 -47.831 -22.578  1.00  0.00     0.348 HD
BRANCH   4   9
ATOM      9  C   UNL     1      11.336 -47.182 -24.112  1.00  0.00     0.299 C 
BRANCH   9  10
ATOM     10  C   UNL     1      11.479 -45.835 -23.458  1.00  0.00     0.006 A 
ATOM     11  C   UNL     1      12.631 -45.522 -22.719  1.00  0.00     0.009 A 
ATOM     12  C   UNL     1      10.474 -44.866 -23.592  1.00  0.00     0.009 A 
ATOM     13  C   UNL     1      12.776 -44.263 -22.134  1.00  0.00     0.001 A 
ATOM     14  C   UNL     1      10.623 -43.608 -23.007  1.00  0.00     0.001 A 
ATOM     15  C   UNL     1      11.773 -43.308 -22.281  1.00  0.00     0.000 A 
ENDBRANCH   9  10
ENDBRANCH   4   9
ENDBRANCH   1   2
BRANCH   1  16
ATOM     16  C   UNL     1      10.907 -52.742 -23.097  1.00  0.00     0.129 C 
BRANCH  16  17
ATOM     17  N   UNL     1      11.059 -54.165 -22.880  1.00  0.00    -0.274 N 
ATOM     18  C   UNL     1      11.326 -55.060 -23.881  1.00  0.00     0.261 C 
ATOM     19  C   UNL     1      10.917 -54.785 -21.670  1.00  0.00     0.261 C 
ATOM     20  C   UNL     1      11.428 -56.374 -23.247  1.00  0.00     0.053 A 
ATOM     21  C   UNL     1      11.180 -56.205 -21.895  1.00  0.00     0.053 A 
ATOM     22  C   UNL     1      11.714 -57.611 -23.791  1.00  0.00     0.027 A 
ATOM     23  C   UNL     1      11.209 -57.263 -21.009  1.00  0.00     0.015 A 
ATOM     24  C   UNL     1      11.740 -58.708 -22.916  1.00  0.00     0.023 A 
ATOM     25  C   UNL     1      11.503 -58.530 -21.530  1.00  0.00     0.013 A 
ATOM     26  O   UNL     1      11.429 -54.853 -25.073  1.00  0.00    -0.269 OA
ATOM     27  O   UNL     1      10.596 -54.299 -20.602  1.00  0.00    -0.269 OA
BRANCH  24  28
ATOM     28  C   UNL     1      12.091 -60.037 -23.479  1.00  0.00     0.193 C 
ATOM     29  O   UNL     1      13.278 -60.332 -23.586  1.00  0.00    -0.289 OA
BRANCH  28  30
ATOM     30  C   UNL     1      11.055 -61.008 -23.906  1.00  0.00     0.022 A 
ATOM     31  C   UNL     1      10.575 -61.999 -23.041  1.00  0.00     0.012 A 
ATOM     32  C   UNL     1      10.524 -60.890 -25.194  1.00  0.00     0.012 A 
ATOM     33  C   UNL     1       9.591 -62.887 -23.480  1.00  0.00     0.001 A 
ATOM     34  C   UNL     1       9.541 -61.781 -25.629  1.00  0.00     0.001 A 
ATOM     35  C   UNL     1       9.080 -62.780 -24.774  1.00  0.00     0.000 A 
ENDBRANCH  28  30
ENDBRANCH  24  28
ENDBRANCH  16  17
ENDBRANCH   1  16
TORSDOF 7
ENDMDL
MODEL 4
REMARK VINA RESULT:   -11.828      2.927     11.246
REMARK INTER + INTRA:         -17.794
REMARK INTER:                 -16.840
REMARK INTRA:                  -0.954
REMARK UNBOUND:                -1.125
REMARK SMILES O=C(c1ccccc1)c1ccc2c(c1)C(=O)N(CC[C@H]1CC[N@@H+](Cc3ccccc3)CC1)C2=O
REMARK SMILES IDX 19 1 20 2 22 3 23 4 21 5 31 6 32 7 24 9 25 10 26 11 30 12
REMARK SMILES IDX 27 13 29 14 28 15 18 16 17 17 15 18 33 19 13 20 12 21 14 22
REMARK SMILES IDX 11 23 9 24 10 25 16 26 34 27 2 28 1 29 3 30 4 31 8 32 5 33
REMARK SMILES IDX 7 34 6 35
REMARK H PARENT 23 8
ROOT
ATOM      1  C   UNL     1      12.212 -51.860 -22.818  1.00  0.00     0.026 C 
ENDROOT
BRANCH   1   2
ATOM      2  C   UNL     1      12.578 -50.929 -23.998  1.00  0.00     0.002 C 
ATOM      3  C   UNL     1      14.548 -52.254 -24.947  1.00  0.00     0.262 C 
ATOM      4  N   UNL     1      15.460 -51.104 -24.606  1.00  0.00    -0.331 N 
ATOM      5  C   UNL     1      13.135 -51.735 -25.183  1.00  0.00     0.065 C 
ATOM      6  C   UNL     1      14.992 -50.334 -23.393  1.00  0.00     0.262 C 
ATOM      7  C   UNL     1      13.576 -49.823 -23.627  1.00  0.00     0.065 C 
ATOM      8  H   UNL     1      15.443 -50.448 -25.397  1.00  0.00     0.348 HD
BRANCH   4   9
ATOM      9  C   UNL     1      16.900 -51.565 -24.484  1.00  0.00     0.299 C 
BRANCH   9  10
ATOM     10  C   UNL     1      17.611 -50.968 -23.300  1.00  0.00     0.006 A 
ATOM     11  C   UNL     1      17.423 -51.500 -22.014  1.00  0.00     0.009 A 
ATOM     12  C   UNL     1      18.487 -49.885 -23.465  1.00  0.00     0.009 A 
ATOM     13  C   UNL     1      18.103 -50.963 -20.921  1.00  0.00     0.001 A 
ATOM     14  C   UNL     1      19.166 -49.352 -22.369  1.00  0.00     0.001 A 
ATOM     15  C   UNL     1      18.975 -49.892 -21.100  1.00  0.00     0.000 A 
ENDBRANCH   9  10
ENDBRANCH   4   9
ENDBRANCH   1   2
BRANCH   1  16
ATOM     16  C   UNL     1      10.895 -52.636 -22.974  1.00  0.00     0.129 C 
BRANCH  16  17
ATOM     17  N   UNL     1      11.050 -54.064 -22.787  1.00  0.00    -0.274 N 
ATOM     18  C   UNL     1      11.307 -54.939 -23.808  1.00  0.00     0.261 C 
ATOM     19  C   UNL     1      10.917 -54.708 -21.588  1.00  0.00     0.261 C 
ATOM     20  C   UNL     1      11.414 -56.266 -23.201  1.00  0.00     0.053 A 
ATOM     21  C   UNL     1      11.178 -56.123 -21.844  1.00  0.00     0.053 A 
ATOM     22  C   UNL     1      11.695 -57.491 -23.773  1.00  0.00     0.027 A 
ATOM     23  C   UNL     1      11.214 -57.200 -20.979  1.00  0.00     0.015 A 
ATOM     24  C   UNL     1      11.728 -58.605 -22.920  1.00  0.00     0.023 A 
ATOM     25  C   UNL     1      11.503 -58.456 -21.528  1.00  0.00     0.013 A 
ATOM     26  O   UNL     1      11.399 -54.708 -24.996  1.00  0.00    -0.269 OA
ATOM     27  O   UNL     1      10.606 -54.244 -20.507  1.00  0.00    -0.269 OA
BRANCH  24  28
ATOM     28  C   UNL     1      12.074 -59.923 -23.513  1.00  0.00     0.193 C 
ATOM     29  O   UNL     1      13.259 -60.220 -23.627  1.00  0.00    -0.289 OA
BRANCH  28  30
ATOM     30  C   UNL     1      11.034 -60.880 -23.960  1.00  0.00     0.022 A 
ATOM     31  C   UNL     1      10.495 -60.833 -25.251  1.00  0.00     0.012 A 
ATOM     32  C   UNL     1      10.623 -61.879 -23.069  1.00  0.00     0.012 A 
ATOM     33  C   UNL     1       9.524 -61.761 -25.633  1.00  0.00     0.001 A 
ATOM     34  C   UNL     1       9.652 -62.803 -23.456  1.00  0.00     0.001 A 
ATOM     35  C   UNL     1       9.101 -62.741 -24.735  1.00  0.00     0.000 A 
ENDBRANCH  28  30
ENDBRANCH  24  28
ENDBRANCH  16  17
ENDBRANCH   1  16
TORSDOF 7
ENDMDL
MODEL 5
REMARK VINA RESULT:   -11.653      1.395      2.025
REMARK INTER + INTRA:         -17.547
REMARK INTER:                 -16.378
REMARK INTRA:                  -1.169
REMARK UNBOUND:                -1.125
REMARK SMILES O=C(c1ccccc1)c1ccc2c(c1)C(=O)N(CC[C@H]1CC[N@@H+](Cc3ccccc3)CC1)C2=O
REMARK SMILES IDX 19 1 20 2 22 3 23 4 21 5 31 6 32 7 24 9 25 10 26 11 30 12
REMARK SMILES IDX 27 13 29 14 28 15 18 16 17 17 15 18 33 19 13 20 12 21 14 22
REMARK SMILES IDX 11 23 9 24 10 25 16 26 34 27 2 28 1 29 3 30 4 31 8 32 5 33
REMARK SMILES IDX 7 34 6 35
REMARK H PARENT 23 8
ROOT
ATOM      1  C   UNL     1      11.383 -56.556 -22.839  1.00  0.00     0.026 C 
ENDROOT
BRANCH   1   2
ATOM      2  C   UNL     1      10.565 -57.554 -21.987  1.00  0.00     0.002 C 
ATOM      3  C   UNL     1      11.879 -59.684 -22.508  1.00  0.00     0.262 C 
ATOM      4  N   UNL     1      10.653 -60.253 -23.175  1.00  0.00    -0.331 N 
ATOM      5  C   UNL     1      11.462 -58.678 -21.443  1.00  0.00     0.065 C 
ATOM      6  C   UNL     1       9.784 -59.185 -23.797  1.00  0.00     0.262 C 
ATOM      7  C   UNL     1       9.375 -58.175 -22.733  1.00  0.00     0.065 C 
ATOM      8  H   UNL     1      10.086 -60.710 -22.449  1.00  0.00     0.348 HD
BRANCH   4   9
ATOM      9  C   UNL     1      11.022 -61.348 -24.158  1.00  0.00     0.299 C 
BRANCH   9  10
ATOM     10  C   UNL     1      11.184 -60.847 -25.566  1.00  0.00     0.006 A 
ATOM     11  C   UNL     1      10.196 -61.102 -26.531  1.00  0.00     0.009 A 
ATOM     12  C   UNL     1      12.315 -60.102 -25.934  1.00  0.00     0.009 A 
ATOM     13  C   UNL     1      10.334 -60.615 -27.831  1.00  0.00     0.001 A 
ATOM     14  C   UNL     1      12.448 -59.616 -27.235  1.00  0.00     0.001 A 
ATOM     15  C   UNL     1      11.458 -59.871 -28.180  1.00  0.00     0.000 A 
ENDBRANCH   9  10
ENDBRANCH   4   9
ENDBRANCH   1   2
BRANCH   1  16
ATOM     16  C   UNL     1      10.558 -55.516 -23.612  1.00  0.00     0.129 C 
BRANCH  16  17
ATOM     17  N   UNL     1      11.296 -54.306 -23.905  1.00  0.00    -0.274 N 
ATOM     18  C   UNL     1      11.250 -53.181 -23.125  1.00  0.00     0.261 C 
ATOM     19  C   UNL     1      12.086 -54.127 -25.006  1.00  0.00     0.261 C 
ATOM     20  C   UNL     1      12.146 -52.207 -23.747  1.00  0.00     0.053 A 
ATOM     21  C   UNL     1      12.658 -52.786 -24.896  1.00  0.00     0.053 A 
ATOM     22  C   UNL     1      12.491 -50.930 -23.352  1.00  0.00     0.027 A 
ATOM     23  C   UNL     1      13.550 -52.121 -25.714  1.00  0.00     0.015 A 
ATOM     24  C   UNL     1      13.389 -50.225 -24.170  1.00  0.00     0.023 A 
ATOM     25  C   UNL     1      13.925 -50.825 -25.336  1.00  0.00     0.013 A 
ATOM     26  O   UNL     1      10.586 -52.979 -22.129  1.00  0.00    -0.269 OA
ATOM     27  O   UNL     1      12.274 -54.887 -25.938  1.00  0.00    -0.269 OA
BRANCH  24  28
ATOM     28  C   UNL     1      13.804 -48.867 -23.734  1.00  0.00     0.193 C 
ATOM     29  O   UNL     1      15.004 -48.615 -23.668  1.00  0.00    -0.289 OA
BRANCH  28  30
ATOM     30  C   UNL     1      12.817 -47.817 -23.387  1.00  0.00     0.022 A 
ATOM     31  C   UNL     1      12.772 -47.241 -22.111  1.00  0.00     0.012 A 
ATOM     32  C   UNL     1      11.944 -47.370 -24.384  1.00  0.00     0.012 A 
ATOM     33  C   UNL     1      11.832 -46.247 -21.830  1.00  0.00     0.001 A 
ATOM     34  C   UNL     1      11.006 -46.377 -24.098  1.00  0.00     0.001 A 
ATOM     35  C   UNL     1      10.948 -45.820 -22.821  1.00  0.00     0.000 A 
ENDBRANCH  28  30
ENDBRANCH  24  28
ENDBRANCH  16  17
ENDBRANCH   1  16
TORSDOF 7
ENDMDL
MODEL 6
REMARK VINA RESULT:   -11.643      2.228      3.172
REMARK INTER + INTRA:         -17.533
REMARK INTER:                 -16.723
REMARK INTRA:                  -0.810
REMARK UNBOUND:                -1.125
REMARK SMILES O=C(c1ccccc1)c1ccc2c(c1)C(=O)N(CC[C@H]1CC[N@@H+](Cc3ccccc3)CC1)C2=O
REMARK SMILES IDX 19 1 20 2 22 3 23 4 21 5 31 6 32 7 24 9 25 10 26 11 30 12
REMARK SMILES IDX 27 13 29 14 28 15 18 16 17 17 15 18 33 19 13 20 12 21 14 22
REMARK SMILES IDX 11 23 9 24 10 25 16 26 34 27 2 28 1 29 3 30 4 31 8 32 5 33
REMARK SMILES IDX 7 34 6 35
REMARK H PARENT 23 8
ROOT
ATOM      1  C   UNL     1      11.158 -56.348 -23.286  1.00  0.00     0.026 C 
ENDROOT
BRANCH   1   2
ATOM      2  C   UNL     1      10.393 -57.319 -22.356  1.00  0.00     0.002 C 
ATOM      3  C   UNL     1      11.728 -59.448 -22.828  1.00  0.00     0.262 C 
ATOM      4  N   UNL     1      10.489 -60.070 -23.418  1.00  0.00    -0.331 N 
ATOM      5  C   UNL     1      11.332 -58.400 -21.796  1.00  0.00     0.065 C 
ATOM      6  C   UNL     1       9.575 -59.049 -24.055  1.00  0.00     0.262 C 
ATOM      7  C   UNL     1       9.187 -57.996 -23.024  1.00  0.00     0.065 C 
ATOM      8  H   UNL     1       9.960 -60.501 -22.650  1.00  0.00     0.348 HD
BRANCH   4   9
ATOM      9  C   UNL     1      10.841 -61.204 -24.362  1.00  0.00     0.299 C 
BRANCH   9  10
ATOM     10  C   UNL     1       9.658 -62.058 -24.727  1.00  0.00     0.006 A 
ATOM     11  C   UNL     1       9.018 -62.842 -23.754  1.00  0.00     0.009 A 
ATOM     12  C   UNL     1       9.164 -62.070 -26.040  1.00  0.00     0.009 A 
ATOM     13  C   UNL     1       7.905 -63.613 -24.087  1.00  0.00     0.001 A 
ATOM     14  C   UNL     1       8.049 -62.842 -26.369  1.00  0.00     0.001 A 
ATOM     15  C   UNL     1       7.420 -63.610 -25.393  1.00  0.00     0.000 A 
ENDBRANCH   9  10
ENDBRANCH   4   9
ENDBRANCH   1   2
BRANCH   1  16
ATOM     16  C   UNL     1      10.440 -55.026 -23.594  1.00  0.00     0.129 C 
BRANCH  16  17
ATOM     17  N   UNL     1      11.349 -53.936 -23.877  1.00  0.00    -0.274 N 
ATOM     18  C   UNL     1      12.232 -53.937 -24.925  1.00  0.00     0.261 C 
ATOM     19  C   UNL     1      11.465 -52.804 -23.118  1.00  0.00     0.261 C 
ATOM     20  C   UNL     1      12.939 -52.657 -24.874  1.00  0.00     0.053 A 
ATOM     21  C   UNL     1      12.468 -51.965 -23.771  1.00  0.00     0.053 A 
ATOM     22  C   UNL     1      13.904 -52.135 -25.711  1.00  0.00     0.027 A 
ATOM     23  C   UNL     1      12.934 -50.706 -23.445  1.00  0.00     0.015 A 
ATOM     24  C   UNL     1      14.405 -50.861 -25.399  1.00  0.00     0.023 A 
ATOM     25  C   UNL     1      13.910 -50.146 -24.280  1.00  0.00     0.013 A 
ATOM     26  O   UNL     1      12.442 -54.817 -25.735  1.00  0.00    -0.269 OA
ATOM     27  O   UNL     1      10.897 -52.527 -22.079  1.00  0.00    -0.269 OA
BRANCH  24  28
ATOM     28  C   UNL     1      15.411 -50.267 -26.317  1.00  0.00     0.193 C 
ATOM     29  O   UNL     1      16.462 -50.872 -26.503  1.00  0.00    -0.289 OA
BRANCH  28  30
ATOM     30  C   UNL     1      15.176 -48.979 -27.013  1.00  0.00     0.022 A 
ATOM     31  C   UNL     1      15.061 -47.773 -26.311  1.00  0.00     0.012 A 
ATOM     32  C   UNL     1      15.114 -48.981 -28.411  1.00  0.00     0.012 A 
ATOM     33  C   UNL     1      14.851 -46.581 -27.008  1.00  0.00     0.001 A 
ATOM     34  C   UNL     1      14.902 -47.787 -29.102  1.00  0.00     0.001 A 
ATOM     35  C   UNL     1      14.766 -46.590 -28.400  1.00  0.00     0.000 A 
ENDBRANCH  28  30
ENDBRANCH  24  28
ENDBRANCH  16  17
ENDBRANCH   1  16
TORSDOF 7
ENDMDL
MODEL 7
REMARK VINA RESULT:   -11.020      2.340     11.892
REMARK INTER + INTRA:         -16.654
REMARK INTER:                 -15.705
REMARK INTRA:                  -0.950
REMARK UNBOUND:                -1.125
REMARK SMILES O=C(c1ccccc1)c1ccc2c(c1)C(=O)N(CC[C@H]1CC[N@@H+](Cc3ccccc3)CC1)C2=O
REMARK SMILES IDX 19 1 20 2 22 3 23 4 21 5 31 6 32 7 24 9 25 10 26 11 30 12
REMARK SMILES IDX 27 13 29 14 28 15 18 16 17 17 15 18 33 19 13 20 12 21 14 22
REMARK SMILES IDX 11 23 9 24 10 25 16 26 34 27 2 28 1 29 3 30 4 31 8 32 5 33
REMARK SMILES IDX 7 34 6 35
REMARK H PARENT 23 8
ROOT
ATOM      1  C   UNL     1      12.089 -52.057 -23.509  1.00  0.00     0.026 C 
ENDROOT
BRANCH   1   2
ATOM      2  C   UNL     1      12.834 -51.012 -22.645  1.00  0.00     0.002 C 
ATOM      3  C   UNL     1      11.103 -49.133 -22.723  1.00  0.00     0.262 C 
ATOM      4  N   UNL     1      12.098 -48.274 -23.459  1.00  0.00    -0.331 N 
ATOM      5  C   UNL     1      11.842 -50.143 -21.855  1.00  0.00     0.065 C 
ATOM      6  C   UNL     1      13.042 -49.085 -24.316  1.00  0.00     0.262 C 
ATOM      7  C   UNL     1      13.774 -50.101 -23.448  1.00  0.00     0.065 C 
ATOM      8  H   UNL     1      12.675 -47.793 -22.758  1.00  0.00     0.348 HD
BRANCH   4   9
ATOM      9  C   UNL     1      11.402 -47.176 -24.241  1.00  0.00     0.299 C 
BRANCH   9  10
ATOM     10  C   UNL     1      11.504 -45.827 -23.583  1.00  0.00     0.006 A 
ATOM     11  C   UNL     1      10.522 -44.849 -23.806  1.00  0.00     0.009 A 
ATOM     12  C   UNL     1      12.572 -45.532 -22.721  1.00  0.00     0.009 A 
ATOM     13  C   UNL     1      10.603 -43.608 -23.176  1.00  0.00     0.001 A 
ATOM     14  C   UNL     1      12.648 -44.289 -22.091  1.00  0.00     0.001 A 
ATOM     15  C   UNL     1      11.664 -43.331 -22.317  1.00  0.00     0.000 A 
ENDBRANCH   9  10
ENDBRANCH   4   9
ENDBRANCH   1   2
BRANCH   1  16
ATOM     16  C   UNL     1      10.932 -52.787 -22.810  1.00  0.00     0.129 C 
BRANCH  16  17
ATOM     17  N   UNL     1      11.091 -54.226 -22.797  1.00  0.00    -0.274 N 
ATOM     18  C   UNL     1      11.307 -54.976 -23.922  1.00  0.00     0.261 C 
ATOM     19  C   UNL     1      11.004 -55.006 -21.677  1.00  0.00     0.261 C 
ATOM     20  C   UNL     1      11.435 -56.363 -23.479  1.00  0.00     0.053 A 
ATOM     21  C   UNL     1      11.252 -56.381 -22.107  1.00  0.00     0.053 A 
ATOM     22  C   UNL     1      11.691 -57.513 -24.200  1.00  0.00     0.027 A 
ATOM     23  C   UNL     1      11.320 -57.551 -21.376  1.00  0.00     0.015 A 
ATOM     24  C   UNL     1      11.756 -58.719 -23.485  1.00  0.00     0.023 A 
ATOM     25  C   UNL     1      11.585 -58.733 -22.078  1.00  0.00     0.013 A 
ATOM     26  O   UNL     1      11.353 -54.607 -25.078  1.00  0.00    -0.269 OA
ATOM     27  O   UNL     1      10.736 -54.672 -20.538  1.00  0.00    -0.269 OA
BRANCH  24  28
ATOM     28  C   UNL     1      12.075 -59.957 -24.242  1.00  0.00     0.193 C 
ATOM     29  O   UNL     1      12.646 -60.871 -23.654  1.00  0.00    -0.289 OA
BRANCH  28  30
ATOM     30  C   UNL     1      11.720 -60.118 -25.672  1.00  0.00     0.022 A 
ATOM     31  C   UNL     1      12.601 -59.750 -26.696  1.00  0.00     0.012 A 
ATOM     32  C   UNL     1      10.485 -60.695 -25.989  1.00  0.00     0.012 A 
ATOM     33  C   UNL     1      12.229 -59.929 -28.030  1.00  0.00     0.001 A 
ATOM     34  C   UNL     1      10.118 -60.871 -27.324  1.00  0.00     0.001 A 
ATOM     35  C   UNL     1      10.988 -60.483 -28.342  1.00  0.00     0.000 A 
ENDBRANCH  28  30
ENDBRANCH  24  28
ENDBRANCH  16  17
ENDBRANCH   1  16
TORSDOF 7
ENDMDL
MODEL 8
REMARK VINA RESULT:   -10.790      2.262      3.978
REMARK INTER + INTRA:         -16.331
REMARK INTER:                 -15.612
REMARK INTRA:                  -0.719
REMARK UNBOUND:                -1.125
REMARK SMILES O=C(c1ccccc1)c1ccc2c(c1)C(=O)N(CC[C@H]1CC[N@@H+](Cc3ccccc3)CC1)C2=O
REMARK SMILES IDX 19 1 20 2 22 3 23 4 21 5 31 6 32 7 24 9 25 10 26 11 30 12
REMARK SMILES IDX 27 13 29 14 28 15 18 16 17 17 15 18 33 19 13 20 12 21 14 22
REMARK SMILES IDX 11 23 9 24 10 25 16 26 34 27 2 28 1 29 3 30 4 31 8 32 5 33
REMARK SMILES IDX 7 34 6 35
REMARK H PARENT 23 8
ROOT
ATOM      1  C   UNL     1      10.774 -57.227 -22.766  1.00  0.00     0.026 C 
ENDROOT
BRANCH   1   2
ATOM      2  C   UNL     1      10.082 -58.400 -22.033  1.00  0.00     0.002 C 
ATOM      3  C   UNL     1      11.367 -60.338 -23.097  1.00  0.00     0.262 C 
ATOM      4  N   UNL     1      10.082 -60.823 -23.718  1.00  0.00    -0.331 N 
ATOM      5  C   UNL     1      11.060 -59.568 -21.819  1.00  0.00     0.065 C 
ATOM      6  C   UNL     1       9.124 -59.694 -24.022  1.00  0.00     0.262 C 
ATOM      7  C   UNL     1       8.825 -58.920 -22.745  1.00  0.00     0.065 C 
ATOM      8  H   UNL     1       9.614 -61.430 -23.033  1.00  0.00     0.348 HD
BRANCH   4   9
ATOM      9  C   UNL     1      10.353 -61.698 -24.927  1.00  0.00     0.299 C 
BRANCH   9  10
ATOM     10  C   UNL     1      10.806 -60.918 -26.130  1.00  0.00     0.006 A 
ATOM     11  C   UNL     1      11.815 -59.949 -26.013  1.00  0.00     0.009 A 
ATOM     12  C   UNL     1      10.239 -61.158 -27.391  1.00  0.00     0.009 A 
ATOM     13  C   UNL     1      12.253 -59.244 -27.134  1.00  0.00     0.001 A 
ATOM     14  C   UNL     1      10.681 -60.452 -28.510  1.00  0.00     0.001 A 
ATOM     15  C   UNL     1      11.687 -59.498 -28.381  1.00  0.00     0.000 A 
ENDBRANCH   9  10
ENDBRANCH   4   9
ENDBRANCH   1   2
BRANCH   1  16
ATOM     16  C   UNL     1       9.858 -56.052 -23.143  1.00  0.00     0.129 C 
BRANCH  16  17
ATOM     17  N   UNL     1      10.557 -54.787 -23.220  1.00  0.00    -0.274 N 
ATOM     18  C   UNL     1      11.451 -54.472 -24.208  1.00  0.00     0.261 C 
ATOM     19  C   UNL     1      10.440 -53.779 -22.303  1.00  0.00     0.261 C 
ATOM     20  C   UNL     1      11.907 -53.109 -23.938  1.00  0.00     0.053 A 
ATOM     21  C   UNL     1      11.287 -52.685 -22.775  1.00  0.00     0.053 A 
ATOM     22  C   UNL     1      12.780 -52.302 -24.640  1.00  0.00     0.027 A 
ATOM     23  C   UNL     1      11.501 -51.426 -22.250  1.00  0.00     0.015 A 
ATOM     24  C   UNL     1      13.027 -51.020 -24.125  1.00  0.00     0.023 A 
ATOM     25  C   UNL     1      12.378 -50.581 -22.943  1.00  0.00     0.013 A 
ATOM     26  O   UNL     1      11.844 -55.169 -25.122  1.00  0.00    -0.269 OA
ATOM     27  O   UNL     1       9.803 -53.767 -21.267  1.00  0.00    -0.269 OA
BRANCH  24  28
ATOM     28  C   UNL     1      13.929 -50.125 -24.894  1.00  0.00     0.193 C 
ATOM     29  O   UNL     1      13.461 -49.099 -25.379  1.00  0.00    -0.289 OA
BRANCH  28  30
ATOM     30  C   UNL     1      15.367 -50.432 -25.082  1.00  0.00     0.022 A 
ATOM     31  C   UNL     1      16.090 -51.176 -24.142  1.00  0.00     0.012 A 
ATOM     32  C   UNL     1      15.991 -49.997 -26.257  1.00  0.00     0.012 A 
ATOM     33  C   UNL     1      17.441 -51.451 -24.365  1.00  0.00     0.001 A 
ATOM     34  C   UNL     1      17.342 -50.274 -26.473  1.00  0.00     0.001 A 
ATOM     35  C   UNL     1      18.066 -50.996 -25.525  1.00  0.00     0.000 A 
ENDBRANCH  28  30
ENDBRANCH  24  28
ENDBRANCH  16  17
ENDBRANCH   1  16
TORSDOF 7
ENDMDL
MODEL 9
REMARK VINA RESULT:   -10.660      3.188     12.867
REMARK INTER + INTRA:         -16.147
REMARK INTER:                 -14.964
REMARK INTRA:                  -1.183
REMARK UNBOUND:                -1.125
REMARK SMILES O=C(c1ccccc1)c1ccc2c(c1)C(=O)N(CC[C@H]1CC[N@@H+](Cc3ccccc3)CC1)C2=O
REMARK SMILES IDX 19 1 20 2 22 3 23 4 21 5 31 6 32 7 24 9 25 10 26 11 30 12
REMARK SMILES IDX 27 13 29 14 28 15 18 16 17 17 15 18 33 19 13 20 12 21 14 22
REMARK SMILES IDX 11 23 9 24 10 25 16 26 34 27 2 28 1 29 3 30 4 31 8 32 5 33
REMARK SMILES IDX 7 34 6 35
REMARK H PARENT 23 8
ROOT
ATOM      1  C   UNL     1      12.773 -47.881 -24.665  1.00  0.00     0.026 C 
ENDROOT
BRANCH   1   2
ATOM      2  C   UNL     1      11.762 -47.302 -23.647  1.00  0.00     0.002 C 
ATOM      3  C   UNL     1      11.819 -44.855 -24.387  1.00  0.00     0.262 C 
ATOM      4  N   UNL     1      12.392 -44.483 -23.044  1.00  0.00    -0.331 N 
ATOM      5  C   UNL     1      10.984 -46.123 -24.255  1.00  0.00     0.065 C 
ATOM      6  C   UNL     1      13.235 -45.587 -22.448  1.00  0.00     0.262 C 
ATOM      7  C   UNL     1      12.402 -46.856 -22.324  1.00  0.00     0.065 C 
ATOM      8  H   UNL     1      11.605 -44.332 -22.400  1.00  0.00     0.348 HD
BRANCH   4   9
ATOM      9  C   UNL     1      13.129 -43.159 -23.110  1.00  0.00     0.299 C 
BRANCH   9  10
ATOM     10  C   UNL     1      12.211 -41.979 -23.268  1.00  0.00     0.006 A 
ATOM     11  C   UNL     1      11.195 -41.737 -22.330  1.00  0.00     0.009 A 
ATOM     12  C   UNL     1      12.366 -41.093 -24.345  1.00  0.00     0.009 A 
ATOM     13  C   UNL     1      10.359 -40.628 -22.463  1.00  0.00     0.001 A 
ATOM     14  C   UNL     1      11.529 -39.984 -24.473  1.00  0.00     0.001 A 
ATOM     15  C   UNL     1      10.529 -39.752 -23.532  1.00  0.00     0.000 A 
ENDBRANCH   9  10
ENDBRANCH   4   9
ENDBRANCH   1   2
BRANCH   1  16
ATOM     16  C   UNL     1      13.748 -48.928 -24.104  1.00  0.00     0.129 C 
BRANCH  16  17
ATOM     17  N   UNL     1      13.168 -50.250 -24.003  1.00  0.00    -0.274 N 
ATOM     18  C   UNL     1      12.426 -50.674 -22.933  1.00  0.00     0.261 C 
ATOM     19  C   UNL     1      13.323 -51.239 -24.935  1.00  0.00     0.261 C 
ATOM     20  C   UNL     1      12.011 -52.044 -23.231  1.00  0.00     0.053 A 
ATOM     21  C   UNL     1      12.557 -52.388 -24.456  1.00  0.00     0.053 A 
ATOM     22  C   UNL     1      11.224 -52.918 -22.507  1.00  0.00     0.027 A 
ATOM     23  C   UNL     1      12.344 -53.626 -25.029  1.00  0.00     0.015 A 
ATOM     24  C   UNL     1      10.998 -54.188 -23.060  1.00  0.00     0.023 A 
ATOM     25  C   UNL     1      11.544 -54.533 -24.322  1.00  0.00     0.013 A 
ATOM     26  O   UNL     1      12.172 -50.077 -21.907  1.00  0.00    -0.269 OA
ATOM     27  O   UNL     1      13.989 -51.224 -25.953  1.00  0.00    -0.269 OA
BRANCH  24  28
ATOM     28  C   UNL     1      10.116 -55.123 -22.314  1.00  0.00     0.193 C 
ATOM     29  O   UNL     1       9.203 -54.654 -21.641  1.00  0.00    -0.289 OA
BRANCH  28  30
ATOM     30  C   UNL     1      10.305 -56.592 -22.367  1.00  0.00     0.022 A 
ATOM     31  C   UNL     1      11.323 -57.230 -21.647  1.00  0.00     0.012 A 
ATOM     32  C   UNL     1       9.407 -57.351 -23.126  1.00  0.00     0.012 A 
ATOM     33  C   UNL     1      11.458 -58.618 -21.718  1.00  0.00     0.001 A 
ATOM     34  C   UNL     1       9.548 -58.738 -23.194  1.00  0.00     0.001 A 
ATOM     35  C   UNL     1      10.575 -59.369 -22.494  1.00  0.00     0.000 A 
ENDBRANCH  28  30
ENDBRANCH  24  28
ENDBRANCH  16  17
ENDBRANCH   1  16
TORSDOF 7
ENDMDL
