MODEL 1
REMARK VINA RESULT:   -12.168      0.000      0.000
REMARK INTER + INTRA:         -16.216
REMARK INTER:                 -16.080
REMARK INTRA:                  -0.136
REMARK UNBOUND:                -0.136
REMARK SMILES O=C1C(=NCCNc2c3c(nc4cc(Cl)ccc24)CCCC3)CC(=O)c2c(O)cccc21
REMARK SMILES IDX 5 1 4 2 3 3 23 4 24 5 26 6 2 7 27 8 32 9 29 10 31 11 30 12
REMARK SMILES IDX 25 13 1 14 28 15 6 17 7 18 8 20 9 21 18 22 10 23 22 24 17 25
REMARK SMILES IDX 12 26 11 27 19 28 21 29 16 30 13 31 20 32 14 33 15 34
REMARK H PARENT 28 16 7 19
ROOT
ATOM      1  C   UNL     1       9.879 -58.417 -23.025  1.00  0.00     0.163 C 
ENDROOT
BRANCH   1   2
ATOM      2  N   UNL     1       9.728 -57.041 -23.508  1.00  0.00    -0.283 NA
BRANCH   2   3
ATOM      3  C   UNL     1      10.586 -56.148 -23.143  1.00  0.00     0.091 C 
ATOM      4  C   UNL     1      10.638 -55.712 -21.714  1.00  0.00     0.141 C 
ATOM      5  C   UNL     1      10.750 -54.223 -21.540  1.00  0.00     0.173 C 
ATOM      6  C   UNL     1      11.355 -53.412 -22.625  1.00  0.00     0.071 A 
ATOM      7  C   UNL     1      11.575 -55.450 -24.049  1.00  0.00     0.208 C 
ATOM      8  C   UNL     1      11.545 -52.034 -22.456  1.00  0.00     0.127 A 
ATOM      9  C   UNL     1      11.781 -54.011 -23.814  1.00  0.00     0.038 A 
ATOM     10  C   UNL     1      12.154 -51.271 -23.451  1.00  0.00     0.047 A 
ATOM     11  C   UNL     1      12.407 -53.248 -24.811  1.00  0.00     0.013 A 
ATOM     12  C   UNL     1      12.590 -51.878 -24.627  1.00  0.00     0.005 A 
ATOM     13  O   UNL     1      10.407 -53.665 -20.499  1.00  0.00    -0.294 OA
ATOM     14  O   UNL     1      12.166 -56.056 -24.926  1.00  0.00    -0.287 OA
BRANCH   8  15
ATOM     15  O   UNL     1      11.165 -51.354 -21.330  1.00  0.00    -0.507 OA
ATOM     16  H   UNL     1      10.389 -51.811 -20.930  1.00  0.00     0.293 HD
ENDBRANCH   8  15
ENDBRANCH   2   3
ENDBRANCH   1   2
BRANCH   1  17
ATOM     17  C   UNL     1      11.299 -58.911 -23.347  1.00  0.00     0.136 C 
BRANCH  17  18
ATOM     18  N   UNL     1      11.318 -60.384 -23.404  1.00  0.00    -0.382 N 
ATOM     19  H   UNL     1      12.274 -60.719 -23.480  1.00  0.00     0.160 HD
BRANCH  18  20
ATOM     20  C   UNL     1      10.528 -60.880 -24.484  1.00  0.00     0.049 A 
ATOM     21  C   UNL     1       9.471 -61.784 -24.254  1.00  0.00    -0.003 A 
ATOM     22  C   UNL     1      10.880 -60.536 -25.818  1.00  0.00     0.024 A 
ATOM     23  C   UNL     1       8.830 -62.326 -25.372  1.00  0.00     0.046 A 
ATOM     24  C   UNL     1       9.078 -62.218 -22.861  1.00  0.00     0.039 C 
ATOM     25  C   UNL     1      11.905 -59.616 -26.143  1.00  0.00     0.014 A 
ATOM     26  C   UNL     1      10.150 -61.132 -26.865  1.00  0.00     0.074 A 
ATOM     27  N   UNL     1       9.156 -62.002 -26.647  1.00  0.00    -0.252 NA
ATOM     28  C   UNL     1       7.681 -63.293 -25.242  1.00  0.00     0.056 C 
ATOM     29  C   UNL     1       7.738 -62.949 -22.780  1.00  0.00     0.005 C 
ATOM     30  C   UNL     1      12.207 -59.309 -27.468  1.00  0.00     0.021 A 
ATOM     31  C   UNL     1      10.464 -60.815 -28.178  1.00  0.00     0.049 A 
ATOM     32  C   UNL     1       7.628 -63.986 -23.886  1.00  0.00     0.007 C 
ATOM     33  C   UNL     1      11.482 -59.915 -28.482  1.00  0.00     0.043 A 
ATOM     34  Cl  UNL     1      11.840 -59.549 -30.125  1.00  0.00    -0.084 Cl
ENDBRANCH  18  20
ENDBRANCH  17  18
ENDBRANCH   1  17
TORSDOF 6
ENDMDL
MODEL 2
REMARK VINA RESULT:   -12.024      1.079      2.078
REMARK INTER + INTRA:         -16.026
REMARK INTER:                 -15.424
REMARK INTRA:                  -0.602
REMARK UNBOUND:                -0.136
REMARK SMILES O=C1C(=NCCNc2c3c(nc4cc(Cl)ccc24)CCCC3)CC(=O)c2c(O)cccc21
REMARK SMILES IDX 5 1 4 2 3 3 23 4 24 5 26 6 2 7 27 8 32 9 29 10 31 11 30 12
REMARK SMILES IDX 25 13 1 14 28 15 6 17 7 18 8 20 9 21 18 22 10 23 22 24 17 25
REMARK SMILES IDX 12 26 11 27 19 28 21 29 16 30 13 31 20 32 14 33 15 34
REMARK H PARENT 28 16 7 19
ROOT
ATOM      1  C   UNL     1      11.590 -57.900 -22.721  1.00  0.00     0.163 C 
ENDROOT
BRANCH   1   2
ATOM      2  N   UNL     1      11.020 -56.748 -22.018  1.00  0.00    -0.283 NA
BRANCH   2   3
ATOM      3  C   UNL     1      10.861 -55.636 -22.655  1.00  0.00     0.091 C 
ATOM      4  C   UNL     1      11.125 -55.582 -24.126  1.00  0.00     0.141 C 
ATOM      5  C   UNL     1      11.911 -54.375 -24.555  1.00  0.00     0.173 C 
ATOM      6  C   UNL     1      11.857 -53.146 -23.727  1.00  0.00     0.071 A 
ATOM      7  C   UNL     1      10.436 -54.320 -22.046  1.00  0.00     0.208 C 
ATOM      8  C   UNL     1      12.515 -51.981 -24.146  1.00  0.00     0.127 A 
ATOM      9  C   UNL     1      11.119 -53.113 -22.541  1.00  0.00     0.038 A 
ATOM     10  C   UNL     1      12.432 -50.807 -23.398  1.00  0.00     0.047 A 
ATOM     11  C   UNL     1      11.023 -51.930 -21.794  1.00  0.00     0.013 A 
ATOM     12  C   UNL     1      11.682 -50.779 -22.224  1.00  0.00     0.005 A 
ATOM     13  O   UNL     1      12.553 -54.360 -25.605  1.00  0.00    -0.294 OA
ATOM     14  O   UNL     1       9.571 -54.270 -21.188  1.00  0.00    -0.287 OA
BRANCH   8  15
ATOM     15  O   UNL     1      13.261 -51.909 -25.292  1.00  0.00    -0.507 OA
ATOM     16  H   UNL     1      13.921 -51.184 -25.196  1.00  0.00     0.293 HD
ENDBRANCH   8  15
ENDBRANCH   2   3
ENDBRANCH   1   2
BRANCH   1  17
ATOM     17  C   UNL     1      10.525 -59.005 -22.823  1.00  0.00     0.136 C 
BRANCH  17  18
ATOM     18  N   UNL     1      11.126 -60.233 -23.376  1.00  0.00    -0.382 N 
ATOM     19  H   UNL     1      12.104 -60.073 -23.601  1.00  0.00     0.160 HD
BRANCH  18  20
ATOM     20  C   UNL     1      10.418 -60.695 -24.525  1.00  0.00     0.049 A 
ATOM     21  C   UNL     1       9.359 -61.618 -24.402  1.00  0.00    -0.003 A 
ATOM     22  C   UNL     1      10.855 -60.295 -25.818  1.00  0.00     0.024 A 
ATOM     23  C   UNL     1       8.804 -62.123 -25.582  1.00  0.00     0.046 A 
ATOM     24  C   UNL     1       8.878 -62.110 -23.057  1.00  0.00     0.039 C 
ATOM     25  C   UNL     1      11.888 -59.353 -26.037  1.00  0.00     0.014 A 
ATOM     26  C   UNL     1      10.206 -60.858 -26.934  1.00  0.00     0.074 A 
ATOM     27  N   UNL     1       9.211 -61.747 -26.818  1.00  0.00    -0.252 NA
ATOM     28  C   UNL     1       7.661 -63.107 -25.567  1.00  0.00     0.056 C 
ATOM     29  C   UNL     1       7.546 -62.857 -23.096  1.00  0.00     0.005 C 
ATOM     30  C   UNL     1      12.275 -58.991 -27.325  1.00  0.00     0.021 A 
ATOM     31  C   UNL     1      10.605 -60.488 -28.210  1.00  0.00     0.049 A 
ATOM     32  C   UNL     1       7.525 -63.852 -24.246  1.00  0.00     0.007 C 
ATOM     33  C   UNL     1      11.629 -59.566 -28.410  1.00  0.00     0.043 A 
ATOM     34  Cl  UNL     1      12.093 -59.133 -30.009  1.00  0.00    -0.084 Cl
ENDBRANCH  18  20
ENDBRANCH  17  18
ENDBRANCH   1  17
TORSDOF 6
ENDMDL
MODEL 3
REMARK VINA RESULT:   -11.864      3.611      8.896
REMARK INTER + INTRA:         -15.815
REMARK INTER:                 -15.305
REMARK INTRA:                  -0.510
REMARK UNBOUND:                -0.136
REMARK SMILES O=C1C(=NCCNc2c3c(nc4cc(Cl)ccc24)CCCC3)CC(=O)c2c(O)cccc21
REMARK SMILES IDX 5 1 4 2 3 3 23 4 24 5 26 6 2 7 27 8 32 9 29 10 31 11 30 12
REMARK SMILES IDX 25 13 1 14 28 15 6 17 7 18 8 20 9 21 18 22 10 23 22 24 17 25
REMARK SMILES IDX 12 26 11 27 19 28 21 29 16 30 13 31 20 32 14 33 15 34
REMARK H PARENT 28 16 7 19
ROOT
ATOM      1  C   UNL     1      12.502 -56.895 -26.364  1.00  0.00     0.163 C 
ENDROOT
BRANCH   1   2
ATOM      2  N   UNL     1      12.505 -57.778 -25.195  1.00  0.00    -0.283 NA
BRANCH   2   3
ATOM      3  C   UNL     1      12.209 -59.025 -25.345  1.00  0.00     0.091 C 
ATOM      4  C   UNL     1      11.730 -59.517 -26.673  1.00  0.00     0.141 C 
ATOM      5  C   UNL     1      10.548 -60.440 -26.586  1.00  0.00     0.173 C 
ATOM      6  C   UNL     1      10.329 -61.218 -25.342  1.00  0.00     0.071 A 
ATOM      7  C   UNL     1      12.279 -60.087 -24.271  1.00  0.00     0.208 C 
ATOM      8  C   UNL     1       9.281 -62.146 -25.263  1.00  0.00     0.127 A 
ATOM      9  C   UNL     1      11.183 -61.070 -24.246  1.00  0.00     0.038 A 
ATOM     10  C   UNL     1       9.096 -62.915 -24.115  1.00  0.00     0.047 A 
ATOM     11  C   UNL     1      11.006 -61.853 -23.095  1.00  0.00     0.013 A 
ATOM     12  C   UNL     1       9.960 -62.773 -23.032  1.00  0.00     0.005 A 
ATOM     13  O   UNL     1       9.788 -60.613 -27.539  1.00  0.00    -0.294 OA
ATOM     14  O   UNL     1      13.198 -60.118 -23.472  1.00  0.00    -0.287 OA
BRANCH   8  15
ATOM     15  O   UNL     1       8.392 -62.366 -26.281  1.00  0.00    -0.507 OA
ATOM     16  H   UNL     1       7.775 -63.085 -26.013  1.00  0.00     0.293 HD
ENDBRANCH   8  15
ENDBRANCH   2   3
ENDBRANCH   1   2
BRANCH   1  17
ATOM     17  C   UNL     1      13.137 -55.548 -25.980  1.00  0.00     0.136 C 
BRANCH  17  18
ATOM     18  N   UNL     1      12.141 -54.468 -26.104  1.00  0.00    -0.382 N 
ATOM     19  H   UNL     1      12.290 -53.952 -26.966  1.00  0.00     0.160 HD
BRANCH  18  20
ATOM     20  C   UNL     1      12.175 -53.587 -24.982  1.00  0.00     0.049 A 
ATOM     21  C   UNL     1      11.487 -53.901 -23.792  1.00  0.00    -0.003 A 
ATOM     22  C   UNL     1      12.827 -52.330 -25.105  1.00  0.00     0.024 A 
ATOM     23  C   UNL     1      11.459 -52.929 -22.788  1.00  0.00     0.046 A 
ATOM     24  C   UNL     1      10.742 -55.204 -23.618  1.00  0.00     0.039 C 
ATOM     25  C   UNL     1      13.566 -51.941 -26.249  1.00  0.00     0.014 A 
ATOM     26  C   UNL     1      12.746 -51.438 -24.018  1.00  0.00     0.074 A 
ATOM     27  N   UNL     1      12.080 -51.730 -22.894  1.00  0.00    -0.252 NA
ATOM     28  C   UNL     1      10.762 -53.163 -21.471  1.00  0.00     0.056 C 
ATOM     29  C   UNL     1      10.321 -55.505 -22.181  1.00  0.00     0.005 C 
ATOM     30  C   UNL     1      14.191 -50.698 -26.317  1.00  0.00     0.021 A 
ATOM     31  C   UNL     1      13.374 -50.204 -24.103  1.00  0.00     0.049 A 
ATOM     32  C   UNL     1       9.717 -54.269 -21.532  1.00  0.00     0.007 C 
ATOM     33  C   UNL     1      14.089 -49.832 -25.239  1.00  0.00     0.043 A 
ATOM     34  Cl  UNL     1      14.854 -48.293 -25.304  1.00  0.00    -0.084 Cl
ENDBRANCH  18  20
ENDBRANCH  17  18
ENDBRANCH   1  17
TORSDOF 6
ENDMDL
MODEL 4
REMARK VINA RESULT:   -11.337      2.179      4.272
REMARK INTER + INTRA:         -15.117
REMARK INTER:                 -14.918
REMARK INTRA:                  -0.199
REMARK UNBOUND:                -0.136
REMARK SMILES O=C1C(=NCCNc2c3c(nc4cc(Cl)ccc24)CCCC3)CC(=O)c2c(O)cccc21
REMARK SMILES IDX 5 1 4 2 3 3 23 4 24 5 26 6 2 7 27 8 32 9 29 10 31 11 30 12
REMARK SMILES IDX 25 13 1 14 28 15 6 17 7 18 8 20 9 21 18 22 10 23 22 24 17 25
REMARK SMILES IDX 12 26 11 27 19 28 21 29 16 30 13 31 20 32 14 33 15 34
REMARK H PARENT 28 16 7 19
ROOT
ATOM      1  C   UNL     1      11.284 -57.740 -23.481  1.00  0.00     0.163 C 
ENDROOT
BRANCH   1   2
ATOM      2  N   UNL     1      11.266 -56.584 -22.581  1.00  0.00    -0.283 NA
BRANCH   2   3
ATOM      3  C   UNL     1      11.089 -55.404 -23.073  1.00  0.00     0.091 C 
ATOM      4  C   UNL     1      11.413 -55.144 -24.509  1.00  0.00     0.141 C 
ATOM      5  C   UNL     1      12.167 -53.865 -24.737  1.00  0.00     0.173 C 
ATOM      6  C   UNL     1      12.028 -52.759 -23.758  1.00  0.00     0.071 A 
ATOM      7  C   UNL     1      10.585 -54.196 -22.316  1.00  0.00     0.208 C 
ATOM      8  C   UNL     1      12.655 -51.527 -23.988  1.00  0.00     0.127 A 
ATOM      9  C   UNL     1      11.239 -52.911 -22.614  1.00  0.00     0.038 A 
ATOM     10  C   UNL     1      12.493 -50.467 -23.097  1.00  0.00     0.047 A 
ATOM     11  C   UNL     1      11.063 -51.842 -21.724  1.00  0.00     0.013 A 
ATOM     12  C   UNL     1      11.693 -50.621 -21.967  1.00  0.00     0.005 A 
ATOM     13  O   UNL     1      12.852 -53.687 -25.744  1.00  0.00    -0.294 OA
ATOM     14  O   UNL     1       9.683 -54.292 -21.501  1.00  0.00    -0.287 OA
BRANCH   8  15
ATOM     15  O   UNL     1      13.446 -51.277 -25.078  1.00  0.00    -0.507 OA
ATOM     16  H   UNL     1      14.265 -50.820 -24.777  1.00  0.00     0.293 HD
ENDBRANCH   8  15
ENDBRANCH   2   3
ENDBRANCH   1   2
BRANCH   1  17
ATOM     17  C   UNL     1      11.826 -58.962 -22.721  1.00  0.00     0.136 C 
BRANCH  17  18
ATOM     18  N   UNL     1      12.557 -59.846 -23.647  1.00  0.00    -0.382 N 
ATOM     19  H   UNL     1      13.275 -59.321 -24.138  1.00  0.00     0.160 HD
BRANCH  18  20
ATOM     20  C   UNL     1      11.679 -60.480 -24.576  1.00  0.00     0.049 A 
ATOM     21  C   UNL     1      11.684 -60.123 -25.940  1.00  0.00    -0.003 A 
ATOM     22  C   UNL     1      10.716 -61.412 -24.097  1.00  0.00     0.024 A 
ATOM     23  C   UNL     1      10.705 -60.693 -26.759  1.00  0.00     0.046 A 
ATOM     24  C   UNL     1      12.656 -59.110 -26.498  1.00  0.00     0.039 C 
ATOM     25  C   UNL     1      10.655 -61.851 -22.753  1.00  0.00     0.014 A 
ATOM     26  C   UNL     1       9.791 -61.934 -25.022  1.00  0.00     0.074 A 
ATOM     27  N   UNL     1       9.786 -61.583 -26.313  1.00  0.00    -0.252 NA
ATOM     28  C   UNL     1      10.625 -60.390 -28.234  1.00  0.00     0.056 C 
ATOM     29  C   UNL     1      12.723 -59.072 -28.024  1.00  0.00     0.005 C 
ATOM     30  C   UNL     1       9.695 -62.770 -22.336  1.00  0.00     0.021 A 
ATOM     31  C   UNL     1       8.841 -62.848 -24.589  1.00  0.00     0.049 A 
ATOM     32  C   UNL     1      11.325 -59.094 -28.621  1.00  0.00     0.007 C 
ATOM     33  C   UNL     1       8.788 -63.264 -23.262  1.00  0.00     0.043 A 
ATOM     34  Cl  UNL     1       7.594 -64.399 -22.766  1.00  0.00    -0.084 Cl
ENDBRANCH  18  20
ENDBRANCH  17  18
ENDBRANCH   1  17
TORSDOF 6
ENDMDL
MODEL 5
REMARK VINA RESULT:   -11.314      1.695      3.638
REMARK INTER + INTRA:         -15.088
REMARK INTER:                 -15.150
REMARK INTRA:                   0.063
REMARK UNBOUND:                -0.136
REMARK SMILES O=C1C(=NCCNc2c3c(nc4cc(Cl)ccc24)CCCC3)CC(=O)c2c(O)cccc21
REMARK SMILES IDX 5 1 4 2 3 3 23 4 24 5 26 6 2 7 27 8 32 9 29 10 31 11 30 12
REMARK SMILES IDX 25 13 1 14 28 15 6 17 7 18 8 20 9 21 18 22 10 23 22 24 17 25
REMARK SMILES IDX 12 26 11 27 19 28 21 29 16 30 13 31 20 32 14 33 15 34
REMARK H PARENT 28 16 7 19
ROOT
ATOM      1  C   UNL     1       9.846 -58.443 -23.083  1.00  0.00     0.163 C 
ENDROOT
BRANCH   1   2
ATOM      2  N   UNL     1       9.702 -57.059 -23.543  1.00  0.00    -0.283 NA
BRANCH   2   3
ATOM      3  C   UNL     1      10.577 -56.181 -23.181  1.00  0.00     0.091 C 
ATOM      4  C   UNL     1      10.636 -55.738 -21.754  1.00  0.00     0.141 C 
ATOM      5  C   UNL     1      10.776 -54.252 -21.587  1.00  0.00     0.173 C 
ATOM      6  C   UNL     1      11.398 -53.458 -22.675  1.00  0.00     0.071 A 
ATOM      7  C   UNL     1      11.580 -55.506 -24.089  1.00  0.00     0.208 C 
ATOM      8  C   UNL     1      11.615 -52.082 -22.512  1.00  0.00     0.127 A 
ATOM      9  C   UNL     1      11.814 -54.070 -23.861  1.00  0.00     0.038 A 
ATOM     10  C   UNL     1      12.240 -51.336 -23.510  1.00  0.00     0.047 A 
ATOM     11  C   UNL     1      12.455 -53.324 -24.860  1.00  0.00     0.013 A 
ATOM     12  C   UNL     1      12.665 -51.957 -24.683  1.00  0.00     0.005 A 
ATOM     13  O   UNL     1      10.443 -53.682 -20.549  1.00  0.00    -0.294 OA
ATOM     14  O   UNL     1      12.160 -56.127 -24.962  1.00  0.00    -0.287 OA
BRANCH   8  15
ATOM     15  O   UNL     1      11.246 -51.390 -21.389  1.00  0.00    -0.507 OA
ATOM     16  H   UNL     1      12.030 -51.301 -20.800  1.00  0.00     0.293 HD
ENDBRANCH   8  15
ENDBRANCH   2   3
ENDBRANCH   1   2
BRANCH   1  17
ATOM     17  C   UNL     1      11.181 -59.008 -23.598  1.00  0.00     0.136 C 
BRANCH  17  18
ATOM     18  N   UNL     1      11.108 -60.478 -23.675  1.00  0.00    -0.382 N 
ATOM     19  H   UNL     1      12.023 -60.883 -23.500  1.00  0.00     0.160 HD
BRANCH  18  20
ATOM     20  C   UNL     1      10.600 -60.916 -24.934  1.00  0.00     0.049 A 
ATOM     21  C   UNL     1      11.099 -60.386 -26.142  1.00  0.00    -0.003 A 
ATOM     22  C   UNL     1       9.506 -61.824 -24.965  1.00  0.00     0.024 A 
ATOM     23  C   UNL     1      10.461 -60.767 -27.326  1.00  0.00     0.046 A 
ATOM     24  C   UNL     1      12.233 -59.387 -26.169  1.00  0.00     0.039 C 
ATOM     25  C   UNL     1       8.960 -62.429 -23.807  1.00  0.00     0.014 A 
ATOM     26  C   UNL     1       8.957 -62.149 -26.220  1.00  0.00     0.074 A 
ATOM     27  N   UNL     1       9.421 -61.634 -27.365  1.00  0.00    -0.252 NA
ATOM     28  C   UNL     1      10.918 -60.269 -28.673  1.00  0.00     0.056 C 
ATOM     29  C   UNL     1      12.839 -59.156 -27.552  1.00  0.00     0.005 C 
ATOM     30  C   UNL     1       7.891 -63.317 -23.892  1.00  0.00     0.021 A 
ATOM     31  C   UNL     1       7.891 -63.035 -26.287  1.00  0.00     0.049 A 
ATOM     32  C   UNL     1      11.744 -58.991 -28.595  1.00  0.00     0.007 C 
ATOM     33  C   UNL     1       7.359 -63.614 -25.138  1.00  0.00     0.043 A 
ATOM     34  Cl  UNL     1       6.037 -64.708 -25.264  1.00  0.00    -0.084 Cl
ENDBRANCH  18  20
ENDBRANCH  17  18
ENDBRANCH   1  17
TORSDOF 6
ENDMDL
MODEL 6
REMARK VINA RESULT:   -11.007      5.913      9.459
REMARK INTER + INTRA:         -14.681
REMARK INTER:                 -13.761
REMARK INTRA:                  -0.920
REMARK UNBOUND:                -0.136
REMARK SMILES O=C1C(=NCCNc2c3c(nc4cc(Cl)ccc24)CCCC3)CC(=O)c2c(O)cccc21
REMARK SMILES IDX 5 1 4 2 3 3 23 4 24 5 26 6 2 7 27 8 32 9 29 10 31 11 30 12
REMARK SMILES IDX 25 13 1 14 28 15 6 17 7 18 8 20 9 21 18 22 10 23 22 24 17 25
REMARK SMILES IDX 12 26 11 27 19 28 21 29 16 30 13 31 20 32 14 33 15 34
REMARK H PARENT 28 16 7 19
ROOT
ATOM      1  C   UNL     1      10.255 -48.638 -22.821  1.00  0.00     0.163 C 
ENDROOT
BRANCH   1   2
ATOM      2  N   UNL     1      10.262 -47.449 -21.964  1.00  0.00    -0.283 NA
BRANCH   2   3
ATOM      3  C   UNL     1      11.010 -46.446 -22.282  1.00  0.00     0.091 C 
ATOM      4  C   UNL     1      10.393 -45.102 -22.502  1.00  0.00     0.141 C 
ATOM      5  C   UNL     1      10.911 -44.390 -23.719  1.00  0.00     0.173 C 
ATOM      6  C   UNL     1      12.266 -44.717 -24.226  1.00  0.00     0.071 A 
ATOM      7  C   UNL     1      12.508 -46.489 -22.486  1.00  0.00     0.208 C 
ATOM      8  C   UNL     1      12.806 -44.011 -25.310  1.00  0.00     0.127 A 
ATOM      9  C   UNL     1      13.043 -45.702 -23.609  1.00  0.00     0.038 A 
ATOM     10  C   UNL     1      14.096 -44.280 -25.764  1.00  0.00     0.047 A 
ATOM     11  C   UNL     1      14.347 -45.964 -24.055  1.00  0.00     0.013 A 
ATOM     12  C   UNL     1      14.870 -45.252 -25.134  1.00  0.00     0.005 A 
ATOM     13  O   UNL     1      10.265 -43.502 -24.274  1.00  0.00    -0.294 OA
ATOM     14  O   UNL     1      13.226 -47.146 -21.753  1.00  0.00    -0.287 OA
BRANCH   8  15
ATOM     15  O   UNL     1      12.128 -43.028 -25.980  1.00  0.00    -0.507 OA
ATOM     16  H   UNL     1      12.777 -42.471 -26.468  1.00  0.00     0.293 HD
ENDBRANCH   8  15
ENDBRANCH   2   3
ENDBRANCH   1   2
BRANCH   1  17
ATOM     17  C   UNL     1      10.230 -49.896 -21.936  1.00  0.00     0.136 C 
BRANCH  17  18
ATOM     18  N   UNL     1      11.580 -50.482 -21.857  1.00  0.00    -0.382 N 
ATOM     19  H   UNL     1      12.281 -49.747 -21.857  1.00  0.00     0.160 HD
BRANCH  18  20
ATOM     20  C   UNL     1      11.820 -51.401 -22.922  1.00  0.00     0.049 A 
ATOM     21  C   UNL     1      11.400 -52.743 -22.831  1.00  0.00    -0.003 A 
ATOM     22  C   UNL     1      12.583 -50.978 -24.046  1.00  0.00     0.024 A 
ATOM     23  C   UNL     1      11.787 -53.611 -23.856  1.00  0.00     0.046 A 
ATOM     24  C   UNL     1      10.622 -53.259 -21.643  1.00  0.00     0.039 C 
ATOM     25  C   UNL     1      13.021 -49.646 -24.236  1.00  0.00     0.014 A 
ATOM     26  C   UNL     1      12.897 -51.940 -25.026  1.00  0.00     0.074 A 
ATOM     27  N   UNL     1      12.511 -53.218 -24.931  1.00  0.00    -0.252 NA
ATOM     28  C   UNL     1      11.385 -55.064 -23.865  1.00  0.00     0.056 C 
ATOM     29  C   UNL     1       9.994 -54.637 -21.848  1.00  0.00     0.005 C 
ATOM     30  C   UNL     1      13.762 -49.282 -25.358  1.00  0.00     0.021 A 
ATOM     31  C   UNL     1      13.637 -51.561 -26.136  1.00  0.00     0.049 A 
ATOM     32  C   UNL     1      10.992 -55.588 -22.489  1.00  0.00     0.007 C 
ATOM     33  C   UNL     1      14.069 -50.248 -26.305  1.00  0.00     0.043 A 
ATOM     34  Cl  UNL     1      14.984 -49.819 -27.697  1.00  0.00    -0.084 Cl
ENDBRANCH  18  20
ENDBRANCH  17  18
ENDBRANCH   1  17
TORSDOF 6
ENDMDL
MODEL 7
REMARK VINA RESULT:   -10.893      5.917      9.994
REMARK INTER + INTRA:         -14.531
REMARK INTER:                 -13.538
REMARK INTRA:                  -0.993
REMARK UNBOUND:                -0.136
REMARK SMILES O=C1C(=NCCNc2c3c(nc4cc(Cl)ccc24)CCCC3)CC(=O)c2c(O)cccc21
REMARK SMILES IDX 5 1 4 2 3 3 23 4 24 5 26 6 2 7 27 8 32 9 29 10 31 11 30 12
REMARK SMILES IDX 25 13 1 14 28 15 6 17 7 18 8 20 9 21 18 22 10 23 22 24 17 25
REMARK SMILES IDX 12 26 11 27 19 28 21 29 16 30 13 31 20 32 14 33 15 34
REMARK H PARENT 28 16 7 19
ROOT
ATOM      1  C   UNL     1      10.232 -48.536 -22.869  1.00  0.00     0.163 C 
ENDROOT
BRANCH   1   2
ATOM      2  N   UNL     1      10.354 -47.410 -21.940  1.00  0.00    -0.283 NA
BRANCH   2   3
ATOM      3  C   UNL     1      11.080 -46.395 -22.271  1.00  0.00     0.091 C 
ATOM      4  C   UNL     1      10.431 -45.072 -22.520  1.00  0.00     0.141 C 
ATOM      5  C   UNL     1      10.941 -44.370 -23.747  1.00  0.00     0.173 C 
ATOM      6  C   UNL     1      12.309 -44.672 -24.236  1.00  0.00     0.071 A 
ATOM      7  C   UNL     1      12.580 -46.404 -22.461  1.00  0.00     0.208 C 
ATOM      8  C   UNL     1      12.839 -43.973 -25.329  1.00  0.00     0.127 A 
ATOM      9  C   UNL     1      13.104 -45.624 -23.595  1.00  0.00     0.038 A 
ATOM     10  C   UNL     1      14.140 -44.217 -25.768  1.00  0.00     0.047 A 
ATOM     11  C   UNL     1      14.418 -45.862 -24.025  1.00  0.00     0.013 A 
ATOM     12  C   UNL     1      14.932 -45.158 -25.114  1.00  0.00     0.005 A 
ATOM     13  O   UNL     1      10.278 -43.509 -24.324  1.00  0.00    -0.294 OA
ATOM     14  O   UNL     1      13.308 -47.029 -21.710  1.00  0.00    -0.287 OA
BRANCH   8  15
ATOM     15  O   UNL     1      12.142 -43.020 -26.024  1.00  0.00    -0.507 OA
ATOM     16  H   UNL     1      12.711 -42.223 -26.127  1.00  0.00     0.293 HD
ENDBRANCH   8  15
ENDBRANCH   2   3
ENDBRANCH   1   2
BRANCH   1  17
ATOM     17  C   UNL     1      10.200 -49.849 -22.068  1.00  0.00     0.136 C 
BRANCH  17  18
ATOM     18  N   UNL     1      11.573 -50.343 -21.857  1.00  0.00    -0.382 N 
ATOM     19  H   UNL     1      12.227 -49.565 -21.850  1.00  0.00     0.160 HD
BRANCH  18  20
ATOM     20  C   UNL     1      11.947 -51.301 -22.845  1.00  0.00     0.049 A 
ATOM     21  C   UNL     1      12.757 -50.936 -23.940  1.00  0.00    -0.003 A 
ATOM     22  C   UNL     1      11.411 -52.617 -22.776  1.00  0.00     0.024 A 
ATOM     23  C   UNL     1      12.970 -51.896 -24.933  1.00  0.00     0.046 A 
ATOM     24  C   UNL     1      13.321 -49.542 -24.088  1.00  0.00     0.039 C 
ATOM     25  C   UNL     1      10.615 -53.081 -21.701  1.00  0.00     0.014 A 
ATOM     26  C   UNL     1      11.711 -53.504 -23.828  1.00  0.00     0.074 A 
ATOM     27  N   UNL     1      12.466 -53.153 -24.875  1.00  0.00    -0.252 NA
ATOM     28  C   UNL     1      13.827 -51.617 -26.142  1.00  0.00     0.056 C 
ATOM     29  C   UNL     1      14.408 -49.410 -25.154  1.00  0.00     0.005 C 
ATOM     30  C   UNL     1      10.118 -54.382 -21.679  1.00  0.00     0.021 A 
ATOM     31  C   UNL     1      11.207 -54.797 -23.790  1.00  0.00     0.049 A 
ATOM     32  C   UNL     1      13.996 -50.130 -26.429  1.00  0.00     0.007 C 
ATOM     33  C   UNL     1      10.418 -55.235 -22.731  1.00  0.00     0.043 A 
ATOM     34  Cl  UNL     1       9.813 -56.846 -22.722  1.00  0.00    -0.084 Cl
ENDBRANCH  18  20
ENDBRANCH  17  18
ENDBRANCH   1  17
TORSDOF 6
ENDMDL
MODEL 8
REMARK VINA RESULT:    -9.875      7.104     11.391
REMARK INTER + INTRA:         -13.186
REMARK INTER:                 -12.480
REMARK INTRA:                  -0.705
REMARK UNBOUND:                -0.136
REMARK SMILES O=C1C(=NCCNc2c3c(nc4cc(Cl)ccc24)CCCC3)CC(=O)c2c(O)cccc21
REMARK SMILES IDX 5 1 4 2 3 3 23 4 24 5 26 6 2 7 27 8 32 9 29 10 31 11 30 12
REMARK SMILES IDX 25 13 1 14 28 15 6 17 7 18 8 20 9 21 18 22 10 23 22 24 17 25
REMARK SMILES IDX 12 26 11 27 19 28 21 29 16 30 13 31 20 32 14 33 15 34
REMARK H PARENT 28 16 7 19
ROOT
ATOM      1  C   UNL     1      10.689 -46.879 -22.529  1.00  0.00     0.163 C 
ENDROOT
BRANCH   1   2
ATOM      2  N   UNL     1      11.197 -46.236 -23.744  1.00  0.00    -0.283 NA
BRANCH   2   3
ATOM      3  C   UNL     1      11.819 -45.108 -23.647  1.00  0.00     0.091 C 
ATOM      4  C   UNL     1      13.305 -45.094 -23.487  1.00  0.00     0.141 C 
ATOM      5  C   UNL     1      13.792 -44.132 -22.441  1.00  0.00     0.173 C 
ATOM      6  C   UNL     1      12.960 -42.950 -22.104  1.00  0.00     0.071 A 
ATOM      7  C   UNL     1      11.176 -43.740 -23.659  1.00  0.00     0.208 C 
ATOM      8  C   UNL     1      13.428 -41.994 -21.192  1.00  0.00     0.127 A 
ATOM      9  C   UNL     1      11.721 -42.748 -22.717  1.00  0.00     0.038 A 
ATOM     10  C   UNL     1      12.674 -40.857 -20.903  1.00  0.00     0.047 A 
ATOM     11  C   UNL     1      10.968 -41.598 -22.438  1.00  0.00     0.013 A 
ATOM     12  C   UNL     1      11.446 -40.655 -21.529  1.00  0.00     0.005 A 
ATOM     13  O   UNL     1      14.888 -44.265 -21.898  1.00  0.00    -0.294 OA
ATOM     14  O   UNL     1      10.255 -43.481 -24.414  1.00  0.00    -0.287 OA
BRANCH   8  15
ATOM     15  O   UNL     1      14.627 -42.098 -20.540  1.00  0.00    -0.507 OA
ATOM     16  H   UNL     1      14.768 -43.038 -20.282  1.00  0.00     0.293 HD
ENDBRANCH   8  15
ENDBRANCH   2   3
ENDBRANCH   1   2
BRANCH   1  17
ATOM     17  C   UNL     1      10.644 -48.401 -22.747  1.00  0.00     0.136 C 
BRANCH  17  18
ATOM     18  N   UNL     1      11.913 -49.010 -22.308  1.00  0.00    -0.382 N 
ATOM     19  H   UNL     1      12.645 -48.306 -22.273  1.00  0.00     0.160 HD
BRANCH  18  20
ATOM     20  C   UNL     1      12.300 -50.092 -23.153  1.00  0.00     0.049 A 
ATOM     21  C   UNL     1      13.092 -49.871 -24.298  1.00  0.00    -0.003 A 
ATOM     22  C   UNL     1      11.793 -51.395 -22.890  1.00  0.00     0.024 A 
ATOM     23  C   UNL     1      13.318 -50.959 -25.146  1.00  0.00     0.046 A 
ATOM     24  C   UNL     1      13.625 -48.502 -24.650  1.00  0.00     0.039 C 
ATOM     25  C   UNL     1      11.016 -51.716 -21.752  1.00  0.00     0.014 A 
ATOM     26  C   UNL     1      12.103 -52.418 -23.808  1.00  0.00     0.074 A 
ATOM     27  N   UNL     1      12.842 -52.204 -24.903  1.00  0.00    -0.252 NA
ATOM     28  C   UNL     1      14.159 -50.838 -26.391  1.00  0.00     0.056 C 
ATOM     29  C   UNL     1      14.700 -48.501 -25.736  1.00  0.00     0.005 C 
ATOM     30  C   UNL     1      10.547 -53.010 -21.539  1.00  0.00     0.021 A 
ATOM     31  C   UNL     1      11.628 -53.701 -23.580  1.00  0.00     0.049 A 
ATOM     32  C   UNL     1      14.294 -49.405 -26.889  1.00  0.00     0.007 C 
ATOM     33  C   UNL     1      10.856 -53.999 -22.460  1.00  0.00     0.043 A 
ATOM     34  Cl  UNL     1      10.287 -55.604 -22.215  1.00  0.00    -0.084 Cl
ENDBRANCH  18  20
ENDBRANCH  17  18
ENDBRANCH   1  17
TORSDOF 6
ENDMDL
MODEL 9
REMARK VINA RESULT:    -9.696      7.863     11.450
REMARK INTER + INTRA:         -12.950
REMARK INTER:                 -10.149
REMARK INTRA:                  -2.800
REMARK UNBOUND:                -0.136
REMARK SMILES O=C1C(=NCCNc2c3c(nc4cc(Cl)ccc24)CCCC3)CC(=O)c2c(O)cccc21
REMARK SMILES IDX 5 1 4 2 3 3 23 4 24 5 26 6 2 7 27 8 32 9 29 10 31 11 30 12
REMARK SMILES IDX 25 13 1 14 28 15 6 17 7 18 8 20 9 21 18 22 10 23 22 24 17 25
REMARK SMILES IDX 12 26 11 27 19 28 21 29 16 30 13 31 20 32 14 33 15 34
REMARK H PARENT 28 16 7 19
ROOT
ATOM      1  C   UNL     1      15.134 -46.399 -23.098  1.00  0.00     0.163 C 
ENDROOT
BRANCH   1   2
ATOM      2  N   UNL     1      16.436 -46.723 -22.508  1.00  0.00    -0.283 NA
BRANCH   2   3
ATOM      3  C   UNL     1      17.100 -47.733 -22.961  1.00  0.00     0.091 C 
ATOM      4  C   UNL     1      17.972 -47.567 -24.164  1.00  0.00     0.141 C 
ATOM      5  C   UNL     1      17.839 -48.679 -25.166  1.00  0.00     0.173 C 
ATOM      6  C   UNL     1      17.392 -50.017 -24.706  1.00  0.00     0.071 A 
ATOM      7  C   UNL     1      17.074 -49.134 -22.393  1.00  0.00     0.208 C 
ATOM      8  C   UNL     1      17.337 -51.092 -25.604  1.00  0.00     0.127 A 
ATOM      9  C   UNL     1      17.060 -50.239 -23.367  1.00  0.00     0.038 A 
ATOM     10  C   UNL     1      16.963 -52.363 -25.171  1.00  0.00     0.047 A 
ATOM     11  C   UNL     1      16.696 -51.521 -22.927  1.00  0.00     0.013 A 
ATOM     12  C   UNL     1      16.647 -52.580 -23.832  1.00  0.00     0.005 A 
ATOM     13  O   UNL     1      18.145 -48.526 -26.348  1.00  0.00    -0.294 OA
ATOM     14  O   UNL     1      17.066 -49.329 -21.190  1.00  0.00    -0.287 OA
BRANCH   8  15
ATOM     15  O   UNL     1      17.644 -50.978 -26.934  1.00  0.00    -0.507 OA
ATOM     16  H   UNL     1      18.068 -50.102 -27.088  1.00  0.00     0.293 HD
ENDBRANCH   8  15
ENDBRANCH   2   3
ENDBRANCH   1   2
BRANCH   1  17
ATOM     17  C   UNL     1      14.236 -47.646 -23.050  1.00  0.00     0.136 C 
BRANCH  17  18
ATOM     18  N   UNL     1      13.331 -47.659 -24.213  1.00  0.00    -0.382 N 
ATOM     19  H   UNL     1      12.387 -47.895 -23.920  1.00  0.00     0.160 HD
BRANCH  18  20
ATOM     20  C   UNL     1      13.781 -48.562 -25.222  1.00  0.00     0.049 A 
ATOM     21  C   UNL     1      14.460 -48.093 -26.365  1.00  0.00    -0.003 A 
ATOM     22  C   UNL     1      13.448 -49.941 -25.119  1.00  0.00     0.024 A 
ATOM     23  C   UNL     1      14.752 -49.022 -27.368  1.00  0.00     0.046 A 
ATOM     24  C   UNL     1      14.805 -46.634 -26.548  1.00  0.00     0.039 C 
ATOM     25  C   UNL     1      12.795 -50.506 -23.997  1.00  0.00     0.014 A 
ATOM     26  C   UNL     1      13.810 -50.786 -26.186  1.00  0.00     0.074 A 
ATOM     27  N   UNL     1      14.441 -50.338 -27.278  1.00  0.00    -0.252 NA
ATOM     28  C   UNL     1      15.484 -48.632 -28.627  1.00  0.00     0.056 C 
ATOM     29  C   UNL     1      15.794 -46.355 -27.679  1.00  0.00     0.005 C 
ATOM     30  C   UNL     1      12.496 -51.865 -23.944  1.00  0.00     0.021 A 
ATOM     31  C   UNL     1      13.504 -52.137 -26.117  1.00  0.00     0.049 A 
ATOM     32  C   UNL     1      15.416 -47.140 -28.925  1.00  0.00     0.007 C 
ATOM     33  C   UNL     1      12.853 -52.676 -25.011  1.00  0.00     0.043 A 
ATOM     34  Cl  UNL     1      12.492 -54.358 -24.964  1.00  0.00    -0.084 Cl
ENDBRANCH  18  20
ENDBRANCH  17  18
ENDBRANCH   1  17
TORSDOF 6
ENDMDL
