MODEL 1
REMARK VINA RESULT:    -9.729      0.000      0.000
REMARK INTER + INTRA:         -14.427
REMARK INTER:                 -13.425
REMARK INTRA:                  -1.002
REMARK UNBOUND:                -1.002
REMARK SMILES COc1ccc(OC)c([C@@H]2C=C(c3cc(F)ccc3F)NN2c2ccc(S(N)(=O)=O)cc2)c1
REMARK SMILES IDX 23 1 24 2 25 3 26 4 31 5 32 6 22 7 21 8 12 9 11 10 10 11
REMARK SMILES IDX 13 13 14 14 19 15 15 16 18 17 17 18 20 19 16 20 9 21 33 22
REMARK SMILES IDX 6 23 3 24 5 25 4 26 7 27 8 28 2 29 1 30 27 31 29 32 30 33
REMARK SMILES IDX 28 34
REMARK H PARENT 21 12 28 35 28 36
ROOT
ATOM      1  C   UNL     1      12.120 -52.229 -23.572  1.00  0.00     0.058 A 
ATOM      2  C   UNL     1      12.311 -53.214 -24.556  1.00  0.00     0.029 A 
ATOM      3  C   UNL     1      11.848 -54.524 -24.385  1.00  0.00     0.024 A 
ATOM      4  C   UNL     1      11.182 -54.870 -23.211  1.00  0.00     0.082 A 
ATOM      5  C   UNL     1      10.998 -53.929 -22.201  1.00  0.00     0.024 A 
ATOM      6  C   UNL     1      11.465 -52.624 -22.388  1.00  0.00     0.029 A 
ENDROOT
BRANCH   1   7
ATOM      7  N   UNL     1      12.589 -50.911 -23.717  1.00  0.00    -0.276 N 
ATOM      8  N   UNL     1      11.851 -49.804 -23.318  1.00  0.00    -0.297 N 
ATOM      9  C   UNL     1      12.218 -48.680 -24.045  1.00  0.00     0.063 C 
ATOM     10  C   UNL     1      13.095 -49.029 -24.999  1.00  0.00     0.033 C 
ATOM     11  C   UNL     1      13.416 -50.515 -24.905  1.00  0.00     0.165 C 
ATOM     12  H   UNL     1      11.807 -49.630 -22.311  1.00  0.00     0.188 HD
BRANCH   9  13
ATOM     13  C   UNL     1      11.712 -47.339 -23.726  1.00  0.00     0.038 A 
ATOM     14  C   UNL     1      12.234 -46.204 -24.363  1.00  0.00     0.052 A 
ATOM     15  C   UNL     1      10.682 -47.146 -22.792  1.00  0.00     0.132 A 
ATOM     16  C   UNL     1      11.740 -44.936 -24.061  1.00  0.00     0.124 A 
ATOM     17  C   UNL     1      10.190 -45.875 -22.491  1.00  0.00     0.043 A 
ATOM     18  C   UNL     1      10.724 -44.760 -23.130  1.00  0.00     0.042 A 
ATOM     19  F   UNL     1      10.145 -48.195 -22.145  1.00  0.00    -0.206 F 
ATOM     20  F   UNL     1      12.253 -43.866 -24.682  1.00  0.00    -0.207 F 
ENDBRANCH   9  13
BRANCH  11  21
ATOM     21  C   UNL     1      14.906 -50.746 -24.700  1.00  0.00     0.026 A 
ATOM     22  C   UNL     1      15.427 -50.993 -23.414  1.00  0.00     0.056 A 
ATOM     23  C   UNL     1      15.795 -50.674 -25.787  1.00  0.00     0.124 A 
ATOM     24  C   UNL     1      16.793 -51.191 -23.203  1.00  0.00     0.119 A 
ATOM     25  C   UNL     1      17.165 -50.872 -25.574  1.00  0.00     0.050 A 
ATOM     26  C   UNL     1      17.659 -51.132 -24.290  1.00  0.00     0.050 A 
BRANCH  23  27
ATOM     27  O   UNL     1      15.234 -50.405 -27.008  1.00  0.00    -0.496 OA
ATOM     28  C   UNL     1      15.727 -49.282 -27.728  1.00  0.00     0.278 C 
ENDBRANCH  23  27
BRANCH  24  29
ATOM     29  O   UNL     1      17.145 -51.424 -21.903  1.00  0.00    -0.497 OA
ATOM     30  C   UNL     1      17.820 -50.377 -21.219  1.00  0.00     0.278 C 
ENDBRANCH  24  29
ENDBRANCH  11  21
ENDBRANCH   1   7
BRANCH   4  31
ATOM     31  S   UNL     1      10.590 -56.526 -22.996  1.00  0.00     0.238 S 
ATOM     32  O   UNL     1       9.229 -56.596 -23.474  1.00  0.00    -0.207 OA
ATOM     33  O   UNL     1      10.979 -56.988 -21.685  1.00  0.00    -0.207 OA
BRANCH  31  34
ATOM     34  N   UNL     1      11.513 -57.358 -24.133  1.00  0.00    -0.225 NA
ATOM     35  H   UNL     1      11.512 -58.368 -23.985  1.00  0.00     0.137 HD
ATOM     36  H   UNL     1      12.459 -56.975 -24.130  1.00  0.00     0.137 HD
ENDBRANCH  31  34
ENDBRANCH   4  31
TORSDOF 7
ENDMDL
MODEL 2
REMARK VINA RESULT:    -9.188      4.449      7.580
REMARK INTER + INTRA:         -13.681
REMARK INTER:                 -12.443
REMARK INTRA:                  -1.238
REMARK UNBOUND:                -1.002
REMARK SMILES COc1ccc(OC)c([C@@H]2C=C(c3cc(F)ccc3F)NN2c2ccc(S(N)(=O)=O)cc2)c1
REMARK SMILES IDX 23 1 24 2 25 3 26 4 31 5 32 6 22 7 21 8 12 9 11 10 10 11
REMARK SMILES IDX 13 13 14 14 19 15 15 16 18 17 17 18 20 19 16 20 9 21 33 22
REMARK SMILES IDX 6 23 3 24 5 25 4 26 7 27 8 28 2 29 1 30 27 31 29 32 30 33
REMARK SMILES IDX 28 34
REMARK H PARENT 21 12 28 35 28 36
ROOT
ATOM      1  C   UNL     1      13.838 -49.169 -25.532  1.00  0.00     0.058 A 
ATOM      2  C   UNL     1      14.078 -47.798 -25.725  1.00  0.00     0.029 A 
ATOM      3  C   UNL     1      14.678 -47.313 -26.893  1.00  0.00     0.024 A 
ATOM      4  C   UNL     1      15.054 -48.206 -27.895  1.00  0.00     0.082 A 
ATOM      5  C   UNL     1      14.859 -49.574 -27.728  1.00  0.00     0.024 A 
ATOM      6  C   UNL     1      14.256 -50.043 -26.556  1.00  0.00     0.029 A 
ENDROOT
BRANCH   1   7
ATOM      7  N   UNL     1      13.250 -49.678 -24.361  1.00  0.00    -0.276 N 
ATOM      8  N   UNL     1      12.987 -51.031 -24.181  1.00  0.00    -0.297 N 
ATOM      9  C   UNL     1      11.946 -51.215 -23.283  1.00  0.00     0.063 C 
ATOM     10  C   UNL     1      11.427 -50.023 -22.948  1.00  0.00     0.033 C 
ATOM     11  C   UNL     1      12.200 -48.899 -23.624  1.00  0.00     0.165 C 
ATOM     12  H   UNL     1      13.796 -51.625 -23.980  1.00  0.00     0.188 HD
BRANCH   9  13
ATOM     13  C   UNL     1      11.561 -52.542 -22.787  1.00  0.00     0.038 A 
ATOM     14  C   UNL     1      11.194 -52.730 -21.447  1.00  0.00     0.052 A 
ATOM     15  C   UNL     1      11.529 -53.661 -23.635  1.00  0.00     0.132 A 
ATOM     16  C   UNL     1      10.820 -53.992 -20.989  1.00  0.00     0.124 A 
ATOM     17  C   UNL     1      11.155 -54.924 -23.173  1.00  0.00     0.043 A 
ATOM     18  C   UNL     1      10.798 -55.092 -21.839  1.00  0.00     0.042 A 
ATOM     19  F   UNL     1      11.875 -53.544 -24.928  1.00  0.00    -0.206 F 
ATOM     20  F   UNL     1      10.472 -54.148 -19.705  1.00  0.00    -0.207 F 
ENDBRANCH   9  13
BRANCH  11  21
ATOM     21  C   UNL     1      12.779 -47.934 -22.602  1.00  0.00     0.026 A 
ATOM     22  C   UNL     1      14.033 -48.181 -22.005  1.00  0.00     0.056 A 
ATOM     23  C   UNL     1      12.053 -46.798 -22.201  1.00  0.00     0.124 A 
ATOM     24  C   UNL     1      14.574 -47.316 -21.052  1.00  0.00     0.119 A 
ATOM     25  C   UNL     1      12.597 -45.932 -21.245  1.00  0.00     0.050 A 
ATOM     26  C   UNL     1      13.851 -46.188 -20.678  1.00  0.00     0.050 A 
BRANCH  23  27
ATOM     27  O   UNL     1      10.831 -46.624 -22.796  1.00  0.00    -0.496 OA
ATOM     28  C   UNL     1      10.586 -45.385 -23.450  1.00  0.00     0.278 C 
ENDBRANCH  23  27
BRANCH  24  29
ATOM     29  O   UNL     1      15.798 -47.687 -20.570  1.00  0.00    -0.497 OA
ATOM     30  C   UNL     1      16.599 -48.508 -21.409  1.00  0.00     0.278 C 
ENDBRANCH  24  29
ENDBRANCH  11  21
ENDBRANCH   1   7
BRANCH   4  31
ATOM     31  S   UNL     1      15.808 -47.593 -29.376  1.00  0.00     0.238 S 
ATOM     32  O   UNL     1      17.147 -48.126 -29.467  1.00  0.00    -0.207 OA
ATOM     33  O   UNL     1      15.523 -46.183 -29.489  1.00  0.00    -0.207 OA
BRANCH  31  34
ATOM     34  N   UNL     1      14.919 -48.398 -30.559  1.00  0.00    -0.225 NA
ATOM     35  H   UNL     1      14.932 -49.411 -30.447  1.00  0.00     0.137 HD
ATOM     36  H   UNL     1      15.264 -48.113 -31.477  1.00  0.00     0.137 HD
ENDBRANCH  31  34
ENDBRANCH   4  31
TORSDOF 7
ENDMDL
MODEL 3
REMARK VINA RESULT:    -9.088      4.376      7.730
REMARK INTER + INTRA:         -13.543
REMARK INTER:                 -12.035
REMARK INTRA:                  -1.508
REMARK UNBOUND:                -1.002
REMARK SMILES COc1ccc(OC)c([C@@H]2C=C(c3cc(F)ccc3F)NN2c2ccc(S(N)(=O)=O)cc2)c1
REMARK SMILES IDX 23 1 24 2 25 3 26 4 31 5 32 6 22 7 21 8 12 9 11 10 10 11
REMARK SMILES IDX 13 13 14 14 19 15 15 16 18 17 17 18 20 19 16 20 9 21 33 22
REMARK SMILES IDX 6 23 3 24 5 25 4 26 7 27 8 28 2 29 1 30 27 31 29 32 30 33
REMARK SMILES IDX 28 34
REMARK H PARENT 21 12 28 35 28 36
ROOT
ATOM      1  C   UNL     1      12.633 -47.472 -24.087  1.00  0.00     0.058 A 
ATOM      2  C   UNL     1      13.512 -46.421 -24.400  1.00  0.00     0.029 A 
ATOM      3  C   UNL     1      13.121 -45.080 -24.299  1.00  0.00     0.024 A 
ATOM      4  C   UNL     1      11.828 -44.771 -23.881  1.00  0.00     0.082 A 
ATOM      5  C   UNL     1      10.920 -45.785 -23.590  1.00  0.00     0.024 A 
ATOM      6  C   UNL     1      11.326 -47.119 -23.694  1.00  0.00     0.029 A 
ENDROOT
BRANCH   1   7
ATOM      7  N   UNL     1      13.000 -48.825 -24.195  1.00  0.00    -0.276 N 
ATOM      8  N   UNL     1      12.117 -49.865 -23.934  1.00  0.00    -0.297 N 
ATOM      9  C   UNL     1      12.802 -51.009 -23.552  1.00  0.00     0.063 C 
ATOM     10  C   UNL     1      14.110 -50.730 -23.434  1.00  0.00     0.033 C 
ATOM     11  C   UNL     1      14.379 -49.281 -23.818  1.00  0.00     0.165 C 
ATOM     12  H   UNL     1      11.408 -50.046 -24.651  1.00  0.00     0.188 HD
BRANCH   9  13
ATOM     13  C   UNL     1      12.132 -52.302 -23.367  1.00  0.00     0.038 A 
ATOM     14  C   UNL     1      11.439 -52.590 -22.182  1.00  0.00     0.052 A 
ATOM     15  C   UNL     1      12.143 -53.284 -24.371  1.00  0.00     0.132 A 
ATOM     16  C   UNL     1      10.798 -53.817 -22.021  1.00  0.00     0.124 A 
ATOM     17  C   UNL     1      11.501 -54.512 -24.206  1.00  0.00     0.043 A 
ATOM     18  C   UNL     1      10.823 -54.782 -23.022  1.00  0.00     0.042 A 
ATOM     19  F   UNL     1      12.795 -53.068 -25.526  1.00  0.00    -0.206 F 
ATOM     20  F   UNL     1      10.141 -54.070 -20.882  1.00  0.00    -0.207 F 
ENDBRANCH   9  13
BRANCH  11  21
ATOM     21  C   UNL     1      15.374 -49.189 -24.965  1.00  0.00     0.026 A 
ATOM     22  C   UNL     1      14.960 -49.397 -26.297  1.00  0.00     0.056 A 
ATOM     23  C   UNL     1      16.734 -48.937 -24.712  1.00  0.00     0.124 A 
ATOM     24  C   UNL     1      15.861 -49.334 -27.362  1.00  0.00     0.119 A 
ATOM     25  C   UNL     1      17.636 -48.874 -25.781  1.00  0.00     0.050 A 
ATOM     26  C   UNL     1      17.201 -49.068 -27.097  1.00  0.00     0.050 A 
BRANCH  23  27
ATOM     27  O   UNL     1      17.081 -48.769 -23.397  1.00  0.00    -0.496 OA
ATOM     28  C   UNL     1      18.038 -49.667 -22.847  1.00  0.00     0.278 C 
ENDBRANCH  23  27
BRANCH  24  29
ATOM     29  O   UNL     1      15.310 -49.552 -28.594  1.00  0.00    -0.497 OA
ATOM     30  C   UNL     1      15.193 -48.428 -29.456  1.00  0.00     0.278 C 
ENDBRANCH  24  29
ENDBRANCH  11  21
ENDBRANCH   1   7
BRANCH   4  31
ATOM     31  S   UNL     1      11.334 -43.075 -23.748  1.00  0.00     0.238 S 
ATOM     32  O   UNL     1      12.422 -42.239 -24.200  1.00  0.00    -0.207 OA
ATOM     33  O   UNL     1      10.683 -42.883 -22.474  1.00  0.00    -0.207 OA
BRANCH  31  34
ATOM     34  N   UNL     1      10.158 -42.975 -24.950  1.00  0.00    -0.225 NA
ATOM     35  H   UNL     1       9.565 -43.804 -24.997  1.00  0.00     0.137 HD
ATOM     36  H   UNL     1      10.618 -42.786 -25.842  1.00  0.00     0.137 HD
ENDBRANCH  31  34
ENDBRANCH   4  31
TORSDOF 7
ENDMDL
MODEL 4
REMARK VINA RESULT:    -9.007      4.462      7.425
REMARK INTER + INTRA:         -13.432
REMARK INTER:                 -11.790
REMARK INTRA:                  -1.642
REMARK UNBOUND:                -1.002
REMARK SMILES COc1ccc(OC)c([C@@H]2C=C(c3cc(F)ccc3F)NN2c2ccc(S(N)(=O)=O)cc2)c1
REMARK SMILES IDX 23 1 24 2 25 3 26 4 31 5 32 6 22 7 21 8 12 9 11 10 10 11
REMARK SMILES IDX 13 13 14 14 19 15 15 16 18 17 17 18 20 19 16 20 9 21 33 22
REMARK SMILES IDX 6 23 3 24 5 25 4 26 7 27 8 28 2 29 1 30 27 31 29 32 30 33
REMARK SMILES IDX 28 34
REMARK H PARENT 21 12 28 35 28 36
ROOT
ATOM      1  C   UNL     1      16.878 -50.967 -25.234  1.00  0.00     0.058 A 
ATOM      2  C   UNL     1      17.732 -49.889 -24.941  1.00  0.00     0.029 A 
ATOM      3  C   UNL     1      19.119 -49.986 -25.101  1.00  0.00     0.024 A 
ATOM      4  C   UNL     1      19.678 -51.178 -25.559  1.00  0.00     0.082 A 
ATOM      5  C   UNL     1      18.867 -52.276 -25.833  1.00  0.00     0.024 A 
ATOM      6  C   UNL     1      17.482 -52.163 -25.670  1.00  0.00     0.029 A 
ENDROOT
BRANCH   1   7
ATOM      7  N   UNL     1      15.484 -50.896 -25.067  1.00  0.00    -0.276 N 
ATOM      8  N   UNL     1      14.770 -51.828 -24.324  1.00  0.00    -0.297 N 
ATOM      9  C   UNL     1      13.454 -51.898 -24.757  1.00  0.00     0.063 C 
ATOM     10  C   UNL     1      13.297 -51.126 -25.844  1.00  0.00     0.033 C 
ATOM     11  C   UNL     1      14.598 -50.409 -26.176  1.00  0.00     0.165 C 
ATOM     12  H   UNL     1      14.851 -51.753 -23.307  1.00  0.00     0.188 HD
BRANCH   9  13
ATOM     13  C   UNL     1      12.435 -52.685 -24.051  1.00  0.00     0.038 A 
ATOM     14  C   UNL     1      11.911 -52.247 -22.826  1.00  0.00     0.052 A 
ATOM     15  C   UNL     1      11.937 -53.886 -24.581  1.00  0.00     0.132 A 
ATOM     16  C   UNL     1      10.937 -52.997 -22.168  1.00  0.00     0.124 A 
ATOM     17  C   UNL     1      10.962 -54.635 -23.920  1.00  0.00     0.043 A 
ATOM     18  C   UNL     1      10.458 -54.187 -22.703  1.00  0.00     0.042 A 
ATOM     19  F   UNL     1      12.405 -54.359 -25.749  1.00  0.00    -0.206 F 
ATOM     20  F   UNL     1      10.450 -52.559 -21.000  1.00  0.00    -0.207 F 
ENDBRANCH   9  13
BRANCH  11  21
ATOM     21  C   UNL     1      14.413 -48.899 -26.174  1.00  0.00     0.026 A 
ATOM     22  C   UNL     1      13.656 -48.266 -25.167  1.00  0.00     0.056 A 
ATOM     23  C   UNL     1      14.960 -48.112 -27.204  1.00  0.00     0.124 A 
ATOM     24  C   UNL     1      13.460 -46.884 -25.158  1.00  0.00     0.119 A 
ATOM     25  C   UNL     1      14.762 -46.726 -27.193  1.00  0.00     0.050 A 
ATOM     26  C   UNL     1      14.020 -46.117 -26.174  1.00  0.00     0.050 A 
BRANCH  23  27
ATOM     27  O   UNL     1      15.664 -48.785 -28.168  1.00  0.00    -0.496 OA
ATOM     28  C   UNL     1      15.375 -48.483 -29.528  1.00  0.00     0.278 C 
ENDBRANCH  23  27
BRANCH  24  29
ATOM     29  O   UNL     1      12.708 -46.418 -24.115  1.00  0.00    -0.497 OA
ATOM     30  C   UNL     1      11.323 -46.735 -24.127  1.00  0.00     0.278 C 
ENDBRANCH  24  29
ENDBRANCH  11  21
ENDBRANCH   1   7
BRANCH   4  31
ATOM     31  S   UNL     1      21.433 -51.299 -25.768  1.00  0.00     0.238 S 
ATOM     32  O   UNL     1      21.962 -52.162 -24.738  1.00  0.00    -0.207 OA
ATOM     33  O   UNL     1      21.959 -49.979 -26.023  1.00  0.00    -0.207 OA
BRANCH  31  34
ATOM     34  N   UNL     1      21.537 -52.184 -27.198  1.00  0.00    -0.225 NA
ATOM     35  H   UNL     1      22.453 -52.612 -27.335  1.00  0.00     0.137 HD
ATOM     36  H   UNL     1      21.281 -51.576 -27.977  1.00  0.00     0.137 HD
ENDBRANCH  31  34
ENDBRANCH   4  31
TORSDOF 7
ENDMDL
MODEL 5
REMARK VINA RESULT:    -8.928      3.048      5.802
REMARK INTER + INTRA:         -13.322
REMARK INTER:                 -11.978
REMARK INTRA:                  -1.345
REMARK UNBOUND:                -1.002
REMARK SMILES COc1ccc(OC)c([C@@H]2C=C(c3cc(F)ccc3F)NN2c2ccc(S(N)(=O)=O)cc2)c1
REMARK SMILES IDX 23 1 24 2 25 3 26 4 31 5 32 6 22 7 21 8 12 9 11 10 10 11
REMARK SMILES IDX 13 13 14 14 19 15 15 16 18 17 17 18 20 19 16 20 9 21 33 22
REMARK SMILES IDX 6 23 3 24 5 25 4 26 7 27 8 28 2 29 1 30 27 31 29 32 30 33
REMARK SMILES IDX 28 34
REMARK H PARENT 21 12 28 35 28 36
ROOT
ATOM      1  C   UNL     1      12.847 -51.489 -24.574  1.00  0.00     0.058 A 
ATOM      2  C   UNL     1      12.082 -51.339 -23.405  1.00  0.00     0.029 A 
ATOM      3  C   UNL     1      11.369 -52.408 -22.850  1.00  0.00     0.024 A 
ATOM      4  C   UNL     1      11.411 -53.657 -23.467  1.00  0.00     0.082 A 
ATOM      5  C   UNL     1      12.135 -53.838 -24.643  1.00  0.00     0.024 A 
ATOM      6  C   UNL     1      12.843 -52.760 -25.184  1.00  0.00     0.029 A 
ENDROOT
BRANCH   1   7
ATOM      7  N   UNL     1      13.558 -50.426 -25.157  1.00  0.00    -0.276 N 
ATOM      8  N   UNL     1      13.983 -50.442 -26.479  1.00  0.00    -0.297 N 
ATOM      9  C   UNL     1      15.090 -49.625 -26.651  1.00  0.00     0.063 C 
ATOM     10  C   UNL     1      15.490 -49.155 -25.460  1.00  0.00     0.033 C 
ATOM     11  C   UNL     1      14.555 -49.637 -24.359  1.00  0.00     0.165 C 
ATOM     12  H   UNL     1      13.260 -50.288 -27.188  1.00  0.00     0.188 HD
BRANCH   9  13
ATOM     13  C   UNL     1      15.652 -49.332 -27.975  1.00  0.00     0.038 A 
ATOM     14  C   UNL     1      14.860 -48.763 -28.983  1.00  0.00     0.052 A 
ATOM     15  C   UNL     1      17.000 -49.590 -28.274  1.00  0.00     0.132 A 
ATOM     16  C   UNL     1      15.406 -48.479 -30.234  1.00  0.00     0.124 A 
ATOM     17  C   UNL     1      17.544 -49.305 -29.528  1.00  0.00     0.043 A 
ATOM     18  C   UNL     1      16.740 -48.746 -30.517  1.00  0.00     0.042 A 
ATOM     19  F   UNL     1      17.808 -50.139 -27.351  1.00  0.00    -0.206 F 
ATOM     20  F   UNL     1      14.630 -47.935 -31.181  1.00  0.00    -0.207 F 
ENDBRANCH   9  13
BRANCH  11  21
ATOM     21  C   UNL     1      13.932 -48.468 -23.611  1.00  0.00     0.026 A 
ATOM     22  C   UNL     1      12.762 -47.846 -24.091  1.00  0.00     0.056 A 
ATOM     23  C   UNL     1      14.540 -47.960 -22.449  1.00  0.00     0.124 A 
ATOM     24  C   UNL     1      12.185 -46.761 -23.428  1.00  0.00     0.119 A 
ATOM     25  C   UNL     1      13.960 -46.872 -21.786  1.00  0.00     0.050 A 
ATOM     26  C   UNL     1      12.788 -46.279 -22.272  1.00  0.00     0.050 A 
BRANCH  23  27
ATOM     27  O   UNL     1      15.688 -48.588 -22.045  1.00  0.00    -0.496 OA
ATOM     28  C   UNL     1      16.342 -48.087 -20.886  1.00  0.00     0.278 C 
ENDBRANCH  23  27
BRANCH  24  29
ATOM     29  O   UNL     1      11.051 -46.269 -24.012  1.00  0.00    -0.497 OA
ATOM     30  C   UNL     1      10.619 -44.980 -23.598  1.00  0.00     0.278 C 
ENDBRANCH  24  29
ENDBRANCH  11  21
ENDBRANCH   1   7
BRANCH   4  31
ATOM     31  S   UNL     1      10.514 -55.012 -22.762  1.00  0.00     0.238 S 
ATOM     32  O   UNL     1      11.428 -55.816 -21.983  1.00  0.00    -0.207 OA
ATOM     33  O   UNL     1       9.654 -55.574 -23.776  1.00  0.00    -0.207 OA
BRANCH  31  34
ATOM     34  N   UNL     1       9.540 -54.218 -21.639  1.00  0.00    -0.225 NA
ATOM     35  H   UNL     1       8.873 -53.580 -22.072  1.00  0.00     0.137 HD
ATOM     36  H   UNL     1      10.141 -53.741 -20.966  1.00  0.00     0.137 HD
ENDBRANCH  31  34
ENDBRANCH   4  31
TORSDOF 7
ENDMDL
MODEL 6
REMARK VINA RESULT:    -8.840      7.249     11.465
REMARK INTER + INTRA:         -13.200
REMARK INTER:                 -12.004
REMARK INTRA:                  -1.196
REMARK UNBOUND:                -1.002
REMARK SMILES COc1ccc(OC)c([C@@H]2C=C(c3cc(F)ccc3F)NN2c2ccc(S(N)(=O)=O)cc2)c1
REMARK SMILES IDX 23 1 24 2 25 3 26 4 31 5 32 6 22 7 21 8 12 9 11 10 10 11
REMARK SMILES IDX 13 13 14 14 19 15 15 16 18 17 17 18 20 19 16 20 9 21 33 22
REMARK SMILES IDX 6 23 3 24 5 25 4 26 7 27 8 28 2 29 1 30 27 31 29 32 30 33
REMARK SMILES IDX 28 34
REMARK H PARENT 21 12 28 35 28 36
ROOT
ATOM      1  C   UNL     1      10.295 -57.537 -23.509  1.00  0.00     0.058 A 
ATOM      2  C   UNL     1      11.265 -57.303 -22.519  1.00  0.00     0.029 A 
ATOM      3  C   UNL     1      11.375 -56.065 -21.876  1.00  0.00     0.024 A 
ATOM      4  C   UNL     1      10.508 -55.030 -22.221  1.00  0.00     0.082 A 
ATOM      5  C   UNL     1       9.553 -55.215 -23.217  1.00  0.00     0.024 A 
ATOM      6  C   UNL     1       9.453 -56.459 -23.849  1.00  0.00     0.029 A 
ENDROOT
BRANCH   1   7
ATOM      7  N   UNL     1      10.175 -58.768 -24.177  1.00  0.00    -0.276 N 
ATOM      8  N   UNL     1       9.309 -59.769 -23.757  1.00  0.00    -0.297 N 
ATOM      9  C   UNL     1       9.757 -61.014 -24.172  1.00  0.00     0.063 C 
ATOM     10  C   UNL     1      10.959 -60.887 -24.756  1.00  0.00     0.033 C 
ATOM     11  C   UNL     1      11.371 -59.423 -24.805  1.00  0.00     0.165 C 
ATOM     12  H   UNL     1       8.315 -59.617 -23.952  1.00  0.00     0.188 HD
BRANCH   9  13
ATOM     13  C   UNL     1       8.957 -62.234 -24.003  1.00  0.00     0.038 A 
ATOM     14  C   UNL     1       8.054 -62.644 -24.994  1.00  0.00     0.052 A 
ATOM     15  C   UNL     1       9.080 -63.039 -22.858  1.00  0.00     0.132 A 
ATOM     16  C   UNL     1       7.306 -63.809 -24.828  1.00  0.00     0.124 A 
ATOM     17  C   UNL     1       8.329 -64.204 -22.695  1.00  0.00     0.043 A 
ATOM     18  C   UNL     1       7.434 -64.593 -23.687  1.00  0.00     0.042 A 
ATOM     19  F   UNL     1       9.925 -62.694 -21.872  1.00  0.00    -0.206 F 
ATOM     20  F   UNL     1       6.450 -64.183 -25.787  1.00  0.00    -0.207 F 
ENDBRANCH   9  13
BRANCH  11  21
ATOM     21  C   UNL     1      11.620 -58.967 -26.235  1.00  0.00     0.026 A 
ATOM     22  C   UNL     1      11.299 -59.801 -27.325  1.00  0.00     0.056 A 
ATOM     23  C   UNL     1      12.217 -57.719 -26.492  1.00  0.00     0.124 A 
ATOM     24  C   UNL     1      11.536 -59.407 -28.643  1.00  0.00     0.119 A 
ATOM     25  C   UNL     1      12.454 -57.326 -27.815  1.00  0.00     0.050 A 
ATOM     26  C   UNL     1      12.113 -58.165 -28.883  1.00  0.00     0.050 A 
BRANCH  23  27
ATOM     27  O   UNL     1      12.531 -56.963 -25.393  1.00  0.00    -0.496 OA
ATOM     28  C   UNL     1      12.824 -55.587 -25.601  1.00  0.00     0.278 C 
ENDBRANCH  23  27
BRANCH  24  29
ATOM     29  O   UNL     1      11.167 -60.322 -29.590  1.00  0.00    -0.497 OA
ATOM     30  C   UNL     1      11.560 -60.057 -30.930  1.00  0.00     0.278 C 
ENDBRANCH  24  29
ENDBRANCH  11  21
ENDBRANCH   1   7
BRANCH   4  31
ATOM     31  S   UNL     1      10.644 -53.464 -21.403  1.00  0.00     0.238 S 
ATOM     32  O   UNL     1      11.704 -52.707 -22.027  1.00  0.00    -0.207 OA
ATOM     33  O   UNL     1      10.578 -53.681 -19.978  1.00  0.00    -0.207 OA
BRANCH  31  34
ATOM     34  N   UNL     1       9.212 -52.715 -21.880  1.00  0.00    -0.225 NA
ATOM     35  H   UNL     1       8.486 -52.751 -21.165  1.00  0.00     0.137 HD
ATOM     36  H   UNL     1       8.901 -53.134 -22.758  1.00  0.00     0.137 HD
ENDBRANCH  31  34
ENDBRANCH   4  31
TORSDOF 7
ENDMDL
MODEL 7
REMARK VINA RESULT:    -8.824      2.109      2.672
REMARK INTER + INTRA:         -13.179
REMARK INTER:                 -11.528
REMARK INTRA:                  -1.651
REMARK UNBOUND:                -1.002
REMARK SMILES COc1ccc(OC)c([C@@H]2C=C(c3cc(F)ccc3F)NN2c2ccc(S(N)(=O)=O)cc2)c1
REMARK SMILES IDX 23 1 24 2 25 3 26 4 31 5 32 6 22 7 21 8 12 9 11 10 10 11
REMARK SMILES IDX 13 13 14 14 19 15 15 16 18 17 17 18 20 19 16 20 9 21 33 22
REMARK SMILES IDX 6 23 3 24 5 25 4 26 7 27 8 28 2 29 1 30 27 31 29 32 30 33
REMARK SMILES IDX 28 34
REMARK H PARENT 21 12 28 35 28 36
ROOT
ATOM      1  C   UNL     1      12.337 -50.414 -22.766  1.00  0.00     0.058 A 
ATOM      2  C   UNL     1      12.605 -51.330 -23.797  1.00  0.00     0.029 A 
ATOM      3  C   UNL     1      12.037 -52.610 -23.809  1.00  0.00     0.024 A 
ATOM      4  C   UNL     1      11.185 -52.994 -22.775  1.00  0.00     0.082 A 
ATOM      5  C   UNL     1      10.919 -52.124 -21.721  1.00  0.00     0.024 A 
ATOM      6  C   UNL     1      11.493 -50.848 -21.725  1.00  0.00     0.029 A 
ENDROOT
BRANCH   1   7
ATOM      7  N   UNL     1      12.908 -49.129 -22.727  1.00  0.00    -0.276 N 
ATOM      8  N   UNL     1      12.154 -47.979 -22.527  1.00  0.00    -0.297 N 
ATOM      9  C   UNL     1      12.786 -46.875 -23.080  1.00  0.00     0.063 C 
ATOM     10  C   UNL     1      13.882 -47.271 -23.745  1.00  0.00     0.033 C 
ATOM     11  C   UNL     1      14.070 -48.776 -23.607  1.00  0.00     0.165 C 
ATOM     12  H   UNL     1      11.826 -47.814 -21.572  1.00  0.00     0.188 HD
BRANCH   9  13
ATOM     13  C   UNL     1      12.292 -45.507 -22.882  1.00  0.00     0.038 A 
ATOM     14  C   UNL     1      13.022 -44.581 -22.122  1.00  0.00     0.052 A 
ATOM     15  C   UNL     1      11.088 -45.070 -23.459  1.00  0.00     0.132 A 
ATOM     16  C   UNL     1      12.549 -43.282 -21.949  1.00  0.00     0.124 A 
ATOM     17  C   UNL     1      10.617 -43.768 -23.283  1.00  0.00     0.043 A 
ATOM     18  C   UNL     1      11.353 -42.866 -22.521  1.00  0.00     0.042 A 
ATOM     19  F   UNL     1      10.342 -45.912 -24.194  1.00  0.00    -0.206 F 
ATOM     20  F   UNL     1      13.264 -42.415 -21.219  1.00  0.00    -0.207 F 
ENDBRANCH   9  13
BRANCH  11  21
ATOM     21  C   UNL     1      15.417 -49.109 -22.983  1.00  0.00     0.026 A 
ATOM     22  C   UNL     1      15.822 -48.503 -21.776  1.00  0.00     0.056 A 
ATOM     23  C   UNL     1      16.300 -49.997 -23.623  1.00  0.00     0.124 A 
ATOM     24  C   UNL     1      17.061 -48.783 -21.195  1.00  0.00     0.119 A 
ATOM     25  C   UNL     1      17.542 -50.276 -23.040  1.00  0.00     0.050 A 
ATOM     26  C   UNL     1      17.917 -49.675 -21.832  1.00  0.00     0.050 A 
BRANCH  23  27
ATOM     27  O   UNL     1      15.863 -50.534 -24.805  1.00  0.00    -0.496 OA
ATOM     28  C   UNL     1      16.063 -51.927 -25.011  1.00  0.00     0.278 C 
ENDBRANCH  23  27
BRANCH  24  29
ATOM     29  O   UNL     1      17.308 -48.123 -20.024  1.00  0.00    -0.497 OA
ATOM     30  C   UNL     1      18.430 -48.554 -19.265  1.00  0.00     0.278 C 
ENDBRANCH  24  29
ENDBRANCH  11  21
ENDBRANCH   1   7
BRANCH   4  31
ATOM     31  S   UNL     1      10.462 -54.611 -22.793  1.00  0.00     0.238 S 
ATOM     32  O   UNL     1      11.376 -55.534 -22.160  1.00  0.00    -0.207 OA
ATOM     33  O   UNL     1       9.896 -54.850 -24.099  1.00  0.00    -0.207 OA
BRANCH  31  34
ATOM     34  N   UNL     1       9.189 -54.418 -21.705  1.00  0.00    -0.225 NA
ATOM     35  H   UNL     1       8.635 -53.581 -21.885  1.00  0.00     0.137 HD
ATOM     36  H   UNL     1       9.567 -54.426 -20.756  1.00  0.00     0.137 HD
ENDBRANCH  31  34
ENDBRANCH   4  31
TORSDOF 7
ENDMDL
MODEL 8
REMARK VINA RESULT:    -8.532      1.750      2.212
REMARK INTER + INTRA:         -12.776
REMARK INTER:                 -11.254
REMARK INTRA:                  -1.521
REMARK UNBOUND:                -1.002
REMARK SMILES COc1ccc(OC)c([C@@H]2C=C(c3cc(F)ccc3F)NN2c2ccc(S(N)(=O)=O)cc2)c1
REMARK SMILES IDX 23 1 24 2 25 3 26 4 31 5 32 6 22 7 21 8 12 9 11 10 10 11
REMARK SMILES IDX 13 13 14 14 19 15 15 16 18 17 17 18 20 19 16 20 9 21 33 22
REMARK SMILES IDX 6 23 3 24 5 25 4 26 7 27 8 28 2 29 1 30 27 31 29 32 30 33
REMARK SMILES IDX 28 34
REMARK H PARENT 21 12 28 35 28 36
ROOT
ATOM      1  C   UNL     1      12.392 -50.675 -23.194  1.00  0.00     0.058 A 
ATOM      2  C   UNL     1      11.607 -50.865 -22.044  1.00  0.00     0.029 A 
ATOM      3  C   UNL     1      10.990 -52.092 -21.770  1.00  0.00     0.024 A 
ATOM      4  C   UNL     1      11.148 -53.155 -22.657  1.00  0.00     0.082 A 
ATOM      5  C   UNL     1      11.894 -52.996 -23.821  1.00  0.00     0.024 A 
ATOM      6  C   UNL     1      12.507 -51.766 -24.079  1.00  0.00     0.029 A 
ENDROOT
BRANCH   1   7
ATOM      7  N   UNL     1      13.009 -49.449 -23.496  1.00  0.00    -0.276 N 
ATOM      8  N   UNL     1      12.524 -48.231 -23.034  1.00  0.00    -0.297 N 
ATOM      9  C   UNL     1      12.904 -47.197 -23.877  1.00  0.00     0.063 C 
ATOM     10  C   UNL     1      13.529 -47.702 -24.952  1.00  0.00     0.033 C 
ATOM     11  C   UNL     1      13.648 -49.215 -24.834  1.00  0.00     0.165 C 
ATOM     12  H   UNL     1      12.694 -48.023 -22.046  1.00  0.00     0.188 HD
BRANCH   9  13
ATOM     13  C   UNL     1      12.664 -45.787 -23.549  1.00  0.00     0.038 A 
ATOM     14  C   UNL     1      11.488 -45.143 -23.961  1.00  0.00     0.052 A 
ATOM     15  C   UNL     1      13.587 -45.040 -22.798  1.00  0.00     0.132 A 
ATOM     16  C   UNL     1      11.265 -43.806 -23.635  1.00  0.00     0.124 A 
ATOM     17  C   UNL     1      13.361 -43.701 -22.474  1.00  0.00     0.043 A 
ATOM     18  C   UNL     1      12.191 -43.078 -22.897  1.00  0.00     0.042 A 
ATOM     19  F   UNL     1      14.734 -45.601 -22.379  1.00  0.00    -0.206 F 
ATOM     20  F   UNL     1      10.135 -43.212 -24.039  1.00  0.00    -0.207 F 
ENDBRANCH   9  13
BRANCH  11  21
ATOM     21  C   UNL     1      15.101 -49.662 -24.889  1.00  0.00     0.026 A 
ATOM     22  C   UNL     1      15.906 -49.640 -23.732  1.00  0.00     0.056 A 
ATOM     23  C   UNL     1      15.678 -50.064 -26.107  1.00  0.00     0.124 A 
ATOM     24  C   UNL     1      17.247 -50.030 -23.765  1.00  0.00     0.119 A 
ATOM     25  C   UNL     1      17.022 -50.454 -26.138  1.00  0.00     0.050 A 
ATOM     26  C   UNL     1      17.800 -50.440 -24.974  1.00  0.00     0.050 A 
BRANCH  23  27
ATOM     27  O   UNL     1      14.854 -50.040 -27.201  1.00  0.00    -0.496 OA
ATOM     28  C   UNL     1      15.285 -49.298 -28.335  1.00  0.00     0.278 C 
ENDBRANCH  23  27
BRANCH  24  29
ATOM     29  O   UNL     1      17.895 -49.959 -22.563  1.00  0.00    -0.497 OA
ATOM     30  C   UNL     1      19.283 -50.265 -22.561  1.00  0.00     0.278 C 
ENDBRANCH  24  29
ENDBRANCH  11  21
ENDBRANCH   1   7
BRANCH   4  31
ATOM     31  S   UNL     1      10.371 -54.709 -22.308  1.00  0.00     0.238 S 
ATOM     32  O   UNL     1       9.128 -54.459 -21.617  1.00  0.00    -0.207 OA
ATOM     33  O   UNL     1      11.370 -55.622 -21.806  1.00  0.00    -0.207 OA
BRANCH  31  34
ATOM     34  N   UNL     1       9.936 -55.217 -23.854  1.00  0.00    -0.225 NA
ATOM     35  H   UNL     1      10.223 -54.565 -24.583  1.00  0.00     0.137 HD
ATOM     36  H   UNL     1       8.929 -55.385 -23.871  1.00  0.00     0.137 HD
ENDBRANCH  31  34
ENDBRANCH   4  31
TORSDOF 7
ENDMDL
MODEL 9
REMARK VINA RESULT:    -8.399      4.433      7.628
REMARK INTER + INTRA:         -12.592
REMARK INTER:                 -10.940
REMARK INTRA:                  -1.652
REMARK UNBOUND:                -1.002
REMARK SMILES COc1ccc(OC)c([C@@H]2C=C(c3cc(F)ccc3F)NN2c2ccc(S(N)(=O)=O)cc2)c1
REMARK SMILES IDX 23 1 24 2 25 3 26 4 31 5 32 6 22 7 21 8 12 9 11 10 10 11
REMARK SMILES IDX 13 13 14 14 19 15 15 16 18 17 17 18 20 19 16 20 9 21 33 22
REMARK SMILES IDX 6 23 3 24 5 25 4 26 7 27 8 28 2 29 1 30 27 31 29 32 30 33
REMARK SMILES IDX 28 34
REMARK H PARENT 21 12 28 35 28 36
ROOT
ATOM      1  C   UNL     1      12.756 -47.224 -23.762  1.00  0.00     0.058 A 
ATOM      2  C   UNL     1      12.187 -46.661 -22.607  1.00  0.00     0.029 A 
ATOM      3  C   UNL     1      11.747 -45.333 -22.577  1.00  0.00     0.024 A 
ATOM      4  C   UNL     1      11.875 -44.540 -23.716  1.00  0.00     0.082 A 
ATOM      5  C   UNL     1      12.459 -45.054 -24.870  1.00  0.00     0.024 A 
ATOM      6  C   UNL     1      12.892 -46.383 -24.885  1.00  0.00     0.029 A 
ENDROOT
BRANCH   1   7
ATOM      7  N   UNL     1      13.218 -48.551 -23.810  1.00  0.00    -0.276 N 
ATOM      8  N   UNL     1      12.364 -49.638 -23.950  1.00  0.00    -0.297 N 
ATOM      9  C   UNL     1      12.933 -50.784 -23.412  1.00  0.00     0.063 C 
ATOM     10  C   UNL     1      14.092 -50.470 -22.812  1.00  0.00     0.033 C 
ATOM     11  C   UNL     1      14.394 -48.988 -22.985  1.00  0.00     0.165 C 
ATOM     12  H   UNL     1      11.973 -49.788 -24.884  1.00  0.00     0.188 HD
BRANCH   9  13
ATOM     13  C   UNL     1      12.320 -52.109 -23.561  1.00  0.00     0.038 A 
ATOM     14  C   UNL     1      12.611 -52.916 -24.671  1.00  0.00     0.052 A 
ATOM     15  C   UNL     1      11.440 -52.624 -22.594  1.00  0.00     0.132 A 
ATOM     16  C   UNL     1      12.031 -54.177 -24.797  1.00  0.00     0.124 A 
ATOM     17  C   UNL     1      10.861 -53.887 -22.724  1.00  0.00     0.043 A 
ATOM     18  C   UNL     1      11.157 -54.670 -23.835  1.00  0.00     0.042 A 
ATOM     19  F   UNL     1      11.119 -51.896 -21.511  1.00  0.00    -0.206 F 
ATOM     20  F   UNL     1      12.323 -54.930 -25.865  1.00  0.00    -0.207 F 
ENDBRANCH   9  13
BRANCH  11  21
ATOM     21  C   UNL     1      15.727 -48.774 -23.685  1.00  0.00     0.026 A 
ATOM     22  C   UNL     1      16.268 -49.767 -24.527  1.00  0.00     0.056 A 
ATOM     23  C   UNL     1      16.466 -47.596 -23.469  1.00  0.00     0.124 A 
ATOM     24  C   UNL     1      17.498 -49.596 -25.165  1.00  0.00     0.119 A 
ATOM     25  C   UNL     1      17.699 -47.427 -24.109  1.00  0.00     0.050 A 
ATOM     26  C   UNL     1      18.210 -48.420 -24.954  1.00  0.00     0.050 A 
BRANCH  23  27
ATOM     27  O   UNL     1      15.902 -46.679 -22.621  1.00  0.00    -0.496 OA
ATOM     28  C   UNL     1      16.777 -45.801 -21.923  1.00  0.00     0.278 C 
ENDBRANCH  23  27
BRANCH  24  29
ATOM     29  O   UNL     1      17.886 -50.644 -25.952  1.00  0.00    -0.497 OA
ATOM     30  C   UNL     1      17.560 -51.950 -25.495  1.00  0.00     0.278 C 
ENDBRANCH  24  29
ENDBRANCH  11  21
ENDBRANCH   1   7
BRANCH   4  31
ATOM     31  S   UNL     1      11.313 -42.860 -23.680  1.00  0.00     0.238 S 
ATOM     32  O   UNL     1      12.398 -42.000 -24.091  1.00  0.00    -0.207 OA
ATOM     33  O   UNL     1      10.570 -42.648 -22.461  1.00  0.00    -0.207 OA
BRANCH  31  34
ATOM     34  N   UNL     1      10.218 -42.849 -24.961  1.00  0.00    -0.225 NA
ATOM     35  H   UNL     1      10.658 -43.031 -25.863  1.00  0.00     0.137 HD
ATOM     36  H   UNL     1       9.718 -41.959 -24.955  1.00  0.00     0.137 HD
ENDBRANCH  31  34
ENDBRANCH   4  31
TORSDOF 7
ENDMDL
