MODEL 1
REMARK VINA RESULT:   -11.428      0.000      0.000
REMARK INTER + INTRA:         -17.463
REMARK INTER:                 -16.772
REMARK INTRA:                  -0.691
REMARK UNBOUND:                -0.691
REMARK SMILES CC(=O)Nc1cc(C(=O)Nc2cncc(OC[C@H]3CC[N@H+](Cc4ccc(F)cc4)CC3)c2)ccn1
REMARK SMILES IDX 16 1 17 2 18 3 20 4 21 5 19 6 30 7 31 8 22 10 23 11 24 12
REMARK SMILES IDX 29 13 25 14 28 15 26 16 27 17 15 18 14 19 32 20 13 21 11 22
REMARK SMILES IDX 12 23 10 24 8 25 9 27 7 28 6 29 33 30 5 31 34 32 35 33 4 34
REMARK SMILES IDX 2 35 1 37 3 38
REMARK H PARENT 21 9 10 26 4 36
ROOT
ATOM      1  O   UNL     1      10.379 -54.617 -22.801  1.00  0.00    -0.492 OA
ENDROOT
BRANCH   1   2
ATOM      2  C   UNL     1      11.012 -55.591 -21.959  1.00  0.00     0.233 C 
BRANCH   2   3
ATOM      3  C   UNL     1      10.819 -56.988 -22.585  1.00  0.00     0.038 C 
ATOM      4  C   UNL     1      10.922 -59.495 -22.178  1.00  0.00     0.262 C 
ATOM      5  N   UNL     1      11.893 -59.609 -23.325  1.00  0.00    -0.331 N 
ATOM      6  C   UNL     1      11.034 -58.110 -21.553  1.00  0.00     0.069 C 
ATOM      7  C   UNL     1      11.626 -58.580 -24.390  1.00  0.00     0.262 C 
ATOM      8  C   UNL     1      11.762 -57.188 -23.784  1.00  0.00     0.069 C 
ATOM      9  H   UNL     1      12.822 -59.387 -22.945  1.00  0.00     0.348 HD
BRANCH   5  10
ATOM     10  C   UNL     1      12.039 -61.019 -23.867  1.00  0.00     0.299 C 
BRANCH  10  11
ATOM     11  C   UNL     1      10.784 -61.858 -23.866  1.00  0.00     0.006 A 
ATOM     12  C   UNL     1      10.494 -62.725 -22.797  1.00  0.00     0.012 A 
ATOM     13  C   UNL     1       9.875 -61.779 -24.938  1.00  0.00     0.012 A 
ATOM     14  C   UNL     1       9.317 -63.481 -22.793  1.00  0.00     0.040 A 
ATOM     15  C   UNL     1       8.706 -62.543 -24.936  1.00  0.00     0.040 A 
ATOM     16  C   UNL     1       8.436 -63.384 -23.862  1.00  0.00     0.123 A 
ATOM     17  F   UNL     1       7.316 -64.117 -23.863  1.00  0.00    -0.207 F 
ENDBRANCH  10  11
ENDBRANCH   5  10
ENDBRANCH   2   3
ENDBRANCH   1   2
BRANCH   1  18
ATOM     18  C   UNL     1      10.923 -53.370 -22.693  1.00  0.00     0.139 A 
ATOM     19  C   UNL     1      10.581 -52.453 -21.712  1.00  0.00     0.157 A 
ATOM     20  C   UNL     1      11.932 -53.040 -23.593  1.00  0.00     0.075 A 
ATOM     21  N   UNL     1      11.154 -51.230 -21.606  1.00  0.00    -0.259 NA
ATOM     22  C   UNL     1      12.538 -51.787 -23.533  1.00  0.00     0.063 A 
ATOM     23  C   UNL     1      12.117 -50.930 -22.515  1.00  0.00     0.137 A 
BRANCH  22  24
ATOM     24  N   UNL     1      13.553 -51.364 -24.424  1.00  0.00    -0.320 N 
ATOM     25  C   UNL     1      13.594 -50.151 -25.094  1.00  0.00     0.255 C 
ATOM     26  H   UNL     1      14.375 -51.956 -24.479  1.00  0.00     0.170 HD
ATOM     27  O   UNL     1      12.821 -49.210 -24.937  1.00  0.00    -0.269 OA
BRANCH  25  28
ATOM     28  C   UNL     1      14.724 -49.992 -26.047  1.00  0.00     0.045 A 
ATOM     29  C   UNL     1      15.978 -50.494 -25.685  1.00  0.00     0.061 A 
ATOM     30  C   UNL     1      14.563 -49.320 -27.261  1.00  0.00     0.034 A 
ATOM     31  C   UNL     1      17.033 -50.326 -26.564  1.00  0.00     0.133 A 
ATOM     32  C   UNL     1      15.673 -49.204 -28.075  1.00  0.00     0.114 A 
ATOM     33  N   UNL     1      16.890 -49.694 -27.752  1.00  0.00    -0.239 NA
BRANCH  31  34
ATOM     34  N   UNL     1      18.336 -50.770 -26.332  1.00  0.00    -0.311 N 
ATOM     35  C   UNL     1      18.839 -52.043 -26.458  1.00  0.00     0.222 C 
ATOM     36  H   UNL     1      18.944 -50.019 -26.018  1.00  0.00     0.171 HD
ATOM     37  C   UNL     1      20.293 -52.136 -26.061  1.00  0.00     0.114 C 
ATOM     38  O   UNL     1      18.219 -53.037 -26.821  1.00  0.00    -0.275 OA
ENDBRANCH  31  34
ENDBRANCH  25  28
ENDBRANCH  22  24
ENDBRANCH   1  18
TORSDOF 8
ENDMDL
MODEL 2
REMARK VINA RESULT:   -11.382      2.105      2.603
REMARK INTER + INTRA:         -17.396
REMARK INTER:                 -17.202
REMARK INTRA:                  -0.194
REMARK UNBOUND:                -0.691
REMARK SMILES CC(=O)Nc1cc(C(=O)Nc2cncc(OC[C@H]3CC[N@H+](Cc4ccc(F)cc4)CC3)c2)ccn1
REMARK SMILES IDX 16 1 17 2 18 3 20 4 21 5 19 6 30 7 31 8 22 10 23 11 24 12
REMARK SMILES IDX 29 13 25 14 28 15 26 16 27 17 15 18 14 19 32 20 13 21 11 22
REMARK SMILES IDX 12 23 10 24 8 25 9 27 7 28 6 29 33 30 5 31 34 32 35 33 4 34
REMARK SMILES IDX 2 35 1 37 3 38
REMARK H PARENT 21 9 10 26 4 36
ROOT
ATOM      1  O   UNL     1      11.053 -55.399 -23.101  1.00  0.00    -0.492 OA
ENDROOT
BRANCH   1   2
ATOM      2  C   UNL     1      11.197 -56.299 -21.993  1.00  0.00     0.233 C 
BRANCH   2   3
ATOM      3  C   UNL     1      10.765 -57.710 -22.441  1.00  0.00     0.038 C 
ATOM      4  C   UNL     1      10.682 -60.171 -21.811  1.00  0.00     0.262 C 
ATOM      5  N   UNL     1      11.434 -60.489 -23.077  1.00  0.00    -0.331 N 
ATOM      6  C   UNL     1      11.034 -58.762 -21.350  1.00  0.00     0.069 C 
ATOM      7  C   UNL     1      11.100 -59.525 -24.184  1.00  0.00     0.262 C 
ATOM      8  C   UNL     1      11.473 -58.114 -23.746  1.00  0.00     0.069 C 
ATOM      9  H   UNL     1      12.430 -60.345 -22.869  1.00  0.00     0.348 HD
BRANCH   5  10
ATOM     10  C   UNL     1      11.347 -61.945 -23.494  1.00  0.00     0.299 C 
BRANCH  10  11
ATOM     11  C   UNL     1       9.989 -62.418 -23.954  1.00  0.00     0.006 A 
ATOM     12  C   UNL     1       9.198 -63.251 -23.141  1.00  0.00     0.012 A 
ATOM     13  C   UNL     1       9.486 -62.022 -25.208  1.00  0.00     0.012 A 
ATOM     14  C   UNL     1       7.931 -63.665 -23.566  1.00  0.00     0.040 A 
ATOM     15  C   UNL     1       8.224 -62.446 -25.633  1.00  0.00     0.040 A 
ATOM     16  C   UNL     1       7.457 -63.260 -24.807  1.00  0.00     0.123 A 
ATOM     17  F   UNL     1       6.250 -63.665 -25.217  1.00  0.00    -0.207 F 
ENDBRANCH  10  11
ENDBRANCH   5  10
ENDBRANCH   2   3
ENDBRANCH   1   2
BRANCH   1  18
ATOM     18  C   UNL     1      11.085 -54.084 -22.740  1.00  0.00     0.139 A 
ATOM     19  C   UNL     1      10.553 -53.586 -21.561  1.00  0.00     0.157 A 
ATOM     20  C   UNL     1      11.757 -53.210 -23.589  1.00  0.00     0.075 A 
ATOM     21  N   UNL     1      10.620 -52.280 -21.209  1.00  0.00    -0.259 NA
ATOM     22  C   UNL     1      11.837 -51.855 -23.277  1.00  0.00     0.063 A 
ATOM     23  C   UNL     1      11.260 -51.450 -22.072  1.00  0.00     0.137 A 
BRANCH  22  24
ATOM     24  N   UNL     1      12.480 -50.897 -24.097  1.00  0.00    -0.320 N 
ATOM     25  C   UNL     1      13.178 -51.163 -25.265  1.00  0.00     0.255 C 
ATOM     26  H   UNL     1      12.309 -49.924 -23.865  1.00  0.00     0.170 HD
ATOM     27  O   UNL     1      13.254 -52.249 -25.832  1.00  0.00    -0.269 OA
BRANCH  25  28
ATOM     28  C   UNL     1      13.841 -49.986 -25.887  1.00  0.00     0.045 A 
ATOM     29  C   UNL     1      14.424 -50.139 -27.149  1.00  0.00     0.061 A 
ATOM     30  C   UNL     1      13.928 -48.763 -25.220  1.00  0.00     0.034 A 
ATOM     31  C   UNL     1      15.059 -49.049 -27.717  1.00  0.00     0.133 A 
ATOM     32  C   UNL     1      14.580 -47.731 -25.867  1.00  0.00     0.114 A 
ATOM     33  N   UNL     1      15.136 -47.852 -27.092  1.00  0.00    -0.239 NA
BRANCH  31  34
ATOM     34  N   UNL     1      15.686 -49.059 -28.964  1.00  0.00    -0.311 N 
ATOM     35  C   UNL     1      15.291 -48.434 -30.123  1.00  0.00     0.222 C 
ATOM     36  H   UNL     1      16.529 -49.627 -28.963  1.00  0.00     0.171 HD
ATOM     37  C   UNL     1      16.209 -48.728 -31.285  1.00  0.00     0.114 C 
ATOM     38  O   UNL     1      14.299 -47.726 -30.265  1.00  0.00    -0.275 OA
ENDBRANCH  31  34
ENDBRANCH  25  28
ENDBRANCH  22  24
ENDBRANCH   1  18
TORSDOF 8
ENDMDL
MODEL 3
REMARK VINA RESULT:   -11.159      1.356      2.565
REMARK INTER + INTRA:         -17.069
REMARK INTER:                 -16.130
REMARK INTRA:                  -0.939
REMARK UNBOUND:                -0.691
REMARK SMILES CC(=O)Nc1cc(C(=O)Nc2cncc(OC[C@H]3CC[N@H+](Cc4ccc(F)cc4)CC3)c2)ccn1
REMARK SMILES IDX 16 1 17 2 18 3 20 4 21 5 19 6 30 7 31 8 22 10 23 11 24 12
REMARK SMILES IDX 29 13 25 14 28 15 26 16 27 17 15 18 14 19 32 20 13 21 11 22
REMARK SMILES IDX 12 23 10 24 8 25 9 27 7 28 6 29 33 30 5 31 34 32 35 33 4 34
REMARK SMILES IDX 2 35 1 37 3 38
REMARK H PARENT 21 9 10 26 4 36
ROOT
ATOM      1  O   UNL     1      10.281 -54.721 -22.827  1.00  0.00    -0.492 OA
ENDROOT
BRANCH   1   2
ATOM      2  C   UNL     1      11.079 -55.639 -22.068  1.00  0.00     0.233 C 
BRANCH   2   3
ATOM      3  C   UNL     1      10.859 -57.062 -22.621  1.00  0.00     0.038 C 
ATOM      4  C   UNL     1      10.970 -59.548 -22.103  1.00  0.00     0.262 C 
ATOM      5  N   UNL     1      11.898 -59.720 -23.278  1.00  0.00    -0.331 N 
ATOM      6  C   UNL     1      11.109 -58.137 -21.547  1.00  0.00     0.069 C 
ATOM      7  C   UNL     1      11.595 -58.739 -24.379  1.00  0.00     0.262 C 
ATOM      8  C   UNL     1      11.757 -57.321 -23.843  1.00  0.00     0.069 C 
ATOM      9  H   UNL     1      12.840 -59.484 -22.942  1.00  0.00     0.348 HD
BRANCH   5  10
ATOM     10  C   UNL     1      12.020 -61.153 -23.760  1.00  0.00     0.299 C 
BRANCH  10  11
ATOM     11  C   UNL     1      10.723 -61.913 -23.899  1.00  0.00     0.006 A 
ATOM     12  C   UNL     1      10.295 -62.805 -22.898  1.00  0.00     0.012 A 
ATOM     13  C   UNL     1       9.913 -61.734 -25.037  1.00  0.00     0.012 A 
ATOM     14  C   UNL     1       9.081 -63.487 -23.025  1.00  0.00     0.040 A 
ATOM     15  C   UNL     1       8.705 -62.426 -25.164  1.00  0.00     0.040 A 
ATOM     16  C   UNL     1       8.299 -63.293 -24.156  1.00  0.00     0.123 A 
ATOM     17  F   UNL     1       7.142 -63.954 -24.282  1.00  0.00    -0.207 F 
ENDBRANCH  10  11
ENDBRANCH   5  10
ENDBRANCH   2   3
ENDBRANCH   1   2
BRANCH   1  18
ATOM     18  C   UNL     1      10.763 -53.444 -22.816  1.00  0.00     0.139 A 
ATOM     19  C   UNL     1      10.369 -52.469 -21.913  1.00  0.00     0.157 A 
ATOM     20  C   UNL     1      11.763 -53.137 -23.733  1.00  0.00     0.075 A 
ATOM     21  N   UNL     1      10.880 -51.215 -21.902  1.00  0.00    -0.259 NA
ATOM     22  C   UNL     1      12.308 -51.856 -23.771  1.00  0.00     0.063 A 
ATOM     23  C   UNL     1      11.836 -50.942 -22.827  1.00  0.00     0.137 A 
BRANCH  22  24
ATOM     24  N   UNL     1      13.310 -51.455 -24.687  1.00  0.00    -0.320 N 
ATOM     25  C   UNL     1      14.624 -51.146 -24.371  1.00  0.00     0.255 C 
ATOM     26  H   UNL     1      13.067 -51.516 -25.669  1.00  0.00     0.170 HD
ATOM     27  O   UNL     1      15.156 -51.279 -23.273  1.00  0.00    -0.269 OA
BRANCH  25  28
ATOM     28  C   UNL     1      15.450 -50.660 -25.509  1.00  0.00     0.045 A 
ATOM     29  C   UNL     1      14.808 -50.022 -26.575  1.00  0.00     0.061 A 
ATOM     30  C   UNL     1      16.830 -50.868 -25.546  1.00  0.00     0.034 A 
ATOM     31  C   UNL     1      15.575 -49.589 -27.641  1.00  0.00     0.133 A 
ATOM     32  C   UNL     1      17.513 -50.399 -26.652  1.00  0.00     0.114 A 
ATOM     33  N   UNL     1      16.916 -49.766 -27.685  1.00  0.00    -0.239 NA
BRANCH  31  34
ATOM     34  N   UNL     1      15.069 -48.945 -28.771  1.00  0.00    -0.311 N 
ATOM     35  C   UNL     1      14.995 -47.595 -29.022  1.00  0.00     0.222 C 
ATOM     36  H   UNL     1      14.711 -49.603 -29.458  1.00  0.00     0.171 HD
ATOM     37  C   UNL     1      14.329 -47.284 -30.341  1.00  0.00     0.114 C 
ATOM     38  O   UNL     1      15.385 -46.696 -28.284  1.00  0.00    -0.275 OA
ENDBRANCH  31  34
ENDBRANCH  25  28
ENDBRANCH  22  24
ENDBRANCH   1  18
TORSDOF 8
ENDMDL
MODEL 4
REMARK VINA RESULT:   -11.152      2.604      3.859
REMARK INTER + INTRA:         -17.058
REMARK INTER:                 -16.500
REMARK INTRA:                  -0.558
REMARK UNBOUND:                -0.691
REMARK SMILES CC(=O)Nc1cc(C(=O)Nc2cncc(OC[C@H]3CC[N@H+](Cc4ccc(F)cc4)CC3)c2)ccn1
REMARK SMILES IDX 16 1 17 2 18 3 20 4 21 5 19 6 30 7 31 8 22 10 23 11 24 12
REMARK SMILES IDX 29 13 25 14 28 15 26 16 27 17 15 18 14 19 32 20 13 21 11 22
REMARK SMILES IDX 12 23 10 24 8 25 9 27 7 28 6 29 33 30 5 31 34 32 35 33 4 34
REMARK SMILES IDX 2 35 1 37 3 38
REMARK H PARENT 21 9 10 26 4 36
ROOT
ATOM      1  O   UNL     1      11.377 -55.160 -23.023  1.00  0.00    -0.492 OA
ENDROOT
BRANCH   1   2
ATOM      2  C   UNL     1      11.219 -56.053 -21.912  1.00  0.00     0.233 C 
BRANCH   2   3
ATOM      3  C   UNL     1      10.861 -57.454 -22.449  1.00  0.00     0.038 C 
ATOM      4  C   UNL     1      10.779 -59.939 -21.921  1.00  0.00     0.262 C 
ATOM      5  N   UNL     1      11.648 -60.192 -23.126  1.00  0.00    -0.331 N 
ATOM      6  C   UNL     1      11.056 -58.542 -21.378  1.00  0.00     0.069 C 
ATOM      7  C   UNL     1      11.391 -59.192 -24.222  1.00  0.00     0.262 C 
ATOM      8  C   UNL     1      11.691 -57.792 -23.700  1.00  0.00     0.069 C 
ATOM      9  H   UNL     1      12.618 -60.036 -22.824  1.00  0.00     0.348 HD
BRANCH   5  10
ATOM     10  C   UNL     1      11.632 -61.632 -23.603  1.00  0.00     0.299 C 
BRANCH  10  11
ATOM     11  C   UNL     1      10.284 -62.174 -24.014  1.00  0.00     0.006 A 
ATOM     12  C   UNL     1       9.553 -63.022 -23.162  1.00  0.00     0.012 A 
ATOM     13  C   UNL     1       9.730 -61.829 -25.262  1.00  0.00     0.012 A 
ATOM     14  C   UNL     1       8.295 -63.501 -23.542  1.00  0.00     0.040 A 
ATOM     15  C   UNL     1       8.477 -62.317 -25.642  1.00  0.00     0.040 A 
ATOM     16  C   UNL     1       7.770 -63.145 -24.777  1.00  0.00     0.123 A 
ATOM     17  F   UNL     1       6.570 -63.612 -25.144  1.00  0.00    -0.207 F 
ENDBRANCH  10  11
ENDBRANCH   5  10
ENDBRANCH   2   3
ENDBRANCH   1   2
BRANCH   1  18
ATOM     18  C   UNL     1      10.877 -53.911 -22.791  1.00  0.00     0.139 A 
ATOM     19  C   UNL     1       9.646 -53.660 -22.205  1.00  0.00     0.157 A 
ATOM     20  C   UNL     1      11.698 -52.832 -23.106  1.00  0.00     0.075 A 
ATOM     21  N   UNL     1       9.181 -52.412 -21.959  1.00  0.00    -0.259 NA
ATOM     22  C   UNL     1      11.255 -51.530 -22.886  1.00  0.00     0.063 A 
ATOM     23  C   UNL     1       9.996 -51.382 -22.302  1.00  0.00     0.137 A 
BRANCH  22  24
ATOM     24  N   UNL     1      12.016 -50.379 -23.201  1.00  0.00    -0.320 N 
ATOM     25  C   UNL     1      12.808 -50.209 -24.326  1.00  0.00     0.255 C 
ATOM     26  H   UNL     1      11.870 -49.571 -22.606  1.00  0.00     0.170 HD
ATOM     27  O   UNL     1      12.887 -50.979 -25.279  1.00  0.00    -0.269 OA
BRANCH  25  28
ATOM     28  C   UNL     1      13.581 -48.939 -24.370  1.00  0.00     0.045 A 
ATOM     29  C   UNL     1      12.887 -47.741 -24.568  1.00  0.00     0.061 A 
ATOM     30  C   UNL     1      14.973 -48.931 -24.263  1.00  0.00     0.034 A 
ATOM     31  C   UNL     1      13.609 -46.564 -24.630  1.00  0.00     0.133 A 
ATOM     32  C   UNL     1      15.609 -47.707 -24.334  1.00  0.00     0.114 A 
ATOM     33  N   UNL     1      14.957 -46.537 -24.509  1.00  0.00    -0.239 NA
BRANCH  31  34
ATOM     34  N   UNL     1      13.050 -45.301 -24.827  1.00  0.00    -0.311 N 
ATOM     35  C   UNL     1      13.066 -44.528 -25.964  1.00  0.00     0.222 C 
ATOM     36  H   UNL     1      12.598 -44.948 -23.988  1.00  0.00     0.171 HD
ATOM     37  C   UNL     1      12.396 -43.190 -25.769  1.00  0.00     0.114 C 
ATOM     38  O   UNL     1      13.577 -44.828 -27.039  1.00  0.00    -0.275 OA
ENDBRANCH  31  34
ENDBRANCH  25  28
ENDBRANCH  22  24
ENDBRANCH   1  18
TORSDOF 8
ENDMDL
MODEL 5
REMARK VINA RESULT:   -10.984      3.121      3.736
REMARK INTER + INTRA:         -16.812
REMARK INTER:                 -16.569
REMARK INTRA:                  -0.242
REMARK UNBOUND:                -0.691
REMARK SMILES CC(=O)Nc1cc(C(=O)Nc2cncc(OC[C@H]3CC[N@H+](Cc4ccc(F)cc4)CC3)c2)ccn1
REMARK SMILES IDX 16 1 17 2 18 3 20 4 21 5 19 6 30 7 31 8 22 10 23 11 24 12
REMARK SMILES IDX 29 13 25 14 28 15 26 16 27 17 15 18 14 19 32 20 13 21 11 22
REMARK SMILES IDX 12 23 10 24 8 25 9 27 7 28 6 29 33 30 5 31 34 32 35 33 4 34
REMARK SMILES IDX 2 35 1 37 3 38
REMARK H PARENT 21 9 10 26 4 36
ROOT
ATOM      1  O   UNL     1      11.339 -54.764 -23.028  1.00  0.00    -0.492 OA
ENDROOT
BRANCH   1   2
ATOM      2  C   UNL     1      11.161 -55.704 -21.959  1.00  0.00     0.233 C 
BRANCH   2   3
ATOM      3  C   UNL     1      10.908 -57.101 -22.564  1.00  0.00     0.038 C 
ATOM      4  C   UNL     1      11.006 -59.608 -22.155  1.00  0.00     0.262 C 
ATOM      5  N   UNL     1      11.893 -59.739 -23.366  1.00  0.00    -0.331 N 
ATOM      6  C   UNL     1      11.179 -58.222 -21.545  1.00  0.00     0.069 C 
ATOM      7  C   UNL     1      11.566 -58.709 -24.415  1.00  0.00     0.262 C 
ATOM      8  C   UNL     1      11.762 -57.317 -23.825  1.00  0.00     0.069 C 
ATOM      9  H   UNL     1      12.849 -59.527 -23.052  1.00  0.00     0.348 HD
BRANCH   5  10
ATOM     10  C   UNL     1      11.983 -61.152 -23.911  1.00  0.00     0.299 C 
BRANCH  10  11
ATOM     11  C   UNL     1      10.706 -61.955 -23.870  1.00  0.00     0.006 A 
ATOM     12  C   UNL     1       9.778 -61.895 -24.925  1.00  0.00     0.012 A 
ATOM     13  C   UNL     1      10.426 -62.789 -22.769  1.00  0.00     0.012 A 
ATOM     14  C   UNL     1       8.608 -62.662 -24.889  1.00  0.00     0.040 A 
ATOM     15  C   UNL     1       9.251 -63.544 -22.732  1.00  0.00     0.040 A 
ATOM     16  C   UNL     1       8.355 -63.477 -23.793  1.00  0.00     0.123 A 
ATOM     17  F   UNL     1       7.231 -64.201 -23.754  1.00  0.00    -0.207 F 
ENDBRANCH  10  11
ENDBRANCH   5  10
ENDBRANCH   2   3
ENDBRANCH   1   2
BRANCH   1  18
ATOM     18  C   UNL     1      10.824 -53.530 -22.756  1.00  0.00     0.139 A 
ATOM     19  C   UNL     1       9.565 -53.311 -22.217  1.00  0.00     0.157 A 
ATOM     20  C   UNL     1      11.654 -52.435 -22.977  1.00  0.00     0.075 A 
ATOM     21  N   UNL     1       9.084 -52.078 -21.930  1.00  0.00    -0.259 NA
ATOM     22  C   UNL     1      11.196 -51.146 -22.711  1.00  0.00     0.063 A 
ATOM     23  C   UNL     1       9.910 -51.031 -22.181  1.00  0.00     0.137 A 
BRANCH  22  24
ATOM     24  N   UNL     1      11.966 -49.980 -22.930  1.00  0.00    -0.320 N 
ATOM     25  C   UNL     1      11.492 -48.677 -22.913  1.00  0.00     0.255 C 
ATOM     26  H   UNL     1      12.970 -50.111 -22.986  1.00  0.00     0.170 HD
ATOM     27  O   UNL     1      10.361 -48.321 -22.597  1.00  0.00    -0.269 OA
BRANCH  25  28
ATOM     28  C   UNL     1      12.493 -47.635 -23.269  1.00  0.00     0.045 A 
ATOM     29  C   UNL     1      13.076 -47.676 -24.540  1.00  0.00     0.061 A 
ATOM     30  C   UNL     1      12.884 -46.659 -22.351  1.00  0.00     0.034 A 
ATOM     31  C   UNL     1      14.021 -46.719 -24.861  1.00  0.00     0.133 A 
ATOM     32  C   UNL     1      13.833 -45.744 -22.762  1.00  0.00     0.114 A 
ATOM     33  N   UNL     1      14.398 -45.755 -23.989  1.00  0.00    -0.239 NA
BRANCH  31  34
ATOM     34  N   UNL     1      14.687 -46.643 -26.085  1.00  0.00    -0.311 N 
ATOM     35  C   UNL     1      14.432 -45.804 -27.144  1.00  0.00     0.222 C 
ATOM     36  H   UNL     1      15.437 -47.325 -26.155  1.00  0.00     0.171 HD
ATOM     37  C   UNL     1      15.340 -46.062 -28.323  1.00  0.00     0.114 C 
ATOM     38  O   UNL     1      13.560 -44.942 -27.195  1.00  0.00    -0.275 OA
ENDBRANCH  31  34
ENDBRANCH  25  28
ENDBRANCH  22  24
ENDBRANCH   1  18
TORSDOF 8
ENDMDL
MODEL 6
REMARK VINA RESULT:   -10.888      2.348      2.662
REMARK INTER + INTRA:         -16.671
REMARK INTER:                 -15.660
REMARK INTRA:                  -1.011
REMARK UNBOUND:                -0.691
REMARK SMILES CC(=O)Nc1cc(C(=O)Nc2cncc(OC[C@H]3CC[N@H+](Cc4ccc(F)cc4)CC3)c2)ccn1
REMARK SMILES IDX 16 1 17 2 18 3 20 4 21 5 19 6 30 7 31 8 22 10 23 11 24 12
REMARK SMILES IDX 29 13 25 14 28 15 26 16 27 17 15 18 14 19 32 20 13 21 11 22
REMARK SMILES IDX 12 23 10 24 8 25 9 27 7 28 6 29 33 30 5 31 34 32 35 33 4 34
REMARK SMILES IDX 2 35 1 37 3 38
REMARK H PARENT 21 9 10 26 4 36
ROOT
ATOM      1  O   UNL     1       9.867 -55.121 -22.457  1.00  0.00    -0.492 OA
ENDROOT
BRANCH   1   2
ATOM      2  C   UNL     1      11.072 -55.897 -22.413  1.00  0.00     0.233 C 
BRANCH   2   3
ATOM      3  C   UNL     1      10.774 -57.307 -22.966  1.00  0.00     0.038 C 
ATOM      4  C   UNL     1      10.396 -59.749 -22.374  1.00  0.00     0.262 C 
ATOM      5  N   UNL     1      11.529 -60.116 -23.297  1.00  0.00    -0.331 N 
ATOM      6  C   UNL     1      10.614 -58.340 -21.837  1.00  0.00     0.069 C 
ATOM      7  C   UNL     1      11.630 -59.169 -24.464  1.00  0.00     0.262 C 
ATOM      8  C   UNL     1      11.876 -57.759 -23.941  1.00  0.00     0.069 C 
ATOM      9  H   UNL     1      12.396 -59.994 -22.759  1.00  0.00     0.348 HD
BRANCH   5  10
ATOM     10  C   UNL     1      11.543 -61.579 -23.701  1.00  0.00     0.299 C 
BRANCH  10  11
ATOM     11  C   UNL     1      10.210 -62.162 -24.105  1.00  0.00     0.006 A 
ATOM     12  C   UNL     1       9.491 -62.999 -23.232  1.00  0.00     0.012 A 
ATOM     13  C   UNL     1       9.659 -61.869 -25.368  1.00  0.00     0.012 A 
ATOM     14  C   UNL     1       8.247 -63.517 -23.606  1.00  0.00     0.040 A 
ATOM     15  C   UNL     1       8.420 -62.396 -25.742  1.00  0.00     0.040 A 
ATOM     16  C   UNL     1       7.724 -63.212 -24.856  1.00  0.00     0.123 A 
ATOM     17  F   UNL     1       6.538 -63.716 -25.218  1.00  0.00    -0.207 F 
ENDBRANCH  10  11
ENDBRANCH   5  10
ENDBRANCH   2   3
ENDBRANCH   1   2
BRANCH   1  18
ATOM     18  C   UNL     1      10.085 -53.775 -22.397  1.00  0.00     0.139 A 
ATOM     19  C   UNL     1       9.121 -52.843 -22.045  1.00  0.00     0.157 A 
ATOM     20  C   UNL     1      11.382 -53.333 -22.641  1.00  0.00     0.075 A 
ATOM     21  N   UNL     1       9.367 -51.514 -21.965  1.00  0.00    -0.259 NA
ATOM     22  C   UNL     1      11.678 -51.973 -22.586  1.00  0.00     0.063 A 
ATOM     23  C   UNL     1      10.636 -51.113 -22.234  1.00  0.00     0.137 A 
BRANCH  22  24
ATOM     24  N   UNL     1      12.963 -51.438 -22.845  1.00  0.00    -0.320 N 
ATOM     25  C   UNL     1      13.590 -51.388 -24.080  1.00  0.00     0.255 C 
ATOM     26  H   UNL     1      13.405 -50.947 -22.075  1.00  0.00     0.170 HD
ATOM     27  O   UNL     1      13.090 -51.693 -25.159  1.00  0.00    -0.269 OA
BRANCH  25  28
ATOM     28  C   UNL     1      14.981 -50.862 -24.063  1.00  0.00     0.045 A 
ATOM     29  C   UNL     1      15.797 -51.169 -22.969  1.00  0.00     0.061 A 
ATOM     30  C   UNL     1      15.461 -50.042 -25.085  1.00  0.00     0.034 A 
ATOM     31  C   UNL     1      17.083 -50.661 -22.945  1.00  0.00     0.133 A 
ATOM     32  C   UNL     1      16.759 -49.583 -24.976  1.00  0.00     0.114 A 
ATOM     33  N   UNL     1      17.570 -49.880 -23.937  1.00  0.00    -0.239 NA
BRANCH  31  34
ATOM     34  N   UNL     1      18.002 -50.881 -21.918  1.00  0.00    -0.311 N 
ATOM     35  C   UNL     1      18.134 -50.202 -20.730  1.00  0.00     0.222 C 
ATOM     36  H   UNL     1      18.641 -51.642 -22.134  1.00  0.00     0.171 HD
ATOM     37  C   UNL     1      19.289 -50.703 -19.897  1.00  0.00     0.114 C 
ATOM     38  O   UNL     1      17.437 -49.267 -20.347  1.00  0.00    -0.275 OA
ENDBRANCH  31  34
ENDBRANCH  25  28
ENDBRANCH  22  24
ENDBRANCH   1  18
TORSDOF 8
ENDMDL
MODEL 7
REMARK VINA RESULT:   -10.639      4.117     11.141
REMARK INTER + INTRA:         -16.306
REMARK INTER:                 -15.394
REMARK INTRA:                  -0.912
REMARK UNBOUND:                -0.691
REMARK SMILES CC(=O)Nc1cc(C(=O)Nc2cncc(OC[C@H]3CC[N@H+](Cc4ccc(F)cc4)CC3)c2)ccn1
REMARK SMILES IDX 16 1 17 2 18 3 20 4 21 5 19 6 30 7 31 8 22 10 23 11 24 12
REMARK SMILES IDX 29 13 25 14 28 15 26 16 27 17 15 18 14 19 32 20 13 21 11 22
REMARK SMILES IDX 12 23 10 24 8 25 9 27 7 28 6 29 33 30 5 31 34 32 35 33 4 34
REMARK SMILES IDX 2 35 1 37 3 38
REMARK H PARENT 21 9 10 26 4 36
ROOT
ATOM      1  O   UNL     1      12.397 -51.097 -23.909  1.00  0.00    -0.492 OA
ENDROOT
BRANCH   1   2
ATOM      2  C   UNL     1      13.776 -51.482 -23.988  1.00  0.00     0.233 C 
BRANCH   2   3
ATOM      3  C   UNL     1      14.564 -50.364 -24.701  1.00  0.00     0.038 C 
ATOM      4  C   UNL     1      14.392 -48.271 -26.133  1.00  0.00     0.262 C 
ATOM      5  N   UNL     1      15.285 -48.931 -27.151  1.00  0.00    -0.331 N 
ATOM      6  C   UNL     1      13.626 -49.337 -25.361  1.00  0.00     0.069 C 
ATOM      7  C   UNL     1      16.278 -49.862 -26.506  1.00  0.00     0.262 C 
ATOM      8  C   UNL     1      15.523 -50.951 -25.752  1.00  0.00     0.069 C 
ATOM      9  H   UNL     1      14.679 -49.524 -27.731  1.00  0.00     0.348 HD
BRANCH   5  10
ATOM     10  C   UNL     1      15.914 -47.964 -28.137  1.00  0.00     0.299 C 
BRANCH  10  11
ATOM     11  C   UNL     1      15.702 -48.282 -29.597  1.00  0.00     0.006 A 
ATOM     12  C   UNL     1      14.463 -48.042 -30.218  1.00  0.00     0.012 A 
ATOM     13  C   UNL     1      16.751 -48.821 -30.367  1.00  0.00     0.012 A 
ATOM     14  C   UNL     1      14.282 -48.318 -31.578  1.00  0.00     0.040 A 
ATOM     15  C   UNL     1      16.564 -49.106 -31.722  1.00  0.00     0.040 A 
ATOM     16  C   UNL     1      15.333 -48.848 -32.315  1.00  0.00     0.123 A 
ATOM     17  F   UNL     1      15.156 -49.122 -33.613  1.00  0.00    -0.207 F 
ENDBRANCH  10  11
ENDBRANCH   5  10
ENDBRANCH   2   3
ENDBRANCH   1   2
BRANCH   1  18
ATOM     18  C   UNL     1      11.618 -52.002 -23.249  1.00  0.00     0.139 A 
ATOM     19  C   UNL     1      10.671 -51.666 -22.293  1.00  0.00     0.157 A 
ATOM     20  C   UNL     1      11.746 -53.337 -23.618  1.00  0.00     0.075 A 
ATOM     21  N   UNL     1       9.888 -52.578 -21.669  1.00  0.00    -0.259 NA
ATOM     22  C   UNL     1      10.974 -54.313 -22.992  1.00  0.00     0.063 A 
ATOM     23  C   UNL     1      10.057 -53.874 -22.035  1.00  0.00     0.137 A 
BRANCH  22  24
ATOM     24  N   UNL     1      11.061 -55.694 -23.291  1.00  0.00    -0.320 N 
ATOM     25  C   UNL     1      11.304 -56.710 -22.379  1.00  0.00     0.255 C 
ATOM     26  H   UNL     1      10.805 -55.963 -24.234  1.00  0.00     0.170 HD
ATOM     27  O   UNL     1      11.370 -56.589 -21.160  1.00  0.00    -0.269 OA
BRANCH  25  28
ATOM     28  C   UNL     1      11.441 -58.069 -22.969  1.00  0.00     0.045 A 
ATOM     29  C   UNL     1      11.882 -58.181 -24.291  1.00  0.00     0.061 A 
ATOM     30  C   UNL     1      11.098 -59.213 -22.246  1.00  0.00     0.034 A 
ATOM     31  C   UNL     1      11.989 -59.445 -24.844  1.00  0.00     0.133 A 
ATOM     32  C   UNL     1      11.239 -60.432 -22.880  1.00  0.00     0.114 A 
ATOM     33  N   UNL     1      11.679 -60.565 -24.151  1.00  0.00    -0.239 NA
BRANCH  31  34
ATOM     34  N   UNL     1      12.410 -59.705 -26.149  1.00  0.00    -0.311 N 
ATOM     35  C   UNL     1      11.679 -59.635 -27.311  1.00  0.00     0.222 C 
ATOM     36  H   UNL     1      13.384 -59.993 -26.186  1.00  0.00     0.171 HD
ATOM     37  C   UNL     1      12.476 -60.046 -28.526  1.00  0.00     0.114 C 
ATOM     38  O   UNL     1      10.501 -59.307 -27.410  1.00  0.00    -0.275 OA
ENDBRANCH  31  34
ENDBRANCH  25  28
ENDBRANCH  22  24
ENDBRANCH   1  18
TORSDOF 8
ENDMDL
MODEL 8
REMARK VINA RESULT:   -10.524      2.076      2.500
REMARK INTER + INTRA:         -16.137
REMARK INTER:                 -15.334
REMARK INTRA:                  -0.803
REMARK UNBOUND:                -0.691
REMARK SMILES CC(=O)Nc1cc(C(=O)Nc2cncc(OC[C@H]3CC[N@H+](Cc4ccc(F)cc4)CC3)c2)ccn1
REMARK SMILES IDX 16 1 17 2 18 3 20 4 21 5 19 6 30 7 31 8 22 10 23 11 24 12
REMARK SMILES IDX 29 13 25 14 28 15 26 16 27 17 15 18 14 19 32 20 13 21 11 22
REMARK SMILES IDX 12 23 10 24 8 25 9 27 7 28 6 29 33 30 5 31 34 32 35 33 4 34
REMARK SMILES IDX 2 35 1 37 3 38
REMARK H PARENT 21 9 10 26 4 36
ROOT
ATOM      1  O   UNL     1      10.526 -55.814 -23.375  1.00  0.00    -0.492 OA
ENDROOT
BRANCH   1   2
ATOM      2  C   UNL     1      11.280 -56.635 -22.473  1.00  0.00     0.233 C 
BRANCH   2   3
ATOM      3  C   UNL     1      10.507 -57.948 -22.232  1.00  0.00     0.038 C 
ATOM      4  C   UNL     1      10.646 -60.486 -22.219  1.00  0.00     0.262 C 
ATOM      5  N   UNL     1       9.508 -60.523 -23.206  1.00  0.00    -0.331 N 
ATOM      6  C   UNL     1      11.416 -59.181 -22.379  1.00  0.00     0.069 C 
ATOM      7  C   UNL     1       8.554 -59.375 -23.004  1.00  0.00     0.262 C 
ATOM      8  C   UNL     1       9.307 -58.063 -23.189  1.00  0.00     0.069 C 
ATOM      9  H   UNL     1       9.923 -60.384 -24.135  1.00  0.00     0.348 HD
BRANCH   5  10
ATOM     10  C   UNL     1       8.821 -61.872 -23.301  1.00  0.00     0.299 C 
BRANCH  10  11
ATOM     11  C   UNL     1       8.515 -62.357 -24.697  1.00  0.00     0.006 A 
ATOM     12  C   UNL     1       9.224 -61.862 -25.808  1.00  0.00     0.012 A 
ATOM     13  C   UNL     1       7.515 -63.325 -24.911  1.00  0.00     0.012 A 
ATOM     14  C   UNL     1       8.950 -62.335 -27.095  1.00  0.00     0.040 A 
ATOM     15  C   UNL     1       7.238 -63.788 -26.200  1.00  0.00     0.040 A 
ATOM     16  C   UNL     1       7.960 -63.291 -27.279  1.00  0.00     0.123 A 
ATOM     17  F   UNL     1       7.691 -63.734 -28.513  1.00  0.00    -0.207 F 
ENDBRANCH  10  11
ENDBRANCH   5  10
ENDBRANCH   2   3
ENDBRANCH   1   2
BRANCH   1  18
ATOM     18  C   UNL     1      10.644 -54.479 -23.122  1.00  0.00     0.139 A 
ATOM     19  C   UNL     1       9.836 -53.777 -22.240  1.00  0.00     0.157 A 
ATOM     20  C   UNL     1      11.691 -53.806 -23.745  1.00  0.00     0.075 A 
ATOM     21  N   UNL     1       9.988 -52.456 -21.983  1.00  0.00    -0.259 NA
ATOM     22  C   UNL     1      11.877 -52.444 -23.523  1.00  0.00     0.063 A 
ATOM     23  C   UNL     1      11.003 -51.825 -22.627  1.00  0.00     0.137 A 
BRANCH  22  24
ATOM     24  N   UNL     1      12.900 -51.681 -24.135  1.00  0.00    -0.320 N 
ATOM     25  C   UNL     1      13.463 -51.924 -25.379  1.00  0.00     0.255 C 
ATOM     26  H   UNL     1      13.155 -50.818 -23.667  1.00  0.00     0.170 HD
ATOM     27  O   UNL     1      13.088 -52.764 -26.192  1.00  0.00    -0.269 OA
BRANCH  25  28
ATOM     28  C   UNL     1      14.591 -51.028 -25.749  1.00  0.00     0.045 A 
ATOM     29  C   UNL     1      15.831 -51.228 -25.134  1.00  0.00     0.061 A 
ATOM     30  C   UNL     1      14.420 -49.979 -26.654  1.00  0.00     0.034 A 
ATOM     31  C   UNL     1      16.873 -50.380 -25.464  1.00  0.00     0.133 A 
ATOM     32  C   UNL     1      15.518 -49.186 -26.923  1.00  0.00     0.114 A 
ATOM     33  N   UNL     1      16.729 -49.371 -26.353  1.00  0.00    -0.239 NA
BRANCH  31  34
ATOM     34  N   UNL     1      18.159 -50.459 -24.926  1.00  0.00    -0.311 N 
ATOM     35  C   UNL     1      18.623 -49.933 -23.744  1.00  0.00     0.222 C 
ATOM     36  H   UNL     1      18.795 -50.970 -25.532  1.00  0.00     0.171 HD
ATOM     37  C   UNL     1      20.097 -50.186 -23.534  1.00  0.00     0.114 C 
ATOM     38  O   UNL     1      17.968 -49.296 -22.925  1.00  0.00    -0.275 OA
ENDBRANCH  31  34
ENDBRANCH  25  28
ENDBRANCH  22  24
ENDBRANCH   1  18
TORSDOF 8
ENDMDL
MODEL 9
REMARK VINA RESULT:   -10.325      6.089     12.726
REMARK INTER + INTRA:         -15.845
REMARK INTER:                 -14.787
REMARK INTRA:                  -1.058
REMARK UNBOUND:                -0.691
REMARK SMILES CC(=O)Nc1cc(C(=O)Nc2cncc(OC[C@H]3CC[N@H+](Cc4ccc(F)cc4)CC3)c2)ccn1
REMARK SMILES IDX 16 1 17 2 18 3 20 4 21 5 19 6 30 7 31 8 22 10 23 11 24 12
REMARK SMILES IDX 29 13 25 14 28 15 26 16 27 17 15 18 14 19 32 20 13 21 11 22
REMARK SMILES IDX 12 23 10 24 8 25 9 27 7 28 6 29 33 30 5 31 34 32 35 33 4 34
REMARK SMILES IDX 2 35 1 37 3 38
REMARK H PARENT 21 9 10 26 4 36
ROOT
ATOM      1  O   UNL     1      12.391 -50.826 -23.092  1.00  0.00    -0.492 OA
ENDROOT
BRANCH   1   2
ATOM      2  C   UNL     1      12.286 -49.602 -22.351  1.00  0.00     0.233 C 
BRANCH   2   3
ATOM      3  C   UNL     1      12.774 -48.441 -23.241  1.00  0.00     0.038 C 
ATOM      4  C   UNL     1      14.147 -46.303 -23.324  1.00  0.00     0.262 C 
ATOM      5  N   UNL     1      12.925 -45.575 -23.821  1.00  0.00    -0.331 N 
ATOM      6  C   UNL     1      13.719 -47.496 -22.478  1.00  0.00     0.069 C 
ATOM      7  C   UNL     1      12.043 -46.464 -24.657  1.00  0.00     0.262 C 
ATOM      8  C   UNL     1      11.586 -47.648 -23.812  1.00  0.00     0.069 C 
ATOM      9  H   UNL     1      12.372 -45.331 -22.989  1.00  0.00     0.348 HD
BRANCH   5  10
ATOM     10  C   UNL     1      13.228 -44.238 -24.472  1.00  0.00     0.299 C 
BRANCH  10  11
ATOM     11  C   UNL     1      12.330 -43.093 -24.072  1.00  0.00     0.006 A 
ATOM     12  C   UNL     1      12.058 -42.824 -22.718  1.00  0.00     0.012 A 
ATOM     13  C   UNL     1      11.753 -42.265 -25.055  1.00  0.00     0.012 A 
ATOM     14  C   UNL     1      11.243 -41.746 -22.357  1.00  0.00     0.040 A 
ATOM     15  C   UNL     1      10.931 -41.196 -24.690  1.00  0.00     0.040 A 
ATOM     16  C   UNL     1      10.687 -40.944 -23.345  1.00  0.00     0.123 A 
ATOM     17  F   UNL     1       9.899 -39.920 -22.998  1.00  0.00    -0.207 F 
ENDBRANCH  10  11
ENDBRANCH   5  10
ENDBRANCH   2   3
ENDBRANCH   1   2
BRANCH   1  18
ATOM     18  C   UNL     1      11.409 -51.726 -22.795  1.00  0.00     0.139 A 
ATOM     19  C   UNL     1      10.180 -51.389 -22.248  1.00  0.00     0.157 A 
ATOM     20  C   UNL     1      11.645 -53.055 -23.132  1.00  0.00     0.075 A 
ATOM     21  N   UNL     1       9.209 -52.295 -21.987  1.00  0.00    -0.259 NA
ATOM     22  C   UNL     1      10.681 -54.026 -22.868  1.00  0.00     0.063 A 
ATOM     23  C   UNL     1       9.482 -53.586 -22.305  1.00  0.00     0.137 A 
BRANCH  22  24
ATOM     24  N   UNL     1      10.852 -55.401 -23.157  1.00  0.00    -0.320 N 
ATOM     25  C   UNL     1      11.214 -56.384 -22.249  1.00  0.00     0.255 C 
ATOM     26  H   UNL     1      10.568 -55.701 -24.083  1.00  0.00     0.170 HD
ATOM     27  O   UNL     1      11.334 -56.242 -21.036  1.00  0.00    -0.269 OA
BRANCH  25  28
ATOM     28  C   UNL     1      11.419 -57.737 -22.831  1.00  0.00     0.045 A 
ATOM     29  C   UNL     1      11.818 -57.836 -24.168  1.00  0.00     0.061 A 
ATOM     30  C   UNL     1      11.179 -58.893 -22.086  1.00  0.00     0.034 A 
ATOM     31  C   UNL     1      11.987 -59.096 -24.713  1.00  0.00     0.133 A 
ATOM     32  C   UNL     1      11.377 -60.107 -22.714  1.00  0.00     0.114 A 
ATOM     33  N   UNL     1      11.776 -60.226 -23.999  1.00  0.00    -0.239 NA
BRANCH  31  34
ATOM     34  N   UNL     1      12.375 -59.343 -26.031  1.00  0.00    -0.311 N 
ATOM     35  C   UNL     1      11.579 -59.484 -27.143  1.00  0.00     0.222 C 
ATOM     36  H   UNL     1      13.383 -59.436 -26.121  1.00  0.00     0.171 HD
ATOM     37  C   UNL     1      12.371 -59.800 -28.389  1.00  0.00     0.114 C 
ATOM     38  O   UNL     1      10.356 -59.400 -27.176  1.00  0.00    -0.275 OA
ENDBRANCH  31  34
ENDBRANCH  25  28
ENDBRANCH  22  24
ENDBRANCH   1  18
TORSDOF 8
ENDMDL
