MODEL 1
REMARK VINA RESULT:   -10.524      0.000      0.000
REMARK INTER + INTRA:         -14.817
REMARK INTER:                 -13.907
REMARK INTRA:                  -0.910
REMARK UNBOUND:                -0.910
REMARK SMILES COc1ccc([C@H]2O[C@@H](O)[C@H]3[C@@H]2C(=O)O[C@@H]3c2cc(OC)c3c(c2)OCO3)cc1OC
REMARK SMILES IDX 7 1 8 2 9 3 11 4 12 5 13 6 14 7 15 8 16 9 6 10 3 11 4 12
REMARK SMILES IDX 29 13 5 14 28 15 2 16 1 17 30 18 31 19 10 20 17 22 18 23
REMARK SMILES IDX 24 24 19 25 23 26 22 27 25 28 27 29 26 30 20 31 21 32
REMARK H PARENT 10 21
ROOT
ATOM      1  C   UNL     1      11.973 -58.496 -22.217  1.00  0.00     0.166 C 
ATOM      2  O   UNL     1      11.151 -59.067 -21.179  1.00  0.00    -0.344 OA
ATOM      3  C   UNL     1      10.511 -60.228 -21.688  1.00  0.00     0.255 C 
ATOM      4  C   UNL     1      10.513 -60.107 -23.202  1.00  0.00     0.108 C 
ATOM      5  C   UNL     1      11.772 -59.331 -23.465  1.00  0.00     0.145 C 
ATOM      6  C   UNL     1      12.791 -60.422 -23.584  1.00  0.00     0.313 C 
ATOM      7  O   UNL     1      14.001 -60.281 -23.525  1.00  0.00    -0.252 OA
ATOM      8  O   UNL     1      12.176 -61.624 -23.791  1.00  0.00    -0.457 OA
ATOM      9  C   UNL     1      10.755 -61.437 -23.884  1.00  0.00     0.216 C 
ENDROOT
BRANCH   1  10
ATOM     10  C   UNL     1      11.582 -57.051 -22.451  1.00  0.00    -0.014 A 
ATOM     11  C   UNL     1      10.832 -54.365 -22.979  1.00  0.00     0.160 A 
ATOM     12  C   UNL     1      10.682 -54.918 -21.702  1.00  0.00     0.051 A 
ATOM     13  C   UNL     1      11.331 -55.181 -24.008  1.00  0.00     0.161 A 
ATOM     14  C   UNL     1      11.046 -56.245 -21.442  1.00  0.00     0.010 A 
ATOM     15  C   UNL     1      11.720 -56.500 -23.733  1.00  0.00     0.056 A 
BRANCH  11  16
ATOM     16  O   UNL     1      10.534 -53.064 -23.282  1.00  0.00    -0.493 OA
ATOM     17  C   UNL     1      11.372 -52.049 -22.746  1.00  0.00     0.278 C 
ENDBRANCH  11  16
BRANCH  13  18
ATOM     18  O   UNL     1      11.546 -54.816 -25.314  1.00  0.00    -0.493 OA
ATOM     19  C   UNL     1      12.810 -54.225 -25.598  1.00  0.00     0.278 C 
ENDBRANCH  13  18
ENDBRANCH   1  10
BRANCH   3  20
ATOM     20  O   UNL     1       9.179 -60.262 -21.225  1.00  0.00    -0.368 OA
ATOM     21  H   UNL     1       8.947 -59.330 -21.068  1.00  0.00     0.213 HD
ENDBRANCH   3  20
BRANCH   9  22
ATOM     22  C   UNL     1      10.274 -61.480 -25.327  1.00  0.00     0.001 A 
ATOM     23  C   UNL     1      10.828 -60.644 -26.332  1.00  0.00     0.058 A 
ATOM     24  C   UNL     1       9.268 -62.396 -25.681  1.00  0.00     0.058 A 
ATOM     25  C   UNL     1      10.378 -60.696 -27.659  1.00  0.00     0.165 A 
ATOM     26  C   UNL     1       8.843 -62.430 -26.992  1.00  0.00     0.170 A 
ATOM     27  C   UNL     1       9.377 -61.605 -27.953  1.00  0.00     0.207 A 
ATOM     28  O   UNL     1       7.878 -63.253 -27.483  1.00  0.00    -0.453 OA
ATOM     29  O   UNL     1       8.805 -61.811 -29.173  1.00  0.00    -0.450 OA
ATOM     30  C   UNL     1       7.862 -62.854 -28.868  1.00  0.00     0.468 C 
BRANCH  25  31
ATOM     31  O   UNL     1      10.836 -59.933 -28.694  1.00  0.00    -0.493 OA
ATOM     32  C   UNL     1      11.849 -58.980 -28.402  1.00  0.00     0.278 C 
ENDBRANCH  25  31
ENDBRANCH   9  22
TORSDOF 6
ENDMDL
MODEL 2
REMARK VINA RESULT:   -10.459      0.869      2.260
REMARK INTER + INTRA:         -14.731
REMARK INTER:                 -13.947
REMARK INTRA:                  -0.784
REMARK UNBOUND:                -0.910
REMARK SMILES COc1ccc([C@H]2O[C@@H](O)[C@H]3[C@@H]2C(=O)O[C@@H]3c2cc(OC)c3c(c2)OCO3)cc1OC
REMARK SMILES IDX 7 1 8 2 9 3 11 4 12 5 13 6 14 7 15 8 16 9 6 10 3 11 4 12
REMARK SMILES IDX 29 13 5 14 28 15 2 16 1 17 30 18 31 19 10 20 17 22 18 23
REMARK SMILES IDX 24 24 19 25 23 26 22 27 25 28 27 29 26 30 20 31 21 32
REMARK H PARENT 10 21
ROOT
ATOM      1  C   UNL     1      11.536 -58.264 -22.261  1.00  0.00     0.166 C 
ATOM      2  O   UNL     1      10.388 -58.806 -21.578  1.00  0.00    -0.344 OA
ATOM      3  C   UNL     1       9.834 -59.848 -22.368  1.00  0.00     0.255 C 
ATOM      4  C   UNL     1      10.312 -59.626 -23.793  1.00  0.00     0.108 C 
ATOM      5  C   UNL     1      11.655 -58.984 -23.589  1.00  0.00     0.145 C 
ATOM      6  C   UNL     1      12.559 -60.176 -23.507  1.00  0.00     0.313 C 
ATOM      7  O   UNL     1      13.700 -60.179 -23.076  1.00  0.00    -0.252 OA
ATOM      8  O   UNL     1      11.933 -61.282 -24.007  1.00  0.00    -0.457 OA
ATOM      9  C   UNL     1      10.632 -60.926 -24.501  1.00  0.00     0.216 C 
ENDROOT
BRANCH   1  10
ATOM     10  C   UNL     1      11.368 -56.771 -22.456  1.00  0.00    -0.014 A 
ATOM     11  C   UNL     1      11.028 -53.991 -22.910  1.00  0.00     0.160 A 
ATOM     12  C   UNL     1      10.843 -54.542 -21.636  1.00  0.00     0.051 A 
ATOM     13  C   UNL     1      11.351 -54.851 -23.972  1.00  0.00     0.161 A 
ATOM     14  C   UNL     1      11.005 -55.914 -21.412  1.00  0.00     0.010 A 
ATOM     15  C   UNL     1      11.539 -56.221 -23.734  1.00  0.00     0.056 A 
BRANCH  11  16
ATOM     16  O   UNL     1      10.925 -52.653 -23.179  1.00  0.00    -0.493 OA
ATOM     17  C   UNL     1      12.082 -51.847 -22.993  1.00  0.00     0.278 C 
ENDBRANCH  11  16
BRANCH  13  18
ATOM     18  O   UNL     1      11.568 -54.495 -25.280  1.00  0.00    -0.493 OA
ATOM     19  C   UNL     1      12.899 -54.659 -25.759  1.00  0.00     0.278 C 
ENDBRANCH  13  18
ENDBRANCH   1  10
BRANCH   3  20
ATOM     20  O   UNL     1       8.427 -59.759 -22.329  1.00  0.00    -0.368 OA
ATOM     21  H   UNL     1       8.176 -60.154 -21.477  1.00  0.00     0.213 HD
ENDBRANCH   3  20
BRANCH   9  22
ATOM     22  C   UNL     1      10.616 -60.814 -26.018  1.00  0.00     0.001 A 
ATOM     23  C   UNL     1       9.664 -61.503 -26.815  1.00  0.00     0.058 A 
ATOM     24  C   UNL     1      11.556 -59.980 -26.648  1.00  0.00     0.058 A 
ATOM     25  C   UNL     1       9.658 -61.388 -28.213  1.00  0.00     0.165 A 
ATOM     26  C   UNL     1      11.530 -59.883 -28.022  1.00  0.00     0.170 A 
ATOM     27  C   UNL     1      10.613 -60.566 -28.784  1.00  0.00     0.207 A 
ATOM     28  O   UNL     1      12.376 -59.126 -28.772  1.00  0.00    -0.453 OA
ATOM     29  O   UNL     1      10.774 -60.321 -30.116  1.00  0.00    -0.450 OA
ATOM     30  C   UNL     1      11.888 -59.409 -30.099  1.00  0.00     0.468 C 
BRANCH  25  31
ATOM     31  O   UNL     1       8.795 -62.012 -29.067  1.00  0.00    -0.493 OA
ATOM     32  C   UNL     1       8.297 -63.284 -28.675  1.00  0.00     0.278 C 
ENDBRANCH  25  31
ENDBRANCH   9  22
TORSDOF 6
ENDMDL
MODEL 3
REMARK VINA RESULT:   -10.438      1.253      7.491
REMARK INTER + INTRA:         -14.704
REMARK INTER:                 -13.643
REMARK INTRA:                  -1.061
REMARK UNBOUND:                -0.910
REMARK SMILES COc1ccc([C@H]2O[C@@H](O)[C@H]3[C@@H]2C(=O)O[C@@H]3c2cc(OC)c3c(c2)OCO3)cc1OC
REMARK SMILES IDX 7 1 8 2 9 3 11 4 12 5 13 6 14 7 15 8 16 9 6 10 3 11 4 12
REMARK SMILES IDX 29 13 5 14 28 15 2 16 1 17 30 18 31 19 10 20 17 22 18 23
REMARK SMILES IDX 24 24 19 25 23 26 22 27 25 28 27 29 26 30 20 31 21 32
REMARK H PARENT 10 21
ROOT
ATOM      1  C   UNL     1      10.608 -60.437 -24.788  1.00  0.00     0.166 C 
ATOM      2  O   UNL     1      11.749 -61.022 -24.128  1.00  0.00    -0.344 OA
ATOM      3  C   UNL     1      12.227 -60.113 -23.147  1.00  0.00     0.255 C 
ATOM      4  C   UNL     1      11.717 -58.735 -23.534  1.00  0.00     0.108 C 
ATOM      5  C   UNL     1      10.415 -59.048 -24.214  1.00  0.00     0.145 C 
ATOM      6  C   UNL     1       9.455 -59.043 -23.063  1.00  0.00     0.313 C 
ATOM      7  O   UNL     1       8.329 -59.511 -23.068  1.00  0.00    -0.252 OA
ATOM      8  O   UNL     1      10.011 -58.413 -21.985  1.00  0.00    -0.457 OA
ATOM      9  C   UNL     1      11.312 -57.912 -22.330  1.00  0.00     0.216 C 
ENDROOT
BRANCH   1  10
ATOM     10  C   UNL     1      10.845 -60.386 -26.284  1.00  0.00    -0.014 A 
ATOM     11  C   UNL     1      11.196 -60.300 -29.099  1.00  0.00     0.160 A 
ATOM     12  C   UNL     1      12.092 -59.652 -28.240  1.00  0.00     0.051 A 
ATOM     13  C   UNL     1      10.093 -60.966 -28.539  1.00  0.00     0.161 A 
ATOM     14  C   UNL     1      11.917 -59.689 -26.851  1.00  0.00     0.010 A 
ATOM     15  C   UNL     1       9.940 -61.023 -27.146  1.00  0.00     0.056 A 
BRANCH  11  16
ATOM     16  O   UNL     1      11.340 -60.333 -30.459  1.00  0.00    -0.493 OA
ATOM     17  C   UNL     1      12.074 -59.282 -31.075  1.00  0.00     0.278 C 
ENDBRANCH  11  16
BRANCH  13  18
ATOM     18  O   UNL     1       9.117 -61.652 -29.218  1.00  0.00    -0.493 OA
ATOM     19  C   UNL     1       8.756 -62.921 -28.682  1.00  0.00     0.278 C 
ENDBRANCH  13  18
ENDBRANCH   1  10
BRANCH   3  20
ATOM     20  O   UNL     1      13.637 -60.111 -23.167  1.00  0.00    -0.368 OA
ATOM     21  H   UNL     1      13.891 -60.996 -22.853  1.00  0.00     0.213 HD
ENDBRANCH   3  20
BRANCH   9  22
ATOM     22  C   UNL     1      11.288 -56.414 -22.594  1.00  0.00     0.001 A 
ATOM     23  C   UNL     1      11.707 -55.859 -23.832  1.00  0.00     0.058 A 
ATOM     24  C   UNL     1      10.811 -55.555 -21.589  1.00  0.00     0.058 A 
ATOM     25  C   UNL     1      11.676 -54.476 -24.063  1.00  0.00     0.165 A 
ATOM     26  C   UNL     1      10.788 -54.200 -21.840  1.00  0.00     0.170 A 
ATOM     27  C   UNL     1      11.210 -53.673 -23.037  1.00  0.00     0.207 A 
ATOM     28  O   UNL     1      10.363 -53.247 -20.968  1.00  0.00    -0.453 OA
ATOM     29  O   UNL     1      11.100 -52.314 -23.061  1.00  0.00    -0.450 OA
ATOM     30  C   UNL     1      10.563 -52.053 -21.753  1.00  0.00     0.468 C 
BRANCH  25  31
ATOM     31  O   UNL     1      12.061 -53.844 -25.210  1.00  0.00    -0.493 OA
ATOM     32  C   UNL     1      12.892 -54.570 -26.105  1.00  0.00     0.278 C 
ENDBRANCH  25  31
ENDBRANCH   9  22
TORSDOF 6
ENDMDL
MODEL 4
REMARK VINA RESULT:   -10.005      0.765      7.224
REMARK INTER + INTRA:         -14.131
REMARK INTER:                 -13.027
REMARK INTRA:                  -1.104
REMARK UNBOUND:                -0.910
REMARK SMILES COc1ccc([C@H]2O[C@@H](O)[C@H]3[C@@H]2C(=O)O[C@@H]3c2cc(OC)c3c(c2)OCO3)cc1OC
REMARK SMILES IDX 7 1 8 2 9 3 11 4 12 5 13 6 14 7 15 8 16 9 6 10 3 11 4 12
REMARK SMILES IDX 29 13 5 14 28 15 2 16 1 17 30 18 31 19 10 20 17 22 18 23
REMARK SMILES IDX 24 24 19 25 23 26 22 27 25 28 27 29 26 30 20 31 21 32
REMARK H PARENT 10 21
ROOT
ATOM      1  C   UNL     1      10.646 -61.426 -23.574  1.00  0.00     0.166 C 
ATOM      2  O   UNL     1      12.050 -61.740 -23.674  1.00  0.00    -0.344 OA
ATOM      3  C   UNL     1      12.803 -60.604 -23.277  1.00  0.00     0.255 C 
ATOM      4  C   UNL     1      11.893 -59.396 -23.420  1.00  0.00     0.108 C 
ATOM      5  C   UNL     1      10.535 -59.977 -23.145  1.00  0.00     0.145 C 
ATOM      6  C   UNL     1      10.433 -59.836 -21.656  1.00  0.00     0.313 C 
ATOM      7  O   UNL     1       9.634 -60.410 -20.936  1.00  0.00    -0.252 OA
ATOM      8  O   UNL     1      11.362 -58.943 -21.201  1.00  0.00    -0.457 OA
ATOM      9  C   UNL     1      12.093 -58.390 -22.307  1.00  0.00     0.216 C 
ENDROOT
BRANCH   1  10
ATOM     10  C   UNL     1       9.965 -61.660 -24.907  1.00  0.00    -0.014 A 
ATOM     11  C   UNL     1       8.769 -62.077 -27.446  1.00  0.00     0.160 A 
ATOM     12  C   UNL     1       8.300 -62.747 -26.309  1.00  0.00     0.051 A 
ATOM     13  C   UNL     1       9.872 -61.218 -27.311  1.00  0.00     0.161 A 
ATOM     14  C   UNL     1       8.893 -62.545 -25.057  1.00  0.00     0.010 A 
ATOM     15  C   UNL     1      10.442 -61.001 -26.048  1.00  0.00     0.056 A 
BRANCH  11  16
ATOM     16  O   UNL     1       8.204 -62.202 -28.686  1.00  0.00    -0.493 OA
ATOM     17  C   UNL     1       8.028 -63.514 -29.207  1.00  0.00     0.278 C 
ENDBRANCH  11  16
BRANCH  13  18
ATOM     18  O   UNL     1      10.467 -60.483 -28.306  1.00  0.00    -0.493 OA
ATOM     19  C   UNL     1      11.482 -59.576 -27.892  1.00  0.00     0.278 C 
ENDBRANCH  13  18
ENDBRANCH   1  10
BRANCH   3  20
ATOM     20  O   UNL     1      13.909 -60.459 -24.140  1.00  0.00    -0.368 OA
ATOM     21  H   UNL     1      14.297 -59.598 -23.905  1.00  0.00     0.213 HD
ENDBRANCH   3  20
BRANCH   9  22
ATOM     22  C   UNL     1      11.614 -56.990 -22.656  1.00  0.00     0.001 A 
ATOM     23  C   UNL     1      11.813 -56.422 -23.942  1.00  0.00     0.058 A 
ATOM     24  C   UNL     1      10.926 -56.244 -21.682  1.00  0.00     0.058 A 
ATOM     25  C   UNL     1      11.362 -55.131 -24.252  1.00  0.00     0.165 A 
ATOM     26  C   UNL     1      10.491 -54.978 -22.010  1.00  0.00     0.170 A 
ATOM     27  C   UNL     1      10.704 -54.434 -23.254  1.00  0.00     0.207 A 
ATOM     28  O   UNL     1       9.822 -54.137 -21.176  1.00  0.00    -0.453 OA
ATOM     29  O   UNL     1      10.191 -53.174 -23.352  1.00  0.00    -0.450 OA
ATOM     30  C   UNL     1       9.634 -52.996 -22.038  1.00  0.00     0.468 C 
BRANCH  25  31
ATOM     31  O   UNL     1      11.510 -54.493 -25.450  1.00  0.00    -0.493 OA
ATOM     32  C   UNL     1      12.823 -54.089 -25.814  1.00  0.00     0.278 C 
ENDBRANCH  25  31
ENDBRANCH   9  22
TORSDOF 6
ENDMDL
MODEL 5
REMARK VINA RESULT:    -9.017      1.388      2.172
REMARK INTER + INTRA:         -12.825
REMARK INTER:                 -11.940
REMARK INTRA:                  -0.885
REMARK UNBOUND:                -0.910
REMARK SMILES COc1ccc([C@H]2O[C@@H](O)[C@H]3[C@@H]2C(=O)O[C@@H]3c2cc(OC)c3c(c2)OCO3)cc1OC
REMARK SMILES IDX 7 1 8 2 9 3 11 4 12 5 13 6 14 7 15 8 16 9 6 10 3 11 4 12
REMARK SMILES IDX 29 13 5 14 28 15 2 16 1 17 30 18 31 19 10 20 17 22 18 23
REMARK SMILES IDX 24 24 19 25 23 26 22 27 25 28 27 29 26 30 20 31 21 32
REMARK H PARENT 10 21
ROOT
ATOM      1  C   UNL     1      11.314 -57.747 -23.123  1.00  0.00     0.166 C 
ATOM      2  O   UNL     1      10.088 -57.492 -22.409  1.00  0.00    -0.344 OA
ATOM      3  C   UNL     1       9.137 -58.487 -22.761  1.00  0.00     0.255 C 
ATOM      4  C   UNL     1       9.580 -59.072 -24.091  1.00  0.00     0.108 C 
ATOM      5  C   UNL     1      11.075 -58.944 -24.021  1.00  0.00     0.145 C 
ATOM      6  C   UNL     1      11.467 -60.231 -23.361  1.00  0.00     0.313 C 
ATOM      7  O   UNL     1      12.545 -60.471 -22.844  1.00  0.00    -0.252 OA
ATOM      8  O   UNL     1      10.441 -61.131 -23.433  1.00  0.00    -0.457 OA
ATOM      9  C   UNL     1       9.345 -60.566 -24.168  1.00  0.00     0.216 C 
ENDROOT
BRANCH   1  10
ATOM     10  C   UNL     1      11.710 -56.526 -23.927  1.00  0.00    -0.014 A 
ATOM     11  C   UNL     1      12.453 -54.188 -25.354  1.00  0.00     0.160 A 
ATOM     12  C   UNL     1      12.809 -55.461 -25.818  1.00  0.00     0.051 A 
ATOM     13  C   UNL     1      11.749 -54.089 -24.142  1.00  0.00     0.161 A 
ATOM     14  C   UNL     1      12.448 -56.614 -25.112  1.00  0.00     0.010 A 
ATOM     15  C   UNL     1      11.367 -55.251 -23.456  1.00  0.00     0.056 A 
BRANCH  11  16
ATOM     16  O   UNL     1      12.741 -53.029 -26.022  1.00  0.00    -0.493 OA
ATOM     17  C   UNL     1      13.882 -52.289 -25.606  1.00  0.00     0.278 C 
ENDBRANCH  11  16
BRANCH  13  18
ATOM     18  O   UNL     1      11.319 -52.936 -23.535  1.00  0.00    -0.493 OA
ATOM     19  C   UNL     1      10.222 -53.073 -22.638  1.00  0.00     0.278 C 
ENDBRANCH  13  18
ENDBRANCH   1  10
BRANCH   3  20
ATOM     20  O   UNL     1       7.872 -57.882 -22.917  1.00  0.00    -0.368 OA
ATOM     21  H   UNL     1       7.238 -58.546 -22.596  1.00  0.00     0.213 HD
ENDBRANCH   3  20
BRANCH   9  22
ATOM     22  C   UNL     1       9.284 -61.102 -25.591  1.00  0.00     0.001 A 
ATOM     23  C   UNL     1      10.039 -60.526 -26.647  1.00  0.00     0.058 A 
ATOM     24  C   UNL     1       8.476 -62.220 -25.862  1.00  0.00     0.058 A 
ATOM     25  C   UNL     1       9.976 -61.032 -27.953  1.00  0.00     0.165 A 
ATOM     26  C   UNL     1       8.433 -62.700 -27.153  1.00  0.00     0.170 A 
ATOM     27  C   UNL     1       9.156 -62.125 -28.170  1.00  0.00     0.207 A 
ATOM     28  O   UNL     1       7.695 -63.765 -27.570  1.00  0.00    -0.453 OA
ATOM     29  O   UNL     1       8.958 -62.763 -29.359  1.00  0.00    -0.450 OA
ATOM     30  C   UNL     1       8.037 -63.798 -28.971  1.00  0.00     0.468 C 
BRANCH  25  31
ATOM     31  O   UNL     1      10.652 -60.548 -29.036  1.00  0.00    -0.493 OA
ATOM     32  C   UNL     1      11.754 -59.687 -28.784  1.00  0.00     0.278 C 
ENDBRANCH  25  31
ENDBRANCH   9  22
TORSDOF 6
ENDMDL
MODEL 6
REMARK VINA RESULT:    -8.708      6.517     11.073
REMARK INTER + INTRA:         -12.418
REMARK INTER:                 -11.306
REMARK INTRA:                  -1.112
REMARK UNBOUND:                -0.910
REMARK SMILES COc1ccc([C@H]2O[C@@H](O)[C@H]3[C@@H]2C(=O)O[C@@H]3c2cc(OC)c3c(c2)OCO3)cc1OC
REMARK SMILES IDX 7 1 8 2 9 3 11 4 12 5 13 6 14 7 15 8 16 9 6 10 3 11 4 12
REMARK SMILES IDX 29 13 5 14 28 15 2 16 1 17 30 18 31 19 10 20 17 22 18 23
REMARK SMILES IDX 24 24 19 25 23 26 22 27 25 28 27 29 26 30 20 31 21 32
REMARK H PARENT 10 21
ROOT
ATOM      1  C   UNL     1      14.082 -46.800 -24.647  1.00  0.00     0.166 C 
ATOM      2  O   UNL     1      12.892 -45.986 -24.636  1.00  0.00    -0.344 OA
ATOM      3  C   UNL     1      11.867 -46.681 -23.939  1.00  0.00     0.255 C 
ATOM      4  C   UNL     1      12.240 -48.154 -23.956  1.00  0.00     0.108 C 
ATOM      5  C   UNL     1      13.742 -48.109 -23.963  1.00  0.00     0.145 C 
ATOM      6  C   UNL     1      14.059 -48.080 -22.499  1.00  0.00     0.313 C 
ATOM      7  O   UNL     1      15.129 -47.768 -22.005  1.00  0.00    -0.252 OA
ATOM      8  O   UNL     1      12.973 -48.477 -21.771  1.00  0.00    -0.457 OA
ATOM      9  C   UNL     1      11.901 -48.847 -22.653  1.00  0.00     0.216 C 
ENDROOT
BRANCH   1  10
ATOM     10  C   UNL     1      14.542 -47.027 -26.072  1.00  0.00    -0.014 A 
ATOM     11  C   UNL     1      15.392 -47.541 -28.730  1.00  0.00     0.160 A 
ATOM     12  C   UNL     1      14.799 -46.321 -28.386  1.00  0.00     0.051 A 
ATOM     13  C   UNL     1      15.526 -48.525 -27.736  1.00  0.00     0.161 A 
ATOM     14  C   UNL     1      14.374 -46.068 -27.076  1.00  0.00     0.010 A 
ATOM     15  C   UNL     1      15.124 -48.253 -26.421  1.00  0.00     0.056 A 
BRANCH  11  16
ATOM     16  O   UNL     1      15.864 -47.829 -29.982  1.00  0.00    -0.493 OA
ATOM     17  C   UNL     1      14.915 -48.142 -30.994  1.00  0.00     0.278 C 
ENDBRANCH  11  16
BRANCH  13  18
ATOM     18  O   UNL     1      16.079 -49.773 -27.886  1.00  0.00    -0.493 OA
ATOM     19  C   UNL     1      17.411 -49.928 -27.409  1.00  0.00     0.278 C 
ENDBRANCH  13  18
ENDBRANCH   1  10
BRANCH   3  20
ATOM     20  O   UNL     1      10.644 -46.502 -24.618  1.00  0.00    -0.368 OA
ATOM     21  H   UNL     1       9.970 -46.486 -23.916  1.00  0.00     0.213 HD
ENDBRANCH   3  20
BRANCH   9  22
ATOM     22  C   UNL     1      11.773 -50.357 -22.781  1.00  0.00     0.001 A 
ATOM     23  C   UNL     1      12.346 -51.074 -23.864  1.00  0.00     0.058 A 
ATOM     24  C   UNL     1      11.088 -51.068 -21.779  1.00  0.00     0.058 A 
ATOM     25  C   UNL     1      12.223 -52.468 -23.968  1.00  0.00     0.165 A 
ATOM     26  C   UNL     1      10.982 -52.437 -21.903  1.00  0.00     0.170 A 
ATOM     27  C   UNL     1      11.528 -53.118 -22.964  1.00  0.00     0.207 A 
ATOM     28  O   UNL     1      10.347 -53.257 -21.023  1.00  0.00    -0.453 OA
ATOM     29  O   UNL     1      11.299 -54.460 -22.879  1.00  0.00    -0.450 OA
ATOM     30  C   UNL     1      10.555 -54.539 -21.650  1.00  0.00     0.468 C 
BRANCH  25  31
ATOM     31  O   UNL     1      12.727 -53.247 -24.969  1.00  0.00    -0.493 OA
ATOM     32  C   UNL     1      13.787 -52.704 -25.745  1.00  0.00     0.278 C 
ENDBRANCH  25  31
ENDBRANCH   9  22
TORSDOF 6
ENDMDL
MODEL 7
REMARK VINA RESULT:    -8.545      5.420     12.213
REMARK INTER + INTRA:         -12.202
REMARK INTER:                 -11.218
REMARK INTRA:                  -0.985
REMARK UNBOUND:                -0.910
REMARK SMILES COc1ccc([C@H]2O[C@@H](O)[C@H]3[C@@H]2C(=O)O[C@@H]3c2cc(OC)c3c(c2)OCO3)cc1OC
REMARK SMILES IDX 7 1 8 2 9 3 11 4 12 5 13 6 14 7 15 8 16 9 6 10 3 11 4 12
REMARK SMILES IDX 29 13 5 14 28 15 2 16 1 17 30 18 31 19 10 20 17 22 18 23
REMARK SMILES IDX 24 24 19 25 23 26 22 27 25 28 27 29 26 30 20 31 21 32
REMARK H PARENT 10 21
ROOT
ATOM      1  C   UNL     1      14.642 -51.399 -24.890  1.00  0.00     0.166 C 
ATOM      2  O   UNL     1      14.986 -51.352 -26.290  1.00  0.00    -0.344 OA
ATOM      3  C   UNL     1      14.907 -50.006 -26.736  1.00  0.00     0.255 C 
ATOM      4  C   UNL     1      14.011 -49.266 -25.757  1.00  0.00     0.108 C 
ATOM      5  C   UNL     1      14.268 -49.993 -24.467  1.00  0.00     0.145 C 
ATOM      6  C   UNL     1      15.439 -49.240 -23.914  1.00  0.00     0.313 C 
ATOM      7  O   UNL     1      16.177 -49.620 -23.021  1.00  0.00    -0.252 OA
ATOM      8  O   UNL     1      15.564 -48.032 -24.540  1.00  0.00    -0.457 OA
ATOM      9  C   UNL     1      14.496 -47.858 -25.485  1.00  0.00     0.216 C 
ENDROOT
BRANCH   1  10
ATOM     10  C   UNL     1      13.496 -52.365 -24.669  1.00  0.00    -0.014 A 
ATOM     11  C   UNL     1      11.300 -54.104 -24.218  1.00  0.00     0.160 A 
ATOM     12  C   UNL     1      12.195 -54.331 -25.270  1.00  0.00     0.051 A 
ATOM     13  C   UNL     1      11.490 -52.972 -23.408  1.00  0.00     0.161 A 
ATOM     14  C   UNL     1      13.276 -53.471 -25.497  1.00  0.00     0.010 A 
ATOM     15  C   UNL     1      12.591 -52.131 -23.625  1.00  0.00     0.056 A 
BRANCH  11  16
ATOM     16  O   UNL     1      10.251 -54.933 -23.923  1.00  0.00    -0.493 OA
ATOM     17  C   UNL     1      10.457 -55.937 -22.936  1.00  0.00     0.278 C 
ENDBRANCH  11  16
BRANCH  13  18
ATOM     18  O   UNL     1      10.719 -52.590 -22.339  1.00  0.00    -0.493 OA
ATOM     19  C   UNL     1      11.294 -51.620 -21.469  1.00  0.00     0.278 C 
ENDBRANCH  13  18
ENDBRANCH   1  10
BRANCH   3  20
ATOM     20  O   UNL     1      14.319 -49.978 -28.018  1.00  0.00    -0.368 OA
ATOM     21  H   UNL     1      14.744 -50.707 -28.502  1.00  0.00     0.213 HD
ENDBRANCH   3  20
BRANCH   9  22
ATOM     22  C   UNL     1      13.415 -46.933 -24.949  1.00  0.00     0.001 A 
ATOM     23  C   UNL     1      12.382 -47.396 -24.092  1.00  0.00     0.058 A 
ATOM     24  C   UNL     1      13.456 -45.569 -25.290  1.00  0.00     0.058 A 
ATOM     25  C   UNL     1      11.393 -46.531 -23.602  1.00  0.00     0.165 A 
ATOM     26  C   UNL     1      12.474 -44.739 -24.795  1.00  0.00     0.170 A 
ATOM     27  C   UNL     1      11.470 -45.202 -23.978  1.00  0.00     0.207 A 
ATOM     28  O   UNL     1      12.377 -43.404 -25.042  1.00  0.00    -0.453 OA
ATOM     29  O   UNL     1      10.613 -44.207 -23.612  1.00  0.00    -0.450 OA
ATOM     30  C   UNL     1      11.193 -43.076 -24.285  1.00  0.00     0.468 C 
BRANCH  25  31
ATOM     31  O   UNL     1      10.357 -46.876 -22.783  1.00  0.00    -0.493 OA
ATOM     32  C   UNL     1      10.201 -48.255 -22.477  1.00  0.00     0.278 C 
ENDBRANCH  25  31
ENDBRANCH   9  22
TORSDOF 6
ENDMDL
MODEL 8
REMARK VINA RESULT:    -8.485      5.932     11.628
REMARK INTER + INTRA:         -12.123
REMARK INTER:                 -10.891
REMARK INTRA:                  -1.232
REMARK UNBOUND:                -0.910
REMARK SMILES COc1ccc([C@H]2O[C@@H](O)[C@H]3[C@@H]2C(=O)O[C@@H]3c2cc(OC)c3c(c2)OCO3)cc1OC
REMARK SMILES IDX 7 1 8 2 9 3 11 4 12 5 13 6 14 7 15 8 16 9 6 10 3 11 4 12
REMARK SMILES IDX 29 13 5 14 28 15 2 16 1 17 30 18 31 19 10 20 17 22 18 23
REMARK SMILES IDX 24 24 19 25 23 26 22 27 25 28 27 29 26 30 20 31 21 32
REMARK H PARENT 10 21
ROOT
ATOM      1  C   UNL     1      11.969 -49.119 -22.864  1.00  0.00     0.166 C 
ATOM      2  O   UNL     1      12.889 -48.819 -21.795  1.00  0.00    -0.344 OA
ATOM      3  C   UNL     1      14.009 -48.131 -22.334  1.00  0.00     0.255 C 
ATOM      4  C   UNL     1      14.053 -48.450 -23.819  1.00  0.00     0.108 C 
ATOM      5  C   UNL     1      12.600 -48.636 -24.154  1.00  0.00     0.145 C 
ATOM      6  C   UNL     1      12.179 -47.240 -24.500  1.00  0.00     0.313 C 
ATOM      7  O   UNL     1      11.031 -46.837 -24.574  1.00  0.00    -0.252 OA
ATOM      8  O   UNL     1      13.275 -46.463 -24.747  1.00  0.00    -0.457 OA
ATOM      9  C   UNL     1      14.469 -47.256 -24.651  1.00  0.00     0.216 C 
ENDROOT
BRANCH   1  10
ATOM     10  C   UNL     1      11.694 -50.609 -22.909  1.00  0.00    -0.014 A 
ATOM     11  C   UNL     1      11.261 -53.410 -23.034  1.00  0.00     0.160 A 
ATOM     12  C   UNL     1      10.673 -52.634 -22.028  1.00  0.00     0.051 A 
ATOM     13  C   UNL     1      12.102 -52.778 -23.964  1.00  0.00     0.161 A 
ATOM     14  C   UNL     1      10.891 -51.252 -21.962  1.00  0.00     0.010 A 
ATOM     15  C   UNL     1      12.292 -51.389 -23.908  1.00  0.00     0.056 A 
BRANCH  11  16
ATOM     16  O   UNL     1      11.051 -54.755 -23.173  1.00  0.00    -0.493 OA
ATOM     17  C   UNL     1      10.981 -55.543 -21.991  1.00  0.00     0.278 C 
ENDBRANCH  11  16
BRANCH  13  18
ATOM     18  O   UNL     1      12.760 -53.372 -25.012  1.00  0.00    -0.493 OA
ATOM     19  C   UNL     1      13.591 -52.519 -25.793  1.00  0.00     0.278 C 
ENDBRANCH  13  18
ENDBRANCH   1  10
BRANCH   3  20
ATOM     20  O   UNL     1      15.184 -48.611 -21.719  1.00  0.00    -0.368 OA
ATOM     21  H   UNL     1      15.751 -48.897 -22.457  1.00  0.00     0.213 HD
ENDBRANCH   3  20
BRANCH   9  22
ATOM     22  C   UNL     1      15.013 -47.627 -26.022  1.00  0.00     0.001 A 
ATOM     23  C   UNL     1      15.753 -48.818 -26.243  1.00  0.00     0.058 A 
ATOM     24  C   UNL     1      14.749 -46.777 -27.111  1.00  0.00     0.058 A 
ATOM     25  C   UNL     1      16.245 -49.150 -27.514  1.00  0.00     0.165 A 
ATOM     26  C   UNL     1      15.241 -47.125 -28.350  1.00  0.00     0.170 A 
ATOM     27  C   UNL     1      15.970 -48.273 -28.548  1.00  0.00     0.207 A 
ATOM     28  O   UNL     1      15.076 -46.404 -29.491  1.00  0.00    -0.453 OA
ATOM     29  O   UNL     1      16.354 -48.412 -29.849  1.00  0.00    -0.450 OA
ATOM     30  C   UNL     1      15.784 -47.230 -30.438  1.00  0.00     0.468 C 
BRANCH  25  31
ATOM     31  O   UNL     1      16.971 -50.262 -27.830  1.00  0.00    -0.493 OA
ATOM     32  C   UNL     1      18.299 -50.336 -27.328  1.00  0.00     0.278 C 
ENDBRANCH  25  31
ENDBRANCH   9  22
TORSDOF 6
ENDMDL
MODEL 9
REMARK VINA RESULT:    -8.255      5.858     10.727
REMARK INTER + INTRA:         -11.819
REMARK INTER:                 -10.531
REMARK INTRA:                  -1.288
REMARK UNBOUND:                -0.910
REMARK SMILES COc1ccc([C@H]2O[C@@H](O)[C@H]3[C@@H]2C(=O)O[C@@H]3c2cc(OC)c3c(c2)OCO3)cc1OC
REMARK SMILES IDX 7 1 8 2 9 3 11 4 12 5 13 6 14 7 15 8 16 9 6 10 3 11 4 12
REMARK SMILES IDX 29 13 5 14 28 15 2 16 1 17 30 18 31 19 10 20 17 22 18 23
REMARK SMILES IDX 24 24 19 25 23 26 22 27 25 28 27 29 26 30 20 31 21 32
REMARK H PARENT 10 21
ROOT
ATOM      1  C   UNL     1      14.848 -47.848 -25.963  1.00  0.00     0.166 C 
ATOM      2  O   UNL     1      16.053 -47.901 -25.173  1.00  0.00    -0.344 OA
ATOM      3  C   UNL     1      16.104 -49.150 -24.498  1.00  0.00     0.255 C 
ATOM      4  C   UNL     1      14.682 -49.684 -24.446  1.00  0.00     0.108 C 
ATOM      5  C   UNL     1      14.079 -49.128 -25.705  1.00  0.00     0.145 C 
ATOM      6  C   UNL     1      14.407 -50.195 -26.704  1.00  0.00     0.313 C 
ATOM      7  O   UNL     1      14.367 -50.076 -27.917  1.00  0.00    -0.252 OA
ATOM      8  O   UNL     1      14.748 -51.353 -26.066  1.00  0.00    -0.457 OA
ATOM      9  C   UNL     1      14.623 -51.184 -24.645  1.00  0.00     0.216 C 
ENDROOT
BRANCH   1  10
ATOM     10  C   UNL     1      14.032 -46.629 -25.584  1.00  0.00    -0.014 A 
ATOM     11  C   UNL     1      12.467 -44.394 -24.805  1.00  0.00     0.160 A 
ATOM     12  C   UNL     1      13.706 -44.222 -25.435  1.00  0.00     0.051 A 
ATOM     13  C   UNL     1      12.028 -45.700 -24.533  1.00  0.00     0.161 A 
ATOM     14  C   UNL     1      14.482 -45.324 -25.814  1.00  0.00     0.010 A 
ATOM     15  C   UNL     1      12.798 -46.799 -24.942  1.00  0.00     0.056 A 
BRANCH  11  16
ATOM     16  O   UNL     1      11.647 -43.357 -24.450  1.00  0.00    -0.493 OA
ATOM     17  C   UNL     1      12.252 -42.105 -24.151  1.00  0.00     0.278 C 
ENDBRANCH  11  16
BRANCH  13  18
ATOM     18  O   UNL     1      10.850 -46.061 -23.928  1.00  0.00    -0.493 OA
ATOM     19  C   UNL     1      10.963 -46.617 -22.622  1.00  0.00     0.278 C 
ENDBRANCH  13  18
ENDBRANCH   1  10
BRANCH   3  20
ATOM     20  O   UNL     1      16.573 -48.947 -23.184  1.00  0.00    -0.368 OA
ATOM     21  H   UNL     1      16.043 -48.206 -22.843  1.00  0.00     0.213 HD
ENDBRANCH   3  20
BRANCH   9  22
ATOM     22  C   UNL     1      13.349 -51.820 -24.110  1.00  0.00     0.001 A 
ATOM     23  C   UNL     1      12.577 -51.216 -23.083  1.00  0.00     0.058 A 
ATOM     24  C   UNL     1      12.908 -53.032 -24.671  1.00  0.00     0.058 A 
ATOM     25  C   UNL     1      11.402 -51.813 -22.602  1.00  0.00     0.165 A 
ATOM     26  C   UNL     1      11.750 -53.598 -24.183  1.00  0.00     0.170 A 
ATOM     27  C   UNL     1      11.019 -53.011 -23.178  1.00  0.00     0.207 A 
ATOM     28  O   UNL     1      11.204 -54.766 -24.617  1.00  0.00    -0.453 OA
ATOM     29  O   UNL     1       9.917 -53.746 -22.855  1.00  0.00    -0.450 OA
ATOM     30  C   UNL     1      10.040 -54.850 -23.770  1.00  0.00     0.468 C 
BRANCH  25  31
ATOM     31  O   UNL     1      10.596 -51.321 -21.617  1.00  0.00    -0.493 OA
ATOM     32  C   UNL     1       9.663 -50.313 -21.982  1.00  0.00     0.278 C 
ENDBRANCH  25  31
ENDBRANCH   9  22
TORSDOF 6
ENDMDL
