MODEL 1
REMARK VINA RESULT:    -9.787      0.000      0.000
REMARK INTER + INTRA:         -15.807
REMARK INTER:                 -14.364
REMARK INTRA:                  -1.443
REMARK UNBOUND:                -1.443
REMARK SMILES COc1ccccc1[C@@H](C)NS(=O)(=O)NC(=O)OCc1ccccc1
REMARK SMILES IDX 11 1 9 3 10 4 8 5 3 6 4 7 5 8 7 9 6 10 2 11 1 12 12 13 13 14
REMARK SMILES IDX 14 15 15 16 16 17 17 19 18 20 19 21 20 22 21 23 25 24 22 25
REMARK SMILES IDX 24 26 23 27
REMARK H PARENT 11 2 15 18
ROOT
ATOM      1  N   UNL     1      11.051 -60.512 -25.265  1.00  0.00    -0.190 NA
ATOM      2  H   UNL     1      11.108 -59.536 -25.538  1.00  0.00     0.143 HD
ENDROOT
BRANCH   1   3
ATOM      3  C   UNL     1       9.788 -61.222 -25.526  1.00  0.00     0.102 C 
ATOM      4  C   UNL     1       9.543 -61.215 -27.038  1.00  0.00     0.031 C 
BRANCH   3   5
ATOM      5  C   UNL     1       8.632 -60.577 -24.771  1.00  0.00     0.012 A 
ATOM      6  C   UNL     1       7.651 -61.353 -24.123  1.00  0.00     0.123 A 
ATOM      7  C   UNL     1       6.614 -60.728 -23.420  1.00  0.00     0.047 A 
ATOM      8  C   UNL     1       6.526 -59.336 -23.375  1.00  0.00     0.004 A 
ATOM      9  C   UNL     1       8.521 -59.173 -24.717  1.00  0.00     0.009 A 
ATOM     10  C   UNL     1       7.476 -58.558 -24.026  1.00  0.00     0.001 A 
BRANCH   6  11
ATOM     11  O   UNL     1       7.795 -62.713 -24.182  1.00  0.00    -0.496 OA
ATOM     12  C   UNL     1       7.833 -63.394 -22.931  1.00  0.00     0.278 C 
ENDBRANCH   6  11
ENDBRANCH   3   5
ENDBRANCH   1   3
BRANCH   1  13
ATOM     13  S   UNL     1      11.929 -60.884 -23.909  1.00  0.00     0.304 S 
ATOM     14  O   UNL     1      13.308 -60.871 -24.338  1.00  0.00    -0.189 OA
ATOM     15  O   UNL     1      11.340 -62.032 -23.274  1.00  0.00    -0.189 OA
BRANCH  13  16
ATOM     16  N   UNL     1      11.721 -59.515 -23.045  1.00  0.00    -0.205 N 
ATOM     17  C   UNL     1      11.770 -58.215 -23.513  1.00  0.00     0.422 C 
ATOM     18  H   UNL     1      11.438 -59.649 -22.084  1.00  0.00     0.188 HD
ATOM     19  O   UNL     1      12.000 -57.881 -24.663  1.00  0.00    -0.223 OA
BRANCH  17  20
ATOM     20  O   UNL     1      11.534 -57.349 -22.497  1.00  0.00    -0.444 OA
BRANCH  20  21
ATOM     21  C   UNL     1      10.359 -56.554 -22.676  1.00  0.00     0.270 C 
BRANCH  21  22
ATOM     22  C   UNL     1      10.748 -55.095 -22.647  1.00  0.00    -0.011 A 
ATOM     23  C   UNL     1      11.364 -54.494 -23.756  1.00  0.00     0.007 A 
ATOM     24  C   UNL     1      10.449 -54.304 -21.529  1.00  0.00     0.007 A 
ATOM     25  C   UNL     1      11.692 -53.138 -23.738  1.00  0.00     0.000 A 
ATOM     26  C   UNL     1      10.777 -52.947 -21.513  1.00  0.00     0.000 A 
ATOM     27  C   UNL     1      11.398 -52.365 -22.617  1.00  0.00     0.000 A 
ENDBRANCH  21  22
ENDBRANCH  20  21
ENDBRANCH  17  20
ENDBRANCH  13  16
ENDBRANCH   1  13
TORSDOF 8
ENDMDL
MODEL 2
REMARK VINA RESULT:    -9.680      2.409      3.726
REMARK INTER + INTRA:         -15.650
REMARK INTER:                 -14.480
REMARK INTRA:                  -1.170
REMARK UNBOUND:                -1.443
REMARK SMILES COc1ccccc1[C@@H](C)NS(=O)(=O)NC(=O)OCc1ccccc1
REMARK SMILES IDX 11 1 9 3 10 4 8 5 3 6 4 7 5 8 7 9 6 10 2 11 1 12 12 13 13 14
REMARK SMILES IDX 14 15 15 16 16 17 17 19 18 20 19 21 20 22 21 23 25 24 22 25
REMARK SMILES IDX 24 26 23 27
REMARK H PARENT 11 2 15 18
ROOT
ATOM      1  N   UNL     1       9.774 -59.365 -24.660  1.00  0.00    -0.190 NA
ATOM      2  H   UNL     1       9.939 -58.935 -25.565  1.00  0.00     0.143 HD
ENDROOT
BRANCH   1   3
ATOM      3  C   UNL     1       9.940 -60.823 -24.554  1.00  0.00     0.102 C 
ATOM      4  C   UNL     1      11.433 -61.119 -24.377  1.00  0.00     0.031 C 
BRANCH   3   5
ATOM      5  C   UNL     1       9.375 -61.529 -25.781  1.00  0.00     0.012 A 
ATOM      6  C   UNL     1       9.727 -61.133 -27.086  1.00  0.00     0.123 A 
ATOM      7  C   UNL     1       9.206 -61.817 -28.191  1.00  0.00     0.047 A 
ATOM      8  C   UNL     1       8.318 -62.878 -28.015  1.00  0.00     0.004 A 
ATOM      9  C   UNL     1       8.472 -62.600 -25.625  1.00  0.00     0.009 A 
ATOM     10  C   UNL     1       7.947 -63.268 -26.733  1.00  0.00     0.001 A 
BRANCH   6  11
ATOM     11  O   UNL     1      10.617 -60.099 -27.204  1.00  0.00    -0.496 OA
ATOM     12  C   UNL     1      11.400 -60.079 -28.393  1.00  0.00     0.278 C 
ENDBRANCH   6  11
ENDBRANCH   3   5
ENDBRANCH   1   3
BRANCH   1  13
ATOM     13  S   UNL     1       8.598 -58.612 -23.764  1.00  0.00     0.304 S 
ATOM     14  O   UNL     1       8.393 -59.467 -22.618  1.00  0.00    -0.189 OA
ATOM     15  O   UNL     1       7.518 -58.237 -24.636  1.00  0.00    -0.189 OA
BRANCH  13  16
ATOM     16  N   UNL     1       9.435 -57.324 -23.213  1.00  0.00    -0.205 N 
ATOM     17  C   UNL     1      10.659 -57.334 -22.570  1.00  0.00     0.422 C 
ATOM     18  H   UNL     1       9.048 -56.422 -23.453  1.00  0.00     0.188 HD
ATOM     19  O   UNL     1      11.308 -58.328 -22.292  1.00  0.00    -0.223 OA
BRANCH  17  20
ATOM     20  O   UNL     1      11.038 -56.066 -22.277  1.00  0.00    -0.444 OA
BRANCH  20  21
ATOM     21  C   UNL     1      10.281 -55.065 -22.963  1.00  0.00     0.270 C 
BRANCH  21  22
ATOM     22  C   UNL     1      11.235 -54.094 -23.618  1.00  0.00    -0.011 A 
ATOM     23  C   UNL     1      11.915 -54.441 -24.796  1.00  0.00     0.007 A 
ATOM     24  C   UNL     1      11.415 -52.810 -23.086  1.00  0.00     0.007 A 
ATOM     25  C   UNL     1      12.770 -53.530 -25.417  1.00  0.00     0.000 A 
ATOM     26  C   UNL     1      12.272 -51.899 -23.709  1.00  0.00     0.000 A 
ATOM     27  C   UNL     1      12.949 -52.260 -24.873  1.00  0.00     0.000 A 
ENDBRANCH  21  22
ENDBRANCH  20  21
ENDBRANCH  17  20
ENDBRANCH  13  16
ENDBRANCH   1  13
TORSDOF 8
ENDMDL
MODEL 3
REMARK VINA RESULT:    -9.581      2.187      3.189
REMARK INTER + INTRA:         -15.505
REMARK INTER:                 -14.318
REMARK INTRA:                  -1.187
REMARK UNBOUND:                -1.443
REMARK SMILES COc1ccccc1[C@@H](C)NS(=O)(=O)NC(=O)OCc1ccccc1
REMARK SMILES IDX 11 1 9 3 10 4 8 5 3 6 4 7 5 8 7 9 6 10 2 11 1 12 12 13 13 14
REMARK SMILES IDX 14 15 15 16 16 17 17 19 18 20 19 21 20 22 21 23 25 24 22 25
REMARK SMILES IDX 24 26 23 27
REMARK H PARENT 11 2 15 18
ROOT
ATOM      1  N   UNL     1       9.734 -59.335 -24.828  1.00  0.00    -0.190 NA
ATOM      2  H   UNL     1       9.728 -58.957 -25.770  1.00  0.00     0.143 HD
ENDROOT
BRANCH   1   3
ATOM      3  C   UNL     1      10.101 -60.750 -24.660  1.00  0.00     0.102 C 
ATOM      4  C   UNL     1      11.619 -60.869 -24.826  1.00  0.00     0.031 C 
BRANCH   3   5
ATOM      5  C   UNL     1       9.361 -61.630 -25.661  1.00  0.00     0.012 A 
ATOM      6  C   UNL     1       8.357 -62.529 -25.251  1.00  0.00     0.123 A 
ATOM      7  C   UNL     1       7.682 -63.307 -26.199  1.00  0.00     0.047 A 
ATOM      8  C   UNL     1       8.010 -63.220 -27.552  1.00  0.00     0.004 A 
ATOM      9  C   UNL     1       9.681 -61.562 -27.032  1.00  0.00     0.009 A 
ATOM     10  C   UNL     1       9.012 -62.351 -27.969  1.00  0.00     0.001 A 
BRANCH   6  11
ATOM     11  O   UNL     1       8.060 -62.561 -23.914  1.00  0.00    -0.496 OA
ATOM     12  C   UNL     1       7.967 -63.854 -23.324  1.00  0.00     0.278 C 
ENDBRANCH   6  11
ENDBRANCH   3   5
ENDBRANCH   1   3
BRANCH   1  13
ATOM     13  S   UNL     1       8.590 -58.667 -23.829  1.00  0.00     0.304 S 
ATOM     14  O   UNL     1       8.460 -59.596 -22.732  1.00  0.00    -0.189 OA
ATOM     15  O   UNL     1       7.460 -58.262 -24.622  1.00  0.00    -0.189 OA
BRANCH  13  16
ATOM     16  N   UNL     1       9.428 -57.397 -23.239  1.00  0.00    -0.205 N 
ATOM     17  C   UNL     1      10.641 -57.432 -22.574  1.00  0.00     0.422 C 
ATOM     18  H   UNL     1       9.054 -56.488 -23.469  1.00  0.00     0.188 HD
ATOM     19  O   UNL     1      11.275 -58.437 -22.303  1.00  0.00    -0.223 OA
BRANCH  17  20
ATOM     20  O   UNL     1      11.025 -56.172 -22.251  1.00  0.00    -0.444 OA
BRANCH  20  21
ATOM     21  C   UNL     1      10.211 -55.152 -22.834  1.00  0.00     0.270 C 
BRANCH  21  22
ATOM     22  C   UNL     1      11.106 -54.108 -23.457  1.00  0.00    -0.011 A 
ATOM     23  C   UNL     1      11.314 -52.872 -22.826  1.00  0.00     0.007 A 
ATOM     24  C   UNL     1      11.788 -54.381 -24.651  1.00  0.00     0.007 A 
ATOM     25  C   UNL     1      12.168 -51.922 -23.387  1.00  0.00     0.000 A 
ATOM     26  C   UNL     1      12.643 -53.429 -25.212  1.00  0.00     0.000 A 
ATOM     27  C   UNL     1      12.832 -52.201 -24.580  1.00  0.00     0.000 A 
ENDBRANCH  21  22
ENDBRANCH  20  21
ENDBRANCH  17  20
ENDBRANCH  13  16
ENDBRANCH   1  13
TORSDOF 8
ENDMDL
MODEL 4
REMARK VINA RESULT:    -9.333      3.622      8.456
REMARK INTER + INTRA:         -15.141
REMARK INTER:                 -14.617
REMARK INTRA:                  -0.524
REMARK UNBOUND:                -1.443
REMARK SMILES COc1ccccc1[C@@H](C)NS(=O)(=O)NC(=O)OCc1ccccc1
REMARK SMILES IDX 11 1 9 3 10 4 8 5 3 6 4 7 5 8 7 9 6 10 2 11 1 12 12 13 13 14
REMARK SMILES IDX 14 15 15 16 16 17 17 19 18 20 19 21 20 22 21 23 25 24 22 25
REMARK SMILES IDX 24 26 23 27
REMARK H PARENT 11 2 15 18
ROOT
ATOM      1  N   UNL     1      10.998 -53.171 -22.810  1.00  0.00    -0.190 NA
ATOM      2  H   UNL     1      11.256 -53.769 -23.589  1.00  0.00     0.143 HD
ENDROOT
BRANCH   1   3
ATOM      3  C   UNL     1      11.752 -51.921 -22.625  1.00  0.00     0.102 C 
ATOM      4  C   UNL     1      10.764 -50.828 -22.206  1.00  0.00     0.031 C 
BRANCH   3   5
ATOM      5  C   UNL     1      12.498 -51.539 -23.899  1.00  0.00     0.012 A 
ATOM      6  C   UNL     1      12.842 -52.502 -24.868  1.00  0.00     0.123 A 
ATOM      7  C   UNL     1      13.507 -52.114 -26.037  1.00  0.00     0.047 A 
ATOM      8  C   UNL     1      13.858 -50.779 -26.244  1.00  0.00     0.004 A 
ATOM      9  C   UNL     1      12.866 -50.198 -24.125  1.00  0.00     0.009 A 
ATOM     10  C   UNL     1      13.542 -49.822 -25.286  1.00  0.00     0.001 A 
BRANCH   6  11
ATOM     11  O   UNL     1      12.457 -53.794 -24.625  1.00  0.00    -0.496 OA
ATOM     12  C   UNL     1      12.601 -54.704 -25.711  1.00  0.00     0.278 C 
ENDBRANCH   6  11
ENDBRANCH   3   5
ENDBRANCH   1   3
BRANCH   1  13
ATOM     13  S   UNL     1      10.457 -54.000 -21.479  1.00  0.00     0.304 S 
ATOM     14  O   UNL     1       9.036 -54.158 -21.685  1.00  0.00    -0.189 OA
ATOM     15  O   UNL     1      10.989 -53.378 -20.296  1.00  0.00    -0.189 OA
BRANCH  13  16
ATOM     16  N   UNL     1      11.112 -55.467 -21.764  1.00  0.00    -0.205 N 
ATOM     17  C   UNL     1      10.815 -56.328 -22.805  1.00  0.00     0.422 C 
ATOM     18  H   UNL     1      11.880 -55.723 -21.160  1.00  0.00     0.188 HD
ATOM     19  O   UNL     1       9.987 -56.129 -23.678  1.00  0.00    -0.223 OA
BRANCH  17  20
ATOM     20  O   UNL     1      11.577 -57.445 -22.712  1.00  0.00    -0.444 OA
BRANCH  20  21
ATOM     21  C   UNL     1      11.244 -58.280 -21.601  1.00  0.00     0.270 C 
BRANCH  21  22
ATOM     22  C   UNL     1      10.986 -59.681 -22.101  1.00  0.00    -0.011 A 
ATOM     23  C   UNL     1      10.052 -60.511 -21.463  1.00  0.00     0.007 A 
ATOM     24  C   UNL     1      11.640 -60.155 -23.248  1.00  0.00     0.007 A 
ATOM     25  C   UNL     1       9.792 -61.793 -21.948  1.00  0.00     0.000 A 
ATOM     26  C   UNL     1      11.378 -61.439 -23.732  1.00  0.00     0.000 A 
ATOM     27  C   UNL     1      10.455 -62.257 -23.082  1.00  0.00     0.000 A 
ENDBRANCH  21  22
ENDBRANCH  20  21
ENDBRANCH  17  20
ENDBRANCH  13  16
ENDBRANCH   1  13
TORSDOF 8
ENDMDL
MODEL 5
REMARK VINA RESULT:    -9.237      2.675      7.789
REMARK INTER + INTRA:         -15.000
REMARK INTER:                 -14.479
REMARK INTRA:                  -0.521
REMARK UNBOUND:                -1.443
REMARK SMILES COc1ccccc1[C@@H](C)NS(=O)(=O)NC(=O)OCc1ccccc1
REMARK SMILES IDX 11 1 9 3 10 4 8 5 3 6 4 7 5 8 7 9 6 10 2 11 1 12 12 13 13 14
REMARK SMILES IDX 14 15 15 16 16 17 17 19 18 20 19 21 20 22 21 23 25 24 22 25
REMARK SMILES IDX 24 26 23 27
REMARK H PARENT 11 2 15 18
ROOT
ATOM      1  N   UNL     1      10.532 -54.953 -23.617  1.00  0.00    -0.190 NA
ATOM      2  H   UNL     1      10.754 -55.091 -24.598  1.00  0.00     0.143 HD
ENDROOT
BRANCH   1   3
ATOM      3  C   UNL     1      11.032 -53.732 -22.966  1.00  0.00     0.102 C 
ATOM      4  C   UNL     1       9.824 -52.905 -22.515  1.00  0.00     0.031 C 
BRANCH   3   5
ATOM      5  C   UNL     1      11.929 -52.938 -23.909  1.00  0.00     0.012 A 
ATOM      6  C   UNL     1      12.528 -53.537 -25.035  1.00  0.00     0.123 A 
ATOM      7  C   UNL     1      13.329 -52.773 -25.892  1.00  0.00     0.047 A 
ATOM      8  C   UNL     1      13.563 -51.423 -25.630  1.00  0.00     0.004 A 
ATOM      9  C   UNL     1      12.184 -51.575 -23.659  1.00  0.00     0.009 A 
ATOM     10  C   UNL     1      12.994 -50.824 -24.511  1.00  0.00     0.001 A 
BRANCH   6  11
ATOM     11  O   UNL     1      12.249 -54.859 -25.257  1.00  0.00    -0.496 OA
ATOM     12  C   UNL     1      12.979 -55.484 -26.310  1.00  0.00     0.278 C 
ENDBRANCH   6  11
ENDBRANCH   3   5
ENDBRANCH   1   3
BRANCH   1  13
ATOM     13  S   UNL     1      10.440 -56.362 -22.745  1.00  0.00     0.304 S 
ATOM     14  O   UNL     1       9.054 -56.762 -22.823  1.00  0.00    -0.189 OA
ATOM     15  O   UNL     1      11.107 -56.173 -21.486  1.00  0.00    -0.189 OA
BRANCH  13  16
ATOM     16  N   UNL     1      11.250 -57.371 -23.739  1.00  0.00    -0.205 N 
ATOM     17  C   UNL     1      11.932 -58.521 -23.388  1.00  0.00     0.422 C 
ATOM     18  H   UNL     1      11.160 -57.171 -24.725  1.00  0.00     0.188 HD
ATOM     19  O   UNL     1      12.054 -58.959 -22.257  1.00  0.00    -0.223 OA
BRANCH  17  20
ATOM     20  O   UNL     1      12.466 -59.097 -24.494  1.00  0.00    -0.444 OA
BRANCH  20  21
ATOM     21  C   UNL     1      12.676 -60.506 -24.366  1.00  0.00     0.270 C 
BRANCH  21  22
ATOM     22  C   UNL     1      11.345 -61.210 -24.476  1.00  0.00    -0.011 A 
ATOM     23  C   UNL     1      10.542 -61.052 -25.617  1.00  0.00     0.007 A 
ATOM     24  C   UNL     1      10.916 -62.077 -23.461  1.00  0.00     0.007 A 
ATOM     25  C   UNL     1       9.328 -61.731 -25.730  1.00  0.00     0.000 A 
ATOM     26  C   UNL     1       9.700 -62.756 -23.577  1.00  0.00     0.000 A 
ATOM     27  C   UNL     1       8.907 -62.582 -24.710  1.00  0.00     0.000 A 
ENDBRANCH  21  22
ENDBRANCH  20  21
ENDBRANCH  17  20
ENDBRANCH  13  16
ENDBRANCH   1  13
TORSDOF 8
ENDMDL
MODEL 6
REMARK VINA RESULT:    -9.083      1.934      2.612
REMARK INTER + INTRA:         -14.774
REMARK INTER:                 -13.560
REMARK INTRA:                  -1.214
REMARK UNBOUND:                -1.443
REMARK SMILES COc1ccccc1[C@@H](C)NS(=O)(=O)NC(=O)OCc1ccccc1
REMARK SMILES IDX 11 1 9 3 10 4 8 5 3 6 4 7 5 8 7 9 6 10 2 11 1 12 12 13 13 14
REMARK SMILES IDX 14 15 15 16 16 17 17 19 18 20 19 21 20 22 21 23 25 24 22 25
REMARK SMILES IDX 24 26 23 27
REMARK H PARENT 11 2 15 18
ROOT
ATOM      1  N   UNL     1      10.268 -59.537 -24.379  1.00  0.00    -0.190 NA
ATOM      2  H   UNL     1       9.263 -59.481 -24.248  1.00  0.00     0.143 HD
ENDROOT
BRANCH   1   3
ATOM      3  C   UNL     1      10.795 -60.671 -25.155  1.00  0.00     0.102 C 
ATOM      4  C   UNL     1      11.498 -60.112 -26.396  1.00  0.00     0.031 C 
BRANCH   3   5
ATOM      5  C   UNL     1       9.680 -61.639 -25.535  1.00  0.00     0.012 A 
ATOM      6  C   UNL     1       8.936 -62.326 -24.557  1.00  0.00     0.123 A 
ATOM      7  C   UNL     1       7.904 -63.191 -24.941  1.00  0.00     0.047 A 
ATOM      8  C   UNL     1       7.619 -63.401 -26.290  1.00  0.00     0.004 A 
ATOM      9  C   UNL     1       9.380 -61.870 -26.893  1.00  0.00     0.009 A 
ATOM     10  C   UNL     1       8.359 -62.744 -27.267  1.00  0.00     0.001 A 
BRANCH   6  11
ATOM     11  O   UNL     1       9.243 -62.070 -23.247  1.00  0.00    -0.496 OA
ATOM     12  C   UNL     1       9.362 -63.207 -22.397  1.00  0.00     0.278 C 
ENDBRANCH   6  11
ENDBRANCH   3   5
ENDBRANCH   1   3
BRANCH   1  13
ATOM     13  S   UNL     1      11.146 -58.946 -23.102  1.00  0.00     0.304 S 
ATOM     14  O   UNL     1      12.528 -59.112 -23.487  1.00  0.00    -0.189 OA
ATOM     15  O   UNL     1      10.624 -59.500 -21.883  1.00  0.00    -0.189 OA
BRANCH  13  16
ATOM     16  N   UNL     1      10.833 -57.351 -23.250  1.00  0.00    -0.205 N 
ATOM     17  C   UNL     1       9.598 -56.753 -23.416  1.00  0.00     0.422 C 
ATOM     18  H   UNL     1      11.627 -56.740 -23.114  1.00  0.00     0.188 HD
ATOM     19  O   UNL     1       8.530 -57.336 -23.499  1.00  0.00    -0.223 OA
BRANCH  17  20
ATOM     20  O   UNL     1       9.742 -55.406 -23.486  1.00  0.00    -0.444 OA
BRANCH  20  21
ATOM     21  C   UNL     1      10.331 -54.827 -22.319  1.00  0.00     0.270 C 
BRANCH  21  22
ATOM     22  C   UNL     1      11.075 -53.575 -22.716  1.00  0.00    -0.011 A 
ATOM     23  C   UNL     1      11.794 -53.520 -23.920  1.00  0.00     0.007 A 
ATOM     24  C   UNL     1      11.013 -52.428 -21.912  1.00  0.00     0.007 A 
ATOM     25  C   UNL     1      12.453 -52.351 -24.301  1.00  0.00     0.000 A 
ATOM     26  C   UNL     1      11.674 -51.259 -22.295  1.00  0.00     0.000 A 
ATOM     27  C   UNL     1      12.393 -51.221 -23.488  1.00  0.00     0.000 A 
ENDBRANCH  21  22
ENDBRANCH  20  21
ENDBRANCH  17  20
ENDBRANCH  13  16
ENDBRANCH   1  13
TORSDOF 8
ENDMDL
MODEL 7
REMARK VINA RESULT:    -9.066      1.964      7.354
REMARK INTER + INTRA:         -14.749
REMARK INTER:                 -13.995
REMARK INTRA:                  -0.754
REMARK UNBOUND:                -1.443
REMARK SMILES COc1ccccc1[C@@H](C)NS(=O)(=O)NC(=O)OCc1ccccc1
REMARK SMILES IDX 11 1 9 3 10 4 8 5 3 6 4 7 5 8 7 9 6 10 2 11 1 12 12 13 13 14
REMARK SMILES IDX 14 15 15 16 16 17 17 19 18 20 19 21 20 22 21 23 25 24 22 25
REMARK SMILES IDX 24 26 23 27
REMARK H PARENT 11 2 15 18
ROOT
ATOM      1  N   UNL     1      10.591 -57.828 -23.454  1.00  0.00    -0.190 NA
ATOM      2  H   UNL     1       9.905 -57.278 -23.961  1.00  0.00     0.143 HD
ENDROOT
BRANCH   1   3
ATOM      3  C   UNL     1      11.491 -57.118 -22.532  1.00  0.00     0.102 C 
ATOM      4  C   UNL     1      11.299 -57.710 -21.132  1.00  0.00     0.031 C 
BRANCH   3   5
ATOM      5  C   UNL     1      11.216 -55.618 -22.544  1.00  0.00     0.012 A 
ATOM      6  C   UNL     1      11.427 -54.841 -23.700  1.00  0.00     0.123 A 
ATOM      7  C   UNL     1      11.144 -53.470 -23.684  1.00  0.00     0.047 A 
ATOM      8  C   UNL     1      10.675 -52.856 -22.522  1.00  0.00     0.004 A 
ATOM      9  C   UNL     1      10.748 -54.977 -21.380  1.00  0.00     0.009 A 
ATOM     10  C   UNL     1      10.481 -53.608 -21.369  1.00  0.00     0.001 A 
BRANCH   6  11
ATOM     11  O   UNL     1      11.869 -55.496 -24.819  1.00  0.00    -0.496 OA
ATOM     12  C   UNL     1      12.591 -54.709 -25.761  1.00  0.00     0.278 C 
ENDBRANCH   6  11
ENDBRANCH   3   5
ENDBRANCH   1   3
BRANCH   1  13
ATOM     13  S   UNL     1      11.158 -59.138 -24.298  1.00  0.00     0.304 S 
ATOM     14  O   UNL     1      12.597 -59.049 -24.210  1.00  0.00    -0.189 OA
ATOM     15  O   UNL     1      10.476 -59.206 -25.563  1.00  0.00    -0.189 OA
BRANCH  13  16
ATOM     16  N   UNL     1      10.725 -60.344 -23.287  1.00  0.00    -0.205 N 
ATOM     17  C   UNL     1       9.492 -60.532 -22.691  1.00  0.00     0.422 C 
ATOM     18  H   UNL     1      11.414 -61.072 -23.163  1.00  0.00     0.188 HD
ATOM     19  O   UNL     1       8.523 -59.803 -22.814  1.00  0.00    -0.223 OA
BRANCH  17  20
ATOM     20  O   UNL     1       9.515 -61.653 -21.928  1.00  0.00    -0.444 OA
BRANCH  20  21
ATOM     21  C   UNL     1       9.957 -62.819 -22.629  1.00  0.00     0.270 C 
BRANCH  21  22
ATOM     22  C   UNL     1       9.002 -63.098 -23.764  1.00  0.00    -0.011 A 
ATOM     23  C   UNL     1       7.848 -63.871 -23.557  1.00  0.00     0.007 A 
ATOM     24  C   UNL     1       9.226 -62.543 -25.032  1.00  0.00     0.007 A 
ATOM     25  C   UNL     1       6.950 -64.100 -24.600  1.00  0.00     0.000 A 
ATOM     26  C   UNL     1       8.326 -62.773 -26.075  1.00  0.00     0.000 A 
ATOM     27  C   UNL     1       7.189 -63.551 -25.859  1.00  0.00     0.000 A 
ENDBRANCH  21  22
ENDBRANCH  20  21
ENDBRANCH  17  20
ENDBRANCH  13  16
ENDBRANCH   1  13
TORSDOF 8
ENDMDL
MODEL 8
REMARK VINA RESULT:    -9.029      1.312      2.663
REMARK INTER + INTRA:         -14.694
REMARK INTER:                 -13.781
REMARK INTRA:                  -0.913
REMARK UNBOUND:                -1.443
REMARK SMILES COc1ccccc1[C@@H](C)NS(=O)(=O)NC(=O)OCc1ccccc1
REMARK SMILES IDX 11 1 9 3 10 4 8 5 3 6 4 7 5 8 7 9 6 10 2 11 1 12 12 13 13 14
REMARK SMILES IDX 14 15 15 16 16 17 17 19 18 20 19 21 20 22 21 23 25 24 22 25
REMARK SMILES IDX 24 26 23 27
REMARK H PARENT 11 2 15 18
ROOT
ATOM      1  N   UNL     1      10.801 -60.695 -24.545  1.00  0.00    -0.190 NA
ATOM      2  H   UNL     1      10.815 -61.688 -24.334  1.00  0.00     0.143 HD
ENDROOT
BRANCH   1   3
ATOM      3  C   UNL     1       9.761 -60.206 -25.464  1.00  0.00     0.102 C 
ATOM      4  C   UNL     1       8.696 -59.482 -24.633  1.00  0.00     0.031 C 
BRANCH   3   5
ATOM      5  C   UNL     1       9.156 -61.352 -26.266  1.00  0.00     0.012 A 
ATOM      6  C   UNL     1       8.406 -62.370 -25.646  1.00  0.00     0.123 A 
ATOM      7  C   UNL     1       7.846 -63.397 -26.416  1.00  0.00     0.047 A 
ATOM      8  C   UNL     1       8.044 -63.437 -27.797  1.00  0.00     0.004 A 
ATOM      9  C   UNL     1       9.349 -61.415 -27.661  1.00  0.00     0.009 A 
ATOM     10  C   UNL     1       8.799 -62.449 -28.419  1.00  0.00     0.001 A 
BRANCH   6  11
ATOM     11  O   UNL     1       8.225 -62.272 -24.292  1.00  0.00    -0.496 OA
ATOM     12  C   UNL     1       6.939 -62.644 -23.804  1.00  0.00     0.278 C 
ENDBRANCH   6  11
ENDBRANCH   3   5
ENDBRANCH   1   3
BRANCH   1  13
ATOM     13  S   UNL     1      12.302 -59.991 -24.565  1.00  0.00     0.304 S 
ATOM     14  O   UNL     1      12.504 -59.574 -25.933  1.00  0.00    -0.189 OA
ATOM     15  O   UNL     1      13.231 -60.856 -23.889  1.00  0.00    -0.189 OA
BRANCH  13  16
ATOM     16  N   UNL     1      11.993 -58.625 -23.726  1.00  0.00    -0.205 N 
ATOM     17  C   UNL     1      11.535 -58.530 -22.424  1.00  0.00     0.422 C 
ATOM     18  H   UNL     1      12.254 -57.766 -24.188  1.00  0.00     0.188 HD
ATOM     19  O   UNL     1      11.267 -59.468 -21.693  1.00  0.00    -0.223 OA
BRANCH  17  20
ATOM     20  O   UNL     1      11.413 -57.225 -22.073  1.00  0.00    -0.444 OA
BRANCH  20  21
ATOM     21  C   UNL     1      10.462 -56.503 -22.859  1.00  0.00     0.270 C 
BRANCH  21  22
ATOM     22  C   UNL     1      10.774 -55.028 -22.770  1.00  0.00    -0.011 A 
ATOM     23  C   UNL     1      10.464 -54.297 -21.613  1.00  0.00     0.007 A 
ATOM     24  C   UNL     1      11.430 -54.378 -23.825  1.00  0.00     0.007 A 
ATOM     25  C   UNL     1      10.784 -52.942 -21.521  1.00  0.00     0.000 A 
ATOM     26  C   UNL     1      11.750 -53.022 -23.732  1.00  0.00     0.000 A 
ATOM     27  C   UNL     1      11.427 -52.305 -22.581  1.00  0.00     0.000 A 
ENDBRANCH  21  22
ENDBRANCH  20  21
ENDBRANCH  17  20
ENDBRANCH  13  16
ENDBRANCH   1  13
TORSDOF 8
ENDMDL
MODEL 9
REMARK VINA RESULT:    -9.027      1.721      2.892
REMARK INTER + INTRA:         -14.692
REMARK INTER:                 -13.642
REMARK INTRA:                  -1.050
REMARK UNBOUND:                -1.443
REMARK SMILES COc1ccccc1[C@@H](C)NS(=O)(=O)NC(=O)OCc1ccccc1
REMARK SMILES IDX 11 1 9 3 10 4 8 5 3 6 4 7 5 8 7 9 6 10 2 11 1 12 12 13 13 14
REMARK SMILES IDX 14 15 15 16 16 17 17 19 18 20 19 21 20 22 21 23 25 24 22 25
REMARK SMILES IDX 24 26 23 27
REMARK H PARENT 11 2 15 18
ROOT
ATOM      1  N   UNL     1      10.382 -59.072 -24.037  1.00  0.00    -0.190 NA
ATOM      2  H   UNL     1       9.513 -58.548 -24.016  1.00  0.00     0.143 HD
ENDROOT
BRANCH   1   3
ATOM      3  C   UNL     1      10.391 -60.353 -24.760  1.00  0.00     0.102 C 
ATOM      4  C   UNL     1      10.142 -60.063 -26.244  1.00  0.00     0.031 C 
BRANCH   3   5
ATOM      5  C   UNL     1       9.344 -61.307 -24.197  1.00  0.00     0.012 A 
ATOM      6  C   UNL     1       8.009 -60.903 -24.001  1.00  0.00     0.123 A 
ATOM      7  C   UNL     1       7.067 -61.811 -23.502  1.00  0.00     0.047 A 
ATOM      8  C   UNL     1       7.443 -63.113 -23.171  1.00  0.00     0.004 A 
ATOM      9  C   UNL     1       9.704 -62.625 -23.851  1.00  0.00     0.009 A 
ATOM     10  C   UNL     1       8.762 -63.519 -23.341  1.00  0.00     0.001 A 
BRANCH   6  11
ATOM     11  O   UNL     1       7.688 -59.621 -24.361  1.00  0.00    -0.496 OA
ATOM     12  C   UNL     1       6.792 -58.933 -23.493  1.00  0.00     0.278 C 
ENDBRANCH   6  11
ENDBRANCH   3   5
ENDBRANCH   1   3
BRANCH   1  13
ATOM     13  S   UNL     1      11.302 -58.903 -22.667  1.00  0.00     0.304 S 
ATOM     14  O   UNL     1      12.617 -59.372 -23.037  1.00  0.00    -0.189 OA
ATOM     15  O   UNL     1      10.581 -59.459 -21.553  1.00  0.00    -0.189 OA
BRANCH  13  16
ATOM     16  N   UNL     1      11.414 -57.277 -22.593  1.00  0.00    -0.205 N 
ATOM     17  C   UNL     1      10.413 -56.357 -22.842  1.00  0.00     0.422 C 
ATOM     18  H   UNL     1      12.290 -56.920 -22.238  1.00  0.00     0.188 HD
ATOM     19  O   UNL     1       9.272 -56.621 -23.182  1.00  0.00    -0.223 OA
BRANCH  17  20
ATOM     20  O   UNL     1      10.887 -55.099 -22.664  1.00  0.00    -0.444 OA
BRANCH  20  21
ATOM     21  C   UNL     1      11.430 -54.513 -23.850  1.00  0.00     0.270 C 
BRANCH  21  22
ATOM     22  C   UNL     1      11.761 -53.066 -23.573  1.00  0.00    -0.011 A 
ATOM     23  C   UNL     1      11.307 -52.438 -22.403  1.00  0.00     0.007 A 
ATOM     24  C   UNL     1      12.575 -52.344 -24.456  1.00  0.00     0.007 A 
ATOM     25  C   UNL     1      11.643 -51.111 -22.133  1.00  0.00     0.000 A 
ATOM     26  C   UNL     1      12.910 -51.016 -24.185  1.00  0.00     0.000 A 
ATOM     27  C   UNL     1      12.444 -50.400 -23.024  1.00  0.00     0.000 A 
ENDBRANCH  21  22
ENDBRANCH  20  21
ENDBRANCH  17  20
ENDBRANCH  13  16
ENDBRANCH   1  13
TORSDOF 8
ENDMDL
