MODEL 1
REMARK VINA RESULT:   -10.069      0.000      0.000
REMARK INTER + INTRA:         -10.363
REMARK INTER:                 -10.363
REMARK INTRA:                   0.000
REMARK UNBOUND:                 0.000
REMARK SMILES CC1=C[C@H]2Cc3nc4cc(Cl)ccc4c(N)c3[C@@H](C1)C2
REMARK SMILES IDX 1 1 2 2 3 3 4 4 5 5 6 6 7 7 8 8 9 9 10 10 11 11 12 12 13 13
REMARK SMILES IDX 14 14 15 15 17 16 18 17 19 18 20 19 16 20
REMARK H PARENT 16 21 16 22
ROOT
ATOM      1  C   UNL     1       8.757 -61.649 -24.672  1.00  0.00     0.039 C 
ATOM      2  C   UNL     1      10.147 -61.102 -24.534  1.00  0.00    -0.076 C 
ATOM      3  C   UNL     1      10.897 -60.765 -25.599  1.00  0.00    -0.024 C 
ATOM      4  C   UNL     1      12.308 -60.231 -25.477  1.00  0.00     0.018 C 
ATOM      5  C   UNL     1      12.325 -58.701 -25.593  1.00  0.00     0.064 C 
ATOM      6  C   UNL     1      11.897 -57.982 -24.333  1.00  0.00     0.047 A 
ATOM      7  N   UNL     1      11.720 -56.648 -24.478  1.00  0.00    -0.252 NA
ATOM      8  C   UNL     1      11.423 -55.913 -23.402  1.00  0.00     0.074 A 
ATOM      9  C   UNL     1      11.297 -54.543 -23.581  1.00  0.00     0.049 A 
ATOM     10  C   UNL     1      11.018 -53.696 -22.513  1.00  0.00     0.043 A 
ATOM     11  Cl  UNL     1      10.873 -52.002 -22.775  1.00  0.00    -0.084 Cl
ATOM     12  C   UNL     1      10.865 -54.211 -21.235  1.00  0.00     0.021 A 
ATOM     13  C   UNL     1      10.984 -55.586 -21.037  1.00  0.00     0.014 A 
ATOM     14  C   UNL     1      11.252 -56.468 -22.115  1.00  0.00     0.024 A 
ATOM     15  C   UNL     1      11.360 -57.883 -21.989  1.00  0.00     0.046 A 
ATOM     16  C   UNL     1      11.759 -58.644 -23.106  1.00  0.00     0.001 A 
ATOM     17  C   UNL     1      11.995 -60.150 -23.023  1.00  0.00     0.028 C 
ATOM     18  C   UNL     1      10.663 -60.933 -23.120  1.00  0.00     0.039 C 
ATOM     19  C   UNL     1      12.935 -60.623 -24.138  1.00  0.00     0.017 C 
ENDROOT
BRANCH  15  20
ATOM     20  N   UNL     1      11.269 -58.491 -20.713  1.00  0.00    -0.398 N 
ATOM     21  H   UNL     1      11.632 -59.437 -20.676  1.00  0.00     0.156 HD
ATOM     22  H   UNL     1      10.337 -58.456 -20.314  1.00  0.00     0.156 HD
ENDBRANCH  15  20
TORSDOF 1
ENDMDL
MODEL 2
REMARK VINA RESULT:    -9.637      4.440      8.035
REMARK INTER + INTRA:          -9.918
REMARK INTER:                  -9.918
REMARK INTRA:                   0.000
REMARK UNBOUND:                 0.000
REMARK SMILES CC1=C[C@H]2Cc3nc4cc(Cl)ccc4c(N)c3[C@@H](C1)C2
REMARK SMILES IDX 1 1 2 2 3 3 4 4 5 5 6 6 7 7 8 8 9 9 10 10 11 11 12 12 13 13
REMARK SMILES IDX 14 14 15 15 17 16 18 17 19 18 20 19 16 20
REMARK H PARENT 16 21 16 22
ROOT
ATOM      1  C   UNL     1      17.230 -50.412 -23.318  1.00  0.00     0.039 C 
ATOM      2  C   UNL     1      15.925 -50.221 -24.032  1.00  0.00    -0.076 C 
ATOM      3  C   UNL     1      15.758 -50.547 -25.327  1.00  0.00    -0.024 C 
ATOM      4  C   UNL     1      14.454 -50.341 -26.067  1.00  0.00     0.018 C 
ATOM      5  C   UNL     1      13.653 -51.647 -26.138  1.00  0.00     0.064 C 
ATOM      6  C   UNL     1      12.924 -51.993 -24.858  1.00  0.00     0.047 A 
ATOM      7  N   UNL     1      12.376 -53.231 -24.839  1.00  0.00    -0.252 NA
ATOM      8  C   UNL     1      11.639 -53.598 -23.786  1.00  0.00     0.074 A 
ATOM      9  C   UNL     1      11.055 -54.855 -23.824  1.00  0.00     0.049 A 
ATOM     10  C   UNL     1      10.248 -55.310 -22.785  1.00  0.00     0.043 A 
ATOM     11  Cl  UNL     1       9.537 -56.874 -22.871  1.00  0.00    -0.084 Cl
ATOM     12  C   UNL     1      10.007 -54.504 -21.684  1.00  0.00     0.021 A 
ATOM     13  C   UNL     1      10.591 -53.238 -21.626  1.00  0.00     0.014 A 
ATOM     14  C   UNL     1      11.429 -52.763 -22.667  1.00  0.00     0.024 A 
ATOM     15  C   UNL     1      12.077 -51.494 -22.661  1.00  0.00     0.046 A 
ATOM     16  C   UNL     1      12.779 -51.075 -23.809  1.00  0.00     0.001 A 
ATOM     17  C   UNL     1      13.413 -49.691 -23.917  1.00  0.00     0.028 C 
ATOM     18  C   UNL     1      14.790 -49.648 -23.209  1.00  0.00     0.039 C 
ATOM     19  C   UNL     1      13.591 -49.279 -25.383  1.00  0.00     0.017 C 
ENDROOT
BRANCH  15  20
ATOM     20  N   UNL     1      11.847 -50.584 -21.600  1.00  0.00    -0.398 N 
ATOM     21  H   UNL     1      11.003 -50.031 -21.703  1.00  0.00     0.156 HD
ATOM     22  H   UNL     1      12.640 -49.983 -21.405  1.00  0.00     0.156 HD
ENDBRANCH  15  20
TORSDOF 1
ENDMDL
MODEL 3
REMARK VINA RESULT:    -9.385      3.645      6.788
REMARK INTER + INTRA:          -9.659
REMARK INTER:                  -9.659
REMARK INTRA:                   0.000
REMARK UNBOUND:                 0.000
REMARK SMILES CC1=C[C@H]2Cc3nc4cc(Cl)ccc4c(N)c3[C@@H](C1)C2
REMARK SMILES IDX 1 1 2 2 3 3 4 4 5 5 6 6 7 7 8 8 9 9 10 10 11 11 12 12 13 13
REMARK SMILES IDX 14 14 15 15 17 16 18 17 19 18 20 19 16 20
REMARK H PARENT 16 21 16 22
ROOT
ATOM      1  C   UNL     1      10.142 -55.784 -23.122  1.00  0.00     0.039 C 
ATOM      2  C   UNL     1      10.787 -57.114 -22.867  1.00  0.00    -0.076 C 
ATOM      3  C   UNL     1      10.701 -57.740 -21.679  1.00  0.00    -0.024 C 
ATOM      4  C   UNL     1      11.362 -59.072 -21.399  1.00  0.00     0.018 C 
ATOM      5  C   UNL     1      10.354 -60.221 -21.528  1.00  0.00     0.064 C 
ATOM      6  C   UNL     1      10.054 -60.619 -22.956  1.00  0.00     0.047 A 
ATOM      7  N   UNL     1       9.028 -61.492 -23.094  1.00  0.00    -0.252 NA
ATOM      8  C   UNL     1       8.740 -61.969 -24.309  1.00  0.00     0.074 A 
ATOM      9  C   UNL     1       7.714 -62.897 -24.403  1.00  0.00     0.049 A 
ATOM     10  C   UNL     1       7.365 -63.469 -25.622  1.00  0.00     0.043 A 
ATOM     11  Cl  UNL     1       6.088 -64.621 -25.697  1.00  0.00    -0.084 Cl
ATOM     12  C   UNL     1       8.047 -63.122 -26.777  1.00  0.00     0.021 A 
ATOM     13  C   UNL     1       9.079 -62.186 -26.703  1.00  0.00     0.014 A 
ATOM     14  C   UNL     1       9.439 -61.580 -25.472  1.00  0.00     0.024 A 
ATOM     15  C   UNL     1      10.463 -60.599 -25.328  1.00  0.00     0.046 A 
ATOM     16  C   UNL     1      10.822 -60.165 -24.036  1.00  0.00     0.001 A 
ATOM     17  C   UNL     1      11.976 -59.195 -23.794  1.00  0.00     0.028 C 
ATOM     18  C   UNL     1      11.535 -57.730 -24.031  1.00  0.00     0.039 C 
ATOM     19  C   UNL     1      12.519 -59.330 -22.367  1.00  0.00     0.017 C 
ENDROOT
BRANCH  15  20
ATOM     20  N   UNL     1      11.247 -60.222 -26.446  1.00  0.00    -0.398 N 
ATOM     21  H   UNL     1      11.894 -59.463 -26.263  1.00  0.00     0.156 HD
ATOM     22  H   UNL     1      10.698 -60.024 -27.276  1.00  0.00     0.156 HD
ENDBRANCH  15  20
TORSDOF 1
ENDMDL
MODEL 4
REMARK VINA RESULT:    -9.285      4.353      5.966
REMARK INTER + INTRA:          -9.557
REMARK INTER:                  -9.557
REMARK INTRA:                   0.000
REMARK UNBOUND:                 0.000
REMARK SMILES CC1=C[C@H]2Cc3nc4cc(Cl)ccc4c(N)c3[C@@H](C1)C2
REMARK SMILES IDX 1 1 2 2 3 3 4 4 5 5 6 6 7 7 8 8 9 9 10 10 11 11 12 12 13 13
REMARK SMILES IDX 14 14 15 15 17 16 18 17 19 18 20 19 16 20
REMARK H PARENT 16 21 16 22
ROOT
ATOM      1  C   UNL     1       6.181 -59.345 -22.791  1.00  0.00     0.039 C 
ATOM      2  C   UNL     1       7.211 -60.405 -23.051  1.00  0.00    -0.076 C 
ATOM      3  C   UNL     1       6.891 -61.612 -23.554  1.00  0.00    -0.024 C 
ATOM      4  C   UNL     1       7.915 -62.698 -23.803  1.00  0.00     0.018 C 
ATOM      5  C   UNL     1       8.328 -62.732 -25.280  1.00  0.00     0.064 C 
ATOM      6  C   UNL     1       9.313 -61.652 -25.670  1.00  0.00     0.047 A 
ATOM      7  N   UNL     1       9.536 -61.547 -27.001  1.00  0.00    -0.252 NA
ATOM      8  C   UNL     1      10.454 -60.679 -27.438  1.00  0.00     0.074 A 
ATOM      9  C   UNL     1      10.688 -60.634 -28.804  1.00  0.00     0.049 A 
ATOM     10  C   UNL     1      11.646 -59.782 -29.346  1.00  0.00     0.043 A 
ATOM     11  Cl  UNL     1      11.911 -59.759 -31.046  1.00  0.00    -0.084 Cl
ATOM     12  C   UNL     1      12.394 -58.958 -28.522  1.00  0.00     0.021 A 
ATOM     13  C   UNL     1      12.169 -58.986 -27.145  1.00  0.00     0.014 A 
ATOM     14  C   UNL     1      11.186 -59.835 -26.575  1.00  0.00     0.024 A 
ATOM     15  C   UNL     1      10.886 -59.896 -25.184  1.00  0.00     0.046 A 
ATOM     16  C   UNL     1       9.983 -60.873 -24.717  1.00  0.00     0.001 A 
ATOM     17  C   UNL     1       9.688 -61.067 -23.232  1.00  0.00     0.028 C 
ATOM     18  C   UNL     1       8.645 -60.038 -22.729  1.00  0.00     0.039 C 
ATOM     19  C   UNL     1       9.169 -62.482 -22.953  1.00  0.00     0.017 C 
ENDROOT
BRANCH  15  20
ATOM     20  N   UNL     1      11.636 -59.127 -24.261  1.00  0.00    -0.398 N 
ATOM     21  H   UNL     1      12.641 -59.228 -24.355  1.00  0.00     0.156 HD
ATOM     22  H   UNL     1      11.357 -59.268 -23.296  1.00  0.00     0.156 HD
ENDBRANCH  15  20
TORSDOF 1
ENDMDL
MODEL 5
REMARK VINA RESULT:    -9.183      2.106      2.705
REMARK INTER + INTRA:          -9.452
REMARK INTER:                  -9.452
REMARK INTRA:                   0.000
REMARK UNBOUND:                 0.000
REMARK SMILES CC1=C[C@H]2Cc3nc4cc(Cl)ccc4c(N)c3[C@@H](C1)C2
REMARK SMILES IDX 1 1 2 2 3 3 4 4 5 5 6 6 7 7 8 8 9 9 10 10 11 11 12 12 13 13
REMARK SMILES IDX 14 14 15 15 17 16 18 17 19 18 20 19 16 20
REMARK H PARENT 16 21 16 22
ROOT
ATOM      1  C   UNL     1       7.637 -59.200 -24.292  1.00  0.00     0.039 C 
ATOM      2  C   UNL     1       9.066 -59.090 -23.849  1.00  0.00    -0.076 C 
ATOM      3  C   UNL     1      10.074 -59.686 -24.512  1.00  0.00    -0.024 C 
ATOM      4  C   UNL     1      11.517 -59.601 -24.066  1.00  0.00     0.018 C 
ATOM      5  C   UNL     1      12.274 -58.530 -24.863  1.00  0.00     0.064 C 
ATOM      6  C   UNL     1      12.002 -57.114 -24.404  1.00  0.00     0.047 A 
ATOM      7  N   UNL     1      12.504 -56.153 -25.214  1.00  0.00    -0.252 NA
ATOM      8  C   UNL     1      12.390 -54.873 -24.850  1.00  0.00     0.074 A 
ATOM      9  C   UNL     1      12.959 -53.920 -25.682  1.00  0.00     0.049 A 
ATOM     10  C   UNL     1      12.914 -52.565 -25.368  1.00  0.00     0.043 A 
ATOM     11  Cl  UNL     1      13.635 -51.414 -26.424  1.00  0.00    -0.084 Cl
ATOM     12  C   UNL     1      12.297 -52.138 -24.202  1.00  0.00     0.021 A 
ATOM     13  C   UNL     1      11.715 -53.082 -23.356  1.00  0.00     0.014 A 
ATOM     14  C   UNL     1      11.737 -54.466 -23.666  1.00  0.00     0.024 A 
ATOM     15  C   UNL     1      11.140 -55.479 -22.862  1.00  0.00     0.046 A 
ATOM     16  C   UNL     1      11.339 -56.833 -23.202  1.00  0.00     0.001 A 
ATOM     17  C   UNL     1      10.819 -57.976 -22.334  1.00  0.00     0.028 C 
ATOM     18  C   UNL     1       9.321 -58.253 -22.612  1.00  0.00     0.039 C 
ATOM     19  C   UNL     1      11.618 -59.261 -22.578  1.00  0.00     0.017 C 
ENDROOT
BRANCH  15  20
ATOM     20  N   UNL     1      10.534 -55.141 -21.627  1.00  0.00    -0.398 N 
ATOM     21  H   UNL     1       9.827 -54.416 -21.695  1.00  0.00     0.156 HD
ATOM     22  H   UNL     1      11.202 -54.914 -20.898  1.00  0.00     0.156 HD
ENDBRANCH  15  20
TORSDOF 1
ENDMDL
MODEL 6
REMARK VINA RESULT:    -8.965      5.248      9.730
REMARK INTER + INTRA:          -9.227
REMARK INTER:                  -9.227
REMARK INTRA:                   0.000
REMARK UNBOUND:                 0.000
REMARK SMILES CC1=C[C@H]2Cc3nc4cc(Cl)ccc4c(N)c3[C@@H](C1)C2
REMARK SMILES IDX 1 1 2 2 3 3 4 4 5 5 6 6 7 7 8 8 9 9 10 10 11 11 12 12 13 13
REMARK SMILES IDX 14 14 15 15 17 16 18 17 19 18 20 19 16 20
REMARK H PARENT 16 21 16 22
ROOT
ATOM      1  C   UNL     1      13.794 -46.507 -20.572  1.00  0.00     0.039 C 
ATOM      2  C   UNL     1      13.143 -46.906 -21.863  1.00  0.00    -0.076 C 
ATOM      3  C   UNL     1      13.847 -47.109 -22.992  1.00  0.00    -0.024 C 
ATOM      4  C   UNL     1      13.203 -47.493 -24.307  1.00  0.00     0.018 C 
ATOM      5  C   UNL     1      13.308 -49.004 -24.547  1.00  0.00     0.064 C 
ATOM      6  C   UNL     1      12.305 -49.824 -23.766  1.00  0.00     0.047 A 
ATOM      7  N   UNL     1      12.509 -51.161 -23.815  1.00  0.00    -0.252 NA
ATOM      8  C   UNL     1      11.628 -51.974 -23.226  1.00  0.00     0.074 A 
ATOM      9  C   UNL     1      11.845 -53.339 -23.339  1.00  0.00     0.049 A 
ATOM     10  C   UNL     1      10.963 -54.260 -22.783  1.00  0.00     0.043 A 
ATOM     11  Cl  UNL     1      11.266 -55.947 -22.947  1.00  0.00    -0.084 Cl
ATOM     12  C   UNL     1       9.836 -53.827 -22.103  1.00  0.00     0.021 A 
ATOM     13  C   UNL     1       9.604 -52.457 -21.975  1.00  0.00     0.014 A 
ATOM     14  C   UNL     1      10.499 -51.502 -22.521  1.00  0.00     0.024 A 
ATOM     15  C   UNL     1      10.337 -50.091 -22.406  1.00  0.00     0.046 A 
ATOM     16  C   UNL     1      11.219 -49.239 -23.101  1.00  0.00     0.001 A 
ATOM     17  C   UNL     1      11.048 -47.722 -23.110  1.00  0.00     0.028 C 
ATOM     18  C   UNL     1      11.639 -47.085 -21.828  1.00  0.00     0.039 C 
ATOM     19  C   UNL     1      11.725 -47.098 -24.335  1.00  0.00     0.017 C 
ENDROOT
BRANCH  15  20
ATOM     20  N   UNL     1       9.188 -49.558 -21.773  1.00  0.00    -0.398 N 
ATOM     21  H   UNL     1       9.237 -48.561 -21.591  1.00  0.00     0.156 HD
ATOM     22  H   UNL     1       8.923 -50.056 -20.930  1.00  0.00     0.156 HD
ENDBRANCH  15  20
TORSDOF 1
ENDMDL
MODEL 7
REMARK VINA RESULT:    -8.527      1.824      2.504
REMARK INTER + INTRA:          -8.776
REMARK INTER:                  -8.776
REMARK INTRA:                   0.000
REMARK UNBOUND:                 0.000
REMARK SMILES CC1=C[C@H]2Cc3nc4cc(Cl)ccc4c(N)c3[C@@H](C1)C2
REMARK SMILES IDX 1 1 2 2 3 3 4 4 5 5 6 6 7 7 8 8 9 9 10 10 11 11 12 12 13 13
REMARK SMILES IDX 14 14 15 15 17 16 18 17 19 18 20 19 16 20
REMARK H PARENT 16 21 16 22
ROOT
ATOM      1  C   UNL     1       8.804 -62.172 -26.506  1.00  0.00     0.039 C 
ATOM      2  C   UNL     1       9.251 -61.824 -25.117  1.00  0.00    -0.076 C 
ATOM      3  C   UNL     1      10.490 -62.101 -24.669  1.00  0.00    -0.024 C 
ATOM      4  C   UNL     1      10.950 -61.774 -23.265  1.00  0.00     0.018 C 
ATOM      5  C   UNL     1      11.759 -60.471 -23.243  1.00  0.00     0.064 C 
ATOM      6  C   UNL     1      10.913 -59.219 -23.305  1.00  0.00     0.047 A 
ATOM      7  N   UNL     1      11.613 -58.074 -23.483  1.00  0.00    -0.252 NA
ATOM      8  C   UNL     1      10.963 -56.907 -23.467  1.00  0.00     0.074 A 
ATOM      9  C   UNL     1      11.721 -55.753 -23.605  1.00  0.00     0.049 A 
ATOM     10  C   UNL     1      11.133 -54.493 -23.570  1.00  0.00     0.043 A 
ATOM     11  Cl  UNL     1      12.107 -53.085 -23.740  1.00  0.00    -0.084 Cl
ATOM     12  C   UNL     1       9.764 -54.365 -23.389  1.00  0.00     0.021 A 
ATOM     13  C   UNL     1       8.986 -55.514 -23.254  1.00  0.00     0.014 A 
ATOM     14  C   UNL     1       9.564 -56.808 -23.303  1.00  0.00     0.024 A 
ATOM     15  C   UNL     1       8.827 -58.023 -23.198  1.00  0.00     0.046 A 
ATOM     16  C   UNL     1       9.524 -59.247 -23.127  1.00  0.00     0.001 A 
ATOM     17  C   UNL     1       8.811 -60.579 -22.912  1.00  0.00     0.028 C 
ATOM     18  C   UNL     1       8.232 -61.126 -24.240  1.00  0.00     0.039 C 
ATOM     19  C   UNL     1       9.761 -61.622 -22.314  1.00  0.00     0.017 C 
ENDROOT
BRANCH  15  20
ATOM     20  N   UNL     1       7.431 -57.988 -22.960  1.00  0.00    -0.398 N 
ATOM     21  H   UNL     1       6.874 -57.769 -23.779  1.00  0.00     0.156 HD
ATOM     22  H   UNL     1       7.168 -57.387 -22.186  1.00  0.00     0.156 HD
ENDBRANCH  15  20
TORSDOF 1
ENDMDL
MODEL 8
REMARK VINA RESULT:    -8.195      5.402      9.700
REMARK INTER + INTRA:          -8.434
REMARK INTER:                  -8.434
REMARK INTRA:                   0.000
REMARK UNBOUND:                 0.000
REMARK SMILES CC1=C[C@H]2Cc3nc4cc(Cl)ccc4c(N)c3[C@@H](C1)C2
REMARK SMILES IDX 1 1 2 2 3 3 4 4 5 5 6 6 7 7 8 8 9 9 10 10 11 11 12 12 13 13
REMARK SMILES IDX 14 14 15 15 17 16 18 17 19 18 20 19 16 20
REMARK H PARENT 16 21 16 22
ROOT
ATOM      1  C   UNL     1      15.727 -47.578 -21.061  1.00  0.00     0.039 C 
ATOM      2  C   UNL     1      14.627 -47.563 -22.081  1.00  0.00    -0.076 C 
ATOM      3  C   UNL     1      14.826 -47.158 -23.349  1.00  0.00    -0.024 C 
ATOM      4  C   UNL     1      13.722 -47.117 -24.384  1.00  0.00     0.018 C 
ATOM      5  C   UNL     1      13.772 -48.356 -25.286  1.00  0.00     0.064 C 
ATOM      6  C   UNL     1      13.194 -49.603 -24.653  1.00  0.00     0.047 A 
ATOM      7  N   UNL     1      13.405 -50.741 -25.354  1.00  0.00    -0.252 NA
ATOM      8  C   UNL     1      12.860 -51.881 -24.920  1.00  0.00     0.074 A 
ATOM      9  C   UNL     1      13.059 -53.017 -25.691  1.00  0.00     0.049 A 
ATOM     10  C   UNL     1      12.505 -54.242 -25.332  1.00  0.00     0.043 A 
ATOM     11  Cl  UNL     1      12.771 -55.627 -26.317  1.00  0.00    -0.084 Cl
ATOM     12  C   UNL     1      11.731 -54.350 -24.187  1.00  0.00     0.021 A 
ATOM     13  C   UNL     1      11.524 -53.219 -23.397  1.00  0.00     0.014 A 
ATOM     14  C   UNL     1      12.094 -51.965 -23.738  1.00  0.00     0.024 A 
ATOM     15  C   UNL     1      11.945 -50.778 -22.964  1.00  0.00     0.046 A 
ATOM     16  C   UNL     1      12.446 -49.561 -23.469  1.00  0.00     0.001 A 
ATOM     17  C   UNL     1      12.237 -48.232 -22.747  1.00  0.00     0.028 C 
ATOM     18  C   UNL     1      13.270 -48.043 -21.609  1.00  0.00     0.039 C 
ATOM     19  C   UNL     1      12.345 -47.054 -23.721  1.00  0.00     0.017 C 
ENDROOT
BRANCH  15  20
ATOM     20  N   UNL     1      11.129 -50.783 -21.806  1.00  0.00    -0.398 N 
ATOM     21  H   UNL     1      10.223 -51.221 -21.937  1.00  0.00     0.156 HD
ATOM     22  H   UNL     1      11.018 -49.866 -21.386  1.00  0.00     0.156 HD
ENDBRANCH  15  20
TORSDOF 1
ENDMDL
MODEL 9
REMARK VINA RESULT:    -7.100      7.177     10.730
REMARK INTER + INTRA:          -7.308
REMARK INTER:                  -7.308
REMARK INTRA:                   0.000
REMARK UNBOUND:                 0.000
REMARK SMILES CC1=C[C@H]2Cc3nc4cc(Cl)ccc4c(N)c3[C@@H](C1)C2
REMARK SMILES IDX 1 1 2 2 3 3 4 4 5 5 6 6 7 7 8 8 9 9 10 10 11 11 12 12 13 13
REMARK SMILES IDX 14 14 15 15 17 16 18 17 19 18 20 19 16 20
REMARK H PARENT 16 21 16 22
ROOT
ATOM      1  C   UNL     1      18.431 -47.023 -25.439  1.00  0.00     0.039 C 
ATOM      2  C   UNL     1      17.122 -47.112 -26.167  1.00  0.00    -0.076 C 
ATOM      3  C   UNL     1      17.036 -47.527 -27.444  1.00  0.00    -0.024 C 
ATOM      4  C   UNL     1      15.727 -47.603 -28.200  1.00  0.00     0.018 C 
ATOM      5  C   UNL     1      15.183 -49.037 -28.207  1.00  0.00     0.064 C 
ATOM      6  C   UNL     1      14.512 -49.449 -26.915  1.00  0.00     0.047 A 
ATOM      7  N   UNL     1      14.203 -50.764 -26.836  1.00  0.00    -0.252 NA
ATOM      8  C   UNL     1      13.533 -51.210 -25.769  1.00  0.00     0.074 A 
ATOM      9  C   UNL     1      13.191 -52.554 -25.745  1.00  0.00     0.049 A 
ATOM     10  C   UNL     1      12.468 -53.099 -24.689  1.00  0.00     0.043 A 
ATOM     11  Cl  UNL     1      12.060 -54.770 -24.698  1.00  0.00    -0.084 Cl
ATOM     12  C   UNL     1      12.067 -52.299 -23.630  1.00  0.00     0.021 A 
ATOM     13  C   UNL     1      12.406 -50.945 -23.634  1.00  0.00     0.014 A 
ATOM     14  C   UNL     1      13.156 -50.375 -24.694  1.00  0.00     0.024 A 
ATOM     15  C   UNL     1      13.558 -49.009 -24.750  1.00  0.00     0.046 A 
ATOM     16  C   UNL     1      14.186 -48.524 -25.915  1.00  0.00     0.001 A 
ATOM     17  C   UNL     1      14.554 -47.053 -26.090  1.00  0.00     0.028 C 
ATOM     18  C   UNL     1      15.889 -46.720 -25.379  1.00  0.00     0.039 C 
ATOM     19  C   UNL     1      14.673 -46.687 -27.574  1.00  0.00     0.017 C 
ENDROOT
BRANCH  15  20
ATOM     20  N   UNL     1      13.149 -48.106 -23.738  1.00  0.00    -0.398 N 
ATOM     21  H   UNL     1      12.247 -48.324 -23.326  1.00  0.00     0.156 HD
ATOM     22  H   UNL     1      13.177 -47.134 -24.027  1.00  0.00     0.156 HD
ENDBRANCH  15  20
TORSDOF 1
ENDMDL
