MODEL 1
REMARK VINA RESULT:    -9.283      0.000      0.000
REMARK INTER + INTRA:         -15.561
REMARK INTER:                 -14.711
REMARK INTRA:                  -0.850
REMARK UNBOUND:                -0.850
REMARK SMILES CCOCC[n+]1ccc(CCC(=O)c2cc3cc(OC)c(OC)cc3s2)cc1
REMARK SMILES IDX 6 1 7 2 8 3 9 4 27 5 28 6 5 7 4 8 3 9 2 10 1 11 10 12 11 13
REMARK SMILES IDX 12 14 13 15 14 16 15 17 26 18 16 19 25 20 17 21 24 22 18 23
REMARK SMILES IDX 21 24 19 25 20 26 22 27 23 28
REMARK H PARENT
ROOT
ATOM      1  N   UNL     1      10.124 -62.200 -22.677  1.00  0.00    -0.203 N 
ATOM      2  C   UNL     1       9.834 -61.303 -21.707  1.00  0.00     0.308 A 
ATOM      3  C   UNL     1      10.393 -60.030 -21.731  1.00  0.00     0.074 A 
ATOM      4  C   UNL     1      11.259 -59.672 -22.764  1.00  0.00    -0.036 A 
ATOM      5  C   UNL     1      11.553 -60.618 -23.745  1.00  0.00     0.074 A 
ATOM      6  C   UNL     1      10.972 -61.880 -23.682  1.00  0.00     0.308 A 
ENDROOT
BRANCH   1   7
ATOM      7  C   UNL     1       9.520 -63.550 -22.630  1.00  0.00     0.385 C 
BRANCH   7   8
ATOM      8  C   UNL     1       7.999 -63.444 -22.651  1.00  0.00     0.233 C 
BRANCH   8   9
ATOM      9  O   UNL     1       7.532 -64.041 -23.857  1.00  0.00    -0.375 OA
BRANCH   9  10
ATOM     10  C   UNL     1       7.010 -63.075 -24.771  1.00  0.00     0.157 C 
ATOM     11  C   UNL     1       7.849 -63.108 -26.033  1.00  0.00     0.035 C 
ENDBRANCH   9  10
ENDBRANCH   8   9
ENDBRANCH   7   8
ENDBRANCH   1   7
BRANCH   4  12
ATOM     12  C   UNL     1      11.880 -58.295 -22.795  1.00  0.00     0.044 C 
BRANCH  12  13
ATOM     13  C   UNL     1      11.102 -57.300 -21.939  1.00  0.00     0.087 C 
BRANCH  13  14
ATOM     14  C   UNL     1      10.301 -56.369 -22.832  1.00  0.00     0.173 C 
ATOM     15  O   UNL     1       9.232 -56.785 -23.285  1.00  0.00    -0.293 OA
BRANCH  14  16
ATOM     16  C   UNL     1      10.865 -55.060 -23.138  1.00  0.00     0.071 A 
ATOM     17  C   UNL     1      11.635 -54.649 -24.208  1.00  0.00     0.032 A 
ATOM     18  S   UNL     1      10.576 -53.760 -22.063  1.00  0.00    -0.132 S 
ATOM     19  C   UNL     1      11.991 -53.259 -24.153  1.00  0.00    -0.003 A 
ATOM     20  C   UNL     1      11.471 -52.645 -23.019  1.00  0.00     0.039 A 
ATOM     21  C   UNL     1      12.754 -52.468 -25.039  1.00  0.00     0.060 A 
ATOM     22  C   UNL     1      11.686 -51.277 -22.752  1.00  0.00     0.070 A 
ATOM     23  C   UNL     1      12.991 -51.104 -24.785  1.00  0.00     0.161 A 
ATOM     24  C   UNL     1      12.444 -50.500 -23.645  1.00  0.00     0.162 A 
BRANCH  23  25
ATOM     25  O   UNL     1      13.749 -50.529 -25.775  1.00  0.00    -0.493 OA
ATOM     26  C   UNL     1      15.155 -50.757 -25.764  1.00  0.00     0.278 C 
ENDBRANCH  23  25
BRANCH  24  27
ATOM     27  O   UNL     1      12.657 -49.159 -23.464  1.00  0.00    -0.493 OA
ATOM     28  C   UNL     1      11.708 -48.416 -22.709  1.00  0.00     0.278 C 
ENDBRANCH  24  27
ENDBRANCH  14  16
ENDBRANCH  13  14
ENDBRANCH  12  13
ENDBRANCH   4  12
TORSDOF 10
ENDMDL
MODEL 2
REMARK VINA RESULT:    -9.023      1.711      2.310
REMARK INTER + INTRA:         -15.149
REMARK INTER:                 -14.634
REMARK INTRA:                  -0.514
REMARK UNBOUND:                -0.850
REMARK SMILES CCOCC[n+]1ccc(CCC(=O)c2cc3cc(OC)c(OC)cc3s2)cc1
REMARK SMILES IDX 6 1 7 2 8 3 9 4 27 5 28 6 5 7 4 8 3 9 2 10 1 11 10 12 11 13
REMARK SMILES IDX 12 14 13 15 14 16 15 17 26 18 16 19 25 20 17 21 24 22 18 23
REMARK SMILES IDX 21 24 19 25 20 26 22 27 23 28
REMARK H PARENT
ROOT
ATOM      1  N   UNL     1      11.310 -60.248 -23.328  1.00  0.00    -0.203 N 
ATOM      2  C   UNL     1      10.956 -60.075 -22.034  1.00  0.00     0.308 A 
ATOM      3  C   UNL     1      10.945 -58.805 -21.468  1.00  0.00     0.074 A 
ATOM      4  C   UNL     1      11.303 -57.698 -22.238  1.00  0.00    -0.036 A 
ATOM      5  C   UNL     1      11.676 -57.904 -23.566  1.00  0.00     0.074 A 
ATOM      6  C   UNL     1      11.673 -59.192 -24.092  1.00  0.00     0.308 A 
ENDROOT
BRANCH   1   7
ATOM      7  C   UNL     1      11.315 -61.609 -23.909  1.00  0.00     0.385 C 
BRANCH   7   8
ATOM      8  C   UNL     1       9.897 -62.025 -24.285  1.00  0.00     0.233 C 
BRANCH   8   9
ATOM      9  O   UNL     1       9.496 -63.070 -23.404  1.00  0.00    -0.375 OA
BRANCH   9  10
ATOM     10  C   UNL     1       8.164 -63.515 -23.665  1.00  0.00     0.157 C 
ATOM     11  C   UNL     1       7.795 -63.119 -25.081  1.00  0.00     0.035 C 
ENDBRANCH   9  10
ENDBRANCH   8   9
ENDBRANCH   7   8
ENDBRANCH   1   7
BRANCH   4  12
ATOM     12  C   UNL     1      11.305 -56.315 -21.631  1.00  0.00     0.044 C 
BRANCH  12  13
ATOM     13  C   UNL     1      10.499 -55.325 -22.468  1.00  0.00     0.087 C 
BRANCH  13  14
ATOM     14  C   UNL     1      10.664 -53.925 -21.907  1.00  0.00     0.173 C 
ATOM     15  O   UNL     1      10.178 -53.689 -20.798  1.00  0.00    -0.293 OA
BRANCH  14  16
ATOM     16  C   UNL     1      11.342 -52.931 -22.730  1.00  0.00     0.071 A 
ATOM     17  C   UNL     1      12.079 -53.085 -23.888  1.00  0.00     0.032 A 
ATOM     18  S   UNL     1      11.266 -51.283 -22.275  1.00  0.00    -0.132 S 
ATOM     19  C   UNL     1      12.585 -51.848 -24.411  1.00  0.00    -0.003 A 
ATOM     20  C   UNL     1      12.209 -50.769 -23.618  1.00  0.00     0.039 A 
ATOM     21  C   UNL     1      13.367 -51.582 -25.556  1.00  0.00     0.060 A 
ATOM     22  C   UNL     1      12.587 -49.448 -23.937  1.00  0.00     0.070 A 
ATOM     23  C   UNL     1      13.764 -50.273 -25.885  1.00  0.00     0.161 A 
ATOM     24  C   UNL     1      13.362 -49.198 -25.082  1.00  0.00     0.162 A 
BRANCH  23  25
ATOM     25  O   UNL     1      14.512 -50.245 -27.036  1.00  0.00    -0.493 OA
ATOM     26  C   UNL     1      15.844 -49.746 -26.962  1.00  0.00     0.278 C 
ENDBRANCH  23  25
BRANCH  24  27
ATOM     27  O   UNL     1      13.729 -47.935 -25.467  1.00  0.00    -0.493 OA
ATOM     28  C   UNL     1      14.536 -47.164 -24.586  1.00  0.00     0.278 C 
ENDBRANCH  24  27
ENDBRANCH  14  16
ENDBRANCH  13  14
ENDBRANCH  12  13
ENDBRANCH   4  12
TORSDOF 10
ENDMDL
MODEL 3
REMARK VINA RESULT:    -8.793      2.159      3.612
REMARK INTER + INTRA:         -14.784
REMARK INTER:                 -14.181
REMARK INTRA:                  -0.603
REMARK UNBOUND:                -0.850
REMARK SMILES CCOCC[n+]1ccc(CCC(=O)c2cc3cc(OC)c(OC)cc3s2)cc1
REMARK SMILES IDX 6 1 7 2 8 3 9 4 27 5 28 6 5 7 4 8 3 9 2 10 1 11 10 12 11 13
REMARK SMILES IDX 12 14 13 15 14 16 15 17 26 18 16 19 25 20 17 21 24 22 18 23
REMARK SMILES IDX 21 24 19 25 20 26 22 27 23 28
REMARK H PARENT
ROOT
ATOM      1  N   UNL     1       9.110 -59.361 -23.688  1.00  0.00    -0.203 N 
ATOM      2  C   UNL     1      10.378 -59.467 -23.229  1.00  0.00     0.308 A 
ATOM      3  C   UNL     1      11.034 -58.360 -22.703  1.00  0.00     0.074 A 
ATOM      4  C   UNL     1      10.381 -57.128 -22.646  1.00  0.00    -0.036 A 
ATOM      5  C   UNL     1       9.078 -57.042 -23.137  1.00  0.00     0.074 A 
ATOM      6  C   UNL     1       8.460 -58.175 -23.655  1.00  0.00     0.308 A 
ENDROOT
BRANCH   1   7
ATOM      7  C   UNL     1       8.432 -60.553 -24.246  1.00  0.00     0.385 C 
BRANCH   7   8
ATOM      8  C   UNL     1       6.992 -60.618 -23.749  1.00  0.00     0.233 C 
BRANCH   8   9
ATOM      9  O   UNL     1       6.426 -61.844 -24.198  1.00  0.00    -0.375 OA
BRANCH   9  10
ATOM     10  C   UNL     1       7.412 -62.863 -24.372  1.00  0.00     0.157 C 
ATOM     11  C   UNL     1       6.946 -63.798 -25.471  1.00  0.00     0.035 C 
ENDBRANCH   9  10
ENDBRANCH   8   9
ENDBRANCH   7   8
ENDBRANCH   1   7
BRANCH   4  12
ATOM     12  C   UNL     1      11.087 -55.916 -22.086  1.00  0.00     0.044 C 
BRANCH  12  13
ATOM     13  C   UNL     1      10.620 -54.626 -22.754  1.00  0.00     0.087 C 
BRANCH  13  14
ATOM     14  C   UNL     1      10.700 -53.476 -21.767  1.00  0.00     0.173 C 
ATOM     15  O   UNL     1      10.452 -53.717 -20.583  1.00  0.00    -0.293 OA
BRANCH  14  16
ATOM     16  C   UNL     1      11.018 -52.150 -22.282  1.00  0.00     0.071 A 
ATOM     17  C   UNL     1      10.382 -50.940 -22.085  1.00  0.00     0.032 A 
ATOM     18  S   UNL     1      12.382 -51.959 -23.298  1.00  0.00    -0.132 S 
ATOM     19  C   UNL     1      11.014 -49.846 -22.766  1.00  0.00    -0.003 A 
ATOM     20  C   UNL     1      12.133 -50.267 -23.476  1.00  0.00     0.039 A 
ATOM     21  C   UNL     1      10.680 -48.475 -22.816  1.00  0.00     0.060 A 
ATOM     22  C   UNL     1      12.921 -49.365 -24.221  1.00  0.00     0.070 A 
ATOM     23  C   UNL     1      11.444 -47.561 -23.564  1.00  0.00     0.161 A 
ATOM     24  C   UNL     1      12.579 -48.002 -24.258  1.00  0.00     0.162 A 
BRANCH  23  25
ATOM     25  O   UNL     1      10.945 -46.286 -23.468  1.00  0.00    -0.493 OA
ATOM     26  C   UNL     1      10.509 -45.827 -22.193  1.00  0.00     0.278 C 
ENDBRANCH  23  25
BRANCH  24  27
ATOM     27  O   UNL     1      13.323 -47.070 -24.932  1.00  0.00    -0.493 OA
ATOM     28  C   UNL     1      14.652 -46.817 -24.494  1.00  0.00     0.278 C 
ENDBRANCH  24  27
ENDBRANCH  14  16
ENDBRANCH  13  14
ENDBRANCH  12  13
ENDBRANCH   4  12
TORSDOF 10
ENDMDL
MODEL 4
REMARK VINA RESULT:    -8.710      1.801      2.605
REMARK INTER + INTRA:         -14.652
REMARK INTER:                 -13.980
REMARK INTRA:                  -0.672
REMARK UNBOUND:                -0.850
REMARK SMILES CCOCC[n+]1ccc(CCC(=O)c2cc3cc(OC)c(OC)cc3s2)cc1
REMARK SMILES IDX 6 1 7 2 8 3 9 4 27 5 28 6 5 7 4 8 3 9 2 10 1 11 10 12 11 13
REMARK SMILES IDX 12 14 13 15 14 16 15 17 26 18 16 19 25 20 17 21 24 22 18 23
REMARK SMILES IDX 21 24 19 25 20 26 22 27 23 28
REMARK H PARENT
ROOT
ATOM      1  N   UNL     1       7.824 -59.556 -23.212  1.00  0.00    -0.203 N 
ATOM      2  C   UNL     1       8.963 -60.021 -22.652  1.00  0.00     0.308 A 
ATOM      3  C   UNL     1      10.020 -59.160 -22.379  1.00  0.00     0.074 A 
ATOM      4  C   UNL     1       9.907 -57.803 -22.685  1.00  0.00    -0.036 A 
ATOM      5  C   UNL     1       8.727 -57.350 -23.274  1.00  0.00     0.074 A 
ATOM      6  C   UNL     1       7.695 -58.247 -23.530  1.00  0.00     0.308 A 
ENDROOT
BRANCH   1   7
ATOM      7  C   UNL     1       6.712 -60.491 -23.496  1.00  0.00     0.385 C 
BRANCH   7   8
ATOM      8  C   UNL     1       7.261 -61.817 -24.009  1.00  0.00     0.233 C 
BRANCH   8   9
ATOM      9  O   UNL     1       6.823 -62.847 -23.129  1.00  0.00    -0.375 OA
BRANCH   9  10
ATOM     10  C   UNL     1       7.700 -63.975 -23.138  1.00  0.00     0.157 C 
ATOM     11  C   UNL     1       9.085 -63.508 -22.738  1.00  0.00     0.035 C 
ENDBRANCH   9  10
ENDBRANCH   8   9
ENDBRANCH   7   8
ENDBRANCH   1   7
BRANCH   4  12
ATOM     12  C   UNL     1      11.052 -56.860 -22.403  1.00  0.00     0.044 C 
BRANCH  12  13
ATOM     13  C   UNL     1      10.646 -55.401 -22.587  1.00  0.00     0.087 C 
BRANCH  13  14
ATOM     14  C   UNL     1      11.412 -54.795 -23.748  1.00  0.00     0.173 C 
ATOM     15  O   UNL     1      11.775 -55.551 -24.653  1.00  0.00    -0.293 OA
BRANCH  14  16
ATOM     16  C   UNL     1      11.715 -53.370 -23.702  1.00  0.00     0.071 A 
ATOM     17  C   UNL     1      12.540 -52.607 -24.505  1.00  0.00     0.032 A 
ATOM     18  S   UNL     1      10.973 -52.402 -22.502  1.00  0.00    -0.132 S 
ATOM     19  C   UNL     1      12.567 -51.219 -24.139  1.00  0.00    -0.003 A 
ATOM     20  C   UNL     1      11.744 -50.965 -23.047  1.00  0.00     0.039 A 
ATOM     21  C   UNL     1      13.271 -50.132 -24.700  1.00  0.00     0.060 A 
ATOM     22  C   UNL     1      11.604 -49.668 -22.511  1.00  0.00     0.070 A 
ATOM     23  C   UNL     1      13.155 -48.833 -24.173  1.00  0.00     0.161 A 
ATOM     24  C   UNL     1      12.308 -48.594 -23.083  1.00  0.00     0.162 A 
BRANCH  23  25
ATOM     25  O   UNL     1      13.920 -47.932 -24.872  1.00  0.00    -0.493 OA
ATOM     26  C   UNL     1      14.309 -48.267 -26.200  1.00  0.00     0.278 C 
ENDBRANCH  23  25
BRANCH  24  27
ATOM     27  O   UNL     1      12.186 -47.306 -22.633  1.00  0.00    -0.493 OA
ATOM     28  C   UNL     1      13.095 -46.843 -21.642  1.00  0.00     0.278 C 
ENDBRANCH  24  27
ENDBRANCH  14  16
ENDBRANCH  13  14
ENDBRANCH  12  13
ENDBRANCH   4  12
TORSDOF 10
ENDMDL
MODEL 5
REMARK VINA RESULT:    -8.606      2.297      3.438
REMARK INTER + INTRA:         -14.487
REMARK INTER:                 -13.296
REMARK INTRA:                  -1.190
REMARK UNBOUND:                -0.850
REMARK SMILES CCOCC[n+]1ccc(CCC(=O)c2cc3cc(OC)c(OC)cc3s2)cc1
REMARK SMILES IDX 6 1 7 2 8 3 9 4 27 5 28 6 5 7 4 8 3 9 2 10 1 11 10 12 11 13
REMARK SMILES IDX 12 14 13 15 14 16 15 17 26 18 16 19 25 20 17 21 24 22 18 23
REMARK SMILES IDX 21 24 19 25 20 26 22 27 23 28
REMARK H PARENT
ROOT
ATOM      1  N   UNL     1      11.834 -59.053 -23.074  1.00  0.00    -0.203 N 
ATOM      2  C   UNL     1      11.703 -58.017 -23.933  1.00  0.00     0.308 A 
ATOM      3  C   UNL     1      11.392 -56.745 -23.465  1.00  0.00     0.074 A 
ATOM      4  C   UNL     1      11.214 -56.533 -22.097  1.00  0.00    -0.036 A 
ATOM      5  C   UNL     1      11.342 -57.621 -21.233  1.00  0.00     0.074 A 
ATOM      6  C   UNL     1      11.653 -58.876 -21.745  1.00  0.00     0.308 A 
ENDROOT
BRANCH   1   7
ATOM      7  C   UNL     1      12.163 -60.399 -23.596  1.00  0.00     0.385 C 
BRANCH   7   8
ATOM      8  C   UNL     1      11.036 -61.375 -23.277  1.00  0.00     0.233 C 
BRANCH   8   9
ATOM      9  O   UNL     1       9.874 -60.953 -23.984  1.00  0.00    -0.375 OA
BRANCH   9  10
ATOM     10  C   UNL     1       8.726 -60.872 -23.137  1.00  0.00     0.157 C 
ATOM     11  C   UNL     1       8.261 -59.430 -23.096  1.00  0.00     0.035 C 
ENDBRANCH   9  10
ENDBRANCH   8   9
ENDBRANCH   7   8
ENDBRANCH   1   7
BRANCH   4  12
ATOM     12  C   UNL     1      10.867 -55.158 -21.577  1.00  0.00     0.044 C 
BRANCH  12  13
ATOM     13  C   UNL     1       9.788 -54.486 -22.422  1.00  0.00     0.087 C 
BRANCH  13  14
ATOM     14  C   UNL     1       9.955 -52.979 -22.365  1.00  0.00     0.173 C 
ATOM     15  O   UNL     1       9.016 -52.313 -21.922  1.00  0.00    -0.293 OA
BRANCH  14  16
ATOM     16  C   UNL     1      11.193 -52.406 -22.880  1.00  0.00     0.071 A 
ATOM     17  C   UNL     1      12.042 -52.860 -23.869  1.00  0.00     0.032 A 
ATOM     18  S   UNL     1      11.763 -50.933 -22.221  1.00  0.00    -0.132 S 
ATOM     19  C   UNL     1      13.169 -51.999 -24.094  1.00  0.00    -0.003 A 
ATOM     20  C   UNL     1      13.139 -50.893 -23.251  1.00  0.00     0.039 A 
ATOM     21  C   UNL     1      14.244 -52.106 -25.001  1.00  0.00     0.060 A 
ATOM     22  C   UNL     1      14.142 -49.902 -23.294  1.00  0.00     0.070 A 
ATOM     23  C   UNL     1      15.261 -51.136 -25.051  1.00  0.00     0.161 A 
ATOM     24  C   UNL     1      15.205 -50.020 -24.205  1.00  0.00     0.162 A 
BRANCH  23  25
ATOM     25  O   UNL     1      16.202 -51.436 -26.006  1.00  0.00    -0.493 OA
ATOM     26  C   UNL     1      17.324 -52.222 -25.621  1.00  0.00     0.278 C 
ENDBRANCH  23  25
BRANCH  24  27
ATOM     27  O   UNL     1      16.189 -49.074 -24.322  1.00  0.00    -0.493 OA
ATOM     28  C   UNL     1      17.093 -48.896 -23.239  1.00  0.00     0.278 C 
ENDBRANCH  24  27
ENDBRANCH  14  16
ENDBRANCH  13  14
ENDBRANCH  12  13
ENDBRANCH   4  12
TORSDOF 10
ENDMDL
MODEL 6
REMARK VINA RESULT:    -8.596      3.702      9.975
REMARK INTER + INTRA:         -14.471
REMARK INTER:                 -13.780
REMARK INTRA:                  -0.691
REMARK UNBOUND:                -0.850
REMARK SMILES CCOCC[n+]1ccc(CCC(=O)c2cc3cc(OC)c(OC)cc3s2)cc1
REMARK SMILES IDX 6 1 7 2 8 3 9 4 27 5 28 6 5 7 4 8 3 9 2 10 1 11 10 12 11 13
REMARK SMILES IDX 12 14 13 15 14 16 15 17 26 18 16 19 25 20 17 21 24 22 18 23
REMARK SMILES IDX 21 24 19 25 20 26 22 27 23 28
REMARK H PARENT
ROOT
ATOM      1  N   UNL     1      11.680 -51.925 -22.716  1.00  0.00    -0.203 N 
ATOM      2  C   UNL     1      11.089 -52.355 -21.578  1.00  0.00     0.308 A 
ATOM      3  C   UNL     1      10.663 -53.673 -21.456  1.00  0.00     0.074 A 
ATOM      4  C   UNL     1      10.845 -54.562 -22.516  1.00  0.00    -0.036 A 
ATOM      5  C   UNL     1      11.445 -54.092 -23.683  1.00  0.00     0.074 A 
ATOM      6  C   UNL     1      11.856 -52.765 -23.762  1.00  0.00     0.308 A 
ENDROOT
BRANCH   1   7
ATOM      7  C   UNL     1      12.125 -50.518 -22.823  1.00  0.00     0.385 C 
BRANCH   7   8
ATOM      8  C   UNL     1      10.924 -49.582 -22.743  1.00  0.00     0.233 C 
BRANCH   8   9
ATOM      9  O   UNL     1      11.347 -48.286 -23.154  1.00  0.00    -0.375 OA
BRANCH   9  10
ATOM     10  C   UNL     1      11.032 -47.282 -22.187  1.00  0.00     0.157 C 
ATOM     11  C   UNL     1      10.360 -46.125 -22.900  1.00  0.00     0.035 C 
ENDBRANCH   9  10
ENDBRANCH   8   9
ENDBRANCH   7   8
ENDBRANCH   1   7
BRANCH   4  12
ATOM     12  C   UNL     1      10.376 -55.993 -22.399  1.00  0.00     0.044 C 
BRANCH  12  13
ATOM     13  C   UNL     1      11.393 -56.867 -21.671  1.00  0.00     0.087 C 
BRANCH  13  14
ATOM     14  C   UNL     1      11.066 -58.332 -21.895  1.00  0.00     0.173 C 
ATOM     15  O   UNL     1      10.928 -59.049 -20.900  1.00  0.00    -0.293 OA
BRANCH  14  16
ATOM     16  C   UNL     1      10.981 -58.815 -23.268  1.00  0.00     0.071 A 
ATOM     17  C   UNL     1      11.843 -58.635 -24.331  1.00  0.00     0.032 A 
ATOM     18  S   UNL     1       9.638 -59.770 -23.731  1.00  0.00    -0.132 S 
ATOM     19  C   UNL     1      11.406 -59.283 -25.536  1.00  0.00    -0.003 A 
ATOM     20  C   UNL     1      10.201 -59.950 -25.345  1.00  0.00     0.039 A 
ATOM     21  C   UNL     1      11.995 -59.340 -26.817  1.00  0.00     0.060 A 
ATOM     22  C   UNL     1       9.578 -60.666 -26.389  1.00  0.00     0.070 A 
ATOM     23  C   UNL     1      11.384 -60.038 -27.875  1.00  0.00     0.161 A 
ATOM     24  C   UNL     1      10.178 -60.717 -27.659  1.00  0.00     0.162 A 
BRANCH  23  25
ATOM     25  O   UNL     1      12.128 -59.966 -29.026  1.00  0.00    -0.493 OA
ATOM     26  C   UNL     1      12.112 -58.747 -29.763  1.00  0.00     0.278 C 
ENDBRANCH  23  25
BRANCH  24  27
ATOM     27  O   UNL     1       9.643 -61.426 -28.702  1.00  0.00    -0.493 OA
ATOM     28  C   UNL     1       8.617 -62.372 -28.427  1.00  0.00     0.278 C 
ENDBRANCH  24  27
ENDBRANCH  14  16
ENDBRANCH  13  14
ENDBRANCH  12  13
ENDBRANCH   4  12
TORSDOF 10
ENDMDL
MODEL 7
REMARK VINA RESULT:    -8.550      2.139      3.533
REMARK INTER + INTRA:         -14.398
REMARK INTER:                 -13.694
REMARK INTRA:                  -0.704
REMARK UNBOUND:                -0.850
REMARK SMILES CCOCC[n+]1ccc(CCC(=O)c2cc3cc(OC)c(OC)cc3s2)cc1
REMARK SMILES IDX 6 1 7 2 8 3 9 4 27 5 28 6 5 7 4 8 3 9 2 10 1 11 10 12 11 13
REMARK SMILES IDX 12 14 13 15 14 16 15 17 26 18 16 19 25 20 17 21 24 22 18 23
REMARK SMILES IDX 21 24 19 25 20 26 22 27 23 28
REMARK H PARENT
ROOT
ATOM      1  N   UNL     1      10.351 -59.185 -22.268  1.00  0.00    -0.203 N 
ATOM      2  C   UNL     1       9.254 -58.771 -22.942  1.00  0.00     0.308 A 
ATOM      3  C   UNL     1       9.069 -57.423 -23.232  1.00  0.00     0.074 A 
ATOM      4  C   UNL     1      10.021 -56.488 -22.826  1.00  0.00    -0.036 A 
ATOM      5  C   UNL     1      11.138 -56.939 -22.121  1.00  0.00     0.074 A 
ATOM      6  C   UNL     1      11.283 -58.296 -21.852  1.00  0.00     0.308 A 
ENDROOT
BRANCH   1   7
ATOM      7  C   UNL     1      10.526 -60.623 -21.969  1.00  0.00     0.385 C 
BRANCH   7   8
ATOM      8  C   UNL     1      10.998 -61.364 -23.215  1.00  0.00     0.233 C 
BRANCH   8   9
ATOM      9  O   UNL     1      10.566 -62.717 -23.114  1.00  0.00    -0.375 OA
BRANCH   9  10
ATOM     10  C   UNL     1       9.251 -62.825 -22.565  1.00  0.00     0.157 C 
ATOM     11  C   UNL     1       8.369 -63.537 -23.571  1.00  0.00     0.035 C 
ENDBRANCH   9  10
ENDBRANCH   8   9
ENDBRANCH   7   8
ENDBRANCH   1   7
BRANCH   4  12
ATOM     12  C   UNL     1       9.826 -55.021 -23.126  1.00  0.00     0.044 C 
BRANCH  12  13
ATOM     13  C   UNL     1      11.121 -54.230 -22.961  1.00  0.00     0.087 C 
BRANCH  13  14
ATOM     14  C   UNL     1      10.920 -53.122 -21.943  1.00  0.00     0.173 C 
ATOM     15  O   UNL     1      10.537 -53.441 -20.815  1.00  0.00    -0.293 OA
BRANCH  14  16
ATOM     16  C   UNL     1      11.147 -51.747 -22.371  1.00  0.00     0.071 A 
ATOM     17  C   UNL     1      12.176 -51.203 -23.114  1.00  0.00     0.032 A 
ATOM     18  S   UNL     1      10.009 -50.544 -21.939  1.00  0.00    -0.132 S 
ATOM     19  C   UNL     1      12.034 -49.791 -23.335  1.00  0.00    -0.003 A 
ATOM     20  C   UNL     1      10.878 -49.297 -22.740  1.00  0.00     0.039 A 
ATOM     21  C   UNL     1      12.856 -48.881 -24.034  1.00  0.00     0.060 A 
ATOM     22  C   UNL     1      10.525 -47.934 -22.828  1.00  0.00     0.070 A 
ATOM     23  C   UNL     1      12.528 -47.516 -24.122  1.00  0.00     0.161 A 
ATOM     24  C   UNL     1      11.351 -47.040 -23.531  1.00  0.00     0.162 A 
BRANCH  23  25
ATOM     25  O   UNL     1      13.460 -46.817 -24.849  1.00  0.00    -0.493 OA
ATOM     26  C   UNL     1      14.820 -47.234 -24.777  1.00  0.00     0.278 C 
ENDBRANCH  23  25
BRANCH  24  27
ATOM     27  O   UNL     1      11.044 -45.713 -23.685  1.00  0.00    -0.493 OA
ATOM     28  C   UNL     1      11.177 -44.850 -22.563  1.00  0.00     0.278 C 
ENDBRANCH  24  27
ENDBRANCH  14  16
ENDBRANCH  13  14
ENDBRANCH  12  13
ENDBRANCH   4  12
TORSDOF 10
ENDMDL
MODEL 8
REMARK VINA RESULT:    -8.529      2.687      4.363
REMARK INTER + INTRA:         -14.366
REMARK INTER:                 -13.547
REMARK INTRA:                  -0.819
REMARK UNBOUND:                -0.850
REMARK SMILES CCOCC[n+]1ccc(CCC(=O)c2cc3cc(OC)c(OC)cc3s2)cc1
REMARK SMILES IDX 6 1 7 2 8 3 9 4 27 5 28 6 5 7 4 8 3 9 2 10 1 11 10 12 11 13
REMARK SMILES IDX 12 14 13 15 14 16 15 17 26 18 16 19 25 20 17 21 24 22 18 23
REMARK SMILES IDX 21 24 19 25 20 26 22 27 23 28
REMARK H PARENT
ROOT
ATOM      1  N   UNL     1      10.362 -59.126 -22.560  1.00  0.00    -0.203 N 
ATOM      2  C   UNL     1      11.357 -58.279 -22.211  1.00  0.00     0.308 A 
ATOM      3  C   UNL     1      11.187 -56.903 -22.324  1.00  0.00     0.074 A 
ATOM      4  C   UNL     1       9.981 -56.390 -22.801  1.00  0.00    -0.036 A 
ATOM      5  C   UNL     1       8.975 -57.284 -23.167  1.00  0.00     0.074 A 
ATOM      6  C   UNL     1       9.188 -58.653 -23.038  1.00  0.00     0.308 A 
ENDROOT
BRANCH   1   7
ATOM      7  C   UNL     1      10.567 -60.586 -22.433  1.00  0.00     0.385 C 
BRANCH   7   8
ATOM      8  C   UNL     1      10.951 -61.181 -23.783  1.00  0.00     0.233 C 
BRANCH   8   9
ATOM      9  O   UNL     1      12.371 -61.271 -23.837  1.00  0.00    -0.375 OA
BRANCH   9  10
ATOM     10  C   UNL     1      12.924 -60.466 -24.880  1.00  0.00     0.157 C 
ATOM     11  C   UNL     1      11.794 -60.000 -25.775  1.00  0.00     0.035 C 
ENDBRANCH   9  10
ENDBRANCH   8   9
ENDBRANCH   7   8
ENDBRANCH   1   7
BRANCH   4  12
ATOM     12  C   UNL     1       9.788 -54.898 -22.939  1.00  0.00     0.044 C 
BRANCH  12  13
ATOM     13  C   UNL     1      11.119 -54.150 -22.941  1.00  0.00     0.087 C 
BRANCH  13  14
ATOM     14  C   UNL     1      11.055 -52.984 -21.973  1.00  0.00     0.173 C 
ATOM     15  O   UNL     1      10.763 -53.226 -20.799  1.00  0.00    -0.293 OA
BRANCH  14  16
ATOM     16  C   UNL     1      11.296 -51.644 -22.496  1.00  0.00     0.071 A 
ATOM     17  C   UNL     1      10.648 -50.454 -22.231  1.00  0.00     0.032 A 
ATOM     18  S   UNL     1      12.566 -51.406 -23.617  1.00  0.00    -0.132 S 
ATOM     19  C   UNL     1      11.194 -49.336 -22.948  1.00  0.00    -0.003 A 
ATOM     20  C   UNL     1      12.261 -49.720 -23.752  1.00  0.00     0.039 A 
ATOM     21  C   UNL     1      10.823 -47.974 -22.953  1.00  0.00     0.060 A 
ATOM     22  C   UNL     1      12.962 -48.789 -24.548  1.00  0.00     0.070 A 
ATOM     23  C   UNL     1      11.500 -47.032 -23.748  1.00  0.00     0.161 A 
ATOM     24  C   UNL     1      12.583 -47.436 -24.539  1.00  0.00     0.162 A 
BRANCH  23  25
ATOM     25  O   UNL     1      10.978 -45.772 -23.596  1.00  0.00    -0.493 OA
ATOM     26  C   UNL     1      10.278 -45.474 -22.392  1.00  0.00     0.278 C 
ENDBRANCH  23  25
BRANCH  24  27
ATOM     27  O   UNL     1      13.246 -46.477 -25.260  1.00  0.00    -0.493 OA
ATOM     28  C   UNL     1      14.498 -46.811 -25.845  1.00  0.00     0.278 C 
ENDBRANCH  24  27
ENDBRANCH  14  16
ENDBRANCH  13  14
ENDBRANCH  12  13
ENDBRANCH   4  12
TORSDOF 10
ENDMDL
MODEL 9
REMARK VINA RESULT:    -8.291      2.128      3.324
REMARK INTER + INTRA:         -13.988
REMARK INTER:                 -13.462
REMARK INTRA:                  -0.526
REMARK UNBOUND:                -0.850
REMARK SMILES CCOCC[n+]1ccc(CCC(=O)c2cc3cc(OC)c(OC)cc3s2)cc1
REMARK SMILES IDX 6 1 7 2 8 3 9 4 27 5 28 6 5 7 4 8 3 9 2 10 1 11 10 12 11 13
REMARK SMILES IDX 12 14 13 15 14 16 15 17 26 18 16 19 25 20 17 21 24 22 18 23
REMARK SMILES IDX 21 24 19 25 20 26 22 27 23 28
REMARK H PARENT
ROOT
ATOM      1  N   UNL     1      10.438 -59.165 -22.304  1.00  0.00    -0.203 N 
ATOM      2  C   UNL     1       9.384 -58.720 -23.026  1.00  0.00     0.308 A 
ATOM      3  C   UNL     1       9.214 -57.361 -23.264  1.00  0.00     0.074 A 
ATOM      4  C   UNL     1      10.137 -56.446 -22.756  1.00  0.00    -0.036 A 
ATOM      5  C   UNL     1      11.208 -56.929 -22.004  1.00  0.00     0.074 A 
ATOM      6  C   UNL     1      11.339 -58.297 -21.790  1.00  0.00     0.308 A 
ENDROOT
BRANCH   1   7
ATOM      7  C   UNL     1      10.598 -60.616 -22.062  1.00  0.00     0.385 C 
BRANCH   7   8
ATOM      8  C   UNL     1      10.963 -61.328 -23.360  1.00  0.00     0.233 C 
BRANCH   8   9
ATOM      9  O   UNL     1      10.805 -62.728 -23.155  1.00  0.00    -0.375 OA
BRANCH   9  10
ATOM     10  C   UNL     1       9.435 -63.131 -23.204  1.00  0.00     0.157 C 
ATOM     11  C   UNL     1       8.864 -62.720 -24.546  1.00  0.00     0.035 C 
ENDBRANCH   9  10
ENDBRANCH   8   9
ENDBRANCH   7   8
ENDBRANCH   1   7
BRANCH   4  12
ATOM     12  C   UNL     1       9.957 -54.966 -22.999  1.00  0.00     0.044 C 
BRANCH  12  13
ATOM     13  C   UNL     1      11.280 -54.210 -22.912  1.00  0.00     0.087 C 
BRANCH  13  14
ATOM     14  C   UNL     1      11.891 -54.081 -24.295  1.00  0.00     0.173 C 
ATOM     15  O   UNL     1      11.909 -55.085 -25.012  1.00  0.00    -0.293 OA
BRANCH  14  16
ATOM     16  C   UNL     1      12.461 -52.795 -24.676  1.00  0.00     0.071 A 
ATOM     17  C   UNL     1      13.191 -52.439 -25.793  1.00  0.00     0.032 A 
ATOM     18  S   UNL     1      12.238 -51.449 -23.643  1.00  0.00    -0.132 S 
ATOM     19  C   UNL     1      13.572 -51.054 -25.807  1.00  0.00    -0.003 A 
ATOM     20  C   UNL     1      13.109 -50.388 -24.678  1.00  0.00     0.039 A 
ATOM     21  C   UNL     1      14.308 -50.311 -26.755  1.00  0.00     0.060 A 
ATOM     22  C   UNL     1      13.357 -49.014 -24.475  1.00  0.00     0.070 A 
ATOM     23  C   UNL     1      14.577 -48.943 -26.566  1.00  0.00     0.161 A 
ATOM     24  C   UNL     1      14.088 -48.286 -25.429  1.00  0.00     0.162 A 
BRANCH  23  25
ATOM     25  O   UNL     1      15.301 -48.420 -27.608  1.00  0.00    -0.493 OA
ATOM     26  C   UNL     1      16.722 -48.465 -27.529  1.00  0.00     0.278 C 
ENDBRANCH  23  25
BRANCH  24  27
ATOM     27  O   UNL     1      14.330 -46.942 -25.310  1.00  0.00    -0.493 OA
ATOM     28  C   UNL     1      13.231 -46.074 -25.063  1.00  0.00     0.278 C 
ENDBRANCH  24  27
ENDBRANCH  14  16
ENDBRANCH  13  14
ENDBRANCH  12  13
ENDBRANCH   4  12
TORSDOF 10
ENDMDL
