MODEL 1
REMARK VINA RESULT:   -11.309      0.000      0.000
REMARK INTER + INTRA:         -16.035
REMARK INTER:                 -15.606
REMARK INTRA:                  -0.429
REMARK UNBOUND:                -0.429
REMARK SMILES COc1cc2c(cc1OC)C(O)=C(C[C@H]1CC[N@H+](Cc3ccccc3)CC1)C2
REMARK SMILES IDX 14 1 13 2 11 3 6 4 28 5 7 6 5 7 8 8 4 9 3 10 12 11 9 13
REMARK SMILES IDX 10 14 2 15 1 16 15 17 16 18 27 19 17 20 26 21 18 22 19 24
REMARK SMILES IDX 20 25 21 26 25 27 22 28 24 29 23 30
REMARK H PARENT 12 12 18 23
ROOT
ATOM      1  C   UNL     1      10.074 -55.792 -22.337  1.00  0.00     0.039 C 
ENDROOT
BRANCH   1   2
ATOM      2  C   UNL     1      10.815 -54.590 -22.829  1.00  0.00    -0.023 C 
ATOM      3  C   UNL     1      10.948 -53.390 -22.237  1.00  0.00     0.122 C 
ATOM      4  C   UNL     1      11.717 -52.505 -23.094  1.00  0.00     0.024 A 
ATOM      5  C   UNL     1      11.588 -54.631 -24.140  1.00  0.00     0.071 C 
ATOM      6  C   UNL     1      12.064 -51.175 -22.933  1.00  0.00     0.062 A 
ATOM      7  C   UNL     1      12.105 -53.225 -24.229  1.00  0.00    -0.029 A 
ATOM      8  C   UNL     1      12.816 -50.556 -23.939  1.00  0.00     0.161 A 
ATOM      9  C   UNL     1      12.852 -52.635 -25.234  1.00  0.00     0.055 A 
ATOM     10  C   UNL     1      13.214 -51.289 -25.091  1.00  0.00     0.161 A 
BRANCH   3  11
ATOM     11  O   UNL     1      10.466 -52.954 -21.047  1.00  0.00    -0.507 OA
ATOM     12  H   UNL     1       9.818 -52.253 -21.221  1.00  0.00     0.293 HD
ENDBRANCH   3  11
BRANCH   8  13
ATOM     13  O   UNL     1      13.213 -49.241 -23.903  1.00  0.00    -0.493 OA
ATOM     14  C   UNL     1      12.197 -48.250 -23.831  1.00  0.00     0.278 C 
ENDBRANCH   8  13
BRANCH  10  15
ATOM     15  O   UNL     1      13.939 -50.586 -26.023  1.00  0.00    -0.493 OA
ATOM     16  C   UNL     1      15.354 -50.712 -25.987  1.00  0.00     0.278 C 
ENDBRANCH  10  15
ENDBRANCH   1   2
BRANCH   1  17
ATOM     17  C   UNL     1      10.470 -57.142 -22.980  1.00  0.00     0.004 C 
ATOM     18  C   UNL     1       9.262 -58.011 -23.358  1.00  0.00     0.065 C 
ATOM     19  C   UNL     1      11.439 -57.954 -22.105  1.00  0.00     0.065 C 
ATOM     20  C   UNL     1       9.689 -59.313 -24.024  1.00  0.00     0.262 C 
ATOM     21  C   UNL     1      11.856 -59.259 -22.773  1.00  0.00     0.262 C 
ATOM     22  N   UNL     1      10.623 -60.064 -23.112  1.00  0.00    -0.331 N 
ATOM     23  H   UNL     1      10.128 -60.234 -22.226  1.00  0.00     0.348 HD
BRANCH  22  24
ATOM     24  C   UNL     1      10.954 -61.435 -23.668  1.00  0.00     0.299 C 
BRANCH  24  25
ATOM     25  C   UNL     1       9.738 -62.290 -23.899  1.00  0.00     0.006 A 
ATOM     26  C   UNL     1       9.080 -62.272 -25.139  1.00  0.00     0.009 A 
ATOM     27  C   UNL     1       9.232 -63.103 -22.873  1.00  0.00     0.009 A 
ATOM     28  C   UNL     1       7.937 -63.045 -25.343  1.00  0.00     0.001 A 
ATOM     29  C   UNL     1       8.089 -63.875 -23.082  1.00  0.00     0.001 A 
ATOM     30  C   UNL     1       7.441 -63.844 -24.315  1.00  0.00     0.000 A 
ENDBRANCH  24  25
ENDBRANCH  22  24
ENDBRANCH   1  17
TORSDOF 7
ENDMDL
MODEL 2
REMARK VINA RESULT:   -10.988      1.003      2.046
REMARK INTER + INTRA:         -15.592
REMARK INTER:                 -15.353
REMARK INTRA:                  -0.239
REMARK UNBOUND:                -0.429
REMARK SMILES COc1cc2c(cc1OC)C(O)=C(C[C@H]1CC[N@H+](Cc3ccccc3)CC1)C2
REMARK SMILES IDX 14 1 13 2 11 3 6 4 28 5 7 6 5 7 8 8 4 9 3 10 12 11 9 13
REMARK SMILES IDX 10 14 2 15 1 16 15 17 16 18 27 19 17 20 26 21 18 22 19 24
REMARK SMILES IDX 20 25 21 26 25 27 22 28 24 29 23 30
REMARK H PARENT 12 12 18 23
ROOT
ATOM      1  C   UNL     1      10.077 -55.732 -22.027  1.00  0.00     0.039 C 
ENDROOT
BRANCH   1   2
ATOM      2  C   UNL     1      10.727 -54.474 -22.506  1.00  0.00    -0.023 C 
ATOM      3  C   UNL     1      11.333 -54.240 -23.683  1.00  0.00     0.122 C 
ATOM      4  C   UNL     1      11.860 -52.888 -23.702  1.00  0.00     0.024 A 
ATOM      5  C   UNL     1      10.726 -53.217 -21.645  1.00  0.00     0.071 C 
ATOM      6  C   UNL     1      12.596 -52.223 -24.668  1.00  0.00     0.062 A 
ATOM      7  C   UNL     1      11.510 -52.266 -22.500  1.00  0.00    -0.029 A 
ATOM      8  C   UNL     1      12.988 -50.902 -24.416  1.00  0.00     0.161 A 
ATOM      9  C   UNL     1      11.883 -50.960 -22.230  1.00  0.00     0.055 A 
ATOM     10  C   UNL     1      12.629 -50.269 -23.194  1.00  0.00     0.161 A 
BRANCH   3  11
ATOM     11  O   UNL     1      11.505 -55.065 -24.745  1.00  0.00    -0.507 OA
ATOM     12  H   UNL     1      11.900 -54.551 -25.467  1.00  0.00     0.293 HD
ENDBRANCH   3  11
BRANCH   8  13
ATOM     13  O   UNL     1      13.728 -50.141 -25.287  1.00  0.00    -0.493 OA
ATOM     14  C   UNL     1      14.051 -50.710 -26.548  1.00  0.00     0.278 C 
ENDBRANCH   8  13
BRANCH  10  15
ATOM     15  O   UNL     1      13.072 -48.977 -23.041  1.00  0.00    -0.493 OA
ATOM     16  C   UNL     1      12.129 -47.931 -23.226  1.00  0.00     0.278 C 
ENDBRANCH  10  15
ENDBRANCH   1   2
BRANCH   1  17
ATOM     17  C   UNL     1      10.508 -57.033 -22.746  1.00  0.00     0.004 C 
ATOM     18  C   UNL     1       9.322 -57.866 -23.251  1.00  0.00     0.065 C 
ATOM     19  C   UNL     1      11.429 -57.910 -21.883  1.00  0.00     0.065 C 
ATOM     20  C   UNL     1       9.783 -59.116 -23.989  1.00  0.00     0.262 C 
ATOM     21  C   UNL     1      11.880 -59.164 -22.624  1.00  0.00     0.262 C 
ATOM     22  N   UNL     1      10.668 -59.937 -23.086  1.00  0.00    -0.331 N 
ATOM     23  H   UNL     1      10.126 -60.170 -22.243  1.00  0.00     0.348 HD
BRANCH  22  24
ATOM     24  C   UNL     1      11.028 -61.264 -23.724  1.00  0.00     0.299 C 
BRANCH  24  25
ATOM     25  C   UNL     1       9.856 -62.200 -23.847  1.00  0.00     0.006 A 
ATOM     26  C   UNL     1       9.118 -62.265 -25.039  1.00  0.00     0.009 A 
ATOM     27  C   UNL     1       9.471 -63.007 -22.765  1.00  0.00     0.009 A 
ATOM     28  C   UNL     1       8.016 -63.113 -25.143  1.00  0.00     0.001 A 
ATOM     29  C   UNL     1       8.369 -63.855 -22.873  1.00  0.00     0.001 A 
ATOM     30  C   UNL     1       7.640 -63.905 -24.060  1.00  0.00     0.000 A 
ENDBRANCH  24  25
ENDBRANCH  22  24
ENDBRANCH   1  17
TORSDOF 7
ENDMDL
MODEL 3
REMARK VINA RESULT:   -10.217      2.345      3.721
REMARK INTER + INTRA:         -14.528
REMARK INTER:                 -14.310
REMARK INTRA:                  -0.217
REMARK UNBOUND:                -0.429
REMARK SMILES COc1cc2c(cc1OC)C(O)=C(C[C@H]1CC[N@H+](Cc3ccccc3)CC1)C2
REMARK SMILES IDX 14 1 13 2 11 3 6 4 28 5 7 6 5 7 8 8 4 9 3 10 12 11 9 13
REMARK SMILES IDX 10 14 2 15 1 16 15 17 16 18 27 19 17 20 26 21 18 22 19 24
REMARK SMILES IDX 20 25 21 26 25 27 22 28 24 29 23 30
REMARK H PARENT 12 12 18 23
ROOT
ATOM      1  C   UNL     1       9.815 -52.745 -22.065  1.00  0.00     0.039 C 
ENDROOT
BRANCH   1   2
ATOM      2  C   UNL     1      10.412 -51.411 -22.381  1.00  0.00    -0.023 C 
ATOM      3  C   UNL     1       9.875 -50.191 -22.202  1.00  0.00     0.122 C 
ATOM      4  C   UNL     1      10.792 -49.177 -22.690  1.00  0.00     0.024 A 
ATOM      5  C   UNL     1      11.822 -51.300 -22.946  1.00  0.00     0.071 C 
ATOM      6  C   UNL     1      10.657 -47.801 -22.762  1.00  0.00     0.062 A 
ATOM      7  C   UNL     1      11.953 -49.817 -23.136  1.00  0.00    -0.029 A 
ATOM      8  C   UNL     1      11.714 -47.054 -23.296  1.00  0.00     0.161 A 
ATOM      9  C   UNL     1      13.013 -49.100 -23.665  1.00  0.00     0.055 A 
ATOM     10  C   UNL     1      12.896 -47.706 -23.747  1.00  0.00     0.161 A 
BRANCH   3  11
ATOM     11  O   UNL     1       8.672 -49.843 -21.682  1.00  0.00    -0.507 OA
ATOM     12  H   UNL     1       8.300 -49.134 -22.230  1.00  0.00     0.293 HD
ENDBRANCH   3  11
BRANCH   8  13
ATOM     13  O   UNL     1      11.698 -45.687 -23.432  1.00  0.00    -0.493 OA
ATOM     14  C   UNL     1      10.524 -45.000 -23.024  1.00  0.00     0.278 C 
ENDBRANCH   8  13
BRANCH  10  15
ATOM     15  O   UNL     1      13.868 -46.883 -24.264  1.00  0.00    -0.493 OA
ATOM     16  C   UNL     1      14.240 -47.076 -25.622  1.00  0.00     0.278 C 
ENDBRANCH  10  15
ENDBRANCH   1   2
BRANCH   1  17
ATOM     17  C   UNL     1      10.693 -53.975 -22.393  1.00  0.00     0.004 C 
ATOM     18  C   UNL     1      10.553 -54.450 -23.846  1.00  0.00     0.065 C 
ATOM     19  C   UNL     1      10.445 -55.153 -21.437  1.00  0.00     0.065 C 
ATOM     20  C   UNL     1      11.462 -55.635 -24.144  1.00  0.00     0.262 C 
ATOM     21  C   UNL     1      11.351 -56.339 -21.745  1.00  0.00     0.262 C 
ATOM     22  N   UNL     1      11.159 -56.756 -23.184  1.00  0.00    -0.331 N 
ATOM     23  H   UNL     1      10.165 -57.002 -23.291  1.00  0.00     0.348 HD
BRANCH  22  24
ATOM     24  C   UNL     1      11.933 -58.011 -23.538  1.00  0.00     0.299 C 
BRANCH  24  25
ATOM     25  C   UNL     1      11.276 -59.271 -23.043  1.00  0.00     0.006 A 
ATOM     26  C   UNL     1      10.661 -59.305 -21.781  1.00  0.00     0.009 A 
ATOM     27  C   UNL     1      11.285 -60.435 -23.826  1.00  0.00     0.009 A 
ATOM     28  C   UNL     1      10.076 -60.482 -21.313  1.00  0.00     0.001 A 
ATOM     29  C   UNL     1      10.699 -61.609 -23.354  1.00  0.00     0.001 A 
ATOM     30  C   UNL     1      10.097 -61.633 -22.097  1.00  0.00     0.000 A 
ENDBRANCH  24  25
ENDBRANCH  22  24
ENDBRANCH   1  17
TORSDOF 7
ENDMDL
MODEL 4
REMARK VINA RESULT:   -10.070      3.789     10.289
REMARK INTER + INTRA:         -14.326
REMARK INTER:                 -13.560
REMARK INTRA:                  -0.766
REMARK UNBOUND:                -0.429
REMARK SMILES COc1cc2c(cc1OC)C(O)=C(C[C@H]1CC[N@H+](Cc3ccccc3)CC1)C2
REMARK SMILES IDX 14 1 13 2 11 3 6 4 28 5 7 6 5 7 8 8 4 9 3 10 12 11 9 13
REMARK SMILES IDX 10 14 2 15 1 16 15 17 16 18 27 19 17 20 26 21 18 22 19 24
REMARK SMILES IDX 20 25 21 26 25 27 22 28 24 29 23 30
REMARK H PARENT 12 12 18 23
ROOT
ATOM      1  C   UNL     1      11.443 -57.525 -22.008  1.00  0.00     0.039 C 
ENDROOT
BRANCH   1   2
ATOM      2  C   UNL     1      10.869 -58.581 -22.897  1.00  0.00    -0.023 C 
ATOM      3  C   UNL     1      11.389 -59.099 -24.024  1.00  0.00     0.122 C 
ATOM      4  C   UNL     1      10.468 -60.070 -24.586  1.00  0.00     0.024 A 
ATOM      5  C   UNL     1       9.546 -59.256 -22.558  1.00  0.00     0.071 C 
ATOM      6  C   UNL     1      10.546 -60.815 -25.750  1.00  0.00     0.062 A 
ATOM      7  C   UNL     1       9.368 -60.176 -23.729  1.00  0.00    -0.029 A 
ATOM      8  C   UNL     1       9.492 -61.685 -26.058  1.00  0.00     0.161 A 
ATOM      9  C   UNL     1       8.316 -61.031 -24.010  1.00  0.00     0.055 A 
ATOM     10  C   UNL     1       8.375 -61.794 -25.184  1.00  0.00     0.161 A 
BRANCH   3  11
ATOM     11  O   UNL     1      12.562 -58.819 -24.643  1.00  0.00    -0.507 OA
ATOM     12  H   UNL     1      13.075 -58.231 -24.066  1.00  0.00     0.293 HD
ENDBRANCH   3  11
BRANCH   8  13
ATOM     13  O   UNL     1       9.445 -62.467 -27.186  1.00  0.00    -0.493 OA
ATOM     14  C   UNL     1       9.135 -61.828 -28.417  1.00  0.00     0.278 C 
ENDBRANCH   8  13
BRANCH  10  15
ATOM     15  O   UNL     1       7.390 -62.666 -25.584  1.00  0.00    -0.493 OA
ATOM     16  C   UNL     1       7.169 -63.820 -24.785  1.00  0.00     0.278 C 
ENDBRANCH  10  15
ENDBRANCH   1   2
BRANCH   1  17
ATOM     17  C   UNL     1      10.772 -56.134 -22.088  1.00  0.00     0.004 C 
ATOM     18  C   UNL     1      11.095 -55.380 -23.386  1.00  0.00     0.065 C 
ATOM     19  C   UNL     1      11.101 -55.245 -20.878  1.00  0.00     0.065 C 
ATOM     20  C   UNL     1      10.386 -54.033 -23.449  1.00  0.00     0.262 C 
ATOM     21  C   UNL     1      10.396 -53.896 -20.951  1.00  0.00     0.262 C 
ATOM     22  N   UNL     1      10.761 -53.209 -22.245  1.00  0.00    -0.331 N 
ATOM     23  H   UNL     1      11.784 -53.101 -22.245  1.00  0.00     0.348 HD
BRANCH  22  24
ATOM     24  C   UNL     1      10.199 -51.804 -22.341  1.00  0.00     0.299 C 
BRANCH  24  25
ATOM     25  C   UNL     1      11.232 -50.778 -22.721  1.00  0.00     0.006 A 
ATOM     26  C   UNL     1      10.927 -49.409 -22.674  1.00  0.00     0.009 A 
ATOM     27  C   UNL     1      12.509 -51.175 -23.146  1.00  0.00     0.009 A 
ATOM     28  C   UNL     1      11.877 -48.460 -23.053  1.00  0.00     0.001 A 
ATOM     29  C   UNL     1      13.456 -50.223 -23.523  1.00  0.00     0.001 A 
ATOM     30  C   UNL     1      13.139 -48.867 -23.479  1.00  0.00     0.000 A 
ENDBRANCH  24  25
ENDBRANCH  22  24
ENDBRANCH   1  17
TORSDOF 7
ENDMDL
MODEL 5
REMARK VINA RESULT:    -9.616      3.610     10.309
REMARK INTER + INTRA:         -13.699
REMARK INTER:                 -13.195
REMARK INTRA:                  -0.505
REMARK UNBOUND:                -0.429
REMARK SMILES COc1cc2c(cc1OC)C(O)=C(C[C@H]1CC[N@H+](Cc3ccccc3)CC1)C2
REMARK SMILES IDX 14 1 13 2 11 3 6 4 28 5 7 6 5 7 8 8 4 9 3 10 12 11 9 13
REMARK SMILES IDX 10 14 2 15 1 16 15 17 16 18 27 19 17 20 26 21 18 22 19 24
REMARK SMILES IDX 20 25 21 26 25 27 22 28 24 29 23 30
REMARK H PARENT 12 12 18 23
ROOT
ATOM      1  C   UNL     1       9.515 -55.015 -22.440  1.00  0.00     0.039 C 
ENDROOT
BRANCH   1   2
ATOM      2  C   UNL     1       9.947 -56.393 -22.828  1.00  0.00    -0.023 C 
ATOM      3  C   UNL     1       9.182 -57.467 -23.093  1.00  0.00     0.122 C 
ATOM      4  C   UNL     1      10.028 -58.610 -23.385  1.00  0.00     0.024 A 
ATOM      5  C   UNL     1      11.422 -56.726 -23.013  1.00  0.00     0.071 C 
ATOM      6  C   UNL     1       9.697 -59.925 -23.664  1.00  0.00     0.062 A 
ATOM      7  C   UNL     1      11.361 -58.190 -23.341  1.00  0.00    -0.029 A 
ATOM      8  C   UNL     1      10.734 -60.836 -23.902  1.00  0.00     0.161 A 
ATOM      9  C   UNL     1      12.402 -59.071 -23.577  1.00  0.00     0.055 A 
ATOM     10  C   UNL     1      12.089 -60.407 -23.861  1.00  0.00     0.161 A 
BRANCH   3  11
ATOM     11  O   UNL     1       7.832 -57.586 -23.096  1.00  0.00    -0.507 OA
ATOM     12  H   UNL     1       7.580 -58.189 -22.377  1.00  0.00     0.293 HD
ENDBRANCH   3  11
BRANCH   8  13
ATOM     13  O   UNL     1      10.538 -62.168 -24.177  1.00  0.00    -0.493 OA
ATOM     14  C   UNL     1       9.810 -62.935 -23.228  1.00  0.00     0.278 C 
ENDBRANCH   8  13
BRANCH  10  15
ATOM     15  O   UNL     1      13.029 -61.382 -24.097  1.00  0.00    -0.493 OA
ATOM     16  C   UNL     1      14.180 -61.019 -24.847  1.00  0.00     0.278 C 
ENDBRANCH  10  15
ENDBRANCH   1   2
BRANCH   1  17
ATOM     17  C   UNL     1      10.626 -53.939 -22.412  1.00  0.00     0.004 C 
ATOM     18  C   UNL     1      10.233 -52.683 -21.622  1.00  0.00     0.065 C 
ATOM     19  C   UNL     1      11.099 -53.539 -23.819  1.00  0.00     0.065 C 
ATOM     20  C   UNL     1      11.364 -51.664 -21.582  1.00  0.00     0.262 C 
ATOM     21  C   UNL     1      12.225 -52.513 -23.773  1.00  0.00     0.262 C 
ATOM     22  N   UNL     1      11.770 -51.306 -22.988  1.00  0.00    -0.331 N 
ATOM     23  H   UNL     1      10.940 -50.934 -23.469  1.00  0.00     0.348 HD
BRANCH  22  24
ATOM     24  C   UNL     1      12.788 -50.182 -22.999  1.00  0.00     0.299 C 
BRANCH  24  25
ATOM     25  C   UNL     1      12.207 -48.860 -23.421  1.00  0.00     0.006 A 
ATOM     26  C   UNL     1      12.745 -48.162 -24.514  1.00  0.00     0.009 A 
ATOM     27  C   UNL     1      11.131 -48.297 -22.719  1.00  0.00     0.009 A 
ATOM     28  C   UNL     1      12.222 -46.923 -24.888  1.00  0.00     0.001 A 
ATOM     29  C   UNL     1      10.611 -47.059 -23.096  1.00  0.00     0.001 A 
ATOM     30  C   UNL     1      11.158 -46.372 -24.178  1.00  0.00     0.000 A 
ENDBRANCH  24  25
ENDBRANCH  22  24
ENDBRANCH   1  17
TORSDOF 7
ENDMDL
MODEL 6
REMARK VINA RESULT:    -9.599      3.717     10.560
REMARK INTER + INTRA:         -13.675
REMARK INTER:                 -13.453
REMARK INTRA:                  -0.223
REMARK UNBOUND:                -0.429
REMARK SMILES COc1cc2c(cc1OC)C(O)=C(C[C@H]1CC[N@H+](Cc3ccccc3)CC1)C2
REMARK SMILES IDX 14 1 13 2 11 3 6 4 28 5 7 6 5 7 8 8 4 9 3 10 12 11 9 13
REMARK SMILES IDX 10 14 2 15 1 16 15 17 16 18 27 19 17 20 26 21 18 22 19 24
REMARK SMILES IDX 20 25 21 26 25 27 22 28 24 29 23 30
REMARK H PARENT 12 12 18 23
ROOT
ATOM      1  C   UNL     1      11.370 -56.297 -23.122  1.00  0.00     0.039 C 
ENDROOT
BRANCH   1   2
ATOM      2  C   UNL     1      10.218 -57.249 -23.170  1.00  0.00    -0.023 C 
ATOM      3  C   UNL     1      10.244 -58.591 -23.245  1.00  0.00     0.122 C 
ATOM      4  C   UNL     1       8.888 -59.104 -23.312  1.00  0.00     0.024 A 
ATOM      5  C   UNL     1       8.783 -56.745 -23.089  1.00  0.00     0.071 C 
ATOM      6  C   UNL     1       8.422 -60.401 -23.447  1.00  0.00     0.062 A 
ATOM      7  C   UNL     1       8.007 -58.022 -23.221  1.00  0.00    -0.029 A 
ATOM      8  C   UNL     1       7.038 -60.611 -23.493  1.00  0.00     0.161 A 
ATOM      9  C   UNL     1       6.635 -58.205 -23.261  1.00  0.00     0.055 A 
ATOM     10  C   UNL     1       6.142 -59.510 -23.398  1.00  0.00     0.161 A 
BRANCH   3  11
ATOM     11  O   UNL     1      11.305 -59.434 -23.284  1.00  0.00    -0.507 OA
ATOM     12  H   UNL     1      11.493 -59.641 -24.214  1.00  0.00     0.293 HD
ENDBRANCH   3  11
BRANCH   8  13
ATOM     13  O   UNL     1       6.452 -61.845 -23.637  1.00  0.00    -0.493 OA
ATOM     14  C   UNL     1       7.220 -62.984 -23.271  1.00  0.00     0.278 C 
ENDBRANCH   8  13
BRANCH  10  15
ATOM     15  O   UNL     1       4.806 -59.823 -23.465  1.00  0.00    -0.493 OA
ATOM     16  C   UNL     1       3.891 -58.945 -22.825  1.00  0.00     0.278 C 
ENDBRANCH  10  15
ENDBRANCH   1   2
BRANCH   1  17
ATOM     17  C   UNL     1      11.009 -54.806 -22.918  1.00  0.00     0.004 C 
ATOM     18  C   UNL     1      11.896 -53.852 -23.730  1.00  0.00     0.065 C 
ATOM     19  C   UNL     1      11.018 -54.391 -21.438  1.00  0.00     0.065 C 
ATOM     20  C   UNL     1      11.487 -52.398 -23.537  1.00  0.00     0.262 C 
ATOM     21  C   UNL     1      10.616 -52.933 -21.252  1.00  0.00     0.262 C 
ATOM     22  N   UNL     1      11.530 -52.052 -22.071  1.00  0.00    -0.331 N 
ATOM     23  H   UNL     1      12.487 -52.226 -21.735  1.00  0.00     0.348 HD
BRANCH  22  24
ATOM     24  C   UNL     1      11.277 -50.575 -21.844  1.00  0.00     0.299 C 
BRANCH  24  25
ATOM     25  C   UNL     1      11.978 -49.694 -22.843  1.00  0.00     0.006 A 
ATOM     26  C   UNL     1      13.251 -50.036 -23.324  1.00  0.00     0.009 A 
ATOM     27  C   UNL     1      11.377 -48.508 -23.293  1.00  0.00     0.009 A 
ATOM     28  C   UNL     1      13.911 -49.205 -24.230  1.00  0.00     0.001 A 
ATOM     29  C   UNL     1      12.041 -47.680 -24.199  1.00  0.00     0.001 A 
ATOM     30  C   UNL     1      13.307 -48.027 -24.664  1.00  0.00     0.000 A 
ENDBRANCH  24  25
ENDBRANCH  22  24
ENDBRANCH   1  17
TORSDOF 7
ENDMDL
MODEL 7
REMARK VINA RESULT:    -9.392      3.448     10.027
REMARK INTER + INTRA:         -13.390
REMARK INTER:                 -12.672
REMARK INTRA:                  -0.717
REMARK UNBOUND:                -0.429
REMARK SMILES COc1cc2c(cc1OC)C(O)=C(C[C@H]1CC[N@H+](Cc3ccccc3)CC1)C2
REMARK SMILES IDX 14 1 13 2 11 3 6 4 28 5 7 6 5 7 8 8 4 9 3 10 12 11 9 13
REMARK SMILES IDX 10 14 2 15 1 16 15 17 16 18 27 19 17 20 26 21 18 22 19 24
REMARK SMILES IDX 20 25 21 26 25 27 22 28 24 29 23 30
REMARK H PARENT 12 12 18 23
ROOT
ATOM      1  C   UNL     1      10.118 -55.227 -22.248  1.00  0.00     0.039 C 
ENDROOT
BRANCH   1   2
ATOM      2  C   UNL     1       9.920 -56.667 -22.599  1.00  0.00    -0.023 C 
ATOM      3  C   UNL     1      10.653 -57.729 -22.219  1.00  0.00     0.122 C 
ATOM      4  C   UNL     1      10.123 -58.933 -22.833  1.00  0.00     0.024 A 
ATOM      5  C   UNL     1       8.744 -57.107 -23.460  1.00  0.00     0.071 C 
ATOM      6  C   UNL     1      10.570 -60.242 -22.777  1.00  0.00     0.062 A 
ATOM      7  C   UNL     1       8.990 -58.584 -23.573  1.00  0.00    -0.029 A 
ATOM      8  C   UNL     1       9.859 -61.220 -23.485  1.00  0.00     0.161 A 
ATOM      9  C   UNL     1       8.269 -59.532 -24.278  1.00  0.00     0.055 A 
ATOM     10  C   UNL     1       8.705 -60.864 -24.236  1.00  0.00     0.161 A 
BRANCH   3  11
ATOM     11  O   UNL     1      11.745 -57.784 -21.418  1.00  0.00    -0.507 OA
ATOM     12  H   UNL     1      12.027 -58.710 -21.353  1.00  0.00     0.293 HD
ENDBRANCH   3  11
BRANCH   8  13
ATOM     13  O   UNL     1      10.207 -62.549 -23.520  1.00  0.00    -0.493 OA
ATOM     14  C   UNL     1       9.860 -63.348 -22.397  1.00  0.00     0.278 C 
ENDBRANCH   8  13
BRANCH  10  15
ATOM     15  O   UNL     1       8.088 -61.895 -24.902  1.00  0.00    -0.493 OA
ATOM     16  C   UNL     1       6.904 -62.434 -24.330  1.00  0.00     0.278 C 
ENDBRANCH  10  15
ENDBRANCH   1   2
BRANCH   1  17
ATOM     17  C   UNL     1      10.757 -54.344 -23.346  1.00  0.00     0.004 C 
ATOM     18  C   UNL     1      11.733 -55.112 -24.249  1.00  0.00     0.065 C 
ATOM     19  C   UNL     1      11.451 -53.097 -22.775  1.00  0.00     0.065 C 
ATOM     20  C   UNL     1      12.310 -54.222 -25.342  1.00  0.00     0.262 C 
ATOM     21  C   UNL     1      12.034 -52.215 -23.872  1.00  0.00     0.262 C 
ATOM     22  N   UNL     1      12.986 -53.029 -24.716  1.00  0.00    -0.331 N 
ATOM     23  H   UNL     1      13.718 -53.378 -24.083  1.00  0.00     0.348 HD
BRANCH  22  24
ATOM     24  C   UNL     1      13.706 -52.194 -25.756  1.00  0.00     0.299 C 
BRANCH  24  25
ATOM     25  C   UNL     1      15.142 -51.916 -25.403  1.00  0.00     0.006 A 
ATOM     26  C   UNL     1      15.566 -50.608 -25.117  1.00  0.00     0.009 A 
ATOM     27  C   UNL     1      16.083 -52.957 -25.371  1.00  0.00     0.009 A 
ATOM     28  C   UNL     1      16.903 -50.349 -24.815  1.00  0.00     0.001 A 
ATOM     29  C   UNL     1      17.419 -52.693 -25.067  1.00  0.00     0.001 A 
ATOM     30  C   UNL     1      17.828 -51.391 -24.793  1.00  0.00     0.000 A 
ENDBRANCH  24  25
ENDBRANCH  22  24
ENDBRANCH   1  17
TORSDOF 7
ENDMDL
MODEL 8
REMARK VINA RESULT:    -9.330      2.671      5.541
REMARK INTER + INTRA:         -13.305
REMARK INTER:                 -12.527
REMARK INTRA:                  -0.777
REMARK UNBOUND:                -0.429
REMARK SMILES COc1cc2c(cc1OC)C(O)=C(C[C@H]1CC[N@H+](Cc3ccccc3)CC1)C2
REMARK SMILES IDX 14 1 13 2 11 3 6 4 28 5 7 6 5 7 8 8 4 9 3 10 12 11 9 13
REMARK SMILES IDX 10 14 2 15 1 16 15 17 16 18 27 19 17 20 26 21 18 22 19 24
REMARK SMILES IDX 20 25 21 26 25 27 22 28 24 29 23 30
REMARK H PARENT 12 12 18 23
ROOT
ATOM      1  C   UNL     1      12.471 -51.336 -22.243  1.00  0.00     0.039 C 
ENDROOT
BRANCH   1   2
ATOM      2  C   UNL     1      12.303 -49.973 -22.836  1.00  0.00    -0.023 C 
ATOM      3  C   UNL     1      13.076 -49.356 -23.747  1.00  0.00     0.122 C 
ATOM      4  C   UNL     1      12.561 -48.023 -24.003  1.00  0.00     0.024 A 
ATOM      5  C   UNL     1      11.114 -49.099 -22.461  1.00  0.00     0.071 C 
ATOM      6  C   UNL     1      13.045 -47.012 -24.816  1.00  0.00     0.062 A 
ATOM      7  C   UNL     1      11.397 -47.852 -23.248  1.00  0.00    -0.029 A 
ATOM      8  C   UNL     1      12.341 -45.803 -24.867  1.00  0.00     0.161 A 
ATOM      9  C   UNL     1      10.682 -46.668 -23.284  1.00  0.00     0.055 A 
ATOM     10  C   UNL     1      11.154 -45.631 -24.101  1.00  0.00     0.161 A 
BRANCH   3  11
ATOM     11  O   UNL     1      14.193 -49.799 -24.375  1.00  0.00    -0.507 OA
ATOM     12  H   UNL     1      14.633 -50.439 -23.794  1.00  0.00     0.293 HD
ENDBRANCH   3  11
BRANCH   8  13
ATOM     13  O   UNL     1      12.723 -44.722 -25.623  1.00  0.00    -0.493 OA
ATOM     14  C   UNL     1      13.546 -44.969 -26.755  1.00  0.00     0.278 C 
ENDBRANCH   8  13
BRANCH  10  15
ATOM     15  O   UNL     1      10.546 -44.404 -24.213  1.00  0.00    -0.493 OA
ATOM     16  C   UNL     1      10.430 -43.616 -23.036  1.00  0.00     0.278 C 
ENDBRANCH  10  15
ENDBRANCH   1   2
BRANCH   1  17
ATOM     17  C   UNL     1      11.447 -52.403 -22.695  1.00  0.00     0.004 C 
ATOM     18  C   UNL     1      10.813 -53.168 -21.525  1.00  0.00     0.065 C 
ATOM     19  C   UNL     1      12.036 -53.399 -23.708  1.00  0.00     0.065 C 
ATOM     20  C   UNL     1       9.781 -54.181 -22.005  1.00  0.00     0.262 C 
ATOM     21  C   UNL     1      11.001 -54.414 -24.178  1.00  0.00     0.262 C 
ATOM     22  N   UNL     1      10.424 -55.132 -22.980  1.00  0.00    -0.331 N 
ATOM     23  H   UNL     1      11.212 -55.589 -22.501  1.00  0.00     0.348 HD
BRANCH  22  24
ATOM     24  C   UNL     1       9.476 -56.249 -23.369  1.00  0.00     0.299 C 
BRANCH  24  25
ATOM     25  C   UNL     1       9.803 -57.560 -22.707  1.00  0.00     0.006 A 
ATOM     26  C   UNL     1      10.921 -57.675 -21.866  1.00  0.00     0.009 A 
ATOM     27  C   UNL     1       9.006 -58.693 -22.935  1.00  0.00     0.009 A 
ATOM     28  C   UNL     1      11.238 -58.898 -21.274  1.00  0.00     0.001 A 
ATOM     29  C   UNL     1       9.326 -59.913 -22.341  1.00  0.00     0.001 A 
ATOM     30  C   UNL     1      10.442 -60.016 -21.514  1.00  0.00     0.000 A 
ENDBRANCH  24  25
ENDBRANCH  22  24
ENDBRANCH   1  17
TORSDOF 7
ENDMDL
MODEL 9
REMARK VINA RESULT:    -9.264      3.221      6.398
REMARK INTER + INTRA:         -13.213
REMARK INTER:                 -12.481
REMARK INTRA:                  -0.732
REMARK UNBOUND:                -0.429
REMARK SMILES COc1cc2c(cc1OC)C(O)=C(C[C@H]1CC[N@H+](Cc3ccccc3)CC1)C2
REMARK SMILES IDX 14 1 13 2 11 3 6 4 28 5 7 6 5 7 8 8 4 9 3 10 12 11 9 13
REMARK SMILES IDX 10 14 2 15 1 16 15 17 16 18 27 19 17 20 26 21 18 22 19 24
REMARK SMILES IDX 20 25 21 26 25 27 22 28 24 29 23 30
REMARK H PARENT 12 12 18 23
ROOT
ATOM      1  C   UNL     1      13.243 -50.485 -22.895  1.00  0.00     0.039 C 
ENDROOT
BRANCH   1   2
ATOM      2  C   UNL     1      12.828 -49.048 -22.886  1.00  0.00    -0.023 C 
ATOM      3  C   UNL     1      13.127 -48.097 -21.983  1.00  0.00     0.122 C 
ATOM      4  C   UNL     1      12.473 -46.854 -22.349  1.00  0.00     0.024 A 
ATOM      5  C   UNL     1      11.988 -48.469 -24.017  1.00  0.00     0.071 C 
ATOM      6  C   UNL     1      12.447 -45.628 -21.705  1.00  0.00     0.062 A 
ATOM      7  C   UNL     1      11.792 -47.056 -23.553  1.00  0.00    -0.029 A 
ATOM      8  C   UNL     1      11.717 -44.585 -22.288  1.00  0.00     0.161 A 
ATOM      9  C   UNL     1      11.067 -46.039 -24.150  1.00  0.00     0.055 A 
ATOM     10  C   UNL     1      11.027 -44.790 -23.515  1.00  0.00     0.161 A 
BRANCH   3  11
ATOM     11  O   UNL     1      13.885 -48.177 -20.862  1.00  0.00    -0.507 OA
ATOM     12  H   UNL     1      13.920 -47.296 -20.457  1.00  0.00     0.293 HD
ENDBRANCH   3  11
BRANCH   8  13
ATOM     13  O   UNL     1      11.604 -43.328 -21.743  1.00  0.00    -0.493 OA
ATOM     14  C   UNL     1      12.793 -42.565 -21.597  1.00  0.00     0.278 C 
ENDBRANCH   8  13
BRANCH  10  15
ATOM     15  O   UNL     1      10.332 -43.706 -23.995  1.00  0.00    -0.493 OA
ATOM     16  C   UNL     1      11.002 -42.845 -24.906  1.00  0.00     0.278 C 
ENDBRANCH  10  15
ENDBRANCH   1   2
BRANCH   1  17
ATOM     17  C   UNL     1      12.131 -51.509 -23.226  1.00  0.00     0.004 C 
ATOM     18  C   UNL     1      11.292 -51.908 -22.004  1.00  0.00     0.065 C 
ATOM     19  C   UNL     1      12.674 -52.770 -23.917  1.00  0.00     0.065 C 
ATOM     20  C   UNL     1      10.184 -52.885 -22.375  1.00  0.00     0.262 C 
ATOM     21  C   UNL     1      11.561 -53.747 -24.278  1.00  0.00     0.262 C 
ATOM     22  N   UNL     1      10.782 -54.101 -23.033  1.00  0.00    -0.331 N 
ATOM     23  H   UNL     1      11.452 -54.518 -22.373  1.00  0.00     0.348 HD
BRANCH  22  24
ATOM     24  C   UNL     1       9.733 -55.166 -23.282  1.00  0.00     0.299 C 
BRANCH  24  25
ATOM     25  C   UNL     1      10.117 -56.515 -22.736  1.00  0.00     0.006 A 
ATOM     26  C   UNL     1      11.132 -56.630 -21.772  1.00  0.00     0.009 A 
ATOM     27  C   UNL     1       9.480 -57.678 -23.194  1.00  0.00     0.009 A 
ATOM     28  C   UNL     1      11.504 -57.883 -21.285  1.00  0.00     0.001 A 
ATOM     29  C   UNL     1       9.855 -58.929 -22.704  1.00  0.00     0.001 A 
ATOM     30  C   UNL     1      10.868 -59.031 -21.753  1.00  0.00     0.000 A 
ENDBRANCH  24  25
ENDBRANCH  22  24
ENDBRANCH   1  17
TORSDOF 7
ENDMDL
