MODEL 1
REMARK VINA RESULT:   -10.811      0.000      0.000
REMARK INTER + INTRA:         -13.136
REMARK INTER:                 -12.707
REMARK INTRA:                  -0.429
REMARK UNBOUND:                -0.429
REMARK SMILES C[n+]1ccc2c3ccccc3n(CCc3ccccc3)c2c1
REMARK SMILES IDX 13 1 12 2 2 3 3 4 22 5 4 6 21 7 5 8 6 9 11 10 7 11 10 12
REMARK SMILES IDX 8 13 9 14 1 15 14 16 15 17 16 18 20 19 17 20 19 21 18 22
REMARK H PARENT
ROOT
ATOM      1  C   UNL     1      11.722 -60.488 -23.129  1.00  0.00     0.128 C 
ENDROOT
BRANCH   1   2
ATOM      2  N   UNL     1      10.781 -61.116 -24.051  1.00  0.00    -0.335 N 
ATOM      3  N   UNL     1      11.165 -60.027 -27.555  1.00  0.00    -0.206 N 
ATOM      4  C   UNL     1      10.190 -60.794 -28.082  1.00  0.00     0.308 A 
ATOM      5  C   UNL     1      11.461 -60.045 -26.240  1.00  0.00     0.334 A 
ATOM      6  C   UNL     1       9.426 -61.639 -27.290  1.00  0.00     0.081 A 
ATOM      7  C   UNL     1      10.719 -60.881 -25.413  1.00  0.00     0.114 A 
ATOM      8  C   UNL     1       9.698 -61.682 -25.915  1.00  0.00     0.020 A 
ATOM      9  C   UNL     1       9.135 -62.411 -24.824  1.00  0.00     0.008 A 
ATOM     10  C   UNL     1       9.828 -62.040 -23.671  1.00  0.00     0.049 A 
ATOM     11  C   UNL     1       8.092 -63.355 -24.719  1.00  0.00     0.011 A 
ATOM     12  C   UNL     1       9.514 -62.581 -22.412  1.00  0.00     0.027 A 
ATOM     13  C   UNL     1       7.774 -63.898 -23.471  1.00  0.00     0.001 A 
ATOM     14  C   UNL     1       8.476 -63.514 -22.335  1.00  0.00     0.002 A 
ATOM     15  C   UNL     1      11.948 -59.159 -28.456  1.00  0.00     0.439 C 
ENDBRANCH   1   2
BRANCH   1  16
ATOM     16  C   UNL     1      11.014 -59.834 -21.943  1.00  0.00     0.057 C 
BRANCH  16  17
ATOM     17  C   UNL     1      10.628 -58.411 -22.252  1.00  0.00    -0.046 A 
ATOM     18  C   UNL     1      11.390 -57.342 -21.763  1.00  0.00     0.004 A 
ATOM     19  C   UNL     1       9.488 -58.139 -23.021  1.00  0.00     0.004 A 
ATOM     20  C   UNL     1      11.015 -56.025 -22.036  1.00  0.00     0.000 A 
ATOM     21  C   UNL     1       9.116 -56.821 -23.291  1.00  0.00     0.000 A 
ATOM     22  C   UNL     1       9.878 -55.765 -22.797  1.00  0.00     0.000 A 
ENDBRANCH  16  17
ENDBRANCH   1  16
TORSDOF 3
ENDMDL
MODEL 2
REMARK VINA RESULT:   -10.238      0.989      4.069
REMARK INTER + INTRA:         -12.463
REMARK INTER:                 -11.997
REMARK INTRA:                  -0.466
REMARK UNBOUND:                -0.429
REMARK SMILES C[n+]1ccc2c3ccccc3n(CCc3ccccc3)c2c1
REMARK SMILES IDX 13 1 12 2 2 3 3 4 22 5 4 6 21 7 5 8 6 9 11 10 7 11 10 12
REMARK SMILES IDX 8 13 9 14 1 15 14 16 15 17 16 18 20 19 17 20 19 21 18 22
REMARK H PARENT
ROOT
ATOM      1  C   UNL     1      11.843 -60.620 -23.447  1.00  0.00     0.128 C 
ENDROOT
BRANCH   1   2
ATOM      2  N   UNL     1      11.048 -60.960 -24.623  1.00  0.00    -0.335 N 
ATOM      3  N   UNL     1       8.245 -63.255 -23.923  1.00  0.00    -0.206 N 
ATOM      4  C   UNL     1       7.756 -63.319 -25.178  1.00  0.00     0.308 A 
ATOM      5  C   UNL     1       9.322 -62.508 -23.609  1.00  0.00     0.334 A 
ATOM      6  C   UNL     1       8.351 -62.626 -26.222  1.00  0.00     0.081 A 
ATOM      7  C   UNL     1       9.946 -61.796 -24.628  1.00  0.00     0.114 A 
ATOM      8  C   UNL     1       9.479 -61.842 -25.939  1.00  0.00     0.020 A 
ATOM      9  C   UNL     1      10.327 -61.016 -26.736  1.00  0.00     0.008 A 
ATOM     10  C   UNL     1      11.298 -60.475 -25.892  1.00  0.00     0.049 A 
ATOM     11  C   UNL     1      10.351 -60.681 -28.106  1.00  0.00     0.011 A 
ATOM     12  C   UNL     1      12.298 -59.611 -26.371  1.00  0.00     0.027 A 
ATOM     13  C   UNL     1      11.342 -59.821 -28.590  1.00  0.00     0.001 A 
ATOM     14  C   UNL     1      12.300 -59.295 -27.732  1.00  0.00     0.002 A 
ATOM     15  C   UNL     1       7.557 -64.008 -22.856  1.00  0.00     0.439 C 
ENDBRANCH   1   2
BRANCH   1  16
ATOM     16  C   UNL     1      10.974 -60.146 -22.284  1.00  0.00     0.057 C 
BRANCH  16  17
ATOM     17  C   UNL     1      10.584 -58.699 -22.445  1.00  0.00    -0.046 A 
ATOM     18  C   UNL     1       9.401 -58.349 -23.110  1.00  0.00     0.004 A 
ATOM     19  C   UNL     1      11.411 -57.684 -21.946  1.00  0.00     0.004 A 
ATOM     20  C   UNL     1       9.056 -57.006 -23.275  1.00  0.00     0.000 A 
ATOM     21  C   UNL     1      11.062 -56.343 -22.113  1.00  0.00     0.000 A 
ATOM     22  C   UNL     1       9.887 -56.005 -22.779  1.00  0.00     0.000 A 
ENDBRANCH  16  17
ENDBRANCH   1  16
TORSDOF 3
ENDMDL
MODEL 3
REMARK VINA RESULT:    -9.795      6.959     11.056
REMARK INTER + INTRA:         -11.941
REMARK INTER:                 -11.253
REMARK INTRA:                  -0.688
REMARK UNBOUND:                -0.429
REMARK SMILES C[n+]1ccc2c3ccccc3n(CCc3ccccc3)c2c1
REMARK SMILES IDX 13 1 12 2 2 3 3 4 22 5 4 6 21 7 5 8 6 9 11 10 7 11 10 12
REMARK SMILES IDX 8 13 9 14 1 15 14 16 15 17 16 18 20 19 17 20 19 21 18 22
REMARK H PARENT
ROOT
ATOM      1  C   UNL     1      11.276 -50.958 -21.729  1.00  0.00     0.128 C 
ENDROOT
BRANCH   1   2
ATOM      2  N   UNL     1      11.864 -50.275 -22.877  1.00  0.00    -0.335 N 
ATOM      3  N   UNL     1      11.277 -46.632 -22.912  1.00  0.00    -0.206 N 
ATOM      4  C   UNL     1      11.948 -46.359 -24.049  1.00  0.00     0.308 A 
ATOM      5  C   UNL     1      11.179 -47.882 -22.417  1.00  0.00     0.334 A 
ATOM      6  C   UNL     1      12.568 -47.362 -24.781  1.00  0.00     0.081 A 
ATOM      7  C   UNL     1      11.789 -48.915 -23.122  1.00  0.00     0.114 A 
ATOM      8  C   UNL     1      12.485 -48.678 -24.304  1.00  0.00     0.020 A 
ATOM      9  C   UNL     1      12.983 -49.929 -24.778  1.00  0.00     0.008 A 
ATOM     10  C   UNL     1      12.583 -50.910 -23.869  1.00  0.00     0.049 A 
ATOM     11  C   UNL     1      13.742 -50.310 -25.904  1.00  0.00     0.011 A 
ATOM     12  C   UNL     1      12.914 -52.264 -24.049  1.00  0.00     0.027 A 
ATOM     13  C   UNL     1      14.076 -51.655 -26.089  1.00  0.00     0.001 A 
ATOM     14  C   UNL     1      13.667 -52.616 -25.173  1.00  0.00     0.002 A 
ATOM     15  C   UNL     1      10.651 -45.517 -22.175  1.00  0.00     0.439 C 
ENDBRANCH   1   2
BRANCH   1  16
ATOM     16  C   UNL     1       9.991 -51.698 -22.098  1.00  0.00     0.057 C 
BRANCH  16  17
ATOM     17  C   UNL     1      10.217 -53.186 -22.169  1.00  0.00    -0.046 A 
ATOM     18  C   UNL     1      10.732 -53.883 -21.067  1.00  0.00     0.004 A 
ATOM     19  C   UNL     1       9.930 -53.890 -23.347  1.00  0.00     0.004 A 
ATOM     20  C   UNL     1      10.958 -55.259 -21.146  1.00  0.00     0.000 A 
ATOM     21  C   UNL     1      10.159 -55.265 -23.421  1.00  0.00     0.000 A 
ATOM     22  C   UNL     1      10.674 -55.948 -22.322  1.00  0.00     0.000 A 
ENDBRANCH  16  17
ENDBRANCH   1  16
TORSDOF 3
ENDMDL
MODEL 4
REMARK VINA RESULT:    -9.316      7.269     10.308
REMARK INTER + INTRA:         -11.379
REMARK INTER:                 -10.851
REMARK INTRA:                  -0.528
REMARK UNBOUND:                -0.429
REMARK SMILES C[n+]1ccc2c3ccccc3n(CCc3ccccc3)c2c1
REMARK SMILES IDX 13 1 12 2 2 3 3 4 22 5 4 6 21 7 5 8 6 9 11 10 7 11 10 12
REMARK SMILES IDX 8 13 9 14 1 15 14 16 15 17 16 18 20 19 17 20 19 21 18 22
REMARK H PARENT
ROOT
ATOM      1  C   UNL     1      11.629 -49.804 -22.182  1.00  0.00     0.128 C 
ENDROOT
BRANCH   1   2
ATOM      2  N   UNL     1      11.866 -50.999 -22.986  1.00  0.00    -0.335 N 
ATOM      3  N   UNL     1      13.977 -50.414 -25.955  1.00  0.00    -0.206 N 
ATOM      4  C   UNL     1      13.988 -51.682 -26.412  1.00  0.00     0.308 A 
ATOM      5  C   UNL     1      13.318 -50.060 -24.833  1.00  0.00     0.334 A 
ATOM      6  C   UNL     1      13.305 -52.694 -25.754  1.00  0.00     0.081 A 
ATOM      7  C   UNL     1      12.623 -51.048 -24.143  1.00  0.00     0.114 A 
ATOM      8  C   UNL     1      12.601 -52.367 -24.586  1.00  0.00     0.020 A 
ATOM      9  C   UNL     1      11.808 -53.124 -23.672  1.00  0.00     0.008 A 
ATOM     10  C   UNL     1      11.361 -52.248 -22.681  1.00  0.00     0.049 A 
ATOM     11  C   UNL     1      11.432 -54.482 -23.602  1.00  0.00     0.011 A 
ATOM     12  C   UNL     1      10.546 -52.682 -21.622  1.00  0.00     0.027 A 
ATOM     13  C   UNL     1      10.622 -54.922 -22.551  1.00  0.00     0.001 A 
ATOM     14  C   UNL     1      10.187 -54.033 -21.576  1.00  0.00     0.002 A 
ATOM     15  C   UNL     1      14.735 -49.387 -26.697  1.00  0.00     0.439 C 
ENDBRANCH   1   2
BRANCH   1  16
ATOM     16  C   UNL     1      10.426 -49.006 -22.681  1.00  0.00     0.057 C 
BRANCH  16  17
ATOM     17  C   UNL     1      10.809 -47.585 -23.007  1.00  0.00    -0.046 A 
ATOM     18  C   UNL     1      10.602 -46.558 -22.076  1.00  0.00     0.004 A 
ATOM     19  C   UNL     1      11.363 -47.270 -24.256  1.00  0.00     0.004 A 
ATOM     20  C   UNL     1      10.940 -45.241 -22.392  1.00  0.00     0.000 A 
ATOM     21  C   UNL     1      11.699 -45.952 -24.568  1.00  0.00     0.000 A 
ATOM     22  C   UNL     1      11.485 -44.938 -23.637  1.00  0.00     0.000 A 
ENDBRANCH  16  17
ENDBRANCH   1  16
TORSDOF 3
ENDMDL
MODEL 5
REMARK VINA RESULT:    -9.300      1.708      5.726
REMARK INTER + INTRA:         -11.360
REMARK INTER:                 -11.275
REMARK INTRA:                  -0.085
REMARK UNBOUND:                -0.429
REMARK SMILES C[n+]1ccc2c3ccccc3n(CCc3ccccc3)c2c1
REMARK SMILES IDX 13 1 12 2 2 3 3 4 22 5 4 6 21 7 5 8 6 9 11 10 7 11 10 12
REMARK SMILES IDX 8 13 9 14 1 15 14 16 15 17 16 18 20 19 17 20 19 21 18 22
REMARK H PARENT
ROOT
ATOM      1  C   UNL     1      11.591 -60.102 -23.007  1.00  0.00     0.128 C 
ENDROOT
BRANCH   1   2
ATOM      2  N   UNL     1      10.417 -59.238 -23.080  1.00  0.00    -0.335 N 
ATOM      3  N   UNL     1       7.230 -61.068 -23.406  1.00  0.00    -0.206 N 
ATOM      4  C   UNL     1       6.415 -59.995 -23.423  1.00  0.00     0.308 A 
ATOM      5  C   UNL     1       8.568 -60.953 -23.292  1.00  0.00     0.334 A 
ATOM      6  C   UNL     1       6.916 -58.704 -23.338  1.00  0.00     0.081 A 
ATOM      7  C   UNL     1       9.110 -59.675 -23.202  1.00  0.00     0.114 A 
ATOM      8  C   UNL     1       8.304 -58.539 -23.225  1.00  0.00     0.020 A 
ATOM      9  C   UNL     1       9.154 -57.397 -23.119  1.00  0.00     0.008 A 
ATOM     10  C   UNL     1      10.468 -57.859 -23.028  1.00  0.00     0.049 A 
ATOM     11  C   UNL     1       8.916 -56.007 -23.091  1.00  0.00     0.011 A 
ATOM     12  C   UNL     1      11.556 -56.977 -22.913  1.00  0.00     0.027 A 
ATOM     13  C   UNL     1       9.994 -55.123 -22.976  1.00  0.00     0.001 A 
ATOM     14  C   UNL     1      11.294 -55.605 -22.889  1.00  0.00     0.002 A 
ATOM     15  C   UNL     1       6.629 -62.414 -23.488  1.00  0.00     0.439 C 
ENDBRANCH   1   2
BRANCH   1  16
ATOM     16  C   UNL     1      11.506 -61.270 -23.988  1.00  0.00     0.057 C 
BRANCH  16  17
ATOM     17  C   UNL     1      11.449 -60.785 -25.413  1.00  0.00    -0.046 A 
ATOM     18  C   UNL     1      10.359 -61.108 -26.234  1.00  0.00     0.004 A 
ATOM     19  C   UNL     1      12.496 -60.018 -25.942  1.00  0.00     0.004 A 
ATOM     20  C   UNL     1      10.322 -60.673 -27.560  1.00  0.00     0.000 A 
ATOM     21  C   UNL     1      12.455 -59.585 -27.268  1.00  0.00     0.000 A 
ATOM     22  C   UNL     1      11.370 -59.915 -28.077  1.00  0.00     0.000 A 
ENDBRANCH  16  17
ENDBRANCH   1  16
TORSDOF 3
ENDMDL
MODEL 6
REMARK VINA RESULT:    -9.295      6.841     11.105
REMARK INTER + INTRA:         -11.354
REMARK INTER:                 -10.701
REMARK INTRA:                  -0.653
REMARK UNBOUND:                -0.429
REMARK SMILES C[n+]1ccc2c3ccccc3n(CCc3ccccc3)c2c1
REMARK SMILES IDX 13 1 12 2 2 3 3 4 22 5 4 6 21 7 5 8 6 9 11 10 7 11 10 12
REMARK SMILES IDX 8 13 9 14 1 15 14 16 15 17 16 18 20 19 17 20 19 21 18 22
REMARK H PARENT
ROOT
ATOM      1  C   UNL     1      11.585 -50.773 -21.809  1.00  0.00     0.128 C 
ENDROOT
BRANCH   1   2
ATOM      2  N   UNL     1      12.046 -49.932 -22.909  1.00  0.00    -0.335 N 
ATOM      3  N   UNL     1      14.411 -51.610 -25.190  1.00  0.00    -0.206 N 
ATOM      4  C   UNL     1      14.589 -50.581 -26.043  1.00  0.00     0.308 A 
ATOM      5  C   UNL     1      13.595 -51.524 -24.121  1.00  0.00     0.334 A 
ATOM      6  C   UNL     1      13.946 -49.366 -25.855  1.00  0.00     0.081 A 
ATOM      7  C   UNL     1      12.930 -50.323 -23.899  1.00  0.00     0.114 A 
ATOM      8  C   UNL     1      13.093 -49.233 -24.750  1.00  0.00     0.020 A 
ATOM      9  C   UNL     1      12.288 -48.164 -24.253  1.00  0.00     0.008 A 
ATOM     10  C   UNL     1      11.643 -48.625 -23.103  1.00  0.00     0.049 A 
ATOM     11  C   UNL     1      12.052 -46.842 -24.683  1.00  0.00     0.011 A 
ATOM     12  C   UNL     1      10.770 -47.807 -22.366  1.00  0.00     0.027 A 
ATOM     13  C   UNL     1      11.184 -46.022 -23.955  1.00  0.00     0.001 A 
ATOM     14  C   UNL     1      10.554 -46.501 -22.813  1.00  0.00     0.002 A 
ATOM     15  C   UNL     1      15.116 -52.879 -25.456  1.00  0.00     0.439 C 
ENDBRANCH   1   2
BRANCH   1  16
ATOM     16  C   UNL     1      10.312 -51.538 -22.166  1.00  0.00     0.057 C 
BRANCH  16  17
ATOM     17  C   UNL     1      10.565 -53.022 -22.234  1.00  0.00    -0.046 A 
ATOM     18  C   UNL     1      10.656 -53.786 -21.062  1.00  0.00     0.004 A 
ATOM     19  C   UNL     1      10.731 -53.655 -23.474  1.00  0.00     0.004 A 
ATOM     20  C   UNL     1      10.911 -55.156 -21.132  1.00  0.00     0.000 A 
ATOM     21  C   UNL     1      10.986 -55.026 -23.539  1.00  0.00     0.000 A 
ATOM     22  C   UNL     1      11.079 -55.775 -22.368  1.00  0.00     0.000 A 
ENDBRANCH  16  17
ENDBRANCH   1  16
TORSDOF 3
ENDMDL
MODEL 7
REMARK VINA RESULT:    -9.061      1.954      5.166
REMARK INTER + INTRA:         -11.079
REMARK INTER:                 -10.517
REMARK INTRA:                  -0.561
REMARK UNBOUND:                -0.429
REMARK SMILES C[n+]1ccc2c3ccccc3n(CCc3ccccc3)c2c1
REMARK SMILES IDX 13 1 12 2 2 3 3 4 22 5 4 6 21 7 5 8 6 9 11 10 7 11 10 12
REMARK SMILES IDX 8 13 9 14 1 15 14 16 15 17 16 18 20 19 17 20 19 21 18 22
REMARK H PARENT
ROOT
ATOM      1  C   UNL     1      12.122 -60.385 -25.792  1.00  0.00     0.128 C 
ENDROOT
BRANCH   1   2
ATOM      2  N   UNL     1      11.065 -60.618 -24.813  1.00  0.00    -0.335 N 
ATOM      3  N   UNL     1       8.287 -62.695 -26.072  1.00  0.00    -0.206 N 
ATOM      4  C   UNL     1       7.553 -62.707 -24.942  1.00  0.00     0.308 A 
ATOM      5  C   UNL     1       9.466 -62.047 -26.157  1.00  0.00     0.334 A 
ATOM      6  C   UNL     1       7.970 -62.035 -23.801  1.00  0.00     0.081 A 
ATOM      7  C   UNL     1       9.920 -61.363 -25.034  1.00  0.00     0.114 A 
ATOM      8  C   UNL     1       9.189 -61.342 -23.850  1.00  0.00     0.020 A 
ATOM      9  C   UNL     1       9.914 -60.562 -22.900  1.00  0.00     0.008 A 
ATOM     10  C   UNL     1      11.082 -60.121 -23.525  1.00  0.00     0.049 A 
ATOM     11  C   UNL     1       9.677 -60.192 -21.559  1.00  0.00     0.011 A 
ATOM     12  C   UNL     1      12.023 -59.320 -22.855  1.00  0.00     0.027 A 
ATOM     13  C   UNL     1      10.608 -59.396 -20.886  1.00  0.00     0.001 A 
ATOM     14  C   UNL     1      11.764 -58.967 -21.527  1.00  0.00     0.002 A 
ATOM     15  C   UNL     1       7.792 -63.440 -27.246  1.00  0.00     0.439 C 
ENDBRANCH   1   2
BRANCH   1  16
ATOM     16  C   UNL     1      12.100 -58.956 -26.331  1.00  0.00     0.057 C 
BRANCH  16  17
ATOM     17  C   UNL     1      12.019 -58.939 -27.836  1.00  0.00    -0.046 A 
ATOM     18  C   UNL     1      11.773 -60.119 -28.550  1.00  0.00     0.004 A 
ATOM     19  C   UNL     1      12.207 -57.742 -28.541  1.00  0.00     0.004 A 
ATOM     20  C   UNL     1      11.720 -60.101 -29.945  1.00  0.00     0.000 A 
ATOM     21  C   UNL     1      12.154 -57.729 -29.936  1.00  0.00     0.000 A 
ATOM     22  C   UNL     1      11.913 -58.908 -30.637  1.00  0.00     0.000 A 
ENDBRANCH  16  17
ENDBRANCH   1  16
TORSDOF 3
ENDMDL
MODEL 8
REMARK VINA RESULT:    -9.016      5.321      9.146
REMARK INTER + INTRA:         -11.026
REMARK INTER:                 -10.495
REMARK INTRA:                  -0.531
REMARK UNBOUND:                -0.429
REMARK SMILES C[n+]1ccc2c3ccccc3n(CCc3ccccc3)c2c1
REMARK SMILES IDX 13 1 12 2 2 3 3 4 22 5 4 6 21 7 5 8 6 9 11 10 7 11 10 12
REMARK SMILES IDX 8 13 9 14 1 15 14 16 15 17 16 18 20 19 17 20 19 21 18 22
REMARK H PARENT
ROOT
ATOM      1  C   UNL     1      10.226 -53.053 -22.712  1.00  0.00     0.128 C 
ENDROOT
BRANCH   1   2
ATOM      2  N   UNL     1      11.370 -52.548 -23.465  1.00  0.00    -0.335 N 
ATOM      3  N   UNL     1      12.200 -49.025 -22.747  1.00  0.00    -0.206 N 
ATOM      4  C   UNL     1      13.263 -48.927 -23.571  1.00  0.00     0.308 A 
ATOM      5  C   UNL     1      11.494 -50.167 -22.618  1.00  0.00     0.334 A 
ATOM      6  C   UNL     1      13.680 -50.000 -24.346  1.00  0.00     0.081 A 
ATOM      7  C   UNL     1      11.882 -51.266 -23.377  1.00  0.00     0.114 A 
ATOM      8  C   UNL     1      12.968 -51.204 -24.247  1.00  0.00     0.020 A 
ATOM      9  C   UNL     1      13.103 -52.480 -24.872  1.00  0.00     0.008 A 
ATOM     10  C   UNL     1      12.094 -53.302 -24.367  1.00  0.00     0.049 A 
ATOM     11  C   UNL     1      13.999 -53.006 -25.825  1.00  0.00     0.011 A 
ATOM     12  C   UNL     1      11.947 -54.636 -24.786  1.00  0.00     0.027 A 
ATOM     13  C   UNL     1      13.860 -54.333 -26.246  1.00  0.00     0.001 A 
ATOM     14  C   UNL     1      12.848 -55.133 -25.732  1.00  0.00     0.002 A 
ATOM     15  C   UNL     1      11.818 -47.850 -21.941  1.00  0.00     0.439 C 
ENDBRANCH   1   2
BRANCH   1  16
ATOM     16  C   UNL     1      10.647 -54.032 -21.617  1.00  0.00     0.057 C 
BRANCH  16  17
ATOM     17  C   UNL     1      10.435 -55.460 -22.048  1.00  0.00    -0.046 A 
ATOM     18  C   UNL     1       9.337 -55.809 -22.847  1.00  0.00     0.004 A 
ATOM     19  C   UNL     1      11.326 -56.462 -21.640  1.00  0.00     0.004 A 
ATOM     20  C   UNL     1       9.134 -57.137 -23.226  1.00  0.00     0.000 A 
ATOM     21  C   UNL     1      11.119 -57.789 -22.021  1.00  0.00     0.000 A 
ATOM     22  C   UNL     1      10.023 -58.126 -22.811  1.00  0.00     0.000 A 
ENDBRANCH  16  17
ENDBRANCH   1  16
TORSDOF 3
ENDMDL
MODEL 9
REMARK VINA RESULT:    -8.668      7.768     11.655
REMARK INTER + INTRA:         -10.617
REMARK INTER:                  -9.928
REMARK INTRA:                  -0.689
REMARK UNBOUND:                -0.429
REMARK SMILES C[n+]1ccc2c3ccccc3n(CCc3ccccc3)c2c1
REMARK SMILES IDX 13 1 12 2 2 3 3 4 22 5 4 6 21 7 5 8 6 9 11 10 7 11 10 12
REMARK SMILES IDX 8 13 9 14 1 15 14 16 15 17 16 18 20 19 17 20 19 21 18 22
REMARK H PARENT
ROOT
ATOM      1  C   UNL     1      13.592 -51.202 -23.659  1.00  0.00     0.128 C 
ENDROOT
BRANCH   1   2
ATOM      2  N   UNL     1      13.517 -49.866 -24.241  1.00  0.00    -0.335 N 
ATOM      3  N   UNL     1      16.140 -49.173 -26.742  1.00  0.00    -0.206 N 
ATOM      4  C   UNL     1      15.755 -47.919 -27.053  1.00  0.00     0.308 A 
ATOM      5  C   UNL     1      15.483 -49.922 -25.834  1.00  0.00     0.334 A 
ATOM      6  C   UNL     1      14.661 -47.324 -26.440  1.00  0.00     0.081 A 
ATOM      7  C   UNL     1      14.379 -49.362 -25.198  1.00  0.00     0.114 A 
ATOM      8  C   UNL     1      13.954 -48.067 -25.485  1.00  0.00     0.020 A 
ATOM      9  C   UNL     1      12.812 -47.791 -24.674  1.00  0.00     0.008 A 
ATOM     10  C   UNL     1      12.559 -48.930 -23.906  1.00  0.00     0.049 A 
ATOM     11  C   UNL     1      11.971 -46.669 -24.526  1.00  0.00     0.011 A 
ATOM     12  C   UNL     1      11.492 -48.984 -22.993  1.00  0.00     0.027 A 
ATOM     13  C   UNL     1      10.907 -46.715 -23.620  1.00  0.00     0.001 A 
ATOM     14  C   UNL     1      10.673 -47.858 -22.865  1.00  0.00     0.002 A 
ATOM     15  C   UNL     1      17.305 -49.750 -27.440  1.00  0.00     0.439 C 
ENDBRANCH   1   2
BRANCH   1  16
ATOM     16  C   UNL     1      12.827 -52.233 -24.487  1.00  0.00     0.057 C 
BRANCH  16  17
ATOM     17  C   UNL     1      11.869 -53.021 -23.632  1.00  0.00    -0.046 A 
ATOM     18  C   UNL     1      11.419 -52.510 -22.407  1.00  0.00     0.004 A 
ATOM     19  C   UNL     1      11.428 -54.286 -24.044  1.00  0.00     0.004 A 
ATOM     20  C   UNL     1      10.548 -53.254 -21.609  1.00  0.00     0.000 A 
ATOM     21  C   UNL     1      10.558 -55.027 -23.244  1.00  0.00     0.000 A 
ATOM     22  C   UNL     1      10.120 -54.512 -22.026  1.00  0.00     0.000 A 
ENDBRANCH  16  17
ENDBRANCH   1  16
TORSDOF 3
ENDMDL
