MODEL 1
REMARK VINA RESULT:   -11.963      0.000      0.000
REMARK INTER + INTRA:         -17.029
REMARK INTER:                 -16.159
REMARK INTRA:                  -0.869
REMARK UNBOUND:                -0.869
REMARK SMILES CC(=O)Nc1ccc2c(c1)C(=O)N(CC[C@H]1CC[N@@H+](Cc3ccccc3)CC1)C2=O
REMARK SMILES IDX 15 1 16 2 18 3 19 4 17 5 27 6 28 7 20 9 21 10 22 11 26 12
REMARK SMILES IDX 23 13 25 14 24 15 14 16 13 17 11 18 29 19 9 20 8 21 10 22
REMARK SMILES IDX 7 23 5 24 6 25 12 26 30 27 4 28 2 29 1 31 3 32
REMARK H PARENT 19 8 4 30
ROOT
ATOM      1  C   UNL     1      10.834 -56.848 -22.664  1.00  0.00     0.026 C 
ENDROOT
BRANCH   1   2
ATOM      2  C   UNL     1      10.099 -58.152 -22.280  1.00  0.00     0.002 C 
ATOM      3  C   UNL     1       8.460 -59.966 -22.950  1.00  0.00     0.262 C 
ATOM      4  N   UNL     1       9.398 -61.005 -22.395  1.00  0.00    -0.331 N 
ATOM      5  C   UNL     1       9.222 -58.723 -23.403  1.00  0.00     0.065 C 
ATOM      6  C   UNL     1      10.236 -60.466 -21.263  1.00  0.00     0.262 C 
ATOM      7  C   UNL     1      11.019 -59.233 -21.696  1.00  0.00     0.065 C 
ATOM      8  H   UNL     1       8.808 -61.730 -21.971  1.00  0.00     0.348 HD
BRANCH   4   9
ATOM      9  C   UNL     1      10.170 -61.748 -23.474  1.00  0.00     0.299 C 
BRANCH   9  10
ATOM     10  C   UNL     1       9.297 -62.291 -24.571  1.00  0.00     0.006 A 
ATOM     11  C   UNL     1       8.225 -63.150 -24.282  1.00  0.00     0.009 A 
ATOM     12  C   UNL     1       9.557 -61.953 -25.909  1.00  0.00     0.009 A 
ATOM     13  C   UNL     1       7.441 -63.670 -25.313  1.00  0.00     0.001 A 
ATOM     14  C   UNL     1       8.770 -62.475 -26.935  1.00  0.00     0.001 A 
ATOM     15  C   UNL     1       7.716 -63.335 -26.638  1.00  0.00     0.000 A 
ENDBRANCH   9  10
ENDBRANCH   4   9
ENDBRANCH   1   2
BRANCH   1  16
ATOM     16  C   UNL     1      10.014 -55.660 -23.186  1.00  0.00     0.129 C 
BRANCH  16  17
ATOM     17  N   UNL     1      10.733 -54.403 -23.208  1.00  0.00    -0.274 N 
ATOM     18  C   UNL     1      10.634 -53.433 -22.250  1.00  0.00     0.261 C 
ATOM     19  C   UNL     1      11.573 -54.027 -24.223  1.00  0.00     0.261 C 
ATOM     20  C   UNL     1      11.487 -52.329 -22.683  1.00  0.00     0.055 A 
ATOM     21  C   UNL     1      12.050 -52.685 -23.893  1.00  0.00     0.053 A 
ATOM     22  C   UNL     1      11.771 -51.128 -22.061  1.00  0.00     0.040 A 
ATOM     23  C   UNL     1      12.910 -51.845 -24.566  1.00  0.00     0.017 A 
ATOM     24  C   UNL     1      12.657 -50.257 -22.706  1.00  0.00     0.041 A 
ATOM     25  C   UNL     1      13.204 -50.615 -23.962  1.00  0.00     0.027 A 
ATOM     26  O   UNL     1      10.022 -53.463 -21.198  1.00  0.00    -0.269 OA
ATOM     27  O   UNL     1      11.911 -54.654 -25.206  1.00  0.00    -0.269 OA
BRANCH  24  28
ATOM     28  N   UNL     1      13.042 -49.012 -22.169  1.00  0.00    -0.326 N 
ATOM     29  C   UNL     1      12.408 -47.795 -22.363  1.00  0.00     0.221 C 
ATOM     30  H   UNL     1      13.816 -49.018 -21.516  1.00  0.00     0.169 HD
ATOM     31  C   UNL     1      13.126 -46.658 -21.681  1.00  0.00     0.114 C 
ATOM     32  O   UNL     1      11.359 -47.613 -22.971  1.00  0.00    -0.275 OA
ENDBRANCH  24  28
ENDBRANCH  16  17
ENDBRANCH   1  16
TORSDOF 6
ENDMDL
MODEL 2
REMARK VINA RESULT:   -11.908      1.071      1.589
REMARK INTER + INTRA:         -16.954
REMARK INTER:                 -16.075
REMARK INTRA:                  -0.879
REMARK UNBOUND:                -0.869
REMARK SMILES CC(=O)Nc1ccc2c(c1)C(=O)N(CC[C@H]1CC[N@@H+](Cc3ccccc3)CC1)C2=O
REMARK SMILES IDX 15 1 16 2 18 3 19 4 17 5 27 6 28 7 20 9 21 10 22 11 26 12
REMARK SMILES IDX 23 13 25 14 24 15 14 16 13 17 11 18 29 19 9 20 8 21 10 22
REMARK SMILES IDX 7 23 5 24 6 25 12 26 30 27 4 28 2 29 1 31 3 32
REMARK H PARENT 19 8 4 30
ROOT
ATOM      1  C   UNL     1      11.387 -57.025 -21.848  1.00  0.00     0.026 C 
ENDROOT
BRANCH   1   2
ATOM      2  C   UNL     1      11.430 -58.463 -22.414  1.00  0.00     0.002 C 
ATOM      3  C   UNL     1      10.458 -60.803 -22.394  1.00  0.00     0.262 C 
ATOM      4  N   UNL     1      10.495 -60.821 -23.899  1.00  0.00    -0.331 N 
ATOM      5  C   UNL     1      10.327 -59.377 -21.864  1.00  0.00     0.065 C 
ATOM      6  C   UNL     1      11.603 -59.956 -24.449  1.00  0.00     0.262 C 
ATOM      7  C   UNL     1      11.483 -58.523 -23.946  1.00  0.00     0.065 C 
ATOM      8  H   UNL     1      10.743 -61.780 -24.171  1.00  0.00     0.348 HD
BRANCH   4   9
ATOM      9  C   UNL     1       9.131 -60.603 -24.532  1.00  0.00     0.299 C 
BRANCH   9  10
ATOM     10  C   UNL     1       8.821 -61.573 -25.639  1.00  0.00     0.006 A 
ATOM     11  C   UNL     1       9.409 -61.434 -26.906  1.00  0.00     0.009 A 
ATOM     12  C   UNL     1       7.921 -62.628 -25.419  1.00  0.00     0.009 A 
ATOM     13  C   UNL     1       9.091 -62.324 -27.933  1.00  0.00     0.001 A 
ATOM     14  C   UNL     1       7.606 -63.514 -26.449  1.00  0.00     0.001 A 
ATOM     15  C   UNL     1       8.188 -63.360 -27.705  1.00  0.00     0.000 A 
ENDBRANCH   9  10
ENDBRANCH   4   9
ENDBRANCH   1   2
BRANCH   1  16
ATOM     16  C   UNL     1      10.361 -56.034 -22.415  1.00  0.00     0.129 C 
BRANCH  16  17
ATOM     17  N   UNL     1      10.864 -54.685 -22.581  1.00  0.00    -0.274 N 
ATOM     18  C   UNL     1      10.730 -53.686 -21.657  1.00  0.00     0.261 C 
ATOM     19  C   UNL     1      11.502 -54.248 -23.711  1.00  0.00     0.261 C 
ATOM     20  C   UNL     1      11.338 -52.493 -22.242  1.00  0.00     0.055 A 
ATOM     21  C   UNL     1      11.797 -52.831 -23.500  1.00  0.00     0.053 A 
ATOM     22  C   UNL     1      11.502 -51.228 -21.711  1.00  0.00     0.040 A 
ATOM     23  C   UNL     1      12.423 -51.912 -24.313  1.00  0.00     0.017 A 
ATOM     24  C   UNL     1      12.152 -50.273 -22.501  1.00  0.00     0.041 A 
ATOM     25  C   UNL     1      12.591 -50.617 -23.803  1.00  0.00     0.027 A 
ATOM     26  O   UNL     1      10.265 -53.746 -20.534  1.00  0.00    -0.269 OA
ATOM     27  O   UNL     1      11.812 -54.873 -24.705  1.00  0.00    -0.269 OA
BRANCH  24  28
ATOM     28  N   UNL     1      12.398 -48.953 -22.069  1.00  0.00    -0.326 N 
ATOM     29  C   UNL     1      11.715 -47.813 -22.461  1.00  0.00     0.221 C 
ATOM     30  H   UNL     1      13.095 -48.834 -21.343  1.00  0.00     0.169 HD
ATOM     31  C   UNL     1      12.281 -46.562 -21.839  1.00  0.00     0.114 C 
ATOM     32  O   UNL     1      10.729 -47.774 -23.189  1.00  0.00    -0.275 OA
ENDBRANCH  24  28
ENDBRANCH  16  17
ENDBRANCH   1  16
TORSDOF 6
ENDMDL
MODEL 3
REMARK VINA RESULT:   -11.689      1.857      3.006
REMARK INTER + INTRA:         -16.659
REMARK INTER:                 -15.942
REMARK INTRA:                  -0.717
REMARK UNBOUND:                -0.869
REMARK SMILES CC(=O)Nc1ccc2c(c1)C(=O)N(CC[C@H]1CC[N@@H+](Cc3ccccc3)CC1)C2=O
REMARK SMILES IDX 15 1 16 2 18 3 19 4 17 5 27 6 28 7 20 9 21 10 22 11 26 12
REMARK SMILES IDX 23 13 25 14 24 15 14 16 13 17 11 18 29 19 9 20 8 21 10 22
REMARK SMILES IDX 7 23 5 24 6 25 12 26 30 27 4 28 2 29 1 31 3 32
REMARK H PARENT 19 8 4 30
ROOT
ATOM      1  C   UNL     1      11.290 -56.677 -22.172  1.00  0.00     0.026 C 
ENDROOT
BRANCH   1   2
ATOM      2  C   UNL     1      10.722 -58.101 -22.369  1.00  0.00     0.002 C 
ATOM      3  C   UNL     1       8.836 -59.554 -23.239  1.00  0.00     0.262 C 
ATOM      4  N   UNL     1       9.849 -60.493 -23.838  1.00  0.00    -0.331 N 
ATOM      5  C   UNL     1       9.394 -58.136 -23.137  1.00  0.00     0.065 C 
ATOM      6  C   UNL     1      11.145 -60.497 -23.066  1.00  0.00     0.262 C 
ATOM      7  C   UNL     1      11.729 -59.093 -22.965  1.00  0.00     0.065 C 
ATOM      8  H   UNL     1       9.467 -61.440 -23.727  1.00  0.00     0.348 HD
BRANCH   4   9
ATOM      9  C   UNL     1       9.994 -60.334 -25.343  1.00  0.00     0.299 C 
BRANCH   9  10
ATOM     10  C   UNL     1       9.308 -61.416 -26.130  1.00  0.00     0.006 A 
ATOM     11  C   UNL     1       9.502 -61.536 -27.515  1.00  0.00     0.009 A 
ATOM     12  C   UNL     1       8.445 -62.316 -25.483  1.00  0.00     0.009 A 
ATOM     13  C   UNL     1       8.837 -62.527 -28.238  1.00  0.00     0.001 A 
ATOM     14  C   UNL     1       7.782 -63.304 -26.211  1.00  0.00     0.001 A 
ATOM     15  C   UNL     1       7.975 -63.408 -27.586  1.00  0.00     0.000 A 
ENDBRANCH   9  10
ENDBRANCH   4   9
ENDBRANCH   1   2
BRANCH   1  16
ATOM     16  C   UNL     1      10.353 -55.473 -22.343  1.00  0.00     0.129 C 
BRANCH  16  17
ATOM     17  N   UNL     1      10.993 -54.293 -22.887  1.00  0.00    -0.274 N 
ATOM     18  C   UNL     1      11.641 -54.244 -24.090  1.00  0.00     0.261 C 
ATOM     19  C   UNL     1      11.053 -53.093 -22.230  1.00  0.00     0.261 C 
ATOM     20  C   UNL     1      12.168 -52.888 -24.225  1.00  0.00     0.055 A 
ATOM     21  C   UNL     1      11.821 -52.189 -23.085  1.00  0.00     0.053 A 
ATOM     22  C   UNL     1      12.865 -52.304 -25.266  1.00  0.00     0.040 A 
ATOM     23  C   UNL     1      12.179 -50.870 -22.908  1.00  0.00     0.017 A 
ATOM     24  C   UNL     1      13.228 -50.959 -25.130  1.00  0.00     0.041 A 
ATOM     25  C   UNL     1      12.898 -50.258 -23.944  1.00  0.00     0.027 A 
ATOM     26  O   UNL     1      11.732 -55.109 -24.941  1.00  0.00    -0.269 OA
ATOM     27  O   UNL     1      10.561 -52.779 -21.165  1.00  0.00    -0.269 OA
BRANCH  24  28
ATOM     28  N   UNL     1      13.925 -50.244 -26.125  1.00  0.00    -0.326 N 
ATOM     29  C   UNL     1      15.276 -50.333 -26.416  1.00  0.00     0.221 C 
ATOM     30  H   UNL     1      13.368 -49.661 -26.739  1.00  0.00     0.169 HD
ATOM     31  C   UNL     1      15.693 -49.383 -27.509  1.00  0.00     0.114 C 
ATOM     32  O   UNL     1      16.077 -51.111 -25.907  1.00  0.00    -0.275 OA
ENDBRANCH  24  28
ENDBRANCH  16  17
ENDBRANCH   1  16
TORSDOF 6
ENDMDL
MODEL 4
REMARK VINA RESULT:   -11.162      1.873      2.969
REMARK INTER + INTRA:         -15.947
REMARK INTER:                 -15.551
REMARK INTRA:                  -0.396
REMARK UNBOUND:                -0.869
REMARK SMILES CC(=O)Nc1ccc2c(c1)C(=O)N(CC[C@H]1CC[N@@H+](Cc3ccccc3)CC1)C2=O
REMARK SMILES IDX 15 1 16 2 18 3 19 4 17 5 27 6 28 7 20 9 21 10 22 11 26 12
REMARK SMILES IDX 23 13 25 14 24 15 14 16 13 17 11 18 29 19 9 20 8 21 10 22
REMARK SMILES IDX 7 23 5 24 6 25 12 26 30 27 4 28 2 29 1 31 3 32
REMARK H PARENT 19 8 4 30
ROOT
ATOM      1  C   UNL     1      11.312 -56.823 -22.045  1.00  0.00     0.026 C 
ENDROOT
BRANCH   1   2
ATOM      2  C   UNL     1      11.671 -58.225 -22.588  1.00  0.00     0.002 C 
ATOM      3  C   UNL     1      11.064 -60.681 -22.750  1.00  0.00     0.262 C 
ATOM      4  N   UNL     1      11.393 -60.655 -24.219  1.00  0.00    -0.331 N 
ATOM      5  C   UNL     1      10.628 -59.302 -22.259  1.00  0.00     0.065 C 
ATOM      6  C   UNL     1      12.447 -59.627 -24.547  1.00  0.00     0.262 C 
ATOM      7  C   UNL     1      12.026 -58.239 -24.080  1.00  0.00     0.065 C 
ATOM      8  H   UNL     1      11.824 -61.561 -24.435  1.00  0.00     0.348 HD
BRANCH   4   9
ATOM      9  C   UNL     1      10.158 -60.619 -25.105  1.00  0.00     0.299 C 
BRANCH   9  10
ATOM     10  C   UNL     1       8.993 -61.384 -24.542  1.00  0.00     0.006 A 
ATOM     11  C   UNL     1       7.819 -60.723 -24.147  1.00  0.00     0.009 A 
ATOM     12  C   UNL     1       9.073 -62.777 -24.390  1.00  0.00     0.009 A 
ATOM     13  C   UNL     1       6.755 -61.442 -23.599  1.00  0.00     0.001 A 
ATOM     14  C   UNL     1       8.007 -63.490 -23.842  1.00  0.00     0.001 A 
ATOM     15  C   UNL     1       6.852 -62.823 -23.444  1.00  0.00     0.000 A 
ENDBRANCH   9  10
ENDBRANCH   4   9
ENDBRANCH   1   2
BRANCH   1  16
ATOM     16  C   UNL     1      10.412 -55.909 -22.889  1.00  0.00     0.129 C 
BRANCH  16  17
ATOM     17  N   UNL     1      10.941 -54.576 -23.093  1.00  0.00    -0.274 N 
ATOM     18  C   UNL     1      11.714 -54.200 -24.155  1.00  0.00     0.261 C 
ATOM     19  C   UNL     1      10.754 -53.543 -22.212  1.00  0.00     0.261 C 
ATOM     20  C   UNL     1      12.059 -52.796 -23.944  1.00  0.00     0.055 A 
ATOM     21  C   UNL     1      11.485 -52.398 -22.753  1.00  0.00     0.053 A 
ATOM     22  C   UNL     1      12.788 -51.931 -24.739  1.00  0.00     0.040 A 
ATOM     23  C   UNL     1      11.631 -51.115 -22.272  1.00  0.00     0.017 A 
ATOM     24  C   UNL     1      12.940 -50.613 -24.291  1.00  0.00     0.041 A 
ATOM     25  C   UNL     1      12.377 -50.221 -23.052  1.00  0.00     0.027 A 
ATOM     26  O   UNL     1      12.026 -54.850 -25.136  1.00  0.00    -0.269 OA
ATOM     27  O   UNL     1      10.099 -53.520 -21.190  1.00  0.00    -0.269 OA
BRANCH  24  28
ATOM     28  N   UNL     1      13.644 -49.630 -25.016  1.00  0.00    -0.326 N 
ATOM     29  C   UNL     1      14.148 -49.750 -26.301  1.00  0.00     0.221 C 
ATOM     30  H   UNL     1      13.726 -48.717 -24.582  1.00  0.00     0.169 HD
ATOM     31  C   UNL     1      14.894 -48.517 -26.743  1.00  0.00     0.114 C 
ATOM     32  O   UNL     1      13.996 -50.707 -27.052  1.00  0.00    -0.275 OA
ENDBRANCH  24  28
ENDBRANCH  16  17
ENDBRANCH   1  16
TORSDOF 6
ENDMDL
MODEL 5
REMARK VINA RESULT:   -10.674      1.569      2.489
REMARK INTER + INTRA:         -15.287
REMARK INTER:                 -15.515
REMARK INTRA:                   0.228
REMARK UNBOUND:                -0.869
REMARK SMILES CC(=O)Nc1ccc2c(c1)C(=O)N(CC[C@H]1CC[N@@H+](Cc3ccccc3)CC1)C2=O
REMARK SMILES IDX 15 1 16 2 18 3 19 4 17 5 27 6 28 7 20 9 21 10 22 11 26 12
REMARK SMILES IDX 23 13 25 14 24 15 14 16 13 17 11 18 29 19 9 20 8 21 10 22
REMARK SMILES IDX 7 23 5 24 6 25 12 26 30 27 4 28 2 29 1 31 3 32
REMARK H PARENT 19 8 4 30
ROOT
ATOM      1  C   UNL     1      11.478 -57.490 -21.984  1.00  0.00     0.026 C 
ENDROOT
BRANCH   1   2
ATOM      2  C   UNL     1      11.382 -59.011 -22.243  1.00  0.00     0.002 C 
ATOM      3  C   UNL     1       9.976 -61.117 -22.142  1.00  0.00     0.262 C 
ATOM      4  N   UNL     1      10.456 -61.491 -23.519  1.00  0.00    -0.331 N 
ATOM      5  C   UNL     1       9.998 -59.603 -21.945  1.00  0.00     0.065 C 
ATOM      6  C   UNL     1      11.833 -60.948 -23.808  1.00  0.00     0.262 C 
ATOM      7  C   UNL     1      11.876 -59.435 -23.632  1.00  0.00     0.065 C 
ATOM      8  H   UNL     1      10.564 -62.512 -23.521  1.00  0.00     0.348 HD
BRANCH   4   9
ATOM      9  C   UNL     1       9.420 -61.233 -24.602  1.00  0.00     0.299 C 
BRANCH   9  10
ATOM     10  C   UNL     1       8.296 -60.340 -24.157  1.00  0.00     0.006 A 
ATOM     11  C   UNL     1       8.338 -58.956 -24.389  1.00  0.00     0.009 A 
ATOM     12  C   UNL     1       7.190 -60.884 -23.484  1.00  0.00     0.009 A 
ATOM     13  C   UNL     1       7.301 -58.134 -23.945  1.00  0.00     0.001 A 
ATOM     14  C   UNL     1       6.157 -60.058 -23.042  1.00  0.00     0.001 A 
ATOM     15  C   UNL     1       6.214 -58.685 -23.269  1.00  0.00     0.000 A 
ENDBRANCH   9  10
ENDBRANCH   4   9
ENDBRANCH   1   2
BRANCH   1  16
ATOM     16  C   UNL     1      10.415 -56.565 -22.594  1.00  0.00     0.129 C 
BRANCH  16  17
ATOM     17  N   UNL     1      10.880 -55.219 -22.863  1.00  0.00    -0.274 N 
ATOM     18  C   UNL     1      10.591 -54.128 -22.092  1.00  0.00     0.261 C 
ATOM     19  C   UNL     1      11.637 -54.883 -23.954  1.00  0.00     0.261 C 
ATOM     20  C   UNL     1      11.218 -52.980 -22.743  1.00  0.00     0.055 A 
ATOM     21  C   UNL     1      11.846 -53.437 -23.885  1.00  0.00     0.053 A 
ATOM     22  C   UNL     1      11.264 -51.653 -22.356  1.00  0.00     0.040 A 
ATOM     23  C   UNL     1      12.531 -52.586 -24.725  1.00  0.00     0.017 A 
ATOM     24  C   UNL     1      11.969 -50.763 -23.174  1.00  0.00     0.041 A 
ATOM     25  C   UNL     1      12.581 -51.233 -24.362  1.00  0.00     0.027 A 
ATOM     26  O   UNL     1       9.991 -54.081 -21.034  1.00  0.00    -0.269 OA
ATOM     27  O   UNL     1      12.094 -55.602 -24.819  1.00  0.00    -0.269 OA
BRANCH  24  28
ATOM     28  N   UNL     1      12.105 -49.391 -22.882  1.00  0.00    -0.326 N 
ATOM     29  C   UNL     1      13.286 -48.707 -22.646  1.00  0.00     0.221 C 
ATOM     30  H   UNL     1      11.260 -48.831 -22.921  1.00  0.00     0.169 HD
ATOM     31  C   UNL     1      13.054 -47.256 -22.312  1.00  0.00     0.114 C 
ATOM     32  O   UNL     1      14.420 -49.169 -22.730  1.00  0.00    -0.275 OA
ENDBRANCH  24  28
ENDBRANCH  16  17
ENDBRANCH   1  16
TORSDOF 6
ENDMDL
MODEL 6
REMARK VINA RESULT:   -10.353      1.780      2.264
REMARK INTER + INTRA:         -14.855
REMARK INTER:                 -15.128
REMARK INTRA:                   0.273
REMARK UNBOUND:                -0.869
REMARK SMILES CC(=O)Nc1ccc2c(c1)C(=O)N(CC[C@H]1CC[N@@H+](Cc3ccccc3)CC1)C2=O
REMARK SMILES IDX 15 1 16 2 18 3 19 4 17 5 27 6 28 7 20 9 21 10 22 11 26 12
REMARK SMILES IDX 23 13 25 14 24 15 14 16 13 17 11 18 29 19 9 20 8 21 10 22
REMARK SMILES IDX 7 23 5 24 6 25 12 26 30 27 4 28 2 29 1 31 3 32
REMARK H PARENT 19 8 4 30
ROOT
ATOM      1  C   UNL     1      11.234 -56.683 -22.789  1.00  0.00     0.026 C 
ENDROOT
BRANCH   1   2
ATOM      2  C   UNL     1      10.449 -57.968 -22.440  1.00  0.00     0.002 C 
ATOM      3  C   UNL     1       8.964 -59.858 -23.246  1.00  0.00     0.262 C 
ATOM      4  N   UNL     1       9.793 -60.834 -22.454  1.00  0.00    -0.331 N 
ATOM      5  C   UNL     1       9.789 -58.639 -23.652  1.00  0.00     0.065 C 
ATOM      6  C   UNL     1      10.414 -60.195 -21.237  1.00  0.00     0.262 C 
ATOM      7  C   UNL     1      11.256 -58.984 -21.620  1.00  0.00     0.065 C 
ATOM      8  H   UNL     1       9.141 -61.536 -22.086  1.00  0.00     0.348 HD
BRANCH   4   9
ATOM      9  C   UNL     1      10.748 -61.642 -23.318  1.00  0.00     0.299 C 
BRANCH   9  10
ATOM     10  C   UNL     1      10.687 -61.285 -24.777  1.00  0.00     0.006 A 
ATOM     11  C   UNL     1      11.658 -60.454 -25.358  1.00  0.00     0.009 A 
ATOM     12  C   UNL     1       9.639 -61.770 -25.576  1.00  0.00     0.009 A 
ATOM     13  C   UNL     1      11.573 -60.107 -26.707  1.00  0.00     0.001 A 
ATOM     14  C   UNL     1       9.559 -61.419 -26.924  1.00  0.00     0.001 A 
ATOM     15  C   UNL     1      10.522 -60.586 -27.488  1.00  0.00     0.000 A 
ENDBRANCH   9  10
ENDBRANCH   4   9
ENDBRANCH   1   2
BRANCH   1  16
ATOM     16  C   UNL     1      10.479 -55.349 -22.863  1.00  0.00     0.129 C 
BRANCH  16  17
ATOM     17  N   UNL     1      11.250 -54.258 -23.423  1.00  0.00    -0.274 N 
ATOM     18  C   UNL     1      11.348 -53.011 -22.872  1.00  0.00     0.261 C 
ATOM     19  C   UNL     1      11.943 -54.347 -24.602  1.00  0.00     0.261 C 
ATOM     20  C   UNL     1      12.181 -52.220 -23.775  1.00  0.00     0.055 A 
ATOM     21  C   UNL     1      12.533 -53.030 -24.837  1.00  0.00     0.053 A 
ATOM     22  C   UNL     1      12.618 -50.913 -23.666  1.00  0.00     0.040 A 
ATOM     23  C   UNL     1      13.322 -52.568 -25.868  1.00  0.00     0.017 A 
ATOM     24  C   UNL     1      13.438 -50.417 -24.685  1.00  0.00     0.041 A 
ATOM     25  C   UNL     1      13.769 -51.242 -25.788  1.00  0.00     0.027 A 
ATOM     26  O   UNL     1      10.903 -52.611 -21.812  1.00  0.00    -0.269 OA
ATOM     27  O   UNL     1      12.094 -55.307 -25.329  1.00  0.00    -0.269 OA
BRANCH  24  28
ATOM     28  N   UNL     1      13.964 -49.109 -24.683  1.00  0.00    -0.326 N 
ATOM     29  C   UNL     1      15.183 -48.707 -24.161  1.00  0.00     0.221 C 
ATOM     30  H   UNL     1      13.431 -48.403 -25.178  1.00  0.00     0.169 HD
ATOM     31  C   UNL     1      15.400 -47.221 -24.285  1.00  0.00     0.114 C 
ATOM     32  O   UNL     1      16.044 -49.440 -23.685  1.00  0.00    -0.275 OA
ENDBRANCH  24  28
ENDBRANCH  16  17
ENDBRANCH   1  16
TORSDOF 6
ENDMDL
MODEL 7
REMARK VINA RESULT:   -10.307      2.444      4.101
REMARK INTER + INTRA:         -14.792
REMARK INTER:                 -13.943
REMARK INTRA:                  -0.850
REMARK UNBOUND:                -0.869
REMARK SMILES CC(=O)Nc1ccc2c(c1)C(=O)N(CC[C@H]1CC[N@@H+](Cc3ccccc3)CC1)C2=O
REMARK SMILES IDX 15 1 16 2 18 3 19 4 17 5 27 6 28 7 20 9 21 10 22 11 26 12
REMARK SMILES IDX 23 13 25 14 24 15 14 16 13 17 11 18 29 19 9 20 8 21 10 22
REMARK SMILES IDX 7 23 5 24 6 25 12 26 30 27 4 28 2 29 1 31 3 32
REMARK H PARENT 19 8 4 30
ROOT
ATOM      1  C   UNL     1      10.283 -53.018 -22.723  1.00  0.00     0.026 C 
ENDROOT
BRANCH   1   2
ATOM      2  C   UNL     1      11.016 -54.379 -22.686  1.00  0.00     0.002 C 
ATOM      3  C   UNL     1      11.372 -56.590 -21.499  1.00  0.00     0.262 C 
ATOM      4  N   UNL     1      11.321 -57.299 -22.826  1.00  0.00    -0.331 N 
ATOM      5  C   UNL     1      10.567 -55.293 -21.538  1.00  0.00     0.065 C 
ATOM      6  C   UNL     1      11.799 -56.422 -23.957  1.00  0.00     0.262 C 
ATOM      7  C   UNL     1      10.999 -55.128 -24.025  1.00  0.00     0.065 C 
ATOM      8  H   UNL     1      12.004 -58.064 -22.771  1.00  0.00     0.348 HD
BRANCH   4   9
ATOM      9  C   UNL     1      10.000 -58.009 -23.073  1.00  0.00     0.299 C 
BRANCH   9  10
ATOM     10  C   UNL     1      10.113 -59.508 -23.064  1.00  0.00     0.006 A 
ATOM     11  C   UNL     1       9.750 -60.252 -21.930  1.00  0.00     0.009 A 
ATOM     12  C   UNL     1      10.601 -60.183 -24.194  1.00  0.00     0.009 A 
ATOM     13  C   UNL     1       9.887 -61.641 -21.925  1.00  0.00     0.001 A 
ATOM     14  C   UNL     1      10.736 -61.571 -24.184  1.00  0.00     0.001 A 
ATOM     15  C   UNL     1      10.383 -62.299 -23.050  1.00  0.00     0.000 A 
ENDBRANCH   9  10
ENDBRANCH   4   9
ENDBRANCH   1   2
BRANCH   1  16
ATOM     16  C   UNL     1      10.699 -51.924 -21.730  1.00  0.00     0.129 C 
BRANCH  16  17
ATOM     17  N   UNL     1      11.068 -50.667 -22.349  1.00  0.00    -0.274 N 
ATOM     18  C   UNL     1      10.266 -49.562 -22.406  1.00  0.00     0.261 C 
ATOM     19  C   UNL     1      12.263 -50.460 -22.987  1.00  0.00     0.261 C 
ATOM     20  C   UNL     1      11.008 -48.545 -23.148  1.00  0.00     0.055 A 
ATOM     21  C   UNL     1      12.221 -49.096 -23.514  1.00  0.00     0.053 A 
ATOM     22  C   UNL     1      10.667 -47.241 -23.452  1.00  0.00     0.040 A 
ATOM     23  C   UNL     1      13.152 -48.380 -24.234  1.00  0.00     0.017 A 
ATOM     24  C   UNL     1      11.598 -46.477 -24.165  1.00  0.00     0.041 A 
ATOM     25  C   UNL     1      12.825 -47.059 -24.567  1.00  0.00     0.027 A 
ATOM     26  O   UNL     1       9.173 -49.389 -21.900  1.00  0.00    -0.269 OA
ATOM     27  O   UNL     1      13.211 -51.210 -23.099  1.00  0.00    -0.269 OA
BRANCH  24  28
ATOM     28  N   UNL     1      11.379 -45.131 -24.522  1.00  0.00    -0.326 N 
ATOM     29  C   UNL     1      11.363 -44.040 -23.668  1.00  0.00     0.221 C 
ATOM     30  H   UNL     1      11.299 -44.930 -25.512  1.00  0.00     0.169 HD
ATOM     31  C   UNL     1      11.045 -42.753 -24.385  1.00  0.00     0.114 C 
ATOM     32  O   UNL     1      11.616 -44.056 -22.468  1.00  0.00    -0.275 OA
ENDBRANCH  24  28
ENDBRANCH  16  17
ENDBRANCH   1  16
TORSDOF 6
ENDMDL
MODEL 8
REMARK VINA RESULT:    -9.907      2.917      5.777
REMARK INTER + INTRA:         -14.252
REMARK INTER:                 -13.536
REMARK INTRA:                  -0.715
REMARK UNBOUND:                -0.869
REMARK SMILES CC(=O)Nc1ccc2c(c1)C(=O)N(CC[C@H]1CC[N@@H+](Cc3ccccc3)CC1)C2=O
REMARK SMILES IDX 15 1 16 2 18 3 19 4 17 5 27 6 28 7 20 9 21 10 22 11 26 12
REMARK SMILES IDX 23 13 25 14 24 15 14 16 13 17 11 18 29 19 9 20 8 21 10 22
REMARK SMILES IDX 7 23 5 24 6 25 12 26 30 27 4 28 2 29 1 31 3 32
REMARK H PARENT 19 8 4 30
ROOT
ATOM      1  C   UNL     1      12.370 -51.507 -22.969  1.00  0.00     0.026 C 
ENDROOT
BRANCH   1   2
ATOM      2  C   UNL     1      11.279 -52.602 -22.988  1.00  0.00     0.002 C 
ATOM      3  C   UNL     1      10.417 -54.750 -24.023  1.00  0.00     0.262 C 
ATOM      4  N   UNL     1      10.122 -55.283 -22.646  1.00  0.00    -0.331 N 
ATOM      5  C   UNL     1      11.557 -53.735 -23.987  1.00  0.00     0.065 C 
ATOM      6  C   UNL     1       9.807 -54.180 -21.665  1.00  0.00     0.262 C 
ATOM      7  C   UNL     1      10.940 -53.162 -21.601  1.00  0.00     0.065 C 
ATOM      8  H   UNL     1       9.254 -55.826 -22.726  1.00  0.00     0.348 HD
BRANCH   4   9
ATOM      9  C   UNL     1      11.146 -56.299 -22.167  1.00  0.00     0.299 C 
BRANCH   9  10
ATOM     10  C   UNL     1      10.629 -57.711 -22.154  1.00  0.00     0.006 A 
ATOM     11  C   UNL     1       9.640 -58.126 -23.059  1.00  0.00     0.009 A 
ATOM     12  C   UNL     1      11.125 -58.632 -21.218  1.00  0.00     0.009 A 
ATOM     13  C   UNL     1       9.149 -59.432 -23.017  1.00  0.00     0.001 A 
ATOM     14  C   UNL     1      10.631 -59.936 -21.180  1.00  0.00     0.001 A 
ATOM     15  C   UNL     1       9.642 -60.334 -22.076  1.00  0.00     0.000 A 
ENDBRANCH   9  10
ENDBRANCH   4   9
ENDBRANCH   1   2
BRANCH   1  16
ATOM     16  C   UNL     1      12.198 -50.305 -22.029  1.00  0.00     0.129 C 
BRANCH  16  17
ATOM     17  N   UNL     1      12.320 -49.017 -22.681  1.00  0.00    -0.274 N 
ATOM     18  C   UNL     1      11.298 -48.122 -22.834  1.00  0.00     0.261 C 
ATOM     19  C   UNL     1      13.478 -48.566 -23.256  1.00  0.00     0.261 C 
ATOM     20  C   UNL     1      11.844 -46.988 -23.576  1.00  0.00     0.055 A 
ATOM     21  C   UNL     1      13.170 -47.263 -23.845  1.00  0.00     0.053 A 
ATOM     22  C   UNL     1      11.242 -45.803 -23.958  1.00  0.00     0.040 A 
ATOM     23  C   UNL     1      13.966 -46.378 -24.540  1.00  0.00     0.017 A 
ATOM     24  C   UNL     1      12.026 -44.872 -24.648  1.00  0.00     0.041 A 
ATOM     25  C   UNL     1      13.376 -45.175 -24.950  1.00  0.00     0.027 A 
ATOM     26  O   UNL     1      10.162 -48.184 -22.401  1.00  0.00    -0.269 OA
ATOM     27  O   UNL     1      14.575 -49.087 -23.278  1.00  0.00    -0.269 OA
BRANCH  24  28
ATOM     28  N   UNL     1      11.538 -43.621 -25.076  1.00  0.00    -0.326 N 
ATOM     29  C   UNL     1      11.623 -42.419 -24.391  1.00  0.00     0.221 C 
ATOM     30  H   UNL     1      11.151 -43.580 -26.013  1.00  0.00     0.169 HD
ATOM     31  C   UNL     1      10.946 -41.290 -25.124  1.00  0.00     0.114 C 
ATOM     32  O   UNL     1      12.211 -42.230 -23.331  1.00  0.00    -0.275 OA
ENDBRANCH  24  28
ENDBRANCH  16  17
ENDBRANCH   1  16
TORSDOF 6
ENDMDL
MODEL 9
REMARK VINA RESULT:    -9.855      2.864      5.844
REMARK INTER + INTRA:         -14.182
REMARK INTER:                 -13.301
REMARK INTRA:                  -0.881
REMARK UNBOUND:                -0.869
REMARK SMILES CC(=O)Nc1ccc2c(c1)C(=O)N(CC[C@H]1CC[N@@H+](Cc3ccccc3)CC1)C2=O
REMARK SMILES IDX 15 1 16 2 18 3 19 4 17 5 27 6 28 7 20 9 21 10 22 11 26 12
REMARK SMILES IDX 23 13 25 14 24 15 14 16 13 17 11 18 29 19 9 20 8 21 10 22
REMARK SMILES IDX 7 23 5 24 6 25 12 26 30 27 4 28 2 29 1 31 3 32
REMARK H PARENT 19 8 4 30
ROOT
ATOM      1  C   UNL     1      12.530 -51.555 -23.156  1.00  0.00     0.026 C 
ENDROOT
BRANCH   1   2
ATOM      2  C   UNL     1      11.421 -52.631 -23.199  1.00  0.00     0.002 C 
ATOM      3  C   UNL     1      10.604 -54.829 -24.161  1.00  0.00     0.262 C 
ATOM      4  N   UNL     1      10.179 -55.263 -22.783  1.00  0.00    -0.331 N 
ATOM      5  C   UNL     1      11.759 -53.833 -24.092  1.00  0.00     0.065 C 
ATOM      6  C   UNL     1       9.806 -54.091 -21.909  1.00  0.00     0.262 C 
ATOM      7  C   UNL     1      10.951 -53.090 -21.813  1.00  0.00     0.065 C 
ATOM      8  H   UNL     1       9.310 -55.797 -22.902  1.00  0.00     0.348 HD
BRANCH   4   9
ATOM      9  C   UNL     1      11.135 -56.261 -22.151  1.00  0.00     0.299 C 
BRANCH   9  10
ATOM     10  C   UNL     1      10.616 -57.672 -22.151  1.00  0.00     0.006 A 
ATOM     11  C   UNL     1      11.227 -58.667 -21.371  1.00  0.00     0.009 A 
ATOM     12  C   UNL     1       9.515 -58.016 -22.952  1.00  0.00     0.009 A 
ATOM     13  C   UNL     1      10.752 -59.979 -21.403  1.00  0.00     0.001 A 
ATOM     14  C   UNL     1       9.045 -59.329 -22.980  1.00  0.00     0.001 A 
ATOM     15  C   UNL     1       9.665 -60.310 -22.210  1.00  0.00     0.000 A 
ENDBRANCH   9  10
ENDBRANCH   4   9
ENDBRANCH   1   2
BRANCH   1  16
ATOM     16  C   UNL     1      12.497 -50.499 -22.043  1.00  0.00     0.129 C 
BRANCH  16  17
ATOM     17  N   UNL     1      12.281 -49.145 -22.512  1.00  0.00    -0.274 N 
ATOM     18  C   UNL     1      13.276 -48.259 -22.816  1.00  0.00     0.261 C 
ATOM     19  C   UNL     1      11.040 -48.586 -22.666  1.00  0.00     0.261 C 
ATOM     20  C   UNL     1      12.620 -47.012 -23.203  1.00  0.00     0.055 A 
ATOM     21  C   UNL     1      11.257 -47.207 -23.100  1.00  0.00     0.053 A 
ATOM     22  C   UNL     1      13.165 -45.818 -23.638  1.00  0.00     0.040 A 
ATOM     23  C   UNL     1      10.358 -46.205 -23.398  1.00  0.00     0.017 A 
ATOM     24  C   UNL     1      12.282 -44.785 -23.969  1.00  0.00     0.041 A 
ATOM     25  C   UNL     1      10.886 -44.980 -23.828  1.00  0.00     0.027 A 
ATOM     26  O   UNL     1      14.479 -48.444 -22.838  1.00  0.00    -0.269 OA
ATOM     27  O   UNL     1       9.948 -49.095 -22.515  1.00  0.00    -0.269 OA
BRANCH  24  28
ATOM     28  N   UNL     1      12.709 -43.527 -24.441  1.00  0.00    -0.326 N 
ATOM     29  C   UNL     1      13.088 -43.213 -25.736  1.00  0.00     0.221 C 
ATOM     30  H   UNL     1      12.664 -42.756 -23.784  1.00  0.00     0.169 HD
ATOM     31  C   UNL     1      13.539 -41.781 -25.872  1.00  0.00     0.114 C 
ATOM     32  O   UNL     1      13.037 -43.961 -26.707  1.00  0.00    -0.275 OA
ENDBRANCH  24  28
ENDBRANCH  16  17
ENDBRANCH   1  16
TORSDOF 6
ENDMDL
