MODEL 1
REMARK VINA RESULT:    -7.409      0.000      0.000
REMARK INTER + INTRA:          -9.002
REMARK INTER:                  -8.709
REMARK INTRA:                  -0.294
REMARK UNBOUND:                -0.294
REMARK SMILES CN(C)C(=O)Oc1cccc([N+](C)(C)C)c1
REMARK SMILES IDX 7 1 8 2 9 3 10 4 11 5 16 6 6 7 4 8 2 9 1 10 3 11 5 12 12 13
REMARK SMILES IDX 13 14 14 15 15 16
REMARK H PARENT
ROOT
ATOM      1  C   UNL     1      10.182 -56.865 -22.800  1.00  0.00     0.138 A 
ATOM      2  C   UNL     1      11.147 -56.879 -21.801  1.00  0.00     0.048 A 
ATOM      3  C   UNL     1      11.500 -58.091 -21.218  1.00  0.00     0.010 A 
ATOM      4  C   UNL     1      10.890 -59.282 -21.637  1.00  0.00     0.068 A 
ATOM      5  C   UNL     1       9.904 -59.271 -22.636  1.00  0.00     0.135 A 
ATOM      6  C   UNL     1       9.534 -58.038 -23.191  1.00  0.00     0.115 A 
ENDROOT
BRANCH   1   7
ATOM      7  O   UNL     1       9.856 -55.617 -23.357  1.00  0.00    -0.410 OA
BRANCH   7   8
ATOM      8  C   UNL     1      10.910 -54.791 -23.761  1.00  0.00     0.414 C 
ATOM      9  N   UNL     1      10.837 -53.521 -23.210  1.00  0.00    -0.314 N 
ATOM     10  C   UNL     1      11.944 -52.604 -23.410  1.00  0.00     0.150 C 
ATOM     11  C   UNL     1       9.875 -53.163 -22.179  1.00  0.00     0.150 C 
ATOM     12  O   UNL     1      11.798 -55.155 -24.529  1.00  0.00    -0.224 OA
ENDBRANCH   7   8
ENDBRANCH   1   7
BRANCH   5  13
ATOM     13  N   UNL     1       9.241 -60.541 -23.147  1.00  0.00    -0.298 N 
ATOM     14  C   UNL     1       9.624 -60.861 -24.587  1.00  0.00     0.340 C 
ATOM     15  C   UNL     1       9.671 -61.709 -22.268  1.00  0.00     0.340 C 
ATOM     16  C   UNL     1       7.724 -60.349 -23.099  1.00  0.00     0.340 C 
ENDBRANCH   5  13
TORSDOF 3
ENDMDL
MODEL 2
REMARK VINA RESULT:    -6.709      2.898      4.587
REMARK INTER + INTRA:          -8.179
REMARK INTER:                  -7.922
REMARK INTRA:                  -0.257
REMARK UNBOUND:                -0.294
REMARK SMILES CN(C)C(=O)Oc1cccc([N+](C)(C)C)c1
REMARK SMILES IDX 7 1 8 2 9 3 10 4 11 5 16 6 6 7 4 8 2 9 1 10 3 11 5 12 12 13
REMARK SMILES IDX 13 14 14 15 15 16
REMARK H PARENT
ROOT
ATOM      1  C   UNL     1      10.484 -59.961 -25.506  1.00  0.00     0.138 A 
ATOM      2  C   UNL     1      10.634 -60.184 -26.869  1.00  0.00     0.048 A 
ATOM      3  C   UNL     1       9.933 -61.227 -27.465  1.00  0.00     0.010 A 
ATOM      4  C   UNL     1       9.085 -62.039 -26.699  1.00  0.00     0.068 A 
ATOM      5  C   UNL     1       8.942 -61.827 -25.318  1.00  0.00     0.135 A 
ATOM      6  C   UNL     1       9.681 -60.794 -24.725  1.00  0.00     0.115 A 
ENDROOT
BRANCH   1   7
ATOM      7  O   UNL     1      11.214 -58.899 -24.948  1.00  0.00    -0.410 OA
BRANCH   7   8
ATOM      8  C   UNL     1      11.746 -59.078 -23.667  1.00  0.00     0.414 C 
ATOM      9  N   UNL     1      11.110 -58.302 -22.709  1.00  0.00    -0.314 N 
ATOM     10  C   UNL     1      11.445 -58.498 -21.311  1.00  0.00     0.150 C 
ATOM     11  C   UNL     1       9.904 -57.539 -22.987  1.00  0.00     0.150 C 
ATOM     12  O   UNL     1      12.682 -59.836 -23.424  1.00  0.00    -0.224 OA
ENDBRANCH   7   8
ENDBRANCH   1   7
BRANCH   5  13
ATOM     13  N   UNL     1       8.008 -62.660 -24.454  1.00  0.00    -0.298 N 
ATOM     14  C   UNL     1       7.189 -63.654 -25.270  1.00  0.00     0.340 C 
ATOM     15  C   UNL     1       8.837 -63.441 -23.442  1.00  0.00     0.340 C 
ATOM     16  C   UNL     1       7.030 -61.717 -23.749  1.00  0.00     0.340 C 
ENDBRANCH   5  13
TORSDOF 3
ENDMDL
MODEL 3
REMARK VINA RESULT:    -6.538      2.427      3.946
REMARK INTER + INTRA:          -7.979
REMARK INTER:                  -7.660
REMARK INTRA:                  -0.319
REMARK UNBOUND:                -0.294
REMARK SMILES CN(C)C(=O)Oc1cccc([N+](C)(C)C)c1
REMARK SMILES IDX 7 1 8 2 9 3 10 4 11 5 16 6 6 7 4 8 2 9 1 10 3 11 5 12 12 13
REMARK SMILES IDX 13 14 14 15 15 16
REMARK H PARENT
ROOT
ATOM      1  C   UNL     1      11.203 -53.881 -22.520  1.00  0.00     0.138 A 
ATOM      2  C   UNL     1      11.679 -53.476 -23.761  1.00  0.00     0.048 A 
ATOM      3  C   UNL     1      11.951 -54.438 -24.728  1.00  0.00     0.010 A 
ATOM      4  C   UNL     1      11.745 -55.797 -24.453  1.00  0.00     0.068 A 
ATOM      5  C   UNL     1      11.278 -56.213 -23.196  1.00  0.00     0.135 A 
ATOM      6  C   UNL     1      11.040 -55.235 -22.219  1.00  0.00     0.115 A 
ENDROOT
BRANCH   1   7
ATOM      7  O   UNL     1      10.944 -52.875 -21.575  1.00  0.00    -0.410 OA
BRANCH   7   8
ATOM      8  C   UNL     1       9.988 -51.907 -21.901  1.00  0.00     0.414 C 
ATOM      9  N   UNL     1      10.522 -50.629 -21.969  1.00  0.00    -0.314 N 
ATOM     10  C   UNL     1       9.686 -49.545 -22.452  1.00  0.00     0.150 C 
ATOM     11  C   UNL     1      11.950 -50.367 -21.898  1.00  0.00     0.150 C 
ATOM     12  O   UNL     1       8.803 -52.168 -22.096  1.00  0.00    -0.224 OA
ENDBRANCH   7   8
ENDBRANCH   1   7
BRANCH   5  13
ATOM     13  N   UNL     1      11.007 -57.671 -22.864  1.00  0.00    -0.298 N 
ATOM     14  C   UNL     1      11.345 -58.015 -21.418  1.00  0.00     0.340 C 
ATOM     15  C   UNL     1       9.528 -57.961 -23.091  1.00  0.00     0.340 C 
ATOM     16  C   UNL     1      11.880 -58.544 -23.768  1.00  0.00     0.340 C 
ENDBRANCH   5  13
TORSDOF 3
ENDMDL
MODEL 4
REMARK VINA RESULT:    -6.155      3.452      7.518
REMARK INTER + INTRA:          -7.528
REMARK INTER:                  -7.258
REMARK INTRA:                  -0.269
REMARK UNBOUND:                -0.294
REMARK SMILES CN(C)C(=O)Oc1cccc([N+](C)(C)C)c1
REMARK SMILES IDX 7 1 8 2 9 3 10 4 11 5 16 6 6 7 4 8 2 9 1 10 3 11 5 12 12 13
REMARK SMILES IDX 13 14 14 15 15 16
REMARK H PARENT
ROOT
ATOM      1  C   UNL     1      10.320 -51.882 -22.369  1.00  0.00     0.138 A 
ATOM      2  C   UNL     1       9.832 -50.632 -22.012  1.00  0.00     0.048 A 
ATOM      3  C   UNL     1      10.537 -49.496 -22.397  1.00  0.00     0.010 A 
ATOM      4  C   UNL     1      11.721 -49.615 -23.137  1.00  0.00     0.068 A 
ATOM      5  C   UNL     1      12.227 -50.877 -23.487  1.00  0.00     0.135 A 
ATOM      6  C   UNL     1      11.525 -52.014 -23.063  1.00  0.00     0.115 A 
ENDROOT
BRANCH   1   7
ATOM      7  O   UNL     1       9.577 -53.000 -21.956  1.00  0.00    -0.410 OA
BRANCH   7   8
ATOM      8  C   UNL     1      10.270 -54.056 -21.354  1.00  0.00     0.414 C 
ATOM      9  N   UNL     1      10.328 -55.185 -22.157  1.00  0.00    -0.314 N 
ATOM     10  C   UNL     1      11.149 -56.305 -21.734  1.00  0.00     0.150 C 
ATOM     11  C   UNL     1       9.882 -55.193 -23.541  1.00  0.00     0.150 C 
ATOM     12  O   UNL     1      10.765 -53.986 -20.232  1.00  0.00    -0.224 OA
ENDBRANCH   7   8
ENDBRANCH   1   7
BRANCH   5  13
ATOM     13  N   UNL     1      13.488 -51.052 -24.318  1.00  0.00    -0.298 N 
ATOM     14  C   UNL     1      13.690 -49.921 -25.320  1.00  0.00     0.340 C 
ATOM     15  C   UNL     1      14.692 -51.084 -23.385  1.00  0.00     0.340 C 
ATOM     16  C   UNL     1      13.371 -52.359 -25.106  1.00  0.00     0.340 C 
ENDBRANCH   5  13
TORSDOF 3
ENDMDL
MODEL 5
REMARK VINA RESULT:    -6.067      3.410      6.923
REMARK INTER + INTRA:          -7.425
REMARK INTER:                  -7.402
REMARK INTRA:                  -0.023
REMARK UNBOUND:                -0.294
REMARK SMILES CN(C)C(=O)Oc1cccc([N+](C)(C)C)c1
REMARK SMILES IDX 7 1 8 2 9 3 10 4 11 5 16 6 6 7 4 8 2 9 1 10 3 11 5 12 12 13
REMARK SMILES IDX 13 14 14 15 15 16
REMARK H PARENT
ROOT
ATOM      1  C   UNL     1       8.788 -60.699 -23.747  1.00  0.00     0.138 A 
ATOM      2  C   UNL     1       7.481 -60.247 -23.879  1.00  0.00     0.048 A 
ATOM      3  C   UNL     1       7.202 -58.905 -23.647  1.00  0.00     0.010 A 
ATOM      4  C   UNL     1       8.229 -58.021 -23.288  1.00  0.00     0.068 A 
ATOM      5  C   UNL     1       9.549 -58.474 -23.139  1.00  0.00     0.135 A 
ATOM      6  C   UNL     1       9.810 -59.837 -23.343  1.00  0.00     0.115 A 
ENDROOT
BRANCH   1   7
ATOM      7  O   UNL     1       9.021 -62.062 -23.989  1.00  0.00    -0.410 OA
BRANCH   7   8
ATOM      8  C   UNL     1       7.911 -62.911 -24.050  1.00  0.00     0.414 C 
ATOM      9  N   UNL     1       7.529 -63.201 -25.351  1.00  0.00    -0.314 N 
ATOM     10  C   UNL     1       6.494 -64.194 -25.574  1.00  0.00     0.150 C 
ATOM     11  C   UNL     1       8.320 -62.815 -26.509  1.00  0.00     0.150 C 
ATOM     12  O   UNL     1       7.335 -63.343 -23.054  1.00  0.00    -0.224 OA
ENDBRANCH   7   8
ENDBRANCH   1   7
BRANCH   5  13
ATOM     13  N   UNL     1      10.700 -57.546 -22.785  1.00  0.00    -0.298 N 
ATOM     14  C   UNL     1      11.273 -57.826 -21.401  1.00  0.00     0.340 C 
ATOM     15  C   UNL     1      11.813 -57.728 -23.809  1.00  0.00     0.340 C 
ATOM     16  C   UNL     1      10.180 -56.106 -22.792  1.00  0.00     0.340 C 
ENDBRANCH   5  13
TORSDOF 3
ENDMDL
MODEL 6
REMARK VINA RESULT:    -6.063      4.956      6.653
REMARK INTER + INTRA:          -7.420
REMARK INTER:                  -7.204
REMARK INTRA:                  -0.217
REMARK UNBOUND:                -0.294
REMARK SMILES CN(C)C(=O)Oc1cccc([N+](C)(C)C)c1
REMARK SMILES IDX 7 1 8 2 9 3 10 4 11 5 16 6 6 7 4 8 2 9 1 10 3 11 5 12 12 13
REMARK SMILES IDX 13 14 14 15 15 16
REMARK H PARENT
ROOT
ATOM      1  C   UNL     1      13.058 -52.317 -25.040  1.00  0.00     0.138 A 
ATOM      2  C   UNL     1      12.988 -53.528 -25.716  1.00  0.00     0.048 A 
ATOM      3  C   UNL     1      12.171 -54.536 -25.216  1.00  0.00     0.010 A 
ATOM      4  C   UNL     1      11.427 -54.328 -24.046  1.00  0.00     0.068 A 
ATOM      5  C   UNL     1      11.505 -53.111 -23.350  1.00  0.00     0.135 A 
ATOM      6  C   UNL     1      12.359 -52.116 -23.847  1.00  0.00     0.115 A 
ENDROOT
BRANCH   1   7
ATOM      7  O   UNL     1      13.899 -51.330 -25.580  1.00  0.00    -0.410 OA
BRANCH   7   8
ATOM      8  C   UNL     1      15.270 -51.429 -25.319  1.00  0.00     0.414 C 
ATOM      9  N   UNL     1      15.752 -50.362 -24.577  1.00  0.00    -0.314 N 
ATOM     10  C   UNL     1      17.120 -50.405 -24.093  1.00  0.00     0.150 C 
ATOM     11  C   UNL     1      14.883 -49.360 -23.980  1.00  0.00     0.150 C 
ATOM     12  O   UNL     1      15.967 -52.360 -25.716  1.00  0.00    -0.224 OA
ENDBRANCH   7   8
ENDBRANCH   1   7
BRANCH   5  13
ATOM     13  N   UNL     1      10.690 -52.829 -22.098  1.00  0.00    -0.298 N 
ATOM     14  C   UNL     1       9.237 -52.490 -22.411  1.00  0.00     0.340 C 
ATOM     15  C   UNL     1      10.711 -54.065 -21.208  1.00  0.00     0.340 C 
ATOM     16  C   UNL     1      11.306 -51.626 -21.380  1.00  0.00     0.340 C 
ENDBRANCH   5  13
TORSDOF 3
ENDMDL
MODEL 7
REMARK VINA RESULT:    -6.031      2.403      7.091
REMARK INTER + INTRA:          -7.382
REMARK INTER:                  -7.216
REMARK INTRA:                  -0.166
REMARK UNBOUND:                -0.294
REMARK SMILES CN(C)C(=O)Oc1cccc([N+](C)(C)C)c1
REMARK SMILES IDX 7 1 8 2 9 3 10 4 11 5 16 6 6 7 4 8 2 9 1 10 3 11 5 12 12 13
REMARK SMILES IDX 13 14 14 15 15 16
REMARK H PARENT
ROOT
ATOM      1  C   UNL     1      11.546 -54.449 -24.218  1.00  0.00     0.138 A 
ATOM      2  C   UNL     1      12.212 -54.870 -25.363  1.00  0.00     0.048 A 
ATOM      3  C   UNL     1      13.153 -54.028 -25.945  1.00  0.00     0.010 A 
ATOM      4  C   UNL     1      13.427 -52.774 -25.381  1.00  0.00     0.068 A 
ATOM      5  C   UNL     1      12.746 -52.338 -24.233  1.00  0.00     0.135 A 
ATOM      6  C   UNL     1      11.776 -53.183 -23.676  1.00  0.00     0.115 A 
ENDROOT
BRANCH   1   7
ATOM      7  O   UNL     1      10.603 -55.332 -23.666  1.00  0.00    -0.410 OA
BRANCH   7   8
ATOM      8  C   UNL     1      10.882 -55.880 -22.410  1.00  0.00     0.414 C 
ATOM      9  N   UNL     1      11.006 -57.261 -22.444  1.00  0.00    -0.314 N 
ATOM     10  C   UNL     1      11.451 -57.955 -21.249  1.00  0.00     0.150 C 
ATOM     11  C   UNL     1      11.030 -58.020 -23.684  1.00  0.00     0.150 C 
ATOM     12  O   UNL     1      10.997 -55.206 -21.389  1.00  0.00    -0.224 OA
ENDBRANCH   7   8
ENDBRANCH   1   7
BRANCH   5  13
ATOM     13  N   UNL     1      13.035 -51.003 -23.567  1.00  0.00    -0.298 N 
ATOM     14  C   UNL     1      14.444 -50.930 -22.990  1.00  0.00     0.340 C 
ATOM     15  C   UNL     1      12.885 -49.894 -24.601  1.00  0.00     0.340 C 
ATOM     16  C   UNL     1      12.048 -50.812 -22.413  1.00  0.00     0.340 C 
ENDBRANCH   5  13
TORSDOF 3
ENDMDL
MODEL 8
REMARK VINA RESULT:    -5.697      4.404      6.509
REMARK INTER + INTRA:          -6.990
REMARK INTER:                  -6.760
REMARK INTRA:                  -0.230
REMARK UNBOUND:                -0.294
REMARK SMILES CN(C)C(=O)Oc1cccc([N+](C)(C)C)c1
REMARK SMILES IDX 7 1 8 2 9 3 10 4 11 5 16 6 6 7 4 8 2 9 1 10 3 11 5 12 12 13
REMARK SMILES IDX 13 14 14 15 15 16
REMARK H PARENT
ROOT
ATOM      1  C   UNL     1      13.029 -51.485 -24.049  1.00  0.00     0.138 A 
ATOM      2  C   UNL     1      13.470 -52.230 -25.136  1.00  0.00     0.048 A 
ATOM      3  C   UNL     1      12.894 -53.472 -25.384  1.00  0.00     0.010 A 
ATOM      4  C   UNL     1      11.880 -53.961 -24.548  1.00  0.00     0.068 A 
ATOM      5  C   UNL     1      11.441 -53.219 -23.440  1.00  0.00     0.135 A 
ATOM      6  C   UNL     1      12.055 -51.984 -23.182  1.00  0.00     0.115 A 
ENDROOT
BRANCH   1   7
ATOM      7  O   UNL     1      13.642 -50.239 -23.837  1.00  0.00    -0.410 OA
BRANCH   7   8
ATOM      8  C   UNL     1      13.222 -49.165 -24.629  1.00  0.00     0.414 C 
ATOM      9  N   UNL     1      12.403 -48.282 -23.943  1.00  0.00    -0.314 N 
ATOM     10  C   UNL     1      12.019 -47.037 -24.584  1.00  0.00     0.150 C 
ATOM     11  C   UNL     1      12.172 -48.372 -22.510  1.00  0.00     0.150 C 
ATOM     12  O   UNL     1      13.541 -49.030 -25.808  1.00  0.00    -0.224 OA
ENDBRANCH   7   8
ENDBRANCH   1   7
BRANCH   5  13
ATOM     13  N   UNL     1      10.322 -53.693 -22.527  1.00  0.00    -0.298 N 
ATOM     14  C   UNL     1      10.777 -53.861 -21.082  1.00  0.00     0.340 C 
ATOM     15  C   UNL     1       9.194 -52.670 -22.557  1.00  0.00     0.340 C 
ATOM     16  C   UNL     1       9.836 -55.057 -23.025  1.00  0.00     0.340 C 
ENDBRANCH   5  13
TORSDOF 3
ENDMDL
MODEL 9
REMARK VINA RESULT:    -5.642      4.898      7.261
REMARK INTER + INTRA:          -6.925
REMARK INTER:                  -6.681
REMARK INTRA:                  -0.244
REMARK UNBOUND:                -0.294
REMARK SMILES CN(C)C(=O)Oc1cccc([N+](C)(C)C)c1
REMARK SMILES IDX 7 1 8 2 9 3 10 4 11 5 16 6 6 7 4 8 2 9 1 10 3 11 5 12 12 13
REMARK SMILES IDX 13 14 14 15 15 16
REMARK H PARENT
ROOT
ATOM      1  C   UNL     1      12.589 -50.208 -23.008  1.00  0.00     0.138 A 
ATOM      2  C   UNL     1      13.358 -50.511 -24.124  1.00  0.00     0.048 A 
ATOM      3  C   UNL     1      13.195 -51.746 -24.742  1.00  0.00     0.010 A 
ATOM      4  C   UNL     1      12.264 -52.669 -24.245  1.00  0.00     0.068 A 
ATOM      5  C   UNL     1      11.495 -52.373 -23.108  1.00  0.00     0.135 A 
ATOM      6  C   UNL     1      11.694 -51.138 -22.475  1.00  0.00     0.115 A 
ENDROOT
BRANCH   1   7
ATOM      7  O   UNL     1      12.790 -48.950 -22.415  1.00  0.00    -0.410 OA
BRANCH   7   8
ATOM      8  C   UNL     1      11.842 -47.953 -22.668  1.00  0.00     0.414 C 
ATOM      9  N   UNL     1      12.034 -46.821 -21.891  1.00  0.00    -0.314 N 
ATOM     10  C   UNL     1      11.227 -45.644 -22.155  1.00  0.00     0.150 C 
ATOM     11  C   UNL     1      13.206 -46.631 -21.051  1.00  0.00     0.150 C 
ATOM     12  O   UNL     1      10.934 -48.077 -23.487  1.00  0.00    -0.224 OA
ENDBRANCH   7   8
ENDBRANCH   1   7
BRANCH   5  13
ATOM     13  N   UNL     1      10.450 -53.329 -22.555  1.00  0.00    -0.298 N 
ATOM     14  C   UNL     1      10.256 -54.557 -23.437  1.00  0.00     0.340 C 
ATOM     15  C   UNL     1      10.892 -53.797 -21.175  1.00  0.00     0.340 C 
ATOM     16  C   UNL     1       9.110 -52.591 -22.480  1.00  0.00     0.340 C 
ENDBRANCH   5  13
TORSDOF 3
ENDMDL
