MODEL 1
REMARK VINA RESULT:   -11.681      0.000      0.000
REMARK INTER + INTRA:         -16.518
REMARK INTER:                 -15.779
REMARK INTRA:                  -0.739
REMARK UNBOUND:                -0.739
REMARK SMILES NC(=O)c1ccc2c(CC[C@H]3CC[N@@H+](Cc4ccccc4)CC3)noc2c1
REMARK SMILES IDX 10 1 11 2 13 3 14 4 12 5 22 6 23 7 15 9 16 10 17 11 21 12
REMARK SMILES IDX 18 13 20 14 19 15 9 16 8 17 7 18 24 19 6 20 26 21 25 22 5 23
REMARK SMILES IDX 27 24 4 25 2 26 1 27 3 28
REMARK H PARENT 14 8 1 29 1 30
ROOT
ATOM      1  C   UNL     1      10.257 -61.686 -22.420  1.00  0.00     0.010 C 
ENDROOT
BRANCH   1   2
ATOM      2  C   UNL     1       9.554 -60.549 -21.635  1.00  0.00     0.000 C 
ATOM      3  C   UNL     1       9.465 -58.731 -23.411  1.00  0.00     0.262 C 
ATOM      4  N   UNL     1      10.452 -57.914 -22.611  1.00  0.00    -0.331 N 
ATOM      5  C   UNL     1       8.664 -59.607 -22.457  1.00  0.00     0.065 C 
ATOM      6  C   UNL     1      11.390 -58.770 -21.799  1.00  0.00     0.262 C 
ATOM      7  C   UNL     1      10.592 -59.695 -20.879  1.00  0.00     0.065 C 
ATOM      8  H   UNL     1       9.896 -57.370 -21.939  1.00  0.00     0.348 HD
BRANCH   4   9
ATOM      9  C   UNL     1      11.166 -56.868 -23.451  1.00  0.00     0.299 C 
BRANCH   9  10
ATOM     10  C   UNL     1      11.111 -55.456 -22.931  1.00  0.00     0.006 A 
ATOM     11  C   UNL     1      11.443 -54.371 -23.760  1.00  0.00     0.009 A 
ATOM     12  C   UNL     1      10.725 -55.196 -21.606  1.00  0.00     0.009 A 
ATOM     13  C   UNL     1      11.369 -53.063 -23.280  1.00  0.00     0.001 A 
ATOM     14  C   UNL     1      10.659 -53.886 -21.129  1.00  0.00     0.001 A 
ATOM     15  C   UNL     1      10.974 -52.821 -21.967  1.00  0.00     0.000 A 
ENDBRANCH   9  10
ENDBRANCH   4   9
ENDBRANCH   1   2
BRANCH   1  16
ATOM     16  C   UNL     1       9.344 -62.673 -23.169  1.00  0.00     0.061 C 
BRANCH  16  17
ATOM     17  C   UNL     1       9.303 -62.403 -24.639  1.00  0.00     0.091 A 
ATOM     18  C   UNL     1      10.188 -61.600 -25.410  1.00  0.00     0.045 A 
ATOM     19  N   UNL     1       8.298 -62.879 -25.386  1.00  0.00    -0.084 NA
ATOM     20  C   UNL     1      11.352 -60.844 -25.193  1.00  0.00     0.015 A 
ATOM     21  C   UNL     1       9.622 -61.609 -26.673  1.00  0.00     0.167 A 
ATOM     22  O   UNL     1       8.506 -62.385 -26.661  1.00  0.00    -0.356 OA
ATOM     23  C   UNL     1      11.881 -60.111 -26.268  1.00  0.00     0.015 A 
ATOM     24  C   UNL     1      10.117 -60.905 -27.764  1.00  0.00     0.064 A 
ATOM     25  C   UNL     1      11.268 -60.139 -27.531  1.00  0.00     0.043 A 
BRANCH  25  26
ATOM     26  C   UNL     1      11.767 -59.300 -28.647  1.00  0.00     0.248 C 
ATOM     27  N   UNL     1      12.183 -59.943 -29.778  1.00  0.00    -0.366 N 
ATOM     28  O   UNL     1      11.788 -58.080 -28.554  1.00  0.00    -0.270 OA
ATOM     29  H   UNL     1      12.393 -59.349 -30.572  1.00  0.00     0.159 HD
ATOM     30  H   UNL     1      11.915 -60.896 -29.984  1.00  0.00     0.159 HD
ENDBRANCH  25  26
ENDBRANCH  16  17
ENDBRANCH   1  16
TORSDOF 6
ENDMDL
MODEL 2
REMARK VINA RESULT:   -11.219      3.788      8.830
REMARK INTER + INTRA:         -15.893
REMARK INTER:                 -15.188
REMARK INTRA:                  -0.705
REMARK UNBOUND:                -0.739
REMARK SMILES NC(=O)c1ccc2c(CC[C@H]3CC[N@@H+](Cc4ccccc4)CC3)noc2c1
REMARK SMILES IDX 10 1 11 2 13 3 14 4 12 5 22 6 23 7 15 9 16 10 17 11 21 12
REMARK SMILES IDX 18 13 20 14 19 15 9 16 8 17 7 18 24 19 6 20 26 21 25 22 5 23
REMARK SMILES IDX 27 24 4 25 2 26 1 27 3 28
REMARK H PARENT 14 8 1 29 1 30
ROOT
ATOM      1  C   UNL     1      11.384 -56.498 -23.079  1.00  0.00     0.010 C 
ENDROOT
BRANCH   1   2
ATOM      2  C   UNL     1      10.651 -57.462 -22.110  1.00  0.00     0.000 C 
ATOM      3  C   UNL     1      11.779 -59.665 -22.692  1.00  0.00     0.262 C 
ATOM      4  N   UNL     1      10.480 -60.164 -23.279  1.00  0.00    -0.331 N 
ATOM      5  C   UNL     1      11.467 -58.655 -21.596  1.00  0.00     0.065 C 
ATOM      6  C   UNL     1       9.632 -59.052 -23.841  1.00  0.00     0.262 C 
ATOM      7  C   UNL     1       9.363 -58.002 -22.762  1.00  0.00     0.065 C 
ATOM      8  H   UNL     1       9.950 -60.571 -22.499  1.00  0.00     0.348 HD
BRANCH   4   9
ATOM      9  C   UNL     1      10.679 -61.318 -24.249  1.00  0.00     0.299 C 
BRANCH   9  10
ATOM     10  C   UNL     1       9.496 -62.229 -24.440  1.00  0.00     0.006 A 
ATOM     11  C   UNL     1       9.053 -63.061 -23.399  1.00  0.00     0.009 A 
ATOM     12  C   UNL     1       8.810 -62.264 -25.666  1.00  0.00     0.009 A 
ATOM     13  C   UNL     1       7.942 -63.888 -23.573  1.00  0.00     0.001 A 
ATOM     14  C   UNL     1       7.704 -63.096 -25.838  1.00  0.00     0.001 A 
ATOM     15  C   UNL     1       7.267 -63.903 -24.791  1.00  0.00     0.000 A 
ENDBRANCH   9  10
ENDBRANCH   4   9
ENDBRANCH   1   2
BRANCH   1  16
ATOM     16  C   UNL     1      10.536 -55.380 -23.710  1.00  0.00     0.061 C 
BRANCH  16  17
ATOM     17  C   UNL     1      10.576 -54.118 -22.910  1.00  0.00     0.091 A 
ATOM     18  C   UNL     1      11.341 -52.945 -23.156  1.00  0.00     0.045 A 
ATOM     19  N   UNL     1       9.890 -54.022 -21.763  1.00  0.00    -0.084 NA
ATOM     20  C   UNL     1      12.238 -52.483 -24.133  1.00  0.00     0.015 A 
ATOM     21  C   UNL     1      11.083 -52.148 -22.054  1.00  0.00     0.167 A 
ATOM     22  O   UNL     1      10.206 -52.784 -21.234  1.00  0.00    -0.356 OA
ATOM     23  C   UNL     1      12.853 -51.235 -23.938  1.00  0.00     0.015 A 
ATOM     24  C   UNL     1      11.663 -50.906 -21.827  1.00  0.00     0.064 A 
ATOM     25  C   UNL     1      12.572 -50.464 -22.799  1.00  0.00     0.043 A 
BRANCH  25  26
ATOM     26  C   UNL     1      13.281 -49.187 -22.539  1.00  0.00     0.248 C 
ATOM     27  N   UNL     1      12.948 -48.504 -21.405  1.00  0.00    -0.366 N 
ATOM     28  O   UNL     1      14.139 -48.778 -23.311  1.00  0.00    -0.270 OA
ATOM     29  H   UNL     1      13.535 -47.709 -21.180  1.00  0.00     0.159 HD
ATOM     30  H   UNL     1      12.470 -48.946 -20.632  1.00  0.00     0.159 HD
ENDBRANCH  25  26
ENDBRANCH  16  17
ENDBRANCH   1  16
TORSDOF 6
ENDMDL
MODEL 3
REMARK VINA RESULT:   -11.031      3.505      8.069
REMARK INTER + INTRA:         -15.639
REMARK INTER:                 -15.082
REMARK INTRA:                  -0.557
REMARK UNBOUND:                -0.739
REMARK SMILES NC(=O)c1ccc2c(CC[C@H]3CC[N@@H+](Cc4ccccc4)CC3)noc2c1
REMARK SMILES IDX 10 1 11 2 13 3 14 4 12 5 22 6 23 7 15 9 16 10 17 11 21 12
REMARK SMILES IDX 18 13 20 14 19 15 9 16 8 17 7 18 24 19 6 20 26 21 25 22 5 23
REMARK SMILES IDX 27 24 4 25 2 26 1 27 3 28
REMARK H PARENT 14 8 1 29 1 30
ROOT
ATOM      1  C   UNL     1      11.338 -56.913 -22.425  1.00  0.00     0.010 C 
ENDROOT
BRANCH   1   2
ATOM      2  C   UNL     1      11.036 -58.409 -22.144  1.00  0.00     0.000 C 
ATOM      3  C   UNL     1      11.927 -59.479 -24.272  1.00  0.00     0.262 C 
ATOM      4  N   UNL     1      10.516 -59.846 -24.667  1.00  0.00    -0.331 N 
ATOM      5  C   UNL     1      12.013 -59.423 -22.752  1.00  0.00     0.065 C 
ATOM      6  C   UNL     1       9.493 -58.874 -24.136  1.00  0.00     0.262 C 
ATOM      7  C   UNL     1       9.612 -58.767 -22.615  1.00  0.00     0.065 C 
ATOM      8  H   UNL     1      10.319 -60.751 -24.221  1.00  0.00     0.348 HD
BRANCH   4   9
ATOM      9  C   UNL     1      10.374 -60.115 -26.156  1.00  0.00     0.299 C 
BRANCH   9  10
ATOM     10  C   UNL     1       9.509 -61.289 -26.534  1.00  0.00     0.006 A 
ATOM     11  C   UNL     1       8.763 -61.974 -25.561  1.00  0.00     0.009 A 
ATOM     12  C   UNL     1       9.431 -61.720 -27.869  1.00  0.00     0.009 A 
ATOM     13  C   UNL     1       7.945 -63.047 -25.920  1.00  0.00     0.001 A 
ATOM     14  C   UNL     1       8.618 -62.797 -28.221  1.00  0.00     0.001 A 
ATOM     15  C   UNL     1       7.870 -63.455 -27.249  1.00  0.00     0.000 A 
ENDBRANCH   9  10
ENDBRANCH   4   9
ENDBRANCH   1   2
BRANCH   1  16
ATOM     16  C   UNL     1      10.132 -55.957 -22.431  1.00  0.00     0.061 C 
BRANCH  16  17
ATOM     17  C   UNL     1      10.547 -54.522 -22.444  1.00  0.00     0.091 A 
ATOM     18  C   UNL     1      11.328 -53.841 -23.417  1.00  0.00     0.045 A 
ATOM     19  N   UNL     1      10.251 -53.723 -21.410  1.00  0.00    -0.084 NA
ATOM     20  C   UNL     1      11.938 -54.141 -24.647  1.00  0.00     0.015 A 
ATOM     21  C   UNL     1      11.500 -52.579 -22.876  1.00  0.00     0.167 A 
ATOM     22  O   UNL     1      10.844 -52.505 -21.689  1.00  0.00    -0.356 OA
ATOM     23  C   UNL     1      12.715 -53.149 -25.267  1.00  0.00     0.015 A 
ATOM     24  C   UNL     1      12.254 -51.568 -23.459  1.00  0.00     0.064 A 
ATOM     25  C   UNL     1      12.874 -51.885 -24.676  1.00  0.00     0.043 A 
BRANCH  25  26
ATOM     26  C   UNL     1      13.763 -50.861 -25.276  1.00  0.00     0.248 C 
ATOM     27  N   UNL     1      14.102 -51.017 -26.590  1.00  0.00    -0.366 N 
ATOM     28  O   UNL     1      14.162 -49.911 -24.616  1.00  0.00    -0.270 OA
ATOM     29  H   UNL     1      14.597 -50.241 -27.013  1.00  0.00     0.159 HD
ATOM     30  H   UNL     1      13.573 -51.611 -27.215  1.00  0.00     0.159 HD
ENDBRANCH  25  26
ENDBRANCH  16  17
ENDBRANCH   1  16
TORSDOF 6
ENDMDL
MODEL 4
REMARK VINA RESULT:   -11.014      2.203      3.136
REMARK INTER + INTRA:         -15.616
REMARK INTER:                 -14.808
REMARK INTRA:                  -0.809
REMARK UNBOUND:                -0.739
REMARK SMILES NC(=O)c1ccc2c(CC[C@H]3CC[N@@H+](Cc4ccccc4)CC3)noc2c1
REMARK SMILES IDX 10 1 11 2 13 3 14 4 12 5 22 6 23 7 15 9 16 10 17 11 21 12
REMARK SMILES IDX 18 13 20 14 19 15 9 16 8 17 7 18 24 19 6 20 26 21 25 22 5 23
REMARK SMILES IDX 27 24 4 25 2 26 1 27 3 28
REMARK H PARENT 14 8 1 29 1 30
ROOT
ATOM      1  C   UNL     1      10.089 -59.750 -22.036  1.00  0.00     0.010 C 
ENDROOT
BRANCH   1   2
ATOM      2  C   UNL     1      11.456 -59.023 -21.955  1.00  0.00     0.000 C 
ATOM      3  C   UNL     1      10.698 -56.599 -21.829  1.00  0.00     0.262 C 
ATOM      4  N   UNL     1      11.281 -56.356 -23.201  1.00  0.00    -0.331 N 
ATOM      5  C   UNL     1      11.483 -57.715 -21.153  1.00  0.00     0.065 C 
ATOM      6  C   UNL     1      11.260 -57.588 -24.068  1.00  0.00     0.262 C 
ATOM      7  C   UNL     1      11.996 -58.732 -23.371  1.00  0.00     0.065 C 
ATOM      8  H   UNL     1      12.270 -56.117 -23.055  1.00  0.00     0.348 HD
BRANCH   4   9
ATOM      9  C   UNL     1      10.690 -55.131 -23.881  1.00  0.00     0.299 C 
BRANCH   9  10
ATOM     10  C   UNL     1      11.670 -54.053 -24.265  1.00  0.00     0.006 A 
ATOM     11  C   UNL     1      12.503 -54.206 -25.385  1.00  0.00     0.009 A 
ATOM     12  C   UNL     1      11.769 -52.874 -23.508  1.00  0.00     0.009 A 
ATOM     13  C   UNL     1      13.394 -53.195 -25.750  1.00  0.00     0.001 A 
ATOM     14  C   UNL     1      12.666 -51.869 -23.873  1.00  0.00     0.001 A 
ATOM     15  C   UNL     1      13.473 -52.027 -24.997  1.00  0.00     0.000 A 
ENDBRANCH   9  10
ENDBRANCH   4   9
ENDBRANCH   1   2
BRANCH   1  16
ATOM     16  C   UNL     1      10.084 -61.248 -21.686  1.00  0.00     0.061 C 
BRANCH  16  17
ATOM     17  C   UNL     1       9.337 -62.063 -22.692  1.00  0.00     0.091 A 
ATOM     18  C   UNL     1       9.409 -61.991 -24.110  1.00  0.00     0.045 A 
ATOM     19  N   UNL     1       8.409 -62.944 -22.295  1.00  0.00    -0.084 NA
ATOM     20  C   UNL     1      10.133 -61.267 -25.072  1.00  0.00     0.015 A 
ATOM     21  C   UNL     1       8.434 -62.877 -24.534  1.00  0.00     0.167 A 
ATOM     22  O   UNL     1       7.852 -63.457 -23.452  1.00  0.00    -0.356 OA
ATOM     23  C   UNL     1       9.821 -61.461 -26.428  1.00  0.00     0.015 A 
ATOM     24  C   UNL     1       8.100 -63.104 -25.863  1.00  0.00     0.064 A 
ATOM     25  C   UNL     1       8.816 -62.362 -26.814  1.00  0.00     0.043 A 
BRANCH  25  26
ATOM     26  C   UNL     1       8.418 -62.509 -28.235  1.00  0.00     0.248 C 
ATOM     27  N   UNL     1       7.642 -63.585 -28.561  1.00  0.00    -0.366 N 
ATOM     28  O   UNL     1       8.764 -61.686 -29.071  1.00  0.00    -0.270 OA
ATOM     29  H   UNL     1       7.274 -63.593 -29.506  1.00  0.00     0.159 HD
ATOM     30  H   UNL     1       7.120 -64.102 -27.867  1.00  0.00     0.159 HD
ENDBRANCH  25  26
ENDBRANCH  16  17
ENDBRANCH   1  16
TORSDOF 6
ENDMDL
MODEL 5
REMARK VINA RESULT:   -10.961      1.695      2.211
REMARK INTER + INTRA:         -15.544
REMARK INTER:                 -15.484
REMARK INTRA:                  -0.060
REMARK UNBOUND:                -0.739
REMARK SMILES NC(=O)c1ccc2c(CC[C@H]3CC[N@@H+](Cc4ccccc4)CC3)noc2c1
REMARK SMILES IDX 10 1 11 2 13 3 14 4 12 5 22 6 23 7 15 9 16 10 17 11 21 12
REMARK SMILES IDX 18 13 20 14 19 15 9 16 8 17 7 18 24 19 6 20 26 21 25 22 5 23
REMARK SMILES IDX 27 24 4 25 2 26 1 27 3 28
REMARK H PARENT 14 8 1 29 1 30
ROOT
ATOM      1  C   UNL     1       9.396 -61.632 -23.373  1.00  0.00     0.010 C 
ENDROOT
BRANCH   1   2
ATOM      2  C   UNL     1       8.839 -60.626 -22.332  1.00  0.00     0.000 C 
ATOM      3  C   UNL     1       9.353 -58.419 -23.485  1.00  0.00     0.262 C 
ATOM      4  N   UNL     1      10.370 -58.107 -22.413  1.00  0.00    -0.331 N 
ATOM      5  C   UNL     1       8.274 -59.315 -22.892  1.00  0.00     0.065 C 
ATOM      6  C   UNL     1      11.002 -59.347 -21.833  1.00  0.00     0.262 C 
ATOM      7  C   UNL     1       9.920 -60.279 -21.288  1.00  0.00     0.065 C 
ATOM      8  H   UNL     1       9.852 -57.657 -21.648  1.00  0.00     0.348 HD
BRANCH   4   9
ATOM      9  C   UNL     1      11.385 -57.064 -22.853  1.00  0.00     0.299 C 
BRANCH   9  10
ATOM     10  C   UNL     1      11.062 -55.638 -22.492  1.00  0.00     0.006 A 
ATOM     11  C   UNL     1      10.966 -55.241 -21.148  1.00  0.00     0.009 A 
ATOM     12  C   UNL     1      10.851 -54.676 -23.494  1.00  0.00     0.009 A 
ATOM     13  C   UNL     1      10.689 -53.913 -20.817  1.00  0.00     0.001 A 
ATOM     14  C   UNL     1      10.568 -53.352 -23.159  1.00  0.00     0.001 A 
ATOM     15  C   UNL     1      10.494 -52.969 -21.822  1.00  0.00     0.000 A 
ENDBRANCH   9  10
ENDBRANCH   4   9
ENDBRANCH   1   2
BRANCH   1  16
ATOM     16  C   UNL     1      10.880 -62.014 -23.236  1.00  0.00     0.061 C 
BRANCH  16  17
ATOM     17  C   UNL     1      11.751 -61.247 -24.179  1.00  0.00     0.091 A 
ATOM     18  C   UNL     1      11.423 -60.743 -25.467  1.00  0.00     0.045 A 
ATOM     19  N   UNL     1      13.038 -61.025 -23.881  1.00  0.00    -0.084 NA
ATOM     20  C   UNL     1      10.293 -60.700 -26.302  1.00  0.00     0.015 A 
ATOM     21  C   UNL     1      12.619 -60.226 -25.932  1.00  0.00     0.167 A 
ATOM     22  O   UNL     1      13.576 -60.379 -24.980  1.00  0.00    -0.356 OA
ATOM     23  C   UNL     1      10.434 -60.149 -27.586  1.00  0.00     0.015 A 
ATOM     24  C   UNL     1      12.799 -59.666 -27.190  1.00  0.00     0.064 A 
ATOM     25  C   UNL     1      11.671 -59.645 -28.023  1.00  0.00     0.043 A 
BRANCH  25  26
ATOM     26  C   UNL     1      11.852 -59.143 -29.406  1.00  0.00     0.248 C 
ATOM     27  N   UNL     1      11.824 -60.062 -30.416  1.00  0.00    -0.366 N 
ATOM     28  O   UNL     1      12.005 -57.949 -29.625  1.00  0.00    -0.270 OA
ATOM     29  H   UNL     1      11.815 -59.684 -31.356  1.00  0.00     0.159 HD
ATOM     30  H   UNL     1      11.424 -60.982 -30.294  1.00  0.00     0.159 HD
ENDBRANCH  25  26
ENDBRANCH  16  17
ENDBRANCH   1  16
TORSDOF 6
ENDMDL
MODEL 6
REMARK VINA RESULT:   -10.931      3.701      8.492
REMARK INTER + INTRA:         -15.504
REMARK INTER:                 -14.919
REMARK INTRA:                  -0.585
REMARK UNBOUND:                -0.739
REMARK SMILES NC(=O)c1ccc2c(CC[C@H]3CC[N@@H+](Cc4ccccc4)CC3)noc2c1
REMARK SMILES IDX 10 1 11 2 13 3 14 4 12 5 22 6 23 7 15 9 16 10 17 11 21 12
REMARK SMILES IDX 18 13 20 14 19 15 9 16 8 17 7 18 24 19 6 20 26 21 25 22 5 23
REMARK SMILES IDX 27 24 4 25 2 26 1 27 3 28
REMARK H PARENT 14 8 1 29 1 30
ROOT
ATOM      1  C   UNL     1      11.435 -56.549 -23.108  1.00  0.00     0.010 C 
ENDROOT
BRANCH   1   2
ATOM      2  C   UNL     1      10.632 -57.461 -22.144  1.00  0.00     0.000 C 
ATOM      3  C   UNL     1      11.746 -59.705 -22.578  1.00  0.00     0.262 C 
ATOM      4  N   UNL     1      10.471 -60.204 -23.217  1.00  0.00    -0.331 N 
ATOM      5  C   UNL     1      11.395 -58.647 -21.541  1.00  0.00     0.065 C 
ATOM      6  C   UNL     1       9.676 -59.100 -23.866  1.00  0.00     0.262 C 
ATOM      7  C   UNL     1       9.370 -58.004 -22.845  1.00  0.00     0.065 C 
ATOM      8  H   UNL     1       9.891 -60.571 -22.451  1.00  0.00     0.348 HD
BRANCH   4   9
ATOM      9  C   UNL     1      10.699 -61.398 -24.128  1.00  0.00     0.299 C 
BRANCH   9  10
ATOM     10  C   UNL     1       9.501 -62.279 -24.373  1.00  0.00     0.006 A 
ATOM     11  C   UNL     1       8.989 -63.096 -23.352  1.00  0.00     0.009 A 
ATOM     12  C   UNL     1       8.873 -62.298 -25.629  1.00  0.00     0.009 A 
ATOM     13  C   UNL     1       7.866 -63.893 -23.577  1.00  0.00     0.001 A 
ATOM     14  C   UNL     1       7.754 -63.101 -25.851  1.00  0.00     0.001 A 
ATOM     15  C   UNL     1       7.247 -63.893 -24.824  1.00  0.00     0.000 A 
ENDBRANCH   9  10
ENDBRANCH   4   9
ENDBRANCH   1   2
BRANCH   1  16
ATOM     16  C   UNL     1      10.840 -55.159 -23.397  1.00  0.00     0.061 C 
BRANCH  16  17
ATOM     17  C   UNL     1      11.738 -54.325 -24.253  1.00  0.00     0.091 A 
ATOM     18  C   UNL     1      12.115 -52.967 -24.070  1.00  0.00     0.045 A 
ATOM     19  N   UNL     1      12.235 -54.821 -25.394  1.00  0.00    -0.084 NA
ATOM     20  C   UNL     1      11.890 -51.951 -23.127  1.00  0.00     0.015 A 
ATOM     21  C   UNL     1      12.854 -52.676 -25.203  1.00  0.00     0.167 A 
ATOM     22  O   UNL     1      12.939 -53.786 -25.983  1.00  0.00    -0.356 OA
ATOM     23  C   UNL     1      12.411 -50.672 -23.385  1.00  0.00     0.015 A 
ATOM     24  C   UNL     1      13.393 -51.429 -25.494  1.00  0.00     0.064 A 
ATOM     25  C   UNL     1      13.146 -50.417 -24.555  1.00  0.00     0.043 A 
BRANCH  25  26
ATOM     26  C   UNL     1      13.625 -49.052 -24.880  1.00  0.00     0.248 C 
ATOM     27  N   UNL     1      14.154 -48.852 -26.123  1.00  0.00    -0.366 N 
ATOM     28  O   UNL     1      13.532 -48.144 -24.065  1.00  0.00    -0.270 OA
ATOM     29  H   UNL     1      14.350 -47.889 -26.370  1.00  0.00     0.159 HD
ATOM     30  H   UNL     1      13.983 -49.490 -26.889  1.00  0.00     0.159 HD
ENDBRANCH  25  26
ENDBRANCH  16  17
ENDBRANCH   1  16
TORSDOF 6
ENDMDL
MODEL 7
REMARK VINA RESULT:   -10.655      3.168      5.981
REMARK INTER + INTRA:         -15.132
REMARK INTER:                 -14.453
REMARK INTRA:                  -0.679
REMARK UNBOUND:                -0.739
REMARK SMILES NC(=O)c1ccc2c(CC[C@H]3CC[N@@H+](Cc4ccccc4)CC3)noc2c1
REMARK SMILES IDX 10 1 11 2 13 3 14 4 12 5 22 6 23 7 15 9 16 10 17 11 21 12
REMARK SMILES IDX 18 13 20 14 19 15 9 16 8 17 7 18 24 19 6 20 26 21 25 22 5 23
REMARK SMILES IDX 27 24 4 25 2 26 1 27 3 28
REMARK H PARENT 14 8 1 29 1 30
ROOT
ATOM      1  C   UNL     1      10.996 -55.934 -21.921  1.00  0.00     0.010 C 
ENDROOT
BRANCH   1   2
ATOM      2  C   UNL     1      10.037 -54.860 -22.498  1.00  0.00     0.000 C 
ATOM      3  C   UNL     1      11.653 -53.483 -23.896  1.00  0.00     0.262 C 
ATOM      4  N   UNL     1      11.477 -52.325 -22.943  1.00  0.00    -0.331 N 
ATOM      5  C   UNL     1      10.382 -54.321 -23.892  1.00  0.00     0.065 C 
ATOM      6  C   UNL     1      11.168 -52.772 -21.537  1.00  0.00     0.262 C 
ATOM      7  C   UNL     1       9.926 -53.663 -21.531  1.00  0.00     0.065 C 
ATOM      8  H   UNL     1      10.653 -51.805 -23.272  1.00  0.00     0.348 HD
BRANCH   4   9
ATOM      9  C   UNL     1      12.616 -51.322 -23.019  1.00  0.00     0.299 C 
BRANCH   9  10
ATOM     10  C   UNL     1      12.230 -49.911 -23.375  1.00  0.00     0.006 A 
ATOM     11  C   UNL     1      11.118 -49.297 -22.775  1.00  0.00     0.009 A 
ATOM     12  C   UNL     1      12.976 -49.180 -24.315  1.00  0.00     0.009 A 
ATOM     13  C   UNL     1      10.777 -47.981 -23.091  1.00  0.00     0.001 A 
ATOM     14  C   UNL     1      12.627 -47.867 -24.632  1.00  0.00     0.001 A 
ATOM     15  C   UNL     1      11.532 -47.266 -24.016  1.00  0.00     0.000 A 
ENDBRANCH   9  10
ENDBRANCH   4   9
ENDBRANCH   1   2
BRANCH   1  16
ATOM     16  C   UNL     1      11.369 -57.097 -22.857  1.00  0.00     0.061 C 
BRANCH  16  17
ATOM     17  C   UNL     1      10.856 -58.411 -22.360  1.00  0.00     0.091 A 
ATOM     18  C   UNL     1       9.946 -59.297 -22.996  1.00  0.00     0.045 A 
ATOM     19  N   UNL     1      11.191 -58.848 -21.138  1.00  0.00    -0.084 NA
ATOM     20  C   UNL     1       9.249 -59.362 -24.215  1.00  0.00     0.015 A 
ATOM     21  C   UNL     1       9.737 -60.287 -22.053  1.00  0.00     0.167 A 
ATOM     22  O   UNL     1      10.492 -60.028 -20.953  1.00  0.00    -0.356 OA
ATOM     23  C   UNL     1       8.352 -60.425 -24.414  1.00  0.00     0.015 A 
ATOM     24  C   UNL     1       8.866 -61.358 -22.213  1.00  0.00     0.064 A 
ATOM     25  C   UNL     1       8.162 -61.403 -23.424  1.00  0.00     0.043 A 
BRANCH  25  26
ATOM     26  C   UNL     1       7.153 -62.477 -23.588  1.00  0.00     0.248 C 
ATOM     27  N   UNL     1       7.126 -63.462 -22.642  1.00  0.00    -0.366 N 
ATOM     28  O   UNL     1       6.371 -62.466 -24.530  1.00  0.00    -0.270 OA
ATOM     29  H   UNL     1       6.347 -64.108 -22.700  1.00  0.00     0.159 HD
ATOM     30  H   UNL     1       7.550 -63.344 -21.732  1.00  0.00     0.159 HD
ENDBRANCH  25  26
ENDBRANCH  16  17
ENDBRANCH   1  16
TORSDOF 6
ENDMDL
MODEL 8
REMARK VINA RESULT:   -10.653      2.915      7.859
REMARK INTER + INTRA:         -15.129
REMARK INTER:                 -15.068
REMARK INTRA:                  -0.060
REMARK UNBOUND:                -0.739
REMARK SMILES NC(=O)c1ccc2c(CC[C@H]3CC[N@@H+](Cc4ccccc4)CC3)noc2c1
REMARK SMILES IDX 10 1 11 2 13 3 14 4 12 5 22 6 23 7 15 9 16 10 17 11 21 12
REMARK SMILES IDX 18 13 20 14 19 15 9 16 8 17 7 18 24 19 6 20 26 21 25 22 5 23
REMARK SMILES IDX 27 24 4 25 2 26 1 27 3 28
REMARK H PARENT 14 8 1 29 1 30
ROOT
ATOM      1  C   UNL     1      10.025 -58.815 -23.395  1.00  0.00     0.010 C 
ENDROOT
BRANCH   1   2
ATOM      2  C   UNL     1       9.251 -59.607 -22.309  1.00  0.00     0.000 C 
ATOM      3  C   UNL     1       9.543 -61.985 -23.159  1.00  0.00     0.262 C 
ATOM      4  N   UNL     1       8.065 -62.048 -23.464  1.00  0.00    -0.331 N 
ATOM      5  C   UNL     1       9.766 -61.019 -22.003  1.00  0.00     0.065 C 
ATOM      6  C   UNL     1       7.487 -60.700 -23.811  1.00  0.00     0.262 C 
ATOM      7  C   UNL     1       7.757 -59.707 -22.680  1.00  0.00     0.065 C 
ATOM      8  H   UNL     1       7.606 -62.350 -22.595  1.00  0.00     0.348 HD
BRANCH   4   9
ATOM      9  C   UNL     1       7.720 -63.129 -24.474  1.00  0.00     0.299 C 
BRANCH   9  10
ATOM     10  C   UNL     1       8.177 -62.880 -25.888  1.00  0.00     0.006 A 
ATOM     11  C   UNL     1       7.657 -63.632 -26.954  1.00  0.00     0.009 A 
ATOM     12  C   UNL     1       9.132 -61.889 -26.167  1.00  0.00     0.009 A 
ATOM     13  C   UNL     1       8.066 -63.383 -28.265  1.00  0.00     0.001 A 
ATOM     14  C   UNL     1       9.543 -61.648 -27.478  1.00  0.00     0.001 A 
ATOM     15  C   UNL     1       9.005 -62.389 -28.527  1.00  0.00     0.000 A 
ENDBRANCH   9  10
ENDBRANCH   4   9
ENDBRANCH   1   2
BRANCH   1  16
ATOM     16  C   UNL     1      11.389 -58.234 -22.981  1.00  0.00     0.061 C 
BRANCH  16  17
ATOM     17  C   UNL     1      11.578 -56.832 -23.463  1.00  0.00     0.091 A 
ATOM     18  C   UNL     1      11.200 -55.623 -22.818  1.00  0.00     0.045 A 
ATOM     19  N   UNL     1      12.094 -56.598 -24.677  1.00  0.00    -0.084 NA
ATOM     20  C   UNL     1      10.607 -55.242 -21.602  1.00  0.00     0.015 A 
ATOM     21  C   UNL     1      11.504 -54.645 -23.749  1.00  0.00     0.167 A 
ATOM     22  O   UNL     1      12.052 -55.225 -24.849  1.00  0.00    -0.356 OA
ATOM     23  C   UNL     1      10.330 -53.881 -21.393  1.00  0.00     0.015 A 
ATOM     24  C   UNL     1      11.253 -53.289 -23.579  1.00  0.00     0.064 A 
ATOM     25  C   UNL     1      10.645 -52.923 -22.370  1.00  0.00     0.043 A 
BRANCH  25  26
ATOM     26  C   UNL     1      10.276 -51.497 -22.196  1.00  0.00     0.248 C 
ATOM     27  N   UNL     1      11.213 -50.561 -22.532  1.00  0.00    -0.366 N 
ATOM     28  O   UNL     1       9.169 -51.181 -21.781  1.00  0.00    -0.270 OA
ATOM     29  H   UNL     1      10.895 -49.599 -22.532  1.00  0.00     0.159 HD
ATOM     30  H   UNL     1      11.999 -50.778 -23.129  1.00  0.00     0.159 HD
ENDBRANCH  25  26
ENDBRANCH  16  17
ENDBRANCH   1  16
TORSDOF 6
ENDMDL
MODEL 9
REMARK VINA RESULT:   -10.414      3.805      8.123
REMARK INTER + INTRA:         -14.806
REMARK INTER:                 -14.372
REMARK INTRA:                  -0.434
REMARK UNBOUND:                -0.739
REMARK SMILES NC(=O)c1ccc2c(CC[C@H]3CC[N@@H+](Cc4ccccc4)CC3)noc2c1
REMARK SMILES IDX 10 1 11 2 13 3 14 4 12 5 22 6 23 7 15 9 16 10 17 11 21 12
REMARK SMILES IDX 18 13 20 14 19 15 9 16 8 17 7 18 24 19 6 20 26 21 25 22 5 23
REMARK SMILES IDX 27 24 4 25 2 26 1 27 3 28
REMARK H PARENT 14 8 1 29 1 30
ROOT
ATOM      1  C   UNL     1      10.919 -55.863 -21.942  1.00  0.00     0.010 C 
ENDROOT
BRANCH   1   2
ATOM      2  C   UNL     1      10.621 -56.547 -23.301  1.00  0.00     0.000 C 
ATOM      3  C   UNL     1       9.397 -58.635 -22.523  1.00  0.00     0.262 C 
ATOM      4  N   UNL     1      10.561 -59.479 -22.988  1.00  0.00    -0.331 N 
ATOM      5  C   UNL     1       9.332 -57.376 -23.376  1.00  0.00     0.065 C 
ATOM      6  C   UNL     1      11.876 -58.747 -22.913  1.00  0.00     0.262 C 
ATOM      7  C   UNL     1      11.800 -57.450 -23.719  1.00  0.00     0.065 C 
ATOM      8  H   UNL     1      10.392 -59.677 -23.983  1.00  0.00     0.348 HD
BRANCH   4   9
ATOM      9  C   UNL     1      10.595 -60.847 -22.327  1.00  0.00     0.299 C 
BRANCH   9  10
ATOM     10  C   UNL     1       9.687 -61.891 -22.926  1.00  0.00     0.006 A 
ATOM     11  C   UNL     1       9.278 -61.804 -24.266  1.00  0.00     0.009 A 
ATOM     12  C   UNL     1       9.234 -62.973 -22.153  1.00  0.00     0.009 A 
ATOM     13  C   UNL     1       8.456 -62.785 -24.823  1.00  0.00     0.001 A 
ATOM     14  C   UNL     1       8.407 -63.947 -22.711  1.00  0.00     0.001 A 
ATOM     15  C   UNL     1       8.024 -63.857 -24.047  1.00  0.00     0.000 A 
ENDBRANCH   9  10
ENDBRANCH   4   9
ENDBRANCH   1   2
BRANCH   1  16
ATOM     16  C   UNL     1      10.122 -54.586 -21.624  1.00  0.00     0.061 C 
BRANCH  16  17
ATOM     17  C   UNL     1      10.842 -53.348 -22.052  1.00  0.00     0.091 A 
ATOM     18  C   UNL     1      11.595 -53.134 -23.238  1.00  0.00     0.045 A 
ATOM     19  N   UNL     1      10.895 -52.282 -21.240  1.00  0.00    -0.084 NA
ATOM     20  C   UNL     1      11.925 -53.857 -24.397  1.00  0.00     0.015 A 
ATOM     21  C   UNL     1      12.128 -51.868 -23.065  1.00  0.00     0.167 A 
ATOM     22  O   UNL     1      11.696 -51.356 -21.883  1.00  0.00    -0.356 OA
ATOM     23  C   UNL     1      12.800 -53.268 -25.324  1.00  0.00     0.015 A 
ATOM     24  C   UNL     1      12.990 -51.247 -23.960  1.00  0.00     0.064 A 
ATOM     25  C   UNL     1      13.328 -51.985 -25.103  1.00  0.00     0.043 A 
BRANCH  25  26
ATOM     26  C   UNL     1      14.321 -51.391 -26.030  1.00  0.00     0.248 C 
ATOM     27  N   UNL     1      15.642 -51.601 -25.753  1.00  0.00    -0.366 N 
ATOM     28  O   UNL     1      13.961 -50.753 -27.010  1.00  0.00    -0.270 OA
ATOM     29  H   UNL     1      16.295 -51.302 -26.468  1.00  0.00     0.159 HD
ATOM     30  H   UNL     1      15.951 -52.340 -25.137  1.00  0.00     0.159 HD
ENDBRANCH  25  26
ENDBRANCH  16  17
ENDBRANCH   1  16
TORSDOF 6
ENDMDL
