MODEL 1
REMARK VINA RESULT:   -11.270      0.000      0.000
REMARK INTER + INTRA:         -14.717
REMARK INTER:                 -14.564
REMARK INTRA:                  -0.153
REMARK UNBOUND:                -0.153
REMARK SMILES O=C(C[NH2+]Cc1cc(F)cc(F)c1)Nc1ccc2nc3n(c(=O)c2c1)CCC3
REMARK SMILES IDX 3 1 4 2 5 5 6 6 7 7 13 8 8 9 11 10 10 11 9 12 12 13 2 14
REMARK SMILES IDX 14 15 1 16 15 18 16 19 25 20 17 21 24 22 18 23 22 24 19 25
REMARK SMILES IDX 21 26 20 27 26 28 28 29 27 30 23 31
REMARK H PARENT 4 3 4 4 14 17
ROOT
ATOM      1  C   UNL     1      10.027 -52.485 -22.106  1.00  0.00     0.362 C 
ENDROOT
BRANCH   1   2
ATOM      2  N   UNL     1      11.297 -51.770 -21.699  1.00  0.00    -0.335 N 
ATOM      3  H   UNL     1      11.234 -51.537 -20.699  1.00  0.00     0.347 HD
ATOM      4  H   UNL     1      12.044 -52.487 -21.722  1.00  0.00     0.347 HD
BRANCH   2   5
ATOM      5  C   UNL     1      11.691 -50.588 -22.497  1.00  0.00     0.297 C 
BRANCH   5   6
ATOM      6  C   UNL     1      12.424 -50.953 -23.756  1.00  0.00     0.012 A 
ATOM      7  C   UNL     1      12.958 -49.958 -24.590  1.00  0.00     0.049 A 
ATOM      8  C   UNL     1      12.568 -52.295 -24.142  1.00  0.00     0.049 A 
ATOM      9  C   UNL     1      13.611 -50.309 -25.772  1.00  0.00     0.126 A 
ATOM     10  C   UNL     1      13.225 -52.618 -25.329  1.00  0.00     0.126 A 
ATOM     11  C   UNL     1      13.749 -51.635 -26.154  1.00  0.00     0.078 A 
ATOM     12  F   UNL     1      14.105 -49.341 -26.553  1.00  0.00    -0.207 F 
ATOM     13  F   UNL     1      13.337 -53.905 -25.678  1.00  0.00    -0.207 F 
ENDBRANCH   5   6
ENDBRANCH   2   5
ENDBRANCH   1   2
BRANCH   1  14
ATOM     14  C   UNL     1      10.145 -53.961 -21.727  1.00  0.00     0.279 C 
ATOM     15  N   UNL     1      10.032 -54.841 -22.782  1.00  0.00    -0.321 N 
ATOM     16  O   UNL     1      10.328 -54.223 -20.540  1.00  0.00    -0.268 OA
ATOM     17  H   UNL     1       9.893 -54.470 -23.716  1.00  0.00     0.170 HD
BRANCH  15  18
ATOM     18  C   UNL     1      10.094 -56.253 -22.714  1.00  0.00     0.042 A 
ATOM     19  C   UNL     1      11.232 -56.813 -22.115  1.00  0.00     0.028 A 
ATOM     20  C   UNL     1       9.106 -57.105 -23.206  1.00  0.00     0.042 A 
ATOM     21  C   UNL     1      11.378 -58.201 -22.008  1.00  0.00     0.031 A 
ATOM     22  C   UNL     1       9.261 -58.496 -23.094  1.00  0.00     0.068 A 
ATOM     23  C   UNL     1      10.394 -59.060 -22.496  1.00  0.00     0.078 A 
ATOM     24  C   UNL     1       8.219 -59.412 -23.614  1.00  0.00     0.261 A 
ATOM     25  N   UNL     1      10.589 -60.447 -22.373  1.00  0.00    -0.234 NA
ATOM     26  N   UNL     1       8.477 -60.741 -23.395  1.00  0.00    -0.296 N 
ATOM     27  C   UNL     1       9.642 -61.200 -22.815  1.00  0.00     0.112 A 
ATOM     28  C   UNL     1       7.646 -61.830 -23.840  1.00  0.00     0.128 C 
ATOM     29  C   UNL     1       9.639 -62.699 -22.809  1.00  0.00     0.077 C 
ATOM     30  C   UNL     1       8.163 -63.017 -23.046  1.00  0.00     0.030 C 
ATOM     31  O   UNL     1       7.230 -58.980 -24.193  1.00  0.00    -0.269 OA
ENDBRANCH  15  18
ENDBRANCH   1  14
TORSDOF 5
ENDMDL
MODEL 2
REMARK VINA RESULT:   -11.110      3.965      9.786
REMARK INTER + INTRA:         -14.510
REMARK INTER:                 -14.234
REMARK INTRA:                  -0.276
REMARK UNBOUND:                -0.153
REMARK SMILES O=C(C[NH2+]Cc1cc(F)cc(F)c1)Nc1ccc2nc3n(c(=O)c2c1)CCC3
REMARK SMILES IDX 3 1 4 2 5 5 6 6 7 7 13 8 8 9 11 10 10 11 9 12 12 13 2 14
REMARK SMILES IDX 14 15 1 16 15 18 16 19 25 20 17 21 24 22 18 23 22 24 19 25
REMARK SMILES IDX 21 26 20 27 26 28 28 29 27 30 23 31
REMARK H PARENT 4 3 4 4 14 17
ROOT
ATOM      1  C   UNL     1      10.197 -58.823 -23.320  1.00  0.00     0.362 C 
ENDROOT
BRANCH   1   2
ATOM      2  N   UNL     1      10.892 -59.053 -24.644  1.00  0.00    -0.335 N 
ATOM      3  H   UNL     1      10.266 -58.746 -25.399  1.00  0.00     0.347 HD
ATOM      4  H   UNL     1      11.660 -58.358 -24.684  1.00  0.00     0.347 HD
BRANCH   2   5
ATOM      5  C   UNL     1      11.413 -60.413 -24.906  1.00  0.00     0.297 C 
BRANCH   5   6
ATOM      6  C   UNL     1      10.402 -61.488 -24.628  1.00  0.00     0.012 A 
ATOM      7  C   UNL     1       9.368 -61.755 -25.540  1.00  0.00     0.049 A 
ATOM      8  C   UNL     1      10.449 -62.230 -23.438  1.00  0.00     0.049 A 
ATOM      9  C   UNL     1       8.417 -62.735 -25.257  1.00  0.00     0.126 A 
ATOM     10  C   UNL     1       9.484 -63.205 -23.180  1.00  0.00     0.126 A 
ATOM     11  C   UNL     1       8.463 -63.465 -24.080  1.00  0.00     0.078 A 
ATOM     12  F   UNL     1       7.439 -62.965 -26.140  1.00  0.00    -0.207 F 
ATOM     13  F   UNL     1       9.547 -63.889 -22.032  1.00  0.00    -0.207 F 
ENDBRANCH   5   6
ENDBRANCH   2   5
ENDBRANCH   1   2
BRANCH   1  14
ATOM     14  C   UNL     1      10.667 -57.491 -22.737  1.00  0.00     0.279 C 
ATOM     15  N   UNL     1      10.264 -56.376 -23.439  1.00  0.00    -0.321 N 
ATOM     16  O   UNL     1      11.347 -57.535 -21.713  1.00  0.00    -0.268 OA
ATOM     17  H   UNL     1       9.689 -56.501 -24.266  1.00  0.00     0.170 HD
BRANCH  15  18
ATOM     18  C   UNL     1      10.562 -55.028 -23.128  1.00  0.00     0.042 A 
ATOM     19  C   UNL     1       9.967 -54.494 -21.975  1.00  0.00     0.028 A 
ATOM     20  C   UNL     1      11.396 -54.214 -23.893  1.00  0.00     0.042 A 
ATOM     21  C   UNL     1      10.204 -53.167 -21.595  1.00  0.00     0.031 A 
ATOM     22  C   UNL     1      11.628 -52.886 -23.503  1.00  0.00     0.068 A 
ATOM     23  C   UNL     1      11.038 -52.347 -22.353  1.00  0.00     0.078 A 
ATOM     24  C   UNL     1      12.510 -52.009 -24.308  1.00  0.00     0.261 A 
ATOM     25  N   UNL     1      11.239 -51.020 -21.935  1.00  0.00    -0.234 NA
ATOM     26  N   UNL     1      12.687 -50.753 -23.786  1.00  0.00    -0.296 N 
ATOM     27  C   UNL     1      12.037 -50.308 -22.653  1.00  0.00     0.112 A 
ATOM     28  C   UNL     1      13.458 -49.703 -24.398  1.00  0.00     0.128 C 
ATOM     29  C   UNL     1      12.384 -48.870 -22.413  1.00  0.00     0.077 C 
ATOM     30  C   UNL     1      13.632 -48.692 -23.276  1.00  0.00     0.030 C 
ATOM     31  O   UNL     1      13.014 -52.407 -25.352  1.00  0.00    -0.269 OA
ENDBRANCH  15  18
ENDBRANCH   1  14
TORSDOF 5
ENDMDL
MODEL 3
REMARK VINA RESULT:   -11.059      3.411      9.766
REMARK INTER + INTRA:         -14.445
REMARK INTER:                 -13.994
REMARK INTRA:                  -0.451
REMARK UNBOUND:                -0.153
REMARK SMILES O=C(C[NH2+]Cc1cc(F)cc(F)c1)Nc1ccc2nc3n(c(=O)c2c1)CCC3
REMARK SMILES IDX 3 1 4 2 5 5 6 6 7 7 13 8 8 9 11 10 10 11 9 12 12 13 2 14
REMARK SMILES IDX 14 15 1 16 15 18 16 19 25 20 17 21 24 22 18 23 22 24 19 25
REMARK SMILES IDX 21 26 20 27 26 28 28 29 27 30 23 31
REMARK H PARENT 4 3 4 4 14 17
ROOT
ATOM      1  C   UNL     1      10.077 -56.494 -22.580  1.00  0.00     0.362 C 
ENDROOT
BRANCH   1   2
ATOM      2  N   UNL     1      11.393 -56.983 -22.016  1.00  0.00    -0.335 N 
ATOM      3  H   UNL     1      12.057 -57.102 -22.792  1.00  0.00     0.347 HD
ATOM      4  H   UNL     1      11.790 -56.182 -21.492  1.00  0.00     0.347 HD
BRANCH   2   5
ATOM      5  C   UNL     1      11.353 -58.190 -21.160  1.00  0.00     0.297 C 
BRANCH   5   6
ATOM      6  C   UNL     1      11.235 -59.461 -21.952  1.00  0.00     0.012 A 
ATOM      7  C   UNL     1      12.026 -59.673 -23.092  1.00  0.00     0.049 A 
ATOM      8  C   UNL     1      10.312 -60.453 -21.587  1.00  0.00     0.049 A 
ATOM      9  C   UNL     1      11.887 -60.844 -23.837  1.00  0.00     0.126 A 
ATOM     10  C   UNL     1      10.193 -61.616 -22.350  1.00  0.00     0.126 A 
ATOM     11  C   UNL     1      10.972 -61.822 -23.477  1.00  0.00     0.078 A 
ATOM     12  F   UNL     1      12.648 -61.018 -24.923  1.00  0.00    -0.207 F 
ATOM     13  F   UNL     1       9.296 -62.540 -21.985  1.00  0.00    -0.207 F 
ENDBRANCH   5   6
ENDBRANCH   2   5
ENDBRANCH   1   2
BRANCH   1  14
ATOM     14  C   UNL     1      10.281 -55.104 -23.182  1.00  0.00     0.279 C 
ATOM     15  N   UNL     1      11.117 -54.277 -22.462  1.00  0.00    -0.321 N 
ATOM     16  O   UNL     1       9.693 -54.855 -24.233  1.00  0.00    -0.268 OA
ATOM     17  H   UNL     1      11.541 -54.632 -21.611  1.00  0.00     0.170 HD
BRANCH  15  18
ATOM     18  C   UNL     1      11.470 -52.945 -22.783  1.00  0.00     0.042 A 
ATOM     19  C   UNL     1      11.015 -51.939 -21.918  1.00  0.00     0.028 A 
ATOM     20  C   UNL     1      12.230 -52.583 -23.895  1.00  0.00     0.042 A 
ATOM     21  C   UNL     1      11.316 -50.593 -22.162  1.00  0.00     0.031 A 
ATOM     22  C   UNL     1      12.526 -51.232 -24.131  1.00  0.00     0.068 A 
ATOM     23  C   UNL     1      12.075 -50.223 -23.270  1.00  0.00     0.078 A 
ATOM     24  C   UNL     1      13.330 -50.833 -25.309  1.00  0.00     0.261 A 
ATOM     25  N   UNL     1      12.345 -48.859 -23.477  1.00  0.00    -0.234 NA
ATOM     26  N   UNL     1      13.585 -49.488 -25.390  1.00  0.00    -0.296 N 
ATOM     27  C   UNL     1      13.072 -48.567 -24.500  1.00  0.00     0.112 A 
ATOM     28  C   UNL     1      14.304 -48.844 -26.458  1.00  0.00     0.128 C 
ATOM     29  C   UNL     1      13.469 -47.186 -24.928  1.00  0.00     0.077 C 
ATOM     30  C   UNL     1      14.617 -47.468 -25.895  1.00  0.00     0.030 C 
ATOM     31  O   UNL     1      13.710 -51.664 -26.126  1.00  0.00    -0.269 OA
ENDBRANCH  15  18
ENDBRANCH   1  14
TORSDOF 5
ENDMDL
MODEL 4
REMARK VINA RESULT:   -11.014      1.912      2.515
REMARK INTER + INTRA:         -14.386
REMARK INTER:                 -13.985
REMARK INTRA:                  -0.401
REMARK UNBOUND:                -0.153
REMARK SMILES O=C(C[NH2+]Cc1cc(F)cc(F)c1)Nc1ccc2nc3n(c(=O)c2c1)CCC3
REMARK SMILES IDX 3 1 4 2 5 5 6 6 7 7 13 8 8 9 11 10 10 11 9 12 12 13 2 14
REMARK SMILES IDX 14 15 1 16 15 18 16 19 25 20 17 21 24 22 18 23 22 24 19 25
REMARK SMILES IDX 21 26 20 27 26 28 28 29 27 30 23 31
REMARK H PARENT 4 3 4 4 14 17
ROOT
ATOM      1  C   UNL     1      11.053 -53.221 -23.076  1.00  0.00     0.362 C 
ENDROOT
BRANCH   1   2
ATOM      2  N   UNL     1      12.133 -52.554 -23.900  1.00  0.00    -0.335 N 
ATOM      3  H   UNL     1      12.705 -53.286 -24.343  1.00  0.00     0.347 HD
ATOM      4  H   UNL     1      11.646 -52.122 -24.706  1.00  0.00     0.347 HD
BRANCH   2   5
ATOM      5  C   UNL     1      12.984 -51.556 -23.215  1.00  0.00     0.297 C 
BRANCH   5   6
ATOM      6  C   UNL     1      12.588 -50.141 -23.527  1.00  0.00     0.012 A 
ATOM      7  C   UNL     1      13.249 -49.415 -24.530  1.00  0.00     0.049 A 
ATOM      8  C   UNL     1      11.568 -49.504 -22.805  1.00  0.00     0.049 A 
ATOM      9  C   UNL     1      12.892 -48.091 -24.791  1.00  0.00     0.126 A 
ATOM     10  C   UNL     1      11.231 -48.179 -23.085  1.00  0.00     0.126 A 
ATOM     11  C   UNL     1      11.886 -47.462 -24.074  1.00  0.00     0.078 A 
ATOM     12  F   UNL     1      13.543 -47.420 -25.747  1.00  0.00    -0.207 F 
ATOM     13  F   UNL     1      10.262 -47.593 -22.373  1.00  0.00    -0.207 F 
ENDBRANCH   5   6
ENDBRANCH   2   5
ENDBRANCH   1   2
BRANCH   1  14
ATOM     14  C   UNL     1      11.055 -54.720 -23.376  1.00  0.00     0.279 C 
ATOM     15  N   UNL     1      10.493 -55.508 -22.395  1.00  0.00    -0.321 N 
ATOM     16  O   UNL     1      11.546 -55.079 -24.445  1.00  0.00    -0.268 OA
ATOM     17  H   UNL     1      10.114 -55.061 -21.566  1.00  0.00     0.170 HD
BRANCH  15  18
ATOM     18  C   UNL     1      10.371 -56.918 -22.410  1.00  0.00     0.042 A 
ATOM     19  C   UNL     1      11.380 -57.651 -21.767  1.00  0.00     0.028 A 
ATOM     20  C   UNL     1       9.324 -57.607 -23.020  1.00  0.00     0.042 A 
ATOM     21  C   UNL     1      11.340 -59.050 -21.736  1.00  0.00     0.031 A 
ATOM     22  C   UNL     1       9.293 -59.010 -22.983  1.00  0.00     0.068 A 
ATOM     23  C   UNL     1      10.297 -59.747 -22.343  1.00  0.00     0.078 A 
ATOM     24  C   UNL     1       8.188 -59.755 -23.629  1.00  0.00     0.261 A 
ATOM     25  N   UNL     1      10.305 -61.152 -22.291  1.00  0.00    -0.234 NA
ATOM     26  N   UNL     1       8.257 -61.116 -23.474  1.00  0.00    -0.296 N 
ATOM     27  C   UNL     1       9.307 -61.751 -22.843  1.00  0.00     0.112 A 
ATOM     28  C   UNL     1       7.333 -62.063 -24.041  1.00  0.00     0.128 C 
ATOM     29  C   UNL     1       9.114 -63.235 -22.928  1.00  0.00     0.077 C 
ATOM     30  C   UNL     1       7.633 -63.347 -23.286  1.00  0.00     0.030 C 
ATOM     31  O   UNL     1       7.308 -59.169 -24.248  1.00  0.00    -0.269 OA
ENDBRANCH  15  18
ENDBRANCH   1  14
TORSDOF 5
ENDMDL
MODEL 5
REMARK VINA RESULT:   -10.852      3.889      9.871
REMARK INTER + INTRA:         -14.177
REMARK INTER:                 -13.933
REMARK INTRA:                  -0.244
REMARK UNBOUND:                -0.153
REMARK SMILES O=C(C[NH2+]Cc1cc(F)cc(F)c1)Nc1ccc2nc3n(c(=O)c2c1)CCC3
REMARK SMILES IDX 3 1 4 2 5 5 6 6 7 7 13 8 8 9 11 10 10 11 9 12 12 13 2 14
REMARK SMILES IDX 14 15 1 16 15 18 16 19 25 20 17 21 24 22 18 23 22 24 19 25
REMARK SMILES IDX 21 26 20 27 26 28 28 29 27 30 23 31
REMARK H PARENT 4 3 4 4 14 17
ROOT
ATOM      1  C   UNL     1      10.384 -57.815 -22.651  1.00  0.00     0.362 C 
ENDROOT
BRANCH   1   2
ATOM      2  N   UNL     1      10.440 -58.366 -24.059  1.00  0.00    -0.335 N 
ATOM      3  H   UNL     1       9.478 -58.505 -24.394  1.00  0.00     0.347 HD
ATOM      4  H   UNL     1      10.781 -57.589 -24.653  1.00  0.00     0.347 HD
BRANCH   2   5
ATOM      5  C   UNL     1      11.260 -59.579 -24.276  1.00  0.00     0.297 C 
BRANCH   5   6
ATOM      6  C   UNL     1      10.454 -60.845 -24.216  1.00  0.00     0.012 A 
ATOM      7  C   UNL     1       9.497 -61.134 -25.202  1.00  0.00     0.049 A 
ATOM      8  C   UNL     1      10.618 -61.753 -23.160  1.00  0.00     0.049 A 
ATOM      9  C   UNL     1       8.733 -62.299 -25.119  1.00  0.00     0.126 A 
ATOM     10  C   UNL     1       9.841 -62.911 -23.101  1.00  0.00     0.126 A 
ATOM     11  C   UNL     1       8.894 -63.193 -24.073  1.00  0.00     0.078 A 
ATOM     12  F   UNL     1       7.823 -62.547 -26.068  1.00  0.00    -0.207 F 
ATOM     13  F   UNL     1      10.010 -63.753 -22.075  1.00  0.00    -0.207 F 
ENDBRANCH   5   6
ENDBRANCH   2   5
ENDBRANCH   1   2
BRANCH   1  14
ATOM     14  C   UNL     1      10.976 -56.406 -22.645  1.00  0.00     0.279 C 
ATOM     15  N   UNL     1      11.124 -55.834 -23.889  1.00  0.00    -0.321 N 
ATOM     16  O   UNL     1      11.259 -55.921 -21.551  1.00  0.00    -0.268 OA
ATOM     17  H   UNL     1      10.831 -56.359 -24.707  1.00  0.00     0.170 HD
BRANCH  15  18
ATOM     18  C   UNL     1      11.651 -54.551 -24.173  1.00  0.00     0.042 A 
ATOM     19  C   UNL     1      12.451 -54.430 -25.319  1.00  0.00     0.028 A 
ATOM     20  C   UNL     1      11.426 -53.421 -23.388  1.00  0.00     0.042 A 
ATOM     21  C   UNL     1      13.015 -53.199 -25.673  1.00  0.00     0.031 A 
ATOM     22  C   UNL     1      11.996 -52.191 -23.751  1.00  0.00     0.068 A 
ATOM     23  C   UNL     1      12.795 -52.064 -24.894  1.00  0.00     0.078 A 
ATOM     24  C   UNL     1      11.767 -50.984 -22.925  1.00  0.00     0.261 A 
ATOM     25  N   UNL     1      13.389 -50.852 -25.286  1.00  0.00    -0.234 NA
ATOM     26  N   UNL     1      12.341 -49.842 -23.422  1.00  0.00    -0.296 N 
ATOM     27  C   UNL     1      13.136 -49.825 -24.550  1.00  0.00     0.112 A 
ATOM     28  C   UNL     1      12.304 -48.551 -22.786  1.00  0.00     0.128 C 
ATOM     29  C   UNL     1      13.673 -48.442 -24.761  1.00  0.00     0.077 C 
ATOM     30  C   UNL     1      12.744 -47.601 -23.887  1.00  0.00     0.030 C 
ATOM     31  O   UNL     1      11.120 -51.042 -21.886  1.00  0.00    -0.269 OA
ENDBRANCH  15  18
ENDBRANCH   1  14
TORSDOF 5
ENDMDL
MODEL 6
REMARK VINA RESULT:   -10.778      3.513     10.169
REMARK INTER + INTRA:         -14.082
REMARK INTER:                 -13.792
REMARK INTRA:                  -0.289
REMARK UNBOUND:                -0.153
REMARK SMILES O=C(C[NH2+]Cc1cc(F)cc(F)c1)Nc1ccc2nc3n(c(=O)c2c1)CCC3
REMARK SMILES IDX 3 1 4 2 5 5 6 6 7 7 13 8 8 9 11 10 10 11 9 12 12 13 2 14
REMARK SMILES IDX 14 15 1 16 15 18 16 19 25 20 17 21 24 22 18 23 22 24 19 25
REMARK SMILES IDX 21 26 20 27 26 28 28 29 27 30 23 31
REMARK H PARENT 4 3 4 4 14 17
ROOT
ATOM      1  C   UNL     1      10.234 -56.005 -22.364  1.00  0.00     0.362 C 
ENDROOT
BRANCH   1   2
ATOM      2  N   UNL     1      11.428 -56.924 -22.231  1.00  0.00    -0.335 N 
ATOM      3  H   UNL     1      11.713 -57.228 -23.171  1.00  0.00     0.347 HD
ATOM      4  H   UNL     1      12.217 -56.321 -21.934  1.00  0.00     0.347 HD
BRANCH   2   5
ATOM      5  C   UNL     1      11.291 -58.081 -21.318  1.00  0.00     0.297 C 
BRANCH   5   6
ATOM      6  C   UNL     1      11.153 -59.386 -22.048  1.00  0.00     0.012 A 
ATOM      7  C   UNL     1      10.288 -60.386 -21.576  1.00  0.00     0.049 A 
ATOM      8  C   UNL     1      11.905 -59.647 -23.204  1.00  0.00     0.049 A 
ATOM      9  C   UNL     1      10.191 -61.605 -22.246  1.00  0.00     0.126 A 
ATOM     10  C   UNL     1      11.789 -60.876 -23.855  1.00  0.00     0.126 A 
ATOM     11  C   UNL     1      10.938 -61.863 -23.385  1.00  0.00     0.078 A 
ATOM     12  F   UNL     1       9.364 -62.543 -21.771  1.00  0.00    -0.207 F 
ATOM     13  F   UNL     1      12.528 -61.102 -24.948  1.00  0.00    -0.207 F 
ENDBRANCH   5   6
ENDBRANCH   2   5
ENDBRANCH   1   2
BRANCH   1  14
ATOM     14  C   UNL     1      10.655 -54.750 -23.128  1.00  0.00     0.279 C 
ATOM     15  N   UNL     1      11.042 -53.692 -22.336  1.00  0.00    -0.321 N 
ATOM     16  O   UNL     1      10.613 -54.800 -24.356  1.00  0.00    -0.268 OA
ATOM     17  H   UNL     1      11.036 -53.808 -21.327  1.00  0.00     0.170 HD
BRANCH  15  18
ATOM     18  C   UNL     1      11.469 -52.417 -22.777  1.00  0.00     0.042 A 
ATOM     19  C   UNL     1      12.646 -52.368 -23.540  1.00  0.00     0.028 A 
ATOM     20  C   UNL     1      10.800 -51.226 -22.498  1.00  0.00     0.042 A 
ATOM     21  C   UNL     1      13.143 -51.149 -24.016  1.00  0.00     0.031 A 
ATOM     22  C   UNL     1      11.306 -50.009 -22.980  1.00  0.00     0.068 A 
ATOM     23  C   UNL     1      12.479 -49.954 -23.742  1.00  0.00     0.078 A 
ATOM     24  C   UNL     1      10.605 -48.737 -22.689  1.00  0.00     0.261 A 
ATOM     25  N   UNL     1      13.021 -48.754 -24.235  1.00  0.00    -0.234 NA
ATOM     26  N   UNL     1      11.181 -47.631 -23.261  1.00  0.00    -0.296 N 
ATOM     27  C   UNL     1      12.359 -47.679 -23.978  1.00  0.00     0.112 A 
ATOM     28  C   UNL     1      10.721 -46.277 -23.094  1.00  0.00     0.128 C 
ATOM     29  C   UNL     1      12.753 -46.290 -24.382  1.00  0.00     0.077 C 
ATOM     30  C   UNL     1      11.448 -45.518 -24.191  1.00  0.00     0.030 C 
ATOM     31  O   UNL     1       9.603 -48.714 -21.984  1.00  0.00    -0.269 OA
ENDBRANCH  15  18
ENDBRANCH   1  14
TORSDOF 5
ENDMDL
MODEL 7
REMARK VINA RESULT:   -10.750      3.316      8.767
REMARK INTER + INTRA:         -14.046
REMARK INTER:                 -13.492
REMARK INTRA:                  -0.554
REMARK UNBOUND:                -0.153
REMARK SMILES O=C(C[NH2+]Cc1cc(F)cc(F)c1)Nc1ccc2nc3n(c(=O)c2c1)CCC3
REMARK SMILES IDX 3 1 4 2 5 5 6 6 7 7 13 8 8 9 11 10 10 11 9 12 12 13 2 14
REMARK SMILES IDX 14 15 1 16 15 18 16 19 25 20 17 21 24 22 18 23 22 24 19 25
REMARK SMILES IDX 21 26 20 27 26 28 28 29 27 30 23 31
REMARK H PARENT 4 3 4 4 14 17
ROOT
ATOM      1  C   UNL     1      10.079 -59.070 -22.448  1.00  0.00     0.362 C 
ENDROOT
BRANCH   1   2
ATOM      2  N   UNL     1      11.202 -60.079 -22.534  1.00  0.00    -0.335 N 
ATOM      3  H   UNL     1      11.736 -60.049 -21.655  1.00  0.00     0.347 HD
ATOM      4  H   UNL     1      10.750 -61.010 -22.498  1.00  0.00     0.347 HD
BRANCH   2   5
ATOM      5  C   UNL     1      12.103 -59.988 -23.706  1.00  0.00     0.297 C 
BRANCH   5   6
ATOM      6  C   UNL     1      11.411 -60.312 -24.999  1.00  0.00     0.012 A 
ATOM      7  C   UNL     1      11.702 -59.592 -26.168  1.00  0.00     0.049 A 
ATOM      8  C   UNL     1      10.438 -61.321 -25.061  1.00  0.00     0.049 A 
ATOM      9  C   UNL     1      11.031 -59.882 -27.357  1.00  0.00     0.126 A 
ATOM     10  C   UNL     1       9.781 -61.590 -26.262  1.00  0.00     0.126 A 
ATOM     11  C   UNL     1      10.068 -60.877 -27.416  1.00  0.00     0.078 A 
ATOM     12  F   UNL     1      11.322 -59.177 -28.456  1.00  0.00    -0.207 F 
ATOM     13  F   UNL     1       8.850 -62.550 -26.290  1.00  0.00    -0.207 F 
ENDBRANCH   5   6
ENDBRANCH   2   5
ENDBRANCH   1   2
BRANCH   1  14
ATOM     14  C   UNL     1      10.674 -57.683 -22.208  1.00  0.00     0.279 C 
ATOM     15  N   UNL     1      10.256 -56.711 -23.091  1.00  0.00    -0.321 N 
ATOM     16  O   UNL     1      11.456 -57.562 -21.266  1.00  0.00    -0.268 OA
ATOM     17  H   UNL     1       9.591 -56.963 -23.816  1.00  0.00     0.170 HD
BRANCH  15  18
ATOM     18  C   UNL     1      10.652 -55.353 -23.104  1.00  0.00     0.042 A 
ATOM     19  C   UNL     1      10.139 -54.530 -22.090  1.00  0.00     0.028 A 
ATOM     20  C   UNL     1      11.507 -54.795 -24.054  1.00  0.00     0.042 A 
ATOM     21  C   UNL     1      10.476 -53.173 -22.028  1.00  0.00     0.031 A 
ATOM     22  C   UNL     1      11.840 -53.433 -23.983  1.00  0.00     0.068 A 
ATOM     23  C   UNL     1      11.331 -52.608 -22.973  1.00  0.00     0.078 A 
ATOM     24  C   UNL     1      12.745 -52.828 -24.987  1.00  0.00     0.261 A 
ATOM     25  N   UNL     1      11.634 -51.238 -22.874  1.00  0.00    -0.234 NA
ATOM     26  N   UNL     1      13.023 -51.502 -24.770  1.00  0.00    -0.296 N 
ATOM     27  C   UNL     1      12.448 -50.766 -23.754  1.00  0.00     0.112 A 
ATOM     28  C   UNL     1      13.836 -50.676 -25.623  1.00  0.00     0.128 C 
ATOM     29  C   UNL     1      12.897 -49.340 -23.857  1.00  0.00     0.077 C 
ATOM     30  C   UNL     1      14.119 -49.453 -24.766  1.00  0.00     0.030 C 
ATOM     31  O   UNL     1      13.181 -53.487 -25.923  1.00  0.00    -0.269 OA
ENDBRANCH  15  18
ENDBRANCH   1  14
TORSDOF 5
ENDMDL
MODEL 8
REMARK VINA RESULT:   -10.433      4.083     10.712
REMARK INTER + INTRA:         -13.635
REMARK INTER:                 -13.479
REMARK INTRA:                  -0.156
REMARK UNBOUND:                -0.153
REMARK SMILES O=C(C[NH2+]Cc1cc(F)cc(F)c1)Nc1ccc2nc3n(c(=O)c2c1)CCC3
REMARK SMILES IDX 3 1 4 2 5 5 6 6 7 7 13 8 8 9 11 10 10 11 9 12 12 13 2 14
REMARK SMILES IDX 14 15 1 16 15 18 16 19 25 20 17 21 24 22 18 23 22 24 19 25
REMARK SMILES IDX 21 26 20 27 26 28 28 29 27 30 23 31
REMARK H PARENT 4 3 4 4 14 17
ROOT
ATOM      1  C   UNL     1      10.301 -53.466 -21.719  1.00  0.00     0.362 C 
ENDROOT
BRANCH   1   2
ATOM      2  N   UNL     1      11.371 -54.210 -22.487  1.00  0.00    -0.335 N 
ATOM      3  H   UNL     1      11.970 -53.523 -22.962  1.00  0.00     0.347 HD
ATOM      4  H   UNL     1      12.003 -54.613 -21.773  1.00  0.00     0.347 HD
BRANCH   2   5
ATOM      5  C   UNL     1      10.919 -55.261 -23.427  1.00  0.00     0.297 C 
BRANCH   5   6
ATOM      6  C   UNL     1      11.250 -56.647 -22.954  1.00  0.00     0.012 A 
ATOM      7  C   UNL     1      11.691 -57.628 -23.857  1.00  0.00     0.049 A 
ATOM      8  C   UNL     1      11.101 -57.002 -21.605  1.00  0.00     0.049 A 
ATOM      9  C   UNL     1      11.967 -58.920 -23.410  1.00  0.00     0.126 A 
ATOM     10  C   UNL     1      11.383 -58.302 -21.185  1.00  0.00     0.126 A 
ATOM     11  C   UNL     1      11.815 -59.270 -22.078  1.00  0.00     0.078 A 
ATOM     12  F   UNL     1      12.378 -59.838 -24.293  1.00  0.00    -0.207 F 
ATOM     13  F   UNL     1      11.220 -58.615 -19.894  1.00  0.00    -0.207 F 
ENDBRANCH   5   6
ENDBRANCH   2   5
ENDBRANCH   1   2
BRANCH   1  14
ATOM     14  C   UNL     1      10.286 -52.007 -22.175  1.00  0.00     0.279 C 
ATOM     15  N   UNL     1      11.483 -51.545 -22.678  1.00  0.00    -0.321 N 
ATOM     16  O   UNL     1       9.228 -51.392 -22.056  1.00  0.00    -0.268 OA
ATOM     17  H   UNL     1      12.272 -52.181 -22.725  1.00  0.00     0.170 HD
BRANCH  15  18
ATOM     18  C   UNL     1      11.750 -50.242 -23.161  1.00  0.00     0.042 A 
ATOM     19  C   UNL     1      12.703 -50.124 -24.184  1.00  0.00     0.028 A 
ATOM     20  C   UNL     1      11.133 -49.087 -22.681  1.00  0.00     0.042 A 
ATOM     21  C   UNL     1      13.031 -48.872 -24.719  1.00  0.00     0.031 A 
ATOM     22  C   UNL     1      11.468 -47.837 -23.224  1.00  0.00     0.068 A 
ATOM     23  C   UNL     1      12.418 -47.713 -24.246  1.00  0.00     0.078 A 
ATOM     24  C   UNL     1      10.821 -46.602 -22.723  1.00  0.00     0.261 A 
ATOM     25  N   UNL     1      12.786 -46.479 -24.808  1.00  0.00    -0.234 NA
ATOM     26  N   UNL     1      11.206 -45.458 -23.374  1.00  0.00    -0.296 N 
ATOM     27  C   UNL     1      12.174 -45.438 -24.358  1.00  0.00     0.112 A 
ATOM     28  C   UNL     1      10.760 -44.129 -23.048  1.00  0.00     0.128 C 
ATOM     29  C   UNL     1      12.415 -44.024 -24.791  1.00  0.00     0.077 C 
ATOM     30  C   UNL     1      11.173 -43.310 -24.259  1.00  0.00     0.030 C 
ATOM     31  O   UNL     1      10.021 -46.640 -21.795  1.00  0.00    -0.269 OA
ENDBRANCH  15  18
ENDBRANCH   1  14
TORSDOF 5
ENDMDL
MODEL 9
REMARK VINA RESULT:    -9.825      1.741      2.019
REMARK INTER + INTRA:         -12.850
REMARK INTER:                 -12.282
REMARK INTRA:                  -0.568
REMARK UNBOUND:                -0.153
REMARK SMILES O=C(C[NH2+]Cc1cc(F)cc(F)c1)Nc1ccc2nc3n(c(=O)c2c1)CCC3
REMARK SMILES IDX 3 1 4 2 5 5 6 6 7 7 13 8 8 9 11 10 10 11 9 12 12 13 2 14
REMARK SMILES IDX 14 15 1 16 15 18 16 19 25 20 17 21 24 22 18 23 22 24 19 25
REMARK SMILES IDX 21 26 20 27 26 28 28 29 27 30 23 31
REMARK H PARENT 4 3 4 4 14 17
ROOT
ATOM      1  C   UNL     1      11.066 -53.443 -21.896  1.00  0.00     0.362 C 
ENDROOT
BRANCH   1   2
ATOM      2  N   UNL     1      10.400 -52.194 -22.430  1.00  0.00    -0.335 N 
ATOM      3  H   UNL     1       9.938 -52.425 -23.320  1.00  0.00     0.347 HD
ATOM      4  H   UNL     1       9.601 -52.007 -21.798  1.00  0.00     0.347 HD
BRANCH   2   5
ATOM      5  C   UNL     1      11.244 -50.986 -22.568  1.00  0.00     0.297 C 
BRANCH   5   6
ATOM      6  C   UNL     1      12.520 -51.249 -23.314  1.00  0.00     0.012 A 
ATOM      7  C   UNL     1      12.497 -51.805 -24.603  1.00  0.00     0.049 A 
ATOM      8  C   UNL     1      13.765 -50.971 -22.730  1.00  0.00     0.049 A 
ATOM      9  C   UNL     1      13.690 -52.072 -25.274  1.00  0.00     0.126 A 
ATOM     10  C   UNL     1      14.944 -51.249 -23.423  1.00  0.00     0.126 A 
ATOM     11  C   UNL     1      14.920 -51.801 -24.694  1.00  0.00     0.078 A 
ATOM     12  F   UNL     1      13.640 -52.609 -26.499  1.00  0.00    -0.207 F 
ATOM     13  F   UNL     1      16.117 -50.985 -22.837  1.00  0.00    -0.207 F 
ENDBRANCH   5   6
ENDBRANCH   2   5
ENDBRANCH   1   2
BRANCH   1  14
ATOM     14  C   UNL     1      10.659 -54.633 -22.764  1.00  0.00     0.279 C 
ATOM     15  N   UNL     1      10.967 -55.868 -22.236  1.00  0.00    -0.321 N 
ATOM     16  O   UNL     1      10.103 -54.385 -23.833  1.00  0.00    -0.268 OA
ATOM     17  H   UNL     1      11.420 -55.913 -21.329  1.00  0.00     0.170 HD
BRANCH  15  18
ATOM     18  C   UNL     1      10.713 -57.128 -22.828  1.00  0.00     0.042 A 
ATOM     19  C   UNL     1      11.764 -57.719 -23.545  1.00  0.00     0.028 A 
ATOM     20  C   UNL     1       9.495 -57.801 -22.744  1.00  0.00     0.042 A 
ATOM     21  C   UNL     1      11.599 -58.964 -24.165  1.00  0.00     0.031 A 
ATOM     22  C   UNL     1       9.339 -59.048 -23.369  1.00  0.00     0.068 A 
ATOM     23  C   UNL     1      10.385 -59.643 -24.085  1.00  0.00     0.078 A 
ATOM     24  C   UNL     1       8.050 -59.773 -23.289  1.00  0.00     0.261 A 
ATOM     25  N   UNL     1      10.265 -60.886 -24.731  1.00  0.00    -0.234 NA
ATOM     26  N   UNL     1       8.052 -61.000 -23.903  1.00  0.00    -0.296 N 
ATOM     27  C   UNL     1       9.133 -61.489 -24.608  1.00  0.00     0.112 A 
ATOM     28  C   UNL     1       6.916 -61.878 -24.005  1.00  0.00     0.128 C 
ATOM     29  C   UNL     1       8.771 -62.807 -25.223  1.00  0.00     0.077 C 
ATOM     30  C   UNL     1       7.529 -63.203 -24.425  1.00  0.00     0.030 C 
ATOM     31  O   UNL     1       7.082 -59.281 -22.721  1.00  0.00    -0.269 OA
ENDBRANCH  15  18
ENDBRANCH   1  14
TORSDOF 5
ENDMDL
