MODEL 1
REMARK VINA RESULT:    -9.815      0.000      0.000
REMARK INTER + INTRA:         -10.102
REMARK INTER:                 -10.102
REMARK INTRA:                   0.000
REMARK UNBOUND:                 0.000
REMARK SMILES CC1=C[C@@H]2Cc3nc4cc(Cl)ccc4c(N)c3[C@H](C1)C2
REMARK SMILES IDX 1 1 2 2 3 3 4 4 5 5 6 6 7 7 8 8 9 9 10 10 11 11 12 12 13 13
REMARK SMILES IDX 14 14 15 15 17 16 18 17 19 18 20 19 16 20
REMARK H PARENT 16 21 16 22
ROOT
ATOM      1  C   UNL     1       8.734 -60.773 -25.348  1.00  0.00     0.039 C 
ATOM      2  C   UNL     1       9.946 -60.429 -24.535  1.00  0.00    -0.076 C 
ATOM      3  C   UNL     1      10.023 -60.682 -23.216  1.00  0.00    -0.024 C 
ATOM      4  C   UNL     1      11.246 -60.359 -22.384  1.00  0.00     0.018 C 
ATOM      5  C   UNL     1      11.059 -59.039 -21.626  1.00  0.00     0.064 C 
ATOM      6  C   UNL     1      11.257 -57.804 -22.479  1.00  0.00     0.047 A 
ATOM      7  N   UNL     1      10.906 -56.643 -21.879  1.00  0.00    -0.252 NA
ATOM      8  C   UNL     1      11.124 -55.490 -22.519  1.00  0.00     0.074 A 
ATOM      9  C   UNL     1      10.795 -54.319 -21.854  1.00  0.00     0.049 A 
ATOM     10  C   UNL     1      11.014 -53.073 -22.431  1.00  0.00     0.043 A 
ATOM     11  Cl  UNL     1      10.598 -51.642 -21.570  1.00  0.00    -0.084 Cl
ATOM     12  C   UNL     1      11.574 -52.977 -23.695  1.00  0.00     0.021 A 
ATOM     13  C   UNL     1      11.905 -54.145 -24.382  1.00  0.00     0.014 A 
ATOM     14  C   UNL     1      11.676 -55.425 -23.816  1.00  0.00     0.024 A 
ATOM     15  C   UNL     1      11.965 -56.657 -24.472  1.00  0.00     0.046 A 
ATOM     16  C   UNL     1      11.818 -57.866 -23.761  1.00  0.00     0.001 A 
ATOM     17  C   UNL     1      12.205 -59.215 -24.361  1.00  0.00     0.028 C 
ATOM     18  C   UNL     1      11.085 -59.761 -25.279  1.00  0.00     0.039 C 
ATOM     19  C   UNL     1      12.495 -60.243 -23.260  1.00  0.00     0.017 C 
ENDROOT
BRANCH  15  20
ATOM     20  N   UNL     1      12.587 -56.656 -25.745  1.00  0.00    -0.398 N 
ATOM     21  H   UNL     1      12.348 -57.451 -26.327  1.00  0.00     0.156 HD
ATOM     22  H   UNL     1      12.452 -55.792 -26.259  1.00  0.00     0.156 HD
ENDBRANCH  15  20
TORSDOF 1
ENDMDL
MODEL 2
REMARK VINA RESULT:    -9.147      1.983      3.004
REMARK INTER + INTRA:          -9.415
REMARK INTER:                  -9.415
REMARK INTRA:                   0.000
REMARK UNBOUND:                 0.000
REMARK SMILES CC1=C[C@@H]2Cc3nc4cc(Cl)ccc4c(N)c3[C@H](C1)C2
REMARK SMILES IDX 1 1 2 2 3 3 4 4 5 5 6 6 7 7 8 8 9 9 10 10 11 11 12 12 13 13
REMARK SMILES IDX 14 14 15 15 17 16 18 17 19 18 20 19 16 20
REMARK H PARENT 16 21 16 22
ROOT
ATOM      1  C   UNL     1       8.987 -62.347 -27.167  1.00  0.00     0.039 C 
ATOM      2  C   UNL     1       8.945 -62.135 -25.682  1.00  0.00    -0.076 C 
ATOM      3  C   UNL     1       7.790 -62.088 -24.995  1.00  0.00    -0.024 C 
ATOM      4  C   UNL     1       7.731 -61.894 -23.495  1.00  0.00     0.018 C 
ATOM      5  C   UNL     1       7.436 -60.431 -23.144  1.00  0.00     0.064 C 
ATOM      6  C   UNL     1       8.635 -59.515 -23.259  1.00  0.00     0.047 A 
ATOM      7  N   UNL     1       8.351 -58.197 -23.144  1.00  0.00    -0.252 NA
ATOM      8  C   UNL     1       9.353 -57.314 -23.148  1.00  0.00     0.074 A 
ATOM      9  C   UNL     1       9.027 -55.977 -22.979  1.00  0.00     0.049 A 
ATOM     10  C   UNL     1      10.008 -54.991 -22.941  1.00  0.00     0.043 A 
ATOM     11  Cl  UNL     1       9.562 -53.343 -22.725  1.00  0.00    -0.084 Cl
ATOM     12  C   UNL     1      11.345 -55.332 -23.068  1.00  0.00     0.021 A 
ATOM     13  C   UNL     1      11.692 -56.671 -23.244  1.00  0.00     0.014 A 
ATOM     14  C   UNL     1      10.706 -57.689 -23.301  1.00  0.00     0.024 A 
ATOM     15  C   UNL     1      10.987 -59.070 -23.505  1.00  0.00     0.046 A 
ATOM     16  C   UNL     1       9.938 -60.008 -23.411  1.00  0.00     0.001 A 
ATOM     17  C   UNL     1      10.178 -61.511 -23.516  1.00  0.00     0.028 C 
ATOM     18  C   UNL     1      10.283 -61.960 -24.993  1.00  0.00     0.039 C 
ATOM     19  C   UNL     1       9.051 -62.297 -22.834  1.00  0.00     0.017 C 
ENDROOT
BRANCH  15  20
ATOM     20  N   UNL     1      12.329 -59.517 -23.593  1.00  0.00    -0.398 N 
ATOM     21  H   UNL     1      12.985 -58.808 -23.900  1.00  0.00     0.156 HD
ATOM     22  H   UNL     1      12.663 -59.959 -22.744  1.00  0.00     0.156 HD
ENDBRANCH  15  20
TORSDOF 1
ENDMDL
MODEL 3
REMARK VINA RESULT:    -8.952      4.106      7.218
REMARK INTER + INTRA:          -9.213
REMARK INTER:                  -9.213
REMARK INTRA:                   0.000
REMARK UNBOUND:                 0.000
REMARK SMILES CC1=C[C@@H]2Cc3nc4cc(Cl)ccc4c(N)c3[C@H](C1)C2
REMARK SMILES IDX 1 1 2 2 3 3 4 4 5 5 6 6 7 7 8 8 9 9 10 10 11 11 12 12 13 13
REMARK SMILES IDX 14 14 15 15 17 16 18 17 19 18 20 19 16 20
REMARK H PARENT 16 21 16 22
ROOT
ATOM      1  C   UNL     1       9.655 -56.400 -22.755  1.00  0.00     0.039 C 
ATOM      2  C   UNL     1      10.539 -57.592 -22.976  1.00  0.00    -0.076 C 
ATOM      3  C   UNL     1      11.592 -57.560 -23.812  1.00  0.00    -0.024 C 
ATOM      4  C   UNL     1      12.505 -58.748 -24.032  1.00  0.00     0.018 C 
ATOM      5  C   UNL     1      12.127 -59.499 -25.314  1.00  0.00     0.064 C 
ATOM      6  C   UNL     1      10.918 -60.399 -25.168  1.00  0.00     0.047 A 
ATOM      7  N   UNL     1      10.456 -60.914 -26.331  1.00  0.00    -0.252 NA
ATOM      8  C   UNL     1       9.445 -61.787 -26.298  1.00  0.00     0.074 A 
ATOM      9  C   UNL     1       9.030 -62.330 -27.504  1.00  0.00     0.049 A 
ATOM     10  C   UNL     1       8.005 -63.268 -27.562  1.00  0.00     0.043 A 
ATOM     11  Cl  UNL     1       7.523 -63.922 -29.079  1.00  0.00    -0.084 Cl
ATOM     12  C   UNL     1       7.374 -63.685 -26.401  1.00  0.00     0.021 A 
ATOM     13  C   UNL     1       7.774 -63.146 -25.178  1.00  0.00     0.014 A 
ATOM     14  C   UNL     1       8.807 -62.177 -25.101  1.00  0.00     0.024 A 
ATOM     15  C   UNL     1       9.246 -61.566 -23.891  1.00  0.00     0.046 A 
ATOM     16  C   UNL     1      10.370 -60.715 -23.918  1.00  0.00     0.001 A 
ATOM     17  C   UNL     1      10.961 -60.105 -22.650  1.00  0.00     0.028 C 
ATOM     18  C   UNL     1      10.172 -58.848 -22.212  1.00  0.00     0.039 C 
ATOM     19  C   UNL     1      12.433 -59.725 -22.857  1.00  0.00     0.017 C 
ENDROOT
BRANCH  15  20
ATOM     20  N   UNL     1       8.695 -61.970 -22.650  1.00  0.00    -0.398 N 
ATOM     21  H   UNL     1       8.536 -61.210 -21.997  1.00  0.00     0.156 HD
ATOM     22  H   UNL     1       7.856 -62.532 -22.745  1.00  0.00     0.156 HD
ENDBRANCH  15  20
TORSDOF 1
ENDMDL
MODEL 4
REMARK VINA RESULT:    -8.828      4.104      8.322
REMARK INTER + INTRA:          -9.086
REMARK INTER:                  -9.086
REMARK INTRA:                   0.000
REMARK UNBOUND:                 0.000
REMARK SMILES CC1=C[C@@H]2Cc3nc4cc(Cl)ccc4c(N)c3[C@H](C1)C2
REMARK SMILES IDX 1 1 2 2 3 3 4 4 5 5 6 6 7 7 8 8 9 9 10 10 11 11 12 12 13 13
REMARK SMILES IDX 14 14 15 15 17 16 18 17 19 18 20 19 16 20
REMARK H PARENT 16 21 16 22
ROOT
ATOM      1  C   UNL     1      11.823 -46.968 -25.077  1.00  0.00     0.039 C 
ATOM      2  C   UNL     1      12.803 -48.026 -24.666  1.00  0.00    -0.076 C 
ATOM      3  C   UNL     1      13.577 -48.674 -25.555  1.00  0.00    -0.024 C 
ATOM      4  C   UNL     1      14.584 -49.730 -25.155  1.00  0.00     0.018 C 
ATOM      5  C   UNL     1      14.012 -51.138 -25.360  1.00  0.00     0.064 C 
ATOM      6  C   UNL     1      13.053 -51.578 -24.274  1.00  0.00     0.047 A 
ATOM      7  N   UNL     1      12.393 -52.729 -24.539  1.00  0.00    -0.252 NA
ATOM      8  C   UNL     1      11.587 -53.245 -23.605  1.00  0.00     0.074 A 
ATOM      9  C   UNL     1      10.966 -54.450 -23.893  1.00  0.00     0.049 A 
ATOM     10  C   UNL     1      10.133 -55.074 -22.970  1.00  0.00     0.043 A 
ATOM     11  Cl  UNL     1       9.384 -56.572 -23.365  1.00  0.00    -0.084 Cl
ATOM     12  C   UNL     1       9.911 -54.499 -21.729  1.00  0.00     0.021 A 
ATOM     13  C   UNL     1      10.524 -53.284 -21.423  1.00  0.00     0.014 A 
ATOM     14  C   UNL     1      11.363 -52.624 -22.357  1.00  0.00     0.024 A 
ATOM     15  C   UNL     1      11.998 -51.371 -22.121  1.00  0.00     0.046 A 
ATOM     16  C   UNL     1      12.916 -50.874 -23.070  1.00  0.00     0.001 A 
ATOM     17  C   UNL     1      13.711 -49.592 -22.842  1.00  0.00     0.028 C 
ATOM     18  C   UNL     1      12.866 -48.341 -23.185  1.00  0.00     0.039 C 
ATOM     19  C   UNL     1      14.990 -49.579 -23.687  1.00  0.00     0.017 C 
ENDROOT
BRANCH  15  20
ATOM     20  N   UNL     1      11.870 -50.734 -20.862  1.00  0.00    -0.398 N 
ATOM     21  H   UNL     1      11.707 -49.735 -20.914  1.00  0.00     0.156 HD
ATOM     22  H   UNL     1      11.182 -51.171 -20.258  1.00  0.00     0.156 HD
ENDBRANCH  15  20
TORSDOF 1
ENDMDL
MODEL 5
REMARK VINA RESULT:    -8.515      4.309      8.783
REMARK INTER + INTRA:          -8.763
REMARK INTER:                  -8.763
REMARK INTRA:                   0.000
REMARK UNBOUND:                 0.000
REMARK SMILES CC1=C[C@@H]2Cc3nc4cc(Cl)ccc4c(N)c3[C@H](C1)C2
REMARK SMILES IDX 1 1 2 2 3 3 4 4 5 5 6 6 7 7 8 8 9 9 10 10 11 11 12 12 13 13
REMARK SMILES IDX 14 14 15 15 17 16 18 17 19 18 20 19 16 20
REMARK H PARENT 16 21 16 22
ROOT
ATOM      1  C   UNL     1      16.651 -48.230 -22.580  1.00  0.00     0.039 C 
ATOM      2  C   UNL     1      15.273 -48.176 -23.170  1.00  0.00    -0.076 C 
ATOM      3  C   UNL     1      14.221 -47.680 -22.494  1.00  0.00    -0.024 C 
ATOM      4  C   UNL     1      12.828 -47.599 -23.082  1.00  0.00     0.018 C 
ATOM      5  C   UNL     1      11.964 -48.772 -22.604  1.00  0.00     0.064 C 
ATOM      6  C   UNL     1      12.240 -50.075 -23.323  1.00  0.00     0.047 A 
ATOM      7  N   UNL     1      11.630 -51.157 -22.784  1.00  0.00    -0.252 NA
ATOM      8  C   UNL     1      11.744 -52.339 -23.396  1.00  0.00     0.074 A 
ATOM      9  C   UNL     1      11.067 -53.413 -22.841  1.00  0.00     0.049 A 
ATOM     10  C   UNL     1      11.104 -54.674 -23.427  1.00  0.00     0.043 A 
ATOM     11  Cl  UNL     1      10.245 -55.981 -22.709  1.00  0.00    -0.084 Cl
ATOM     12  C   UNL     1      11.825 -54.881 -24.593  1.00  0.00     0.021 A 
ATOM     13  C   UNL     1      12.517 -53.813 -25.163  1.00  0.00     0.014 A 
ATOM     14  C   UNL     1      12.504 -52.524 -24.571  1.00  0.00     0.024 A 
ATOM     15  C   UNL     1      13.209 -51.397 -25.085  1.00  0.00     0.046 A 
ATOM     16  C   UNL     1      13.016 -50.134 -24.489  1.00  0.00     0.001 A 
ATOM     17  C   UNL     1      13.655 -48.865 -25.044  1.00  0.00     0.028 C 
ATOM     18  C   UNL     1      15.123 -48.726 -24.574  1.00  0.00     0.039 C 
ATOM     19  C   UNL     1      12.872 -47.619 -24.611  1.00  0.00     0.017 C 
ENDROOT
BRANCH  15  20
ATOM     20  N   UNL     1      13.929 -51.503 -26.300  1.00  0.00    -0.398 N 
ATOM     21  H   UNL     1      13.400 -51.907 -27.065  1.00  0.00     0.156 HD
ATOM     22  H   UNL     1      14.357 -50.631 -26.592  1.00  0.00     0.156 HD
ENDBRANCH  15  20
TORSDOF 1
ENDMDL
MODEL 6
REMARK VINA RESULT:    -8.503      4.806      5.856
REMARK INTER + INTRA:          -8.752
REMARK INTER:                  -8.752
REMARK INTRA:                   0.000
REMARK UNBOUND:                 0.000
REMARK SMILES CC1=C[C@@H]2Cc3nc4cc(Cl)ccc4c(N)c3[C@H](C1)C2
REMARK SMILES IDX 1 1 2 2 3 3 4 4 5 5 6 6 7 7 8 8 9 9 10 10 11 11 12 12 13 13
REMARK SMILES IDX 14 14 15 15 17 16 18 17 19 18 20 19 16 20
REMARK H PARENT 16 21 16 22
ROOT
ATOM      1  C   UNL     1       8.205 -63.963 -22.740  1.00  0.00     0.039 C 
ATOM      2  C   UNL     1       8.482 -62.489 -22.801  1.00  0.00    -0.076 C 
ATOM      3  C   UNL     1       7.529 -61.591 -23.109  1.00  0.00    -0.024 C 
ATOM      4  C   UNL     1       7.787 -60.100 -23.156  1.00  0.00     0.018 C 
ATOM      5  C   UNL     1       8.013 -59.629 -24.597  1.00  0.00     0.064 C 
ATOM      6  C   UNL     1       9.396 -59.930 -25.135  1.00  0.00     0.047 A 
ATOM      7  N   UNL     1       9.547 -59.700 -26.460  1.00  0.00    -0.252 NA
ATOM      8  C   UNL     1      10.754 -59.854 -27.012  1.00  0.00     0.074 A 
ATOM      9  C   UNL     1      10.881 -59.563 -28.361  1.00  0.00     0.049 A 
ATOM     10  C   UNL     1      12.106 -59.668 -29.013  1.00  0.00     0.043 A 
ATOM     11  Cl  UNL     1      12.223 -59.291 -30.687  1.00  0.00    -0.084 Cl
ATOM     12  C   UNL     1      13.236 -60.066 -28.315  1.00  0.00     0.021 A 
ATOM     13  C   UNL     1      13.126 -60.369 -26.958  1.00  0.00     0.014 A 
ATOM     14  C   UNL     1      11.883 -60.283 -26.281  1.00  0.00     0.024 A 
ATOM     15  C   UNL     1      11.694 -60.603 -24.905  1.00  0.00     0.046 A 
ATOM     16  C   UNL     1      10.443 -60.354 -24.306  1.00  0.00     0.001 A 
ATOM     17  C   UNL     1      10.194 -60.574 -22.816  1.00  0.00     0.028 C 
ATOM     18  C   UNL     1       9.906 -62.064 -22.510  1.00  0.00     0.039 C 
ATOM     19  C   UNL     1       9.015 -59.725 -22.324  1.00  0.00     0.017 C 
ENDROOT
BRANCH  15  20
ATOM     20  N   UNL     1      12.803 -60.969 -24.102  1.00  0.00    -0.398 N 
ATOM     21  H   UNL     1      12.710 -61.872 -23.650  1.00  0.00     0.156 HD
ATOM     22  H   UNL     1      13.690 -60.909 -24.588  1.00  0.00     0.156 HD
ENDBRANCH  15  20
TORSDOF 1
ENDMDL
MODEL 7
REMARK VINA RESULT:    -8.359      1.807      2.853
REMARK INTER + INTRA:          -8.604
REMARK INTER:                  -8.604
REMARK INTRA:                   0.000
REMARK UNBOUND:                 0.000
REMARK SMILES CC1=C[C@@H]2Cc3nc4cc(Cl)ccc4c(N)c3[C@H](C1)C2
REMARK SMILES IDX 1 1 2 2 3 3 4 4 5 5 6 6 7 7 8 8 9 9 10 10 11 11 12 12 13 13
REMARK SMILES IDX 14 14 15 15 17 16 18 17 19 18 20 19 16 20
REMARK H PARENT 16 21 16 22
ROOT
ATOM      1  C   UNL     1      13.151 -60.847 -25.087  1.00  0.00     0.039 C 
ATOM      2  C   UNL     1      11.858 -60.643 -24.353  1.00  0.00    -0.076 C 
ATOM      3  C   UNL     1      10.671 -60.611 -24.985  1.00  0.00    -0.024 C 
ATOM      4  C   UNL     1       9.356 -60.425 -24.257  1.00  0.00     0.018 C 
ATOM      5  C   UNL     1       8.889 -58.967 -24.336  1.00  0.00     0.064 C 
ATOM      6  C   UNL     1       9.602 -58.038 -23.376  1.00  0.00     0.047 A 
ATOM      7  N   UNL     1       9.343 -56.724 -23.568  1.00  0.00    -0.252 NA
ATOM      8  C   UNL     1       9.858 -55.830 -22.718  1.00  0.00     0.074 A 
ATOM      9  C   UNL     1       9.532 -54.498 -22.918  1.00  0.00     0.049 A 
ATOM     10  C   UNL     1      10.000 -53.502 -22.066  1.00  0.00     0.043 A 
ATOM     11  Cl  UNL     1       9.568 -51.860 -22.345  1.00  0.00    -0.084 Cl
ATOM     12  C   UNL     1      10.805 -53.829 -20.987  1.00  0.00     0.021 A 
ATOM     13  C   UNL     1      11.148 -55.163 -20.773  1.00  0.00     0.014 A 
ATOM     14  C   UNL     1      10.695 -56.191 -21.640  1.00  0.00     0.024 A 
ATOM     15  C   UNL     1      11.028 -57.568 -21.496  1.00  0.00     0.046 A 
ATOM     16  C   UNL     1      10.412 -58.517 -22.339  1.00  0.00     0.001 A 
ATOM     17  C   UNL     1      10.640 -60.017 -22.179  1.00  0.00     0.028 C 
ATOM     18  C   UNL     1      11.962 -60.458 -22.853  1.00  0.00     0.039 C 
ATOM     19  C   UNL     1       9.480 -60.817 -22.784  1.00  0.00     0.017 C 
ENDROOT
BRANCH  15  20
ATOM     20  N   UNL     1      11.804 -58.001 -20.392  1.00  0.00    -0.398 N 
ATOM     21  H   UNL     1      12.126 -57.252 -19.790  1.00  0.00     0.156 HD
ATOM     22  H   UNL     1      11.354 -58.724 -19.843  1.00  0.00     0.156 HD
ENDBRANCH  15  20
TORSDOF 1
ENDMDL
MODEL 8
REMARK VINA RESULT:    -8.335      7.219      9.269
REMARK INTER + INTRA:          -8.579
REMARK INTER:                  -8.579
REMARK INTRA:                   0.000
REMARK UNBOUND:                 0.000
REMARK SMILES CC1=C[C@@H]2Cc3nc4cc(Cl)ccc4c(N)c3[C@H](C1)C2
REMARK SMILES IDX 1 1 2 2 3 3 4 4 5 5 6 6 7 7 8 8 9 9 10 10 11 11 12 12 13 13
REMARK SMILES IDX 14 14 15 15 17 16 18 17 19 18 20 19 16 20
REMARK H PARENT 16 21 16 22
ROOT
ATOM      1  C   UNL     1      16.572 -51.391 -22.698  1.00  0.00     0.039 C 
ATOM      2  C   UNL     1      15.438 -51.276 -23.673  1.00  0.00    -0.076 C 
ATOM      3  C   UNL     1      15.630 -50.951 -24.964  1.00  0.00    -0.024 C 
ATOM      4  C   UNL     1      14.499 -50.850 -25.965  1.00  0.00     0.018 C 
ATOM      5  C   UNL     1      14.075 -49.390 -26.165  1.00  0.00     0.064 C 
ATOM      6  C   UNL     1      13.201 -48.844 -25.056  1.00  0.00     0.047 A 
ATOM      7  N   UNL     1      12.981 -47.510 -25.117  1.00  0.00    -0.252 NA
ATOM      8  C   UNL     1      12.154 -46.947 -24.232  1.00  0.00     0.074 A 
ATOM      9  C   UNL     1      11.916 -45.587 -24.355  1.00  0.00     0.049 A 
ATOM     10  C   UNL     1      11.047 -44.922 -23.496  1.00  0.00     0.043 A 
ATOM     11  Cl  UNL     1      10.774 -43.234 -23.686  1.00  0.00    -0.084 Cl
ATOM     12  C   UNL     1      10.392 -45.617 -22.492  1.00  0.00     0.021 A 
ATOM     13  C   UNL     1      10.623 -46.985 -22.348  1.00  0.00     0.014 A 
ATOM     14  C   UNL     1      11.518 -47.677 -23.205  1.00  0.00     0.024 A 
ATOM     15  C   UNL     1      11.820 -49.065 -23.098  1.00  0.00     0.046 A 
ATOM     16  C   UNL     1      12.622 -49.673 -24.086  1.00  0.00     0.001 A 
ATOM     17  C   UNL     1      12.906 -51.172 -24.097  1.00  0.00     0.028 C 
ATOM     18  C   UNL     1      14.051 -51.532 -23.120  1.00  0.00     0.039 C 
ATOM     19  C   UNL     1      13.280 -51.652 -25.504  1.00  0.00     0.017 C 
ENDROOT
BRANCH  15  20
ATOM     20  N   UNL     1      11.159 -49.865 -22.134  1.00  0.00    -0.398 N 
ATOM     21  H   UNL     1      11.541 -49.792 -21.198  1.00  0.00     0.156 HD
ATOM     22  H   UNL     1      10.155 -49.724 -22.114  1.00  0.00     0.156 HD
ENDBRANCH  15  20
TORSDOF 1
ENDMDL
MODEL 9
REMARK VINA RESULT:    -7.924      5.953     10.632
REMARK INTER + INTRA:          -8.156
REMARK INTER:                  -8.156
REMARK INTRA:                   0.000
REMARK UNBOUND:                 0.000
REMARK SMILES CC1=C[C@@H]2Cc3nc4cc(Cl)ccc4c(N)c3[C@H](C1)C2
REMARK SMILES IDX 1 1 2 2 3 3 4 4 5 5 6 6 7 7 8 8 9 9 10 10 11 11 12 12 13 13
REMARK SMILES IDX 14 14 15 15 17 16 18 17 19 18 20 19 16 20
REMARK H PARENT 16 21 16 22
ROOT
ATOM      1  C   UNL     1      14.669 -44.784 -21.481  1.00  0.00     0.039 C 
ATOM      2  C   UNL     1      13.470 -45.136 -22.310  1.00  0.00    -0.076 C 
ATOM      3  C   UNL     1      12.212 -44.924 -21.882  1.00  0.00    -0.024 C 
ATOM      4  C   UNL     1      10.991 -45.255 -22.713  1.00  0.00     0.018 C 
ATOM      5  C   UNL     1      10.391 -46.601 -22.290  1.00  0.00     0.064 C 
ATOM      6  C   UNL     1      11.136 -47.805 -22.825  1.00  0.00     0.047 A 
ATOM      7  N   UNL     1      10.739 -48.990 -22.305  1.00  0.00    -0.252 NA
ATOM      8  C   UNL     1      11.279 -50.119 -22.776  1.00  0.00     0.074 A 
ATOM      9  C   UNL     1      10.813 -51.315 -22.253  1.00  0.00     0.049 A 
ATOM     10  C   UNL     1      11.296 -52.539 -22.703  1.00  0.00     0.043 A 
ATOM     11  Cl  UNL     1      10.688 -54.002 -22.032  1.00  0.00    -0.084 Cl
ATOM     12  C   UNL     1      12.261 -52.586 -23.697  1.00  0.00     0.021 A 
ATOM     13  C   UNL     1      12.746 -51.392 -24.231  1.00  0.00     0.014 A 
ATOM     14  C   UNL     1      12.277 -50.134 -23.774  1.00  0.00     0.024 A 
ATOM     15  C   UNL     1      12.747 -48.878 -24.255  1.00  0.00     0.046 A 
ATOM     16  C   UNL     1      12.114 -47.694 -23.823  1.00  0.00     0.001 A 
ATOM     17  C   UNL     1      12.492 -46.321 -24.370  1.00  0.00     0.028 C 
ATOM     18  C   UNL     1      13.750 -45.763 -23.661  1.00  0.00     0.039 C 
ATOM     19  C   UNL     1      11.339 -45.324 -24.202  1.00  0.00     0.017 C 
ENDROOT
BRANCH  15  20
ATOM     20  N   UNL     1      13.694 -48.829 -25.308  1.00  0.00    -0.398 N 
ATOM     21  H   UNL     1      14.216 -47.962 -25.359  1.00  0.00     0.156 HD
ATOM     22  H   UNL     1      14.328 -49.621 -25.316  1.00  0.00     0.156 HD
ENDBRANCH  15  20
TORSDOF 1
ENDMDL
