MODEL 1
REMARK VINA RESULT:    -7.311      0.000      0.000
REMARK INTER + INTRA:          -9.356
REMARK INTER:                  -9.021
REMARK INTRA:                  -0.335
REMARK UNBOUND:                -0.335
REMARK SMILES CC[C@H](C)n1cc(C(=O)C(F)(F)F)cn1
REMARK SMILES IDX 5 1 6 2 7 3 14 4 15 5 3 6 4 7 2 8 1 9 8 10 9 11 10 12 11 13
REMARK SMILES IDX 12 14 13 15
REMARK H PARENT
ROOT
ATOM      1  N   UNL     1       9.796 -58.595 -23.488  1.00  0.00    -0.269 N 
ATOM      2  C   UNL     1       9.581 -59.939 -23.596  1.00  0.00     0.121 A 
ATOM      3  C   UNL     1       8.288 -60.097 -24.063  1.00  0.00     0.065 A 
ATOM      4  C   UNL     1       7.816 -58.773 -24.204  1.00  0.00     0.147 A 
ATOM      5  N   UNL     1       8.727 -57.863 -23.857  1.00  0.00    -0.180 NA
ENDROOT
BRANCH   1   6
ATOM      6  C   UNL     1      11.024 -57.941 -23.032  1.00  0.00     0.104 C 
ATOM      7  C   UNL     1      10.730 -56.522 -22.542  1.00  0.00     0.033 C 
BRANCH   6   8
ATOM      8  C   UNL     1      11.742 -58.808 -21.982  1.00  0.00     0.023 C 
ATOM      9  C   UNL     1      11.417 -58.410 -20.549  1.00  0.00     0.006 C 
ENDBRANCH   6   8
ENDBRANCH   1   6
BRANCH   3  10
ATOM     10  C   UNL     1       7.621 -61.367 -24.330  1.00  0.00     0.269 C 
ATOM     11  O   UNL     1       6.447 -61.536 -23.992  1.00  0.00    -0.284 OA
BRANCH  10  12
ATOM     12  C   UNL     1       8.438 -62.448 -25.035  1.00  0.00     0.454 C 
ATOM     13  F   UNL     1       9.219 -61.968 -26.043  1.00  0.00    -0.163 F 
ATOM     14  F   UNL     1       9.277 -63.101 -24.181  1.00  0.00    -0.163 F 
ATOM     15  F   UNL     1       7.647 -63.411 -25.591  1.00  0.00    -0.163 F 
ENDBRANCH  10  12
ENDBRANCH   3  10
TORSDOF 4
ENDMDL
MODEL 2
REMARK VINA RESULT:    -7.110      3.458      4.290
REMARK INTER + INTRA:          -9.107
REMARK INTER:                  -8.662
REMARK INTRA:                  -0.445
REMARK UNBOUND:                -0.335
REMARK SMILES CC[C@H](C)n1cc(C(=O)C(F)(F)F)cn1
REMARK SMILES IDX 5 1 6 2 7 3 14 4 15 5 3 6 4 7 2 8 1 9 8 10 9 11 10 12 11 13
REMARK SMILES IDX 12 14 13 15
REMARK H PARENT
ROOT
ATOM      1  N   UNL     1      10.817 -59.902 -23.384  1.00  0.00    -0.269 N 
ATOM      2  C   UNL     1      10.232 -59.633 -24.588  1.00  0.00     0.121 A 
ATOM      3  C   UNL     1      11.075 -60.138 -25.561  1.00  0.00     0.065 A 
ATOM      4  C   UNL     1      12.145 -60.695 -24.824  1.00  0.00     0.147 A 
ATOM      5  N   UNL     1      11.990 -60.553 -23.507  1.00  0.00    -0.180 NA
ENDROOT
BRANCH   1   6
ATOM      6  C   UNL     1      10.293 -59.555 -22.062  1.00  0.00     0.104 C 
ATOM      7  C   UNL     1       9.958 -60.818 -21.267  1.00  0.00     0.033 C 
BRANCH   6   8
ATOM      8  C   UNL     1      11.260 -58.614 -21.324  1.00  0.00     0.023 C 
ATOM      9  C   UNL     1      11.287 -57.206 -21.901  1.00  0.00     0.006 C 
ENDBRANCH   6   8
ENDBRANCH   1   6
BRANCH   3  10
ATOM     10  C   UNL     1      10.856 -60.080 -27.003  1.00  0.00     0.269 C 
ATOM     11  O   UNL     1       9.833 -60.564 -27.496  1.00  0.00    -0.284 OA
BRANCH  10  12
ATOM     12  C   UNL     1      11.935 -59.404 -27.845  1.00  0.00     0.454 C 
ATOM     13  F   UNL     1      13.058 -60.159 -27.997  1.00  0.00    -0.163 F 
ATOM     14  F   UNL     1      11.500 -59.112 -29.105  1.00  0.00    -0.163 F 
ATOM     15  F   UNL     1      12.343 -58.219 -27.307  1.00  0.00    -0.163 F 
ENDBRANCH  10  12
ENDBRANCH   3  10
TORSDOF 4
ENDMDL
MODEL 3
REMARK VINA RESULT:    -7.074      5.073      6.274
REMARK INTER + INTRA:          -9.063
REMARK INTER:                  -8.691
REMARK INTRA:                  -0.373
REMARK UNBOUND:                -0.335
REMARK SMILES CC[C@H](C)n1cc(C(=O)C(F)(F)F)cn1
REMARK SMILES IDX 5 1 6 2 7 3 14 4 15 5 3 6 4 7 2 8 1 9 8 10 9 11 10 12 11 13
REMARK SMILES IDX 12 14 13 15
REMARK H PARENT
ROOT
ATOM      1  N   UNL     1      10.573 -58.768 -22.565  1.00  0.00    -0.269 N 
ATOM      2  C   UNL     1      11.353 -57.648 -22.624  1.00  0.00     0.121 A 
ATOM      3  C   UNL     1      10.532 -56.615 -23.040  1.00  0.00     0.065 A 
ATOM      4  C   UNL     1       9.270 -57.230 -23.202  1.00  0.00     0.147 A 
ATOM      5  N   UNL     1       9.294 -58.533 -22.914  1.00  0.00    -0.180 NA
ENDROOT
BRANCH   1   6
ATOM      6  C   UNL     1      11.004 -60.111 -22.175  1.00  0.00     0.104 C 
ATOM      7  C   UNL     1       9.899 -60.826 -21.395  1.00  0.00     0.033 C 
BRANCH   6   8
ATOM      8  C   UNL     1      11.489 -60.903 -23.401  1.00  0.00     0.023 C 
ATOM      9  C   UNL     1      10.586 -62.076 -23.756  1.00  0.00     0.006 C 
ENDBRANCH   6   8
ENDBRANCH   1   6
BRANCH   3  10
ATOM     10  C   UNL     1      10.936 -55.227 -23.246  1.00  0.00     0.269 C 
ATOM     11  O   UNL     1      11.427 -54.876 -24.322  1.00  0.00    -0.284 OA
BRANCH  10  12
ATOM     12  C   UNL     1      10.721 -54.260 -22.084  1.00  0.00     0.454 C 
ATOM     13  F   UNL     1       9.428 -53.856 -21.946  1.00  0.00    -0.163 F 
ATOM     14  F   UNL     1      11.081 -54.803 -20.886  1.00  0.00    -0.163 F 
ATOM     15  F   UNL     1      11.463 -53.123 -22.217  1.00  0.00    -0.163 F 
ENDBRANCH  10  12
ENDBRANCH   3  10
TORSDOF 4
ENDMDL
MODEL 4
REMARK VINA RESULT:    -7.039      4.695      6.154
REMARK INTER + INTRA:          -9.020
REMARK INTER:                  -8.707
REMARK INTRA:                  -0.313
REMARK UNBOUND:                -0.335
REMARK SMILES CC[C@H](C)n1cc(C(=O)C(F)(F)F)cn1
REMARK SMILES IDX 5 1 6 2 7 3 14 4 15 5 3 6 4 7 2 8 1 9 8 10 9 11 10 12 11 13
REMARK SMILES IDX 12 14 13 15
REMARK H PARENT
ROOT
ATOM      1  N   UNL     1      11.501 -53.353 -23.270  1.00  0.00    -0.269 N 
ATOM      2  C   UNL     1      11.261 -54.609 -23.752  1.00  0.00     0.121 A 
ATOM      3  C   UNL     1      10.598 -55.296 -22.752  1.00  0.00     0.065 A 
ATOM      4  C   UNL     1      10.489 -54.353 -21.706  1.00  0.00     0.147 A 
ATOM      5  N   UNL     1      11.035 -53.176 -22.018  1.00  0.00    -0.180 NA
ENDROOT
BRANCH   1   6
ATOM      6  C   UNL     1      12.183 -52.264 -23.972  1.00  0.00     0.104 C 
ATOM      7  C   UNL     1      12.940 -51.377 -22.983  1.00  0.00     0.033 C 
BRANCH   6   8
ATOM      8  C   UNL     1      13.075 -52.818 -25.096  1.00  0.00     0.023 C 
ATOM      9  C   UNL     1      13.605 -51.740 -26.030  1.00  0.00     0.006 C 
ENDBRANCH   6   8
ENDBRANCH   1   6
BRANCH   3  10
ATOM     10  C   UNL     1      10.139 -56.681 -22.822  1.00  0.00     0.269 C 
ATOM     11  O   UNL     1       9.100 -56.962 -23.425  1.00  0.00    -0.284 OA
BRANCH  10  12
ATOM     12  C   UNL     1      10.995 -57.734 -22.123  1.00  0.00     0.454 C 
ATOM     13  F   UNL     1      12.064 -58.142 -22.861  1.00  0.00    -0.163 F 
ATOM     14  F   UNL     1      11.500 -57.286 -20.937  1.00  0.00    -0.163 F 
ATOM     15  F   UNL     1      10.285 -58.861 -21.824  1.00  0.00    -0.163 F 
ENDBRANCH  10  12
ENDBRANCH   3  10
TORSDOF 4
ENDMDL
MODEL 5
REMARK VINA RESULT:    -7.028      2.561      3.651
REMARK INTER + INTRA:          -9.007
REMARK INTER:                  -8.650
REMARK INTRA:                  -0.357
REMARK UNBOUND:                -0.335
REMARK SMILES CC[C@H](C)n1cc(C(=O)C(F)(F)F)cn1
REMARK SMILES IDX 5 1 6 2 7 3 14 4 15 5 3 6 4 7 2 8 1 9 8 10 9 11 10 12 11 13
REMARK SMILES IDX 12 14 13 15
REMARK H PARENT
ROOT
ATOM      1  N   UNL     1      10.491 -56.652 -22.737  1.00  0.00    -0.269 N 
ATOM      2  C   UNL     1      11.137 -57.789 -22.340  1.00  0.00     0.121 A 
ATOM      3  C   UNL     1      10.311 -58.848 -22.669  1.00  0.00     0.065 A 
ATOM      4  C   UNL     1       9.188 -58.231 -23.263  1.00  0.00     0.147 A 
ATOM      5  N   UNL     1       9.296 -56.902 -23.305  1.00  0.00    -0.180 NA
ENDROOT
BRANCH   1   6
ATOM      6  C   UNL     1      10.977 -55.278 -22.595  1.00  0.00     0.104 C 
ATOM      7  C   UNL     1      11.362 -54.700 -23.958  1.00  0.00     0.033 C 
BRANCH   6   8
ATOM      8  C   UNL     1       9.951 -54.416 -21.840  1.00  0.00     0.023 C 
ATOM      9  C   UNL     1       9.761 -53.034 -22.450  1.00  0.00     0.006 C 
ENDBRANCH   6   8
ENDBRANCH   1   6
BRANCH   3  10
ATOM     10  C   UNL     1      10.592 -60.261 -22.431  1.00  0.00     0.269 C 
ATOM     11  O   UNL     1      10.256 -60.792 -21.369  1.00  0.00    -0.284 OA
BRANCH  10  12
ATOM     12  C   UNL     1      11.306 -61.026 -23.543  1.00  0.00     0.454 C 
ATOM     13  F   UNL     1      11.258 -62.379 -23.390  1.00  0.00    -0.163 F 
ATOM     14  F   UNL     1      10.777 -60.764 -24.773  1.00  0.00    -0.163 F 
ATOM     15  F   UNL     1      12.628 -60.699 -23.628  1.00  0.00    -0.163 F 
ENDBRANCH  10  12
ENDBRANCH   3  10
TORSDOF 4
ENDMDL
MODEL 6
REMARK VINA RESULT:    -6.965      3.435      5.145
REMARK INTER + INTRA:          -8.929
REMARK INTER:                  -8.517
REMARK INTRA:                  -0.413
REMARK UNBOUND:                -0.335
REMARK SMILES CC[C@H](C)n1cc(C(=O)C(F)(F)F)cn1
REMARK SMILES IDX 5 1 6 2 7 3 14 4 15 5 3 6 4 7 2 8 1 9 8 10 9 11 10 12 11 13
REMARK SMILES IDX 12 14 13 15
REMARK H PARENT
ROOT
ATOM      1  N   UNL     1       8.380 -60.686 -24.267  1.00  0.00    -0.269 N 
ATOM      2  C   UNL     1       9.494 -59.932 -24.032  1.00  0.00     0.121 A 
ATOM      3  C   UNL     1       9.069 -58.789 -23.380  1.00  0.00     0.065 A 
ATOM      4  C   UNL     1       7.671 -58.961 -23.272  1.00  0.00     0.147 A 
ATOM      5  N   UNL     1       7.252 -60.109 -23.808  1.00  0.00    -0.180 NA
ENDROOT
BRANCH   1   6
ATOM      6  C   UNL     1       8.331 -61.987 -24.936  1.00  0.00     0.104 C 
ATOM      7  C   UNL     1       9.098 -61.942 -26.259  1.00  0.00     0.033 C 
BRANCH   6   8
ATOM      8  C   UNL     1       8.817 -63.101 -23.992  1.00  0.00     0.023 C 
ATOM      9  C   UNL     1       7.698 -63.722 -23.168  1.00  0.00     0.006 C 
ENDBRANCH   6   8
ENDBRANCH   1   6
BRANCH   3  10
ATOM     10  C   UNL     1       9.919 -57.690 -22.930  1.00  0.00     0.269 C 
ATOM     11  O   UNL     1       9.714 -56.542 -23.332  1.00  0.00    -0.284 OA
BRANCH  10  12
ATOM     12  C   UNL     1      11.046 -58.034 -21.960  1.00  0.00     0.454 C 
ATOM     13  F   UNL     1      12.162 -58.519 -22.572  1.00  0.00    -0.163 F 
ATOM     14  F   UNL     1      11.451 -56.952 -21.234  1.00  0.00    -0.163 F 
ATOM     15  F   UNL     1      10.672 -58.977 -21.047  1.00  0.00    -0.163 F 
ENDBRANCH  10  12
ENDBRANCH   3  10
TORSDOF 4
ENDMDL
MODEL 7
REMARK VINA RESULT:    -6.878      4.042      5.500
REMARK INTER + INTRA:          -8.821
REMARK INTER:                  -8.522
REMARK INTRA:                  -0.300
REMARK UNBOUND:                -0.335
REMARK SMILES CC[C@H](C)n1cc(C(=O)C(F)(F)F)cn1
REMARK SMILES IDX 5 1 6 2 7 3 14 4 15 5 3 6 4 7 2 8 1 9 8 10 9 11 10 12 11 13
REMARK SMILES IDX 12 14 13 15
REMARK H PARENT
ROOT
ATOM      1  N   UNL     1      11.161 -54.447 -22.893  1.00  0.00    -0.269 N 
ATOM      2  C   UNL     1      10.619 -55.439 -22.126  1.00  0.00     0.121 A 
ATOM      3  C   UNL     1      10.783 -56.618 -22.830  1.00  0.00     0.065 A 
ATOM      4  C   UNL     1      11.441 -56.217 -24.014  1.00  0.00     0.147 A 
ATOM      5  N   UNL     1      11.671 -54.904 -24.053  1.00  0.00    -0.180 NA
ENDROOT
BRANCH   1   6
ATOM      6  C   UNL     1      11.222 -53.023 -22.562  1.00  0.00     0.104 C 
ATOM      7  C   UNL     1      12.079 -52.269 -23.581  1.00  0.00     0.033 C 
BRANCH   6   8
ATOM      8  C   UNL     1       9.806 -52.439 -22.412  1.00  0.00     0.023 C 
ATOM      9  C   UNL     1       9.799 -50.960 -22.052  1.00  0.00     0.006 C 
ENDBRANCH   6   8
ENDBRANCH   1   6
BRANCH   3  10
ATOM     10  C   UNL     1      10.353 -57.944 -22.395  1.00  0.00     0.269 C 
ATOM     11  O   UNL     1       9.293 -58.421 -22.810  1.00  0.00    -0.284 OA
BRANCH  10  12
ATOM     12  C   UNL     1      11.266 -58.689 -21.423  1.00  0.00     0.454 C 
ATOM     13  F   UNL     1      12.414 -59.143 -21.997  1.00  0.00    -0.163 F 
ATOM     14  F   UNL     1      11.647 -57.908 -20.372  1.00  0.00    -0.163 F 
ATOM     15  F   UNL     1      10.656 -59.779 -20.876  1.00  0.00    -0.163 F 
ENDBRANCH  10  12
ENDBRANCH   3  10
TORSDOF 4
ENDMDL
MODEL 8
REMARK VINA RESULT:    -6.804      1.993      2.850
REMARK INTER + INTRA:          -8.730
REMARK INTER:                  -8.318
REMARK INTRA:                  -0.412
REMARK UNBOUND:                -0.335
REMARK SMILES CC[C@H](C)n1cc(C(=O)C(F)(F)F)cn1
REMARK SMILES IDX 5 1 6 2 7 3 14 4 15 5 3 6 4 7 2 8 1 9 8 10 9 11 10 12 11 13
REMARK SMILES IDX 12 14 13 15
REMARK H PARENT
ROOT
ATOM      1  N   UNL     1      10.949 -58.496 -23.323  1.00  0.00    -0.269 N 
ATOM      2  C   UNL     1       9.969 -59.132 -24.032  1.00  0.00     0.121 A 
ATOM      3  C   UNL     1      10.592 -59.751 -25.100  1.00  0.00     0.065 A 
ATOM      4  C   UNL     1      11.956 -59.420 -24.936  1.00  0.00     0.147 A 
ATOM      5  N   UNL     1      12.173 -58.660 -23.861  1.00  0.00    -0.180 NA
ENDROOT
BRANCH   1   6
ATOM      6  C   UNL     1      10.770 -57.703 -22.106  1.00  0.00     0.104 C 
ATOM      7  C   UNL     1      11.437 -58.391 -20.913  1.00  0.00     0.033 C 
BRANCH   6   8
ATOM      8  C   UNL     1      11.256 -56.260 -22.322  1.00  0.00     0.023 C 
ATOM      9  C   UNL     1      10.149 -55.311 -22.758  1.00  0.00     0.006 C 
ENDBRANCH   6   8
ENDBRANCH   1   6
BRANCH   3  10
ATOM     10  C   UNL     1       9.936 -60.551 -26.130  1.00  0.00     0.269 C 
ATOM     11  O   UNL     1       9.944 -60.178 -27.306  1.00  0.00    -0.284 OA
BRANCH  10  12
ATOM     12  C   UNL     1       9.257 -61.844 -25.682  1.00  0.00     0.454 C 
ATOM     13  F   UNL     1       8.040 -61.645 -25.103  1.00  0.00    -0.163 F 
ATOM     14  F   UNL     1       9.050 -62.705 -26.719  1.00  0.00    -0.163 F 
ATOM     15  F   UNL     1      10.005 -62.530 -24.770  1.00  0.00    -0.163 F 
ENDBRANCH  10  12
ENDBRANCH   3  10
TORSDOF 4
ENDMDL
MODEL 9
REMARK VINA RESULT:    -6.784      3.570      4.373
REMARK INTER + INTRA:          -8.706
REMARK INTER:                  -8.266
REMARK INTRA:                  -0.440
REMARK UNBOUND:                -0.335
REMARK SMILES CC[C@H](C)n1cc(C(=O)C(F)(F)F)cn1
REMARK SMILES IDX 5 1 6 2 7 3 14 4 15 5 3 6 4 7 2 8 1 9 8 10 9 11 10 12 11 13
REMARK SMILES IDX 12 14 13 15
REMARK H PARENT
ROOT
ATOM      1  N   UNL     1      10.428 -60.455 -24.024  1.00  0.00    -0.269 N 
ATOM      2  C   UNL     1      11.178 -60.667 -25.145  1.00  0.00     0.121 A 
ATOM      3  C   UNL     1      10.418 -60.236 -26.217  1.00  0.00     0.065 A 
ATOM      4  C   UNL     1       9.221 -59.780 -25.621  1.00  0.00     0.147 A 
ATOM      5  N   UNL     1       9.226 -59.912 -24.294  1.00  0.00    -0.180 NA
ENDROOT
BRANCH   1   6
ATOM      6  C   UNL     1      10.816 -60.758 -22.645  1.00  0.00     0.104 C 
ATOM      7  C   UNL     1      10.977 -59.470 -21.835  1.00  0.00     0.033 C 
BRANCH   6   8
ATOM      8  C   UNL     1       9.829 -61.752 -22.009  1.00  0.00     0.023 C 
ATOM      9  C   UNL     1       9.842 -63.121 -22.674  1.00  0.00     0.006 C 
ENDBRANCH   6   8
ENDBRANCH   1   6
BRANCH   3  10
ATOM     10  C   UNL     1      10.816 -60.270 -27.621  1.00  0.00     0.269 C 
ATOM     11  O   UNL     1      10.143 -60.897 -28.443  1.00  0.00    -0.284 OA
BRANCH  10  12
ATOM     12  C   UNL     1      12.081 -59.505 -28.005  1.00  0.00     0.454 C 
ATOM     13  F   UNL     1      12.275 -58.374 -27.272  1.00  0.00    -0.163 F 
ATOM     14  F   UNL     1      13.207 -60.258 -27.849  1.00  0.00    -0.163 F 
ATOM     15  F   UNL     1      12.070 -59.114 -29.313  1.00  0.00    -0.163 F 
ENDBRANCH  10  12
ENDBRANCH   3  10
TORSDOF 4
ENDMDL
