MODEL 1
REMARK VINA RESULT:   -10.517      0.000      0.000
REMARK INTER + INTRA:         -17.166
REMARK INTER:                 -16.050
REMARK INTRA:                  -1.117
REMARK UNBOUND:                -1.117
REMARK SMILES CC[N@H+](CCC(=O)N1CC[NH+](CCNc2c3c(nc4ccccc24)CCCC3)CC1)C1CCCCC1
REMARK SMILES IDX 10 1 11 2 29 3 9 4 8 5 6 6 30 7 7 8 12 10 13 11 14 12 15 14
REMARK SMILES IDX 16 15 24 16 17 17 28 18 23 19 19 20 18 21 25 22 27 23 22 24
REMARK SMILES IDX 20 25 26 26 21 27 5 28 4 29 3 30 2 32 1 33 31 34 32 35 36 36
REMARK SMILES IDX 33 37 35 38 34 39
REMARK H PARENT 11 9 14 13 3 31
ROOT
ATOM      1  C   UNL     1      10.086 -53.751 -23.804  1.00  0.00     0.284 C 
ATOM      2  N   UNL     1       9.882 -53.404 -22.333  1.00  0.00    -0.331 N 
ATOM      3  C   UNL     1       9.632 -54.667 -21.527  1.00  0.00     0.284 C 
ATOM      4  C   UNL     1      11.225 -54.764 -23.982  1.00  0.00     0.181 C 
ATOM      5  N   UNL     1      11.089 -55.960 -23.129  1.00  0.00    -0.331 N 
ATOM      6  C   UNL     1      11.744 -57.107 -23.575  1.00  0.00     0.228 C 
ATOM      7  C   UNL     1      10.754 -55.710 -21.718  1.00  0.00     0.181 C 
ATOM      8  O   UNL     1      12.283 -57.149 -24.680  1.00  0.00    -0.275 OA
ATOM      9  H   UNL     1       9.009 -52.856 -22.309  1.00  0.00     0.348 HD
ENDROOT
BRANCH   2  10
ATOM     10  C   UNL     1      10.962 -52.475 -21.791  1.00  0.00     0.283 C 
BRANCH  10  11
ATOM     11  C   UNL     1      10.614 -50.985 -22.003  1.00  0.00     0.174 C 
BRANCH  11  12
ATOM     12  N   UNL     1      11.824 -50.175 -21.837  1.00  0.00    -0.379 N 
ATOM     13  H   UNL     1      11.710 -49.445 -21.131  1.00  0.00     0.160 HD
BRANCH  12  14
ATOM     14  C   UNL     1      12.171 -49.527 -23.070  1.00  0.00     0.049 A 
ATOM     15  C   UNL     1      11.871 -48.157 -23.211  1.00  0.00    -0.003 A 
ATOM     16  C   UNL     1      12.904 -50.208 -24.086  1.00  0.00     0.024 A 
ATOM     17  C   UNL     1      12.338 -47.507 -24.351  1.00  0.00     0.046 A 
ATOM     18  C   UNL     1      11.098 -47.407 -22.152  1.00  0.00     0.039 C 
ATOM     19  C   UNL     1      13.244 -51.586 -24.057  1.00  0.00     0.012 A 
ATOM     20  C   UNL     1      13.314 -49.442 -25.195  1.00  0.00     0.073 A 
ATOM     21  N   UNL     1      13.050 -48.135 -25.313  1.00  0.00    -0.252 NA
ATOM     22  C   UNL     1      12.034 -46.055 -24.624  1.00  0.00     0.056 C 
ATOM     23  C   UNL     1      10.547 -46.062 -22.622  1.00  0.00     0.005 C 
ATOM     24  C   UNL     1      13.966 -52.178 -25.093  1.00  0.00     0.001 A 
ATOM     25  C   UNL     1      14.036 -50.052 -26.212  1.00  0.00     0.029 A 
ATOM     26  C   UNL     1      11.615 -45.284 -23.377  1.00  0.00     0.007 C 
ATOM     27  C   UNL     1      14.364 -51.408 -26.174  1.00  0.00     0.002 A 
ENDBRANCH  12  14
ENDBRANCH  11  12
ENDBRANCH  10  11
ENDBRANCH   2  10
BRANCH   6  28
ATOM     28  C   UNL     1      11.769 -58.331 -22.672  1.00  0.00     0.161 C 
BRANCH  28  29
ATOM     29  C   UNL     1      11.997 -59.575 -23.533  1.00  0.00     0.272 C 
BRANCH  29  30
ATOM     30  N   UNL     1      10.769 -60.055 -24.312  1.00  0.00    -0.332 N 
ATOM     31  H   UNL     1      10.223 -59.183 -24.394  1.00  0.00     0.348 HD
BRANCH  30  32
ATOM     32  C   UNL     1      11.064 -60.383 -25.772  1.00  0.00     0.258 C 
ATOM     33  C   UNL     1      12.507 -60.143 -26.177  1.00  0.00     0.071 C 
ENDBRANCH  30  32
BRANCH  30  34
ATOM     34  C   UNL     1       9.795 -60.999 -23.583  1.00  0.00     0.184 C 
ATOM     35  C   UNL     1       8.581 -61.315 -24.475  1.00  0.00     0.065 C 
ATOM     36  C   UNL     1      10.523 -62.304 -23.210  1.00  0.00     0.065 C 
ATOM     37  C   UNL     1       7.645 -62.335 -23.827  1.00  0.00     0.006 C 
ATOM     38  C   UNL     1       9.581 -63.318 -22.562  1.00  0.00     0.006 C 
ATOM     39  C   UNL     1       8.379 -63.615 -23.449  1.00  0.00     0.000 C 
ENDBRANCH  30  34
ENDBRANCH  29  30
ENDBRANCH  28  29
ENDBRANCH   6  28
TORSDOF 9
ENDMDL
MODEL 2
REMARK VINA RESULT:   -10.268      0.728      3.220
REMARK INTER + INTRA:         -16.786
REMARK INTER:                 -15.848
REMARK INTRA:                  -0.939
REMARK UNBOUND:                -1.117
REMARK SMILES CC[N@H+](CCC(=O)N1CC[NH+](CCNc2c3c(nc4ccccc24)CCCC3)CC1)C1CCCCC1
REMARK SMILES IDX 10 1 11 2 29 3 9 4 8 5 6 6 30 7 7 8 12 10 13 11 14 12 15 14
REMARK SMILES IDX 16 15 24 16 17 17 28 18 23 19 19 20 18 21 25 22 27 23 22 24
REMARK SMILES IDX 20 25 26 26 21 27 5 28 4 29 3 30 2 32 1 33 31 34 32 35 36 36
REMARK SMILES IDX 33 37 35 38 34 39
REMARK H PARENT 11 9 14 13 3 31
ROOT
ATOM      1  C   UNL     1      10.008 -53.776 -23.508  1.00  0.00     0.284 C 
ATOM      2  N   UNL     1      10.101 -53.316 -22.057  1.00  0.00    -0.331 N 
ATOM      3  C   UNL     1       9.980 -54.505 -21.121  1.00  0.00     0.284 C 
ATOM      4  C   UNL     1      11.067 -54.842 -23.820  1.00  0.00     0.181 C 
ATOM      5  N   UNL     1      11.070 -55.967 -22.864  1.00  0.00    -0.331 N 
ATOM      6  C   UNL     1      11.599 -57.168 -23.335  1.00  0.00     0.228 C 
ATOM      7  C   UNL     1      11.019 -55.603 -21.440  1.00  0.00     0.181 C 
ATOM      8  O   UNL     1      11.913 -57.311 -24.516  1.00  0.00    -0.275 OA
ATOM      9  H   UNL     1       9.262 -52.734 -21.911  1.00  0.00     0.348 HD
ENDROOT
BRANCH   2  10
ATOM     10  C   UNL     1      11.287 -52.392 -21.806  1.00  0.00     0.283 C 
BRANCH  10  11
ATOM     11  C   UNL     1      10.909 -50.901 -21.947  1.00  0.00     0.174 C 
BRANCH  11  12
ATOM     12  N   UNL     1      12.096 -50.074 -21.711  1.00  0.00    -0.379 N 
ATOM     13  H   UNL     1      11.975 -49.433 -20.925  1.00  0.00     0.160 HD
BRANCH  12  14
ATOM     14  C   UNL     1      12.397 -49.281 -22.868  1.00  0.00     0.049 A 
ATOM     15  C   UNL     1      13.205 -49.848 -23.875  1.00  0.00    -0.003 A 
ATOM     16  C   UNL     1      11.806 -47.998 -23.064  1.00  0.00     0.024 A 
ATOM     17  C   UNL     1      13.373 -49.126 -25.054  1.00  0.00     0.046 A 
ATOM     18  C   UNL     1      13.843 -51.205 -23.699  1.00  0.00     0.039 C 
ATOM     19  C   UNL     1      10.993 -47.325 -22.114  1.00  0.00     0.012 A 
ATOM     20  C   UNL     1      12.057 -47.364 -24.297  1.00  0.00     0.073 A 
ATOM     21  N   UNL     1      12.803 -47.917 -25.260  1.00  0.00    -0.252 NA
ATOM     22  C   UNL     1      14.254 -49.618 -26.174  1.00  0.00     0.056 C 
ATOM     23  C   UNL     1      14.962 -51.499 -24.698  1.00  0.00     0.005 C 
ATOM     24  C   UNL     1      10.450 -46.069 -22.382  1.00  0.00     0.001 A 
ATOM     25  C   UNL     1      11.502 -46.115 -24.543  1.00  0.00     0.029 A 
ATOM     26  C   UNL     1      14.532 -51.115 -26.106  1.00  0.00     0.007 C 
ATOM     27  C   UNL     1      10.705 -45.462 -23.602  1.00  0.00     0.002 A 
ENDBRANCH  12  14
ENDBRANCH  11  12
ENDBRANCH  10  11
ENDBRANCH   2  10
BRANCH   6  28
ATOM     28  C   UNL     1      11.767 -58.323 -22.360  1.00  0.00     0.161 C 
BRANCH  28  29
ATOM     29  C   UNL     1      10.805 -59.446 -22.753  1.00  0.00     0.272 C 
BRANCH  29  30
ATOM     30  N   UNL     1      11.316 -60.376 -23.857  1.00  0.00    -0.332 N 
ATOM     31  H   UNL     1      11.060 -59.849 -24.706  1.00  0.00     0.348 HD
BRANCH  30  32
ATOM     32  C   UNL     1      12.837 -60.423 -23.959  1.00  0.00     0.258 C 
ATOM     33  C   UNL     1      13.355 -60.514 -25.383  1.00  0.00     0.071 C 
ENDBRANCH  30  32
BRANCH  30  34
ATOM     34  C   UNL     1      10.577 -61.714 -24.051  1.00  0.00     0.184 C 
ATOM     35  C   UNL     1      10.071 -62.251 -22.699  1.00  0.00     0.065 C 
ATOM     36  C   UNL     1       9.390 -61.514 -25.011  1.00  0.00     0.065 C 
ATOM     37  C   UNL     1       9.240 -63.522 -22.864  1.00  0.00     0.006 C 
ATOM     38  C   UNL     1       8.565 -62.790 -25.171  1.00  0.00     0.006 C 
ATOM     39  C   UNL     1       8.078 -63.317 -23.827  1.00  0.00     0.000 C 
ENDBRANCH  30  34
ENDBRANCH  29  30
ENDBRANCH  28  29
ENDBRANCH   6  28
TORSDOF 9
ENDMDL
MODEL 3
REMARK VINA RESULT:    -9.966      1.732     11.276
REMARK INTER + INTRA:         -16.326
REMARK INTER:                 -15.480
REMARK INTRA:                  -0.847
REMARK UNBOUND:                -1.117
REMARK SMILES CC[N@H+](CCC(=O)N1CC[NH+](CCNc2c3c(nc4ccccc24)CCCC3)CC1)C1CCCCC1
REMARK SMILES IDX 10 1 11 2 29 3 9 4 8 5 6 6 30 7 7 8 12 10 13 11 14 12 15 14
REMARK SMILES IDX 16 15 24 16 17 17 28 18 23 19 19 20 18 21 25 22 27 23 22 24
REMARK SMILES IDX 20 25 26 26 21 27 5 28 4 29 3 30 2 32 1 33 31 34 32 35 36 36
REMARK SMILES IDX 33 37 35 38 34 39
REMARK H PARENT 11 9 14 13 3 31
ROOT
ATOM      1  C   UNL     1       9.573 -56.788 -23.127  1.00  0.00     0.284 C 
ATOM      2  N   UNL     1      10.892 -57.329 -23.669  1.00  0.00    -0.331 N 
ATOM      3  C   UNL     1      11.595 -56.267 -24.495  1.00  0.00     0.284 C 
ATOM      4  C   UNL     1       9.793 -55.503 -22.317  1.00  0.00     0.181 C 
ATOM      5  N   UNL     1      10.577 -54.480 -23.035  1.00  0.00    -0.331 N 
ATOM      6  C   UNL     1      10.388 -53.162 -22.620  1.00  0.00     0.228 C 
ATOM      7  C   UNL     1      11.797 -54.955 -23.705  1.00  0.00     0.181 C 
ATOM      8  O   UNL     1       9.519 -52.866 -21.801  1.00  0.00    -0.275 OA
ATOM      9  H   UNL     1      10.621 -58.083 -24.319  1.00  0.00     0.348 HD
ENDROOT
BRANCH   2  10
ATOM     10  C   UNL     1      11.739 -58.002 -22.595  1.00  0.00     0.283 C 
BRANCH  10  11
ATOM     11  C   UNL     1      11.350 -59.482 -22.384  1.00  0.00     0.174 C 
BRANCH  11  12
ATOM     12  N   UNL     1      12.007 -60.307 -23.402  1.00  0.00    -0.379 N 
ATOM     13  H   UNL     1      12.695 -59.782 -23.945  1.00  0.00     0.160 HD
BRANCH  12  14
ATOM     14  C   UNL     1      11.043 -60.831 -24.326  1.00  0.00     0.049 A 
ATOM     15  C   UNL     1      11.151 -60.464 -25.683  1.00  0.00    -0.003 A 
ATOM     16  C   UNL     1      10.069 -61.790 -23.920  1.00  0.00     0.024 A 
ATOM     17  C   UNL     1      10.300 -61.089 -26.592  1.00  0.00     0.046 A 
ATOM     18  C   UNL     1      12.174 -59.454 -26.146  1.00  0.00     0.039 C 
ATOM     19  C   UNL     1       9.859 -62.218 -22.582  1.00  0.00     0.012 A 
ATOM     20  C   UNL     1       9.262 -62.344 -24.933  1.00  0.00     0.073 A 
ATOM     21  N   UNL     1       9.385 -62.013 -26.223  1.00  0.00    -0.252 NA
ATOM     22  C   UNL     1      10.300 -60.736 -28.059  1.00  0.00     0.056 C 
ATOM     23  C   UNL     1      11.913 -58.904 -27.548  1.00  0.00     0.005 C 
ATOM     24  C   UNL     1       8.884 -63.163 -22.266  1.00  0.00     0.001 A 
ATOM     25  C   UNL     1       8.300 -63.287 -24.594  1.00  0.00     0.029 A 
ATOM     26  C   UNL     1      11.577 -60.035 -28.508  1.00  0.00     0.007 C 
ATOM     27  C   UNL     1       8.102 -63.700 -23.276  1.00  0.00     0.002 A 
ENDBRANCH  12  14
ENDBRANCH  11  12
ENDBRANCH  10  11
ENDBRANCH   2  10
BRANCH   6  28
ATOM     28  C   UNL     1      11.272 -52.076 -23.214  1.00  0.00     0.161 C 
BRANCH  28  29
ATOM     29  C   UNL     1      12.008 -51.361 -22.079  1.00  0.00     0.272 C 
BRANCH  29  30
ATOM     30  N   UNL     1      13.170 -50.469 -22.525  1.00  0.00    -0.332 N 
ATOM     31  H   UNL     1      13.718 -50.392 -21.654  1.00  0.00     0.348 HD
BRANCH  30  32
ATOM     32  C   UNL     1      14.154 -51.171 -23.457  1.00  0.00     0.258 C 
ATOM     33  C   UNL     1      15.593 -51.124 -22.978  1.00  0.00     0.071 C 
ENDBRANCH  30  32
BRANCH  30  34
ATOM     34  C   UNL     1      12.846 -49.000 -22.856  1.00  0.00     0.184 C 
ATOM     35  C   UNL     1      13.048 -48.728 -24.357  1.00  0.00     0.065 C 
ATOM     36  C   UNL     1      11.390 -48.691 -22.461  1.00  0.00     0.065 C 
ATOM     37  C   UNL     1      12.633 -47.309 -24.743  1.00  0.00     0.006 C 
ATOM     38  C   UNL     1      10.984 -47.269 -22.848  1.00  0.00     0.006 C 
ATOM     39  C   UNL     1      11.198 -47.010 -24.333  1.00  0.00     0.000 C 
ENDBRANCH  30  34
ENDBRANCH  29  30
ENDBRANCH  28  29
ENDBRANCH   6  28
TORSDOF 9
ENDMDL
MODEL 4
REMARK VINA RESULT:    -9.916      1.804     11.428
REMARK INTER + INTRA:         -16.249
REMARK INTER:                 -15.554
REMARK INTRA:                  -0.695
REMARK UNBOUND:                -1.117
REMARK SMILES CC[N@H+](CCC(=O)N1CC[NH+](CCNc2c3c(nc4ccccc24)CCCC3)CC1)C1CCCCC1
REMARK SMILES IDX 10 1 11 2 29 3 9 4 8 5 6 6 30 7 7 8 12 10 13 11 14 12 15 14
REMARK SMILES IDX 16 15 24 16 17 17 28 18 23 19 19 20 18 21 25 22 27 23 22 24
REMARK SMILES IDX 20 25 26 26 21 27 5 28 4 29 3 30 2 32 1 33 31 34 32 35 36 36
REMARK SMILES IDX 33 37 35 38 34 39
REMARK H PARENT 11 9 14 13 3 31
ROOT
ATOM      1  C   UNL     1       9.308 -56.713 -23.081  1.00  0.00     0.284 C 
ATOM      2  N   UNL     1      10.581 -57.452 -23.481  1.00  0.00    -0.331 N 
ATOM      3  C   UNL     1      11.478 -56.544 -24.303  1.00  0.00     0.284 C 
ATOM      4  C   UNL     1       9.634 -55.416 -22.328  1.00  0.00     0.181 C 
ATOM      5  N   UNL     1      10.598 -54.550 -23.034  1.00  0.00    -0.331 N 
ATOM      6  C   UNL     1      10.554 -53.195 -22.710  1.00  0.00     0.228 C 
ATOM      7  C   UNL     1      11.791 -55.220 -23.573  1.00  0.00     0.181 C 
ATOM      8  O   UNL     1       9.672 -52.737 -21.984  1.00  0.00    -0.275 OA
ATOM      9  H   UNL     1      10.262 -58.206 -24.108  1.00  0.00     0.348 HD
ENDROOT
BRANCH   2  10
ATOM     10  C   UNL     1      11.248 -58.155 -22.304  1.00  0.00     0.283 C 
BRANCH  10  11
ATOM     11  C   UNL     1      10.823 -59.635 -22.189  1.00  0.00     0.174 C 
BRANCH  11  12
ATOM     12  N   UNL     1      11.681 -60.456 -23.049  1.00  0.00    -0.379 N 
ATOM     13  H   UNL     1      12.458 -59.924 -23.446  1.00  0.00     0.160 HD
BRANCH  12  14
ATOM     14  C   UNL     1      10.928 -60.995 -24.145  1.00  0.00     0.049 A 
ATOM     15  C   UNL     1       9.900 -61.916 -23.859  1.00  0.00    -0.003 A 
ATOM     16  C   UNL     1      11.125 -60.534 -25.480  1.00  0.00     0.024 A 
ATOM     17  C   UNL     1       9.085 -62.324 -24.912  1.00  0.00     0.046 A 
ATOM     18  C   UNL     1       9.665 -62.422 -22.456  1.00  0.00     0.039 C 
ATOM     19  C   UNL     1      12.138 -59.625 -25.885  1.00  0.00     0.012 A 
ATOM     20  C   UNL     1      10.239 -61.026 -26.459  1.00  0.00     0.073 A 
ATOM     21  N   UNL     1       9.248 -61.880 -26.179  1.00  0.00    -0.252 NA
ATOM     22  C   UNL     1       7.986 -63.340 -24.725  1.00  0.00     0.056 C 
ATOM     23  C   UNL     1       8.781 -63.667 -22.384  1.00  0.00     0.005 C 
ATOM     24  C   UNL     1      12.263 -59.221 -27.214  1.00  0.00     0.001 A 
ATOM     25  C   UNL     1      10.381 -60.607 -27.775  1.00  0.00     0.029 A 
ATOM     26  C   UNL     1       7.556 -63.500 -23.271  1.00  0.00     0.007 C 
ATOM     27  C   UNL     1      11.381 -59.713 -28.162  1.00  0.00     0.002 A 
ENDBRANCH  12  14
ENDBRANCH  11  12
ENDBRANCH  10  11
ENDBRANCH   2  10
BRANCH   6  28
ATOM     28  C   UNL     1      11.615 -52.272 -23.289  1.00  0.00     0.161 C 
BRANCH  28  29
ATOM     29  C   UNL     1      11.909 -51.161 -22.278  1.00  0.00     0.272 C 
BRANCH  29  30
ATOM     30  N   UNL     1      13.119 -50.285 -22.615  1.00  0.00    -0.332 N 
ATOM     31  H   UNL     1      13.629 -50.282 -21.718  1.00  0.00     0.348 HD
BRANCH  30  32
ATOM     32  C   UNL     1      14.120 -50.961 -23.547  1.00  0.00     0.258 C 
ATOM     33  C   UNL     1      15.546 -50.947 -23.030  1.00  0.00     0.071 C 
ENDBRANCH  30  32
BRANCH  30  34
ATOM     34  C   UNL     1      12.858 -48.787 -22.864  1.00  0.00     0.184 C 
ATOM     35  C   UNL     1      11.365 -48.540 -23.143  1.00  0.00     0.065 C 
ATOM     36  C   UNL     1      13.301 -47.975 -21.634  1.00  0.00     0.065 C 
ATOM     37  C   UNL     1      11.049 -47.051 -23.289  1.00  0.00     0.006 C 
ATOM     38  C   UNL     1      12.984 -46.488 -21.787  1.00  0.00     0.006 C 
ATOM     39  C   UNL     1      11.506 -46.256 -22.073  1.00  0.00     0.000 C 
ENDBRANCH  30  34
ENDBRANCH  29  30
ENDBRANCH  28  29
ENDBRANCH   6  28
TORSDOF 9
ENDMDL
MODEL 5
REMARK VINA RESULT:    -9.819      1.773     11.079
REMARK INTER + INTRA:         -16.101
REMARK INTER:                 -15.718
REMARK INTRA:                  -0.384
REMARK UNBOUND:                -1.117
REMARK SMILES CC[N@H+](CCC(=O)N1CC[NH+](CCNc2c3c(nc4ccccc24)CCCC3)CC1)C1CCCCC1
REMARK SMILES IDX 10 1 11 2 29 3 9 4 8 5 6 6 30 7 7 8 12 10 13 11 14 12 15 14
REMARK SMILES IDX 16 15 24 16 17 17 28 18 23 19 19 20 18 21 25 22 27 23 22 24
REMARK SMILES IDX 20 25 26 26 21 27 5 28 4 29 3 30 2 32 1 33 31 34 32 35 36 36
REMARK SMILES IDX 33 37 35 38 34 39
REMARK H PARENT 11 9 14 13 3 31
ROOT
ATOM      1  C   UNL     1      12.209 -58.292 -23.407  1.00  0.00     0.284 C 
ATOM      2  N   UNL     1      11.575 -58.816 -22.123  1.00  0.00    -0.331 N 
ATOM      3  C   UNL     1      11.476 -57.703 -21.095  1.00  0.00     0.284 C 
ATOM      4  C   UNL     1      11.430 -57.090 -23.958  1.00  0.00     0.181 C 
ATOM      5  N   UNL     1      11.202 -56.027 -22.961  1.00  0.00    -0.331 N 
ATOM      6  C   UNL     1      10.986 -54.747 -23.469  1.00  0.00     0.228 C 
ATOM      7  C   UNL     1      10.721 -56.472 -21.644  1.00  0.00     0.181 C 
ATOM      8  O   UNL     1      11.116 -54.503 -24.668  1.00  0.00    -0.275 OA
ATOM      9  H   UNL     1      12.252 -59.502 -21.755  1.00  0.00     0.348 HD
ENDROOT
BRANCH   2  10
ATOM     10  C   UNL     1      10.294 -59.602 -22.375  1.00  0.00     0.283 C 
BRANCH  10  11
ATOM     11  C   UNL     1      10.526 -61.128 -22.341  1.00  0.00     0.174 C 
BRANCH  11  12
ATOM     12  N   UNL     1      11.319 -61.526 -23.508  1.00  0.00    -0.379 N 
ATOM     13  H   UNL     1      12.061 -60.857 -23.721  1.00  0.00     0.160 HD
BRANCH  12  14
ATOM     14  C   UNL     1      10.488 -61.627 -24.673  1.00  0.00     0.049 A 
ATOM     15  C   UNL     1      10.913 -60.987 -25.855  1.00  0.00    -0.003 A 
ATOM     16  C   UNL     1       9.320 -62.446 -24.683  1.00  0.00     0.024 A 
ATOM     17  C   UNL     1      10.173 -61.210 -27.014  1.00  0.00     0.046 A 
ATOM     18  C   UNL     1      12.146 -60.116 -25.877  1.00  0.00     0.039 C 
ATOM     19  C   UNL     1       8.791 -63.120 -23.551  1.00  0.00     0.012 A 
ATOM     20  C   UNL     1       8.653 -62.587 -25.917  1.00  0.00     0.073 A 
ATOM     21  N   UNL     1       9.075 -61.999 -27.042  1.00  0.00    -0.252 NA
ATOM     22  C   UNL     1      10.514 -60.538 -28.321  1.00  0.00     0.056 C 
ATOM     23  C   UNL     1      12.251 -59.220 -27.111  1.00  0.00     0.005 C 
ATOM     24  C   UNL     1       7.642 -63.905 -23.645  1.00  0.00     0.001 A 
ATOM     25  C   UNL     1       7.514 -63.376 -25.985  1.00  0.00     0.029 A 
ATOM     26  C   UNL     1      11.944 -60.014 -28.372  1.00  0.00     0.007 C 
ATOM     27  C   UNL     1       7.001 -64.035 -24.866  1.00  0.00     0.002 A 
ENDBRANCH  12  14
ENDBRANCH  11  12
ENDBRANCH  10  11
ENDBRANCH   2  10
BRANCH   6  28
ATOM     28  C   UNL     1      10.599 -53.635 -22.506  1.00  0.00     0.161 C 
BRANCH  28  29
ATOM     29  C   UNL     1      11.798 -52.701 -22.323  1.00  0.00     0.272 C 
BRANCH  29  30
ATOM     30  N   UNL     1      11.700 -51.370 -23.074  1.00  0.00    -0.332 N 
ATOM     31  H   UNL     1      11.002 -51.594 -23.801  1.00  0.00     0.348 HD
BRANCH  30  32
ATOM     32  C   UNL     1      10.993 -50.274 -22.283  1.00  0.00     0.258 C 
ATOM     33  C   UNL     1      11.242 -48.875 -22.814  1.00  0.00     0.071 C 
ENDBRANCH  30  32
BRANCH  30  34
ATOM     34  C   UNL     1      12.925 -50.934 -23.900  1.00  0.00     0.184 C 
ATOM     35  C   UNL     1      14.222 -51.179 -23.109  1.00  0.00     0.065 C 
ATOM     36  C   UNL     1      12.962 -51.722 -25.223  1.00  0.00     0.065 C 
ATOM     37  C   UNL     1      15.466 -50.859 -23.938  1.00  0.00     0.006 C 
ATOM     38  C   UNL     1      14.207 -51.395 -26.046  1.00  0.00     0.006 C 
ATOM     39  C   UNL     1      15.484 -51.631 -25.250  1.00  0.00     0.000 C 
ENDBRANCH  30  34
ENDBRANCH  29  30
ENDBRANCH  28  29
ENDBRANCH   6  28
TORSDOF 9
ENDMDL
MODEL 6
REMARK VINA RESULT:    -9.633      2.185     11.010
REMARK INTER + INTRA:         -15.818
REMARK INTER:                 -15.783
REMARK INTRA:                  -0.035
REMARK UNBOUND:                -1.117
REMARK SMILES CC[N@H+](CCC(=O)N1CC[NH+](CCNc2c3c(nc4ccccc24)CCCC3)CC1)C1CCCCC1
REMARK SMILES IDX 10 1 11 2 29 3 9 4 8 5 6 6 30 7 7 8 12 10 13 11 14 12 15 14
REMARK SMILES IDX 16 15 24 16 17 17 28 18 23 19 19 20 18 21 25 22 27 23 22 24
REMARK SMILES IDX 20 25 26 26 21 27 5 28 4 29 3 30 2 32 1 33 31 34 32 35 36 36
REMARK SMILES IDX 33 37 35 38 34 39
REMARK H PARENT 11 9 14 13 3 31
ROOT
ATOM      1  C   UNL     1      11.850 -58.622 -23.116  1.00  0.00     0.284 C 
ATOM      2  N   UNL     1      11.520 -59.061 -21.693  1.00  0.00    -0.331 N 
ATOM      3  C   UNL     1      11.800 -57.932 -20.718  1.00  0.00     0.284 C 
ATOM      4  C   UNL     1      11.080 -57.350 -23.496  1.00  0.00     0.181 C 
ATOM      5  N   UNL     1      11.224 -56.258 -22.515  1.00  0.00    -0.331 N 
ATOM      6  C   UNL     1      11.014 -54.968 -23.001  1.00  0.00     0.228 C 
ATOM      7  C   UNL     1      11.056 -56.634 -21.103  1.00  0.00     0.181 C 
ATOM      8  O   UNL     1      10.855 -54.753 -24.202  1.00  0.00    -0.275 OA
ATOM      9  H   UNL     1      12.196 -59.811 -21.484  1.00  0.00     0.348 HD
ENDROOT
BRANCH   2  10
ATOM     10  C   UNL     1      10.145 -59.710 -21.581  1.00  0.00     0.283 C 
BRANCH  10  11
ATOM     11  C   UNL     1       9.601 -60.172 -22.950  1.00  0.00     0.174 C 
BRANCH  11  12
ATOM     12  N   UNL     1      10.541 -61.124 -23.550  1.00  0.00    -0.379 N 
ATOM     13  H   UNL     1      11.485 -60.744 -23.627  1.00  0.00     0.160 HD
BRANCH  12  14
ATOM     14  C   UNL     1      10.116 -61.487 -24.872  1.00  0.00     0.049 A 
ATOM     15  C   UNL     1       9.035 -62.383 -25.003  1.00  0.00    -0.003 A 
ATOM     16  C   UNL     1      10.685 -60.878 -26.028  1.00  0.00     0.024 A 
ATOM     17  C   UNL     1       8.541 -62.617 -26.284  1.00  0.00     0.046 A 
ATOM     18  C   UNL     1       8.409 -63.042 -23.797  1.00  0.00     0.039 C 
ATOM     19  C   UNL     1      11.785 -59.980 -26.016  1.00  0.00     0.012 A 
ATOM     20  C   UNL     1      10.102 -61.202 -27.270  1.00  0.00     0.073 A 
ATOM     21  N   UNL     1       9.059 -62.032 -27.387  1.00  0.00    -0.252 NA
ATOM     22  C   UNL     1       7.419 -63.591 -26.542  1.00  0.00     0.056 C 
ATOM     23  C   UNL     1       7.521 -64.239 -24.136  1.00  0.00     0.005 C 
ATOM     24  C   UNL     1      12.283 -59.425 -27.194  1.00  0.00     0.001 A 
ATOM     25  C   UNL     1      10.613 -60.634 -28.428  1.00  0.00     0.029 A 
ATOM     26  C   UNL     1       6.597 -63.904 -25.297  1.00  0.00     0.007 C 
ATOM     27  C   UNL     1      11.694 -59.752 -28.405  1.00  0.00     0.002 A 
ENDBRANCH  12  14
ENDBRANCH  11  12
ENDBRANCH  10  11
ENDBRANCH   2  10
BRANCH   6  28
ATOM     28  C   UNL     1      11.001 -53.810 -22.014  1.00  0.00     0.161 C 
BRANCH  28  29
ATOM     29  C   UNL     1      10.329 -52.604 -22.676  1.00  0.00     0.272 C 
BRANCH  29  30
ATOM     30  N   UNL     1      11.293 -51.522 -23.171  1.00  0.00    -0.332 N 
ATOM     31  H   UNL     1      10.917 -51.325 -24.112  1.00  0.00     0.348 HD
BRANCH  30  32
ATOM     32  C   UNL     1      11.112 -50.179 -22.470  1.00  0.00     0.258 C 
ATOM     33  C   UNL     1       9.688 -49.907 -22.020  1.00  0.00     0.071 C 
ENDBRANCH  30  32
BRANCH  30  34
ATOM     34  C   UNL     1      12.743 -51.949 -23.465  1.00  0.00     0.184 C 
ATOM     35  C   UNL     1      12.935 -52.202 -24.971  1.00  0.00     0.065 C 
ATOM     36  C   UNL     1      13.711 -50.848 -22.993  1.00  0.00     0.065 C 
ATOM     37  C   UNL     1      14.389 -52.524 -25.316  1.00  0.00     0.006 C 
ATOM     38  C   UNL     1      15.162 -51.178 -23.340  1.00  0.00     0.006 C 
ATOM     39  C   UNL     1      15.338 -51.436 -24.830  1.00  0.00     0.000 C 
ENDBRANCH  30  34
ENDBRANCH  29  30
ENDBRANCH  28  29
ENDBRANCH   6  28
TORSDOF 9
ENDMDL
MODEL 7
REMARK VINA RESULT:    -9.535      1.626     11.436
REMARK INTER + INTRA:         -15.669
REMARK INTER:                 -15.646
REMARK INTRA:                  -0.023
REMARK UNBOUND:                -1.117
REMARK SMILES CC[N@H+](CCC(=O)N1CC[NH+](CCNc2c3c(nc4ccccc24)CCCC3)CC1)C1CCCCC1
REMARK SMILES IDX 10 1 11 2 29 3 9 4 8 5 6 6 30 7 7 8 12 10 13 11 14 12 15 14
REMARK SMILES IDX 16 15 24 16 17 17 28 18 23 19 19 20 18 21 25 22 27 23 22 24
REMARK SMILES IDX 20 25 26 26 21 27 5 28 4 29 3 30 2 32 1 33 31 34 32 35 36 36
REMARK SMILES IDX 33 37 35 38 34 39
REMARK H PARENT 11 9 14 13 3 31
ROOT
ATOM      1  C   UNL     1      12.028 -57.918 -23.669  1.00  0.00     0.284 C 
ATOM      2  N   UNL     1      11.292 -58.417 -22.430  1.00  0.00    -0.331 N 
ATOM      3  C   UNL     1      11.383 -57.389 -21.317  1.00  0.00     0.284 C 
ATOM      4  C   UNL     1      11.490 -56.554 -24.122  1.00  0.00     0.181 C 
ATOM      5  N   UNL     1      11.446 -55.549 -23.042  1.00  0.00    -0.331 N 
ATOM      6  C   UNL     1      11.474 -54.215 -23.446  1.00  0.00     0.228 C 
ATOM      7  C   UNL     1      10.873 -56.001 -21.765  1.00  0.00     0.181 C 
ATOM      8  O   UNL     1      11.664 -53.905 -24.621  1.00  0.00    -0.275 OA
ATOM      9  H   UNL     1      11.827 -59.243 -22.120  1.00  0.00     0.348 HD
ENDROOT
BRANCH   2  10
ATOM     10  C   UNL     1       9.892 -58.933 -22.744  1.00  0.00     0.283 C 
BRANCH  10  11
ATOM     11  C   UNL     1       9.758 -60.451 -22.496  1.00  0.00     0.174 C 
BRANCH  11  12
ATOM     12  N   UNL     1      10.775 -61.163 -23.275  1.00  0.00    -0.379 N 
ATOM     13  H   UNL     1      11.618 -60.604 -23.419  1.00  0.00     0.160 HD
BRANCH  12  14
ATOM     14  C   UNL     1      10.267 -61.511 -24.571  1.00  0.00     0.049 A 
ATOM     15  C   UNL     1       9.159 -62.382 -24.641  1.00  0.00    -0.003 A 
ATOM     16  C   UNL     1      10.781 -60.910 -25.757  1.00  0.00     0.024 A 
ATOM     17  C   UNL     1       8.587 -62.600 -25.892  1.00  0.00     0.046 A 
ATOM     18  C   UNL     1       8.590 -63.033 -23.403  1.00  0.00     0.039 C 
ATOM     19  C   UNL     1      11.899 -60.037 -25.806  1.00  0.00     0.012 A 
ATOM     20  C   UNL     1      10.118 -61.216 -26.963  1.00  0.00     0.073 A 
ATOM     21  N   UNL     1       9.052 -62.022 -27.022  1.00  0.00    -0.252 NA
ATOM     22  C   UNL     1       7.429 -63.548 -26.087  1.00  0.00     0.056 C 
ATOM     23  C   UNL     1       7.658 -64.208 -23.693  1.00  0.00     0.005 C 
ATOM     24  C   UNL     1      12.340 -59.488 -27.010  1.00  0.00     0.001 A 
ATOM     25  C   UNL     1      10.574 -60.654 -28.148  1.00  0.00     0.029 A 
ATOM     26  C   UNL     1       6.675 -63.847 -24.796  1.00  0.00     0.007 C 
ATOM     27  C   UNL     1      11.674 -59.797 -28.185  1.00  0.00     0.002 A 
ENDBRANCH  12  14
ENDBRANCH  11  12
ENDBRANCH  10  11
ENDBRANCH   2  10
BRANCH   6  28
ATOM     28  C   UNL     1      11.283 -53.131 -22.397  1.00  0.00     0.161 C 
BRANCH  28  29
ATOM     29  C   UNL     1      11.247 -51.769 -23.094  1.00  0.00     0.272 C 
BRANCH  29  30
ATOM     30  N   UNL     1      12.526 -50.938 -22.952  1.00  0.00    -0.332 N 
ATOM     31  H   UNL     1      12.783 -51.120 -21.969  1.00  0.00     0.348 HD
BRANCH  30  32
ATOM     32  C   UNL     1      13.718 -51.520 -23.706  1.00  0.00     0.258 C 
ATOM     33  C   UNL     1      15.064 -51.111 -23.136  1.00  0.00     0.071 C 
ENDBRANCH  30  32
BRANCH  30  34
ATOM     34  C   UNL     1      12.378 -49.405 -22.987  1.00  0.00     0.184 C 
ATOM     35  C   UNL     1      12.778 -48.856 -24.368  1.00  0.00     0.065 C 
ATOM     36  C   UNL     1      10.921 -49.019 -22.674  1.00  0.00     0.065 C 
ATOM     37  C   UNL     1      12.543 -47.350 -24.476  1.00  0.00     0.006 C 
ATOM     38  C   UNL     1      10.694 -47.512 -22.782  1.00  0.00     0.006 C 
ATOM     39  C   UNL     1      11.102 -46.980 -24.149  1.00  0.00     0.000 C 
ENDBRANCH  30  34
ENDBRANCH  29  30
ENDBRANCH  28  29
ENDBRANCH   6  28
TORSDOF 9
ENDMDL
MODEL 8
REMARK VINA RESULT:    -9.288      4.608     13.025
REMARK INTER + INTRA:         -15.291
REMARK INTER:                 -14.248
REMARK INTRA:                  -1.043
REMARK UNBOUND:                -1.117
REMARK SMILES CC[N@H+](CCC(=O)N1CC[NH+](CCNc2c3c(nc4ccccc24)CCCC3)CC1)C1CCCCC1
REMARK SMILES IDX 10 1 11 2 29 3 9 4 8 5 6 6 30 7 7 8 12 10 13 11 14 12 15 14
REMARK SMILES IDX 16 15 24 16 17 17 28 18 23 19 19 20 18 21 25 22 27 23 22 24
REMARK SMILES IDX 20 25 26 26 21 27 5 28 4 29 3 30 2 32 1 33 31 34 32 35 36 36
REMARK SMILES IDX 33 37 35 38 34 39
REMARK H PARENT 11 9 14 13 3 31
ROOT
ATOM      1  C   UNL     1      12.567 -46.692 -22.375  1.00  0.00     0.284 C 
ATOM      2  N   UNL     1      11.092 -47.033 -22.190  1.00  0.00    -0.331 N 
ATOM      3  C   UNL     1      10.254 -45.768 -22.221  1.00  0.00     0.284 C 
ATOM      4  C   UNL     1      12.795 -45.900 -23.670  1.00  0.00     0.181 C 
ATOM      5  N   UNL     1      11.916 -44.722 -23.803  1.00  0.00    -0.331 N 
ATOM      6  C   UNL     1      12.382 -43.703 -24.634  1.00  0.00     0.228 C 
ATOM      7  C   UNL     1      10.493 -44.943 -23.505  1.00  0.00     0.181 C 
ATOM      8  O   UNL     1      13.516 -43.732 -25.111  1.00  0.00    -0.275 OA
ATOM      9  H   UNL     1      11.027 -47.413 -21.233  1.00  0.00     0.348 HD
ENDROOT
BRANCH   2  10
ATOM     10  C   UNL     1      10.629 -48.159 -23.108  1.00  0.00     0.283 C 
BRANCH  10  11
ATOM     11  C   UNL     1      10.411 -49.484 -22.346  1.00  0.00     0.174 C 
BRANCH  11  12
ATOM     12  N   UNL     1      11.711 -50.071 -22.009  1.00  0.00    -0.379 N 
ATOM     13  H   UNL     1      12.468 -49.387 -22.045  1.00  0.00     0.160 HD
BRANCH  12  14
ATOM     14  C   UNL     1      12.042 -51.124 -22.925  1.00  0.00     0.049 A 
ATOM     15  C   UNL     1      11.534 -52.415 -22.670  1.00  0.00    -0.003 A 
ATOM     16  C   UNL     1      12.764 -50.864 -24.127  1.00  0.00     0.024 A 
ATOM     17  C   UNL     1      11.742 -53.395 -23.638  1.00  0.00     0.046 A 
ATOM     18  C   UNL     1      10.762 -52.722 -21.409  1.00  0.00     0.039 C 
ATOM     19  C   UNL     1      13.336 -49.612 -24.476  1.00  0.00     0.012 A 
ATOM     20  C   UNL     1      12.915 -51.941 -25.024  1.00  0.00     0.073 A 
ATOM     21  N   UNL     1      12.409 -53.157 -24.790  1.00  0.00    -0.252 NA
ATOM     22  C   UNL     1      11.282 -54.818 -23.446  1.00  0.00     0.056 C 
ATOM     23  C   UNL     1      10.614 -54.215 -21.120  1.00  0.00     0.005 C 
ATOM     24  C   UNL     1      14.029 -49.439 -25.674  1.00  0.00     0.001 A 
ATOM     25  C   UNL     1      13.606 -51.743 -26.211  1.00  0.00     0.029 A 
ATOM     26  C   UNL     1      10.201 -54.961 -22.380  1.00  0.00     0.007 C 
ATOM     27  C   UNL     1      14.164 -50.508 -26.545  1.00  0.00     0.002 A 
ENDBRANCH  12  14
ENDBRANCH  11  12
ENDBRANCH  10  11
ENDBRANCH   2  10
BRANCH   6  28
ATOM     28  C   UNL     1      11.463 -42.529 -24.932  1.00  0.00     0.161 C 
BRANCH  28  29
ATOM     29  C   UNL     1      12.308 -41.260 -25.064  1.00  0.00     0.272 C 
BRANCH  29  30
ATOM     30  N   UNL     1      11.954 -40.143 -24.079  1.00  0.00    -0.332 N 
ATOM     31  H   UNL     1      12.214 -39.302 -24.617  1.00  0.00     0.348 HD
BRANCH  30  32
ATOM     32  C   UNL     1      10.452 -39.949 -23.892  1.00  0.00     0.258 C 
ATOM     33  C   UNL     1       9.819 -39.031 -24.922  1.00  0.00     0.071 C 
ENDBRANCH  30  32
BRANCH  30  34
ATOM     34  C   UNL     1      12.821 -40.019 -22.811  1.00  0.00     0.184 C 
ATOM     35  C   UNL     1      12.066 -40.567 -21.587  1.00  0.00     0.065 C 
ATOM     36  C   UNL     1      14.135 -40.797 -23.006  1.00  0.00     0.065 C 
ATOM     37  C   UNL     1      12.935 -40.559 -20.329  1.00  0.00     0.006 C 
ATOM     38  C   UNL     1      14.998 -40.784 -21.745  1.00  0.00     0.006 C 
ATOM     39  C   UNL     1      14.238 -41.318 -20.539  1.00  0.00     0.000 C 
ENDBRANCH  30  34
ENDBRANCH  29  30
ENDBRANCH  28  29
ENDBRANCH   6  28
TORSDOF 9
ENDMDL
MODEL 9
REMARK VINA RESULT:    -9.144      4.637     11.248
REMARK INTER + INTRA:         -15.072
REMARK INTER:                 -13.279
REMARK INTRA:                  -1.792
REMARK UNBOUND:                -1.117
REMARK SMILES CC[N@H+](CCC(=O)N1CC[NH+](CCNc2c3c(nc4ccccc24)CCCC3)CC1)C1CCCCC1
REMARK SMILES IDX 10 1 11 2 29 3 9 4 8 5 6 6 30 7 7 8 12 10 13 11 14 12 15 14
REMARK SMILES IDX 16 15 24 16 17 17 28 18 23 19 19 20 18 21 25 22 27 23 22 24
REMARK SMILES IDX 20 25 26 26 21 27 5 28 4 29 3 30 2 32 1 33 31 34 32 35 36 36
REMARK SMILES IDX 33 37 35 38 34 39
REMARK H PARENT 11 9 14 13 3 31
ROOT
ATOM      1  C   UNL     1      10.384 -45.378 -22.612  1.00  0.00     0.284 C 
ATOM      2  N   UNL     1      10.510 -46.767 -23.229  1.00  0.00    -0.331 N 
ATOM      3  C   UNL     1      11.141 -46.673 -24.606  1.00  0.00     0.284 C 
ATOM      4  C   UNL     1      11.745 -44.671 -22.557  1.00  0.00     0.181 C 
ATOM      5  N   UNL     1      12.456 -44.658 -23.850  1.00  0.00    -0.331 N 
ATOM      6  C   UNL     1      13.395 -43.642 -24.022  1.00  0.00     0.228 C 
ATOM      7  C   UNL     1      12.499 -45.937 -24.575  1.00  0.00     0.181 C 
ATOM      8  O   UNL     1      13.519 -42.736 -23.198  1.00  0.00    -0.275 OA
ATOM      9  H   UNL     1       9.538 -47.084 -23.366  1.00  0.00     0.348 HD
ENDROOT
BRANCH   2  10
ATOM     10  C   UNL     1      11.138 -47.779 -22.278  1.00  0.00     0.283 C 
BRANCH  10  11
ATOM     11  C   UNL     1      10.693 -49.226 -22.583  1.00  0.00     0.174 C 
BRANCH  11  12
ATOM     12  N   UNL     1      11.637 -50.165 -21.971  1.00  0.00    -0.379 N 
ATOM     13  H   UNL     1      12.507 -49.712 -21.686  1.00  0.00     0.160 HD
BRANCH  12  14
ATOM     14  C   UNL     1      11.980 -51.209 -22.893  1.00  0.00     0.049 A 
ATOM     15  C   UNL     1      11.473 -52.503 -22.654  1.00  0.00    -0.003 A 
ATOM     16  C   UNL     1      12.714 -50.937 -24.084  1.00  0.00     0.024 A 
ATOM     17  C   UNL     1      11.693 -53.474 -23.628  1.00  0.00     0.046 A 
ATOM     18  C   UNL     1      10.689 -52.823 -21.404  1.00  0.00     0.039 C 
ATOM     19  C   UNL     1      13.285 -49.680 -24.417  1.00  0.00     0.012 A 
ATOM     20  C   UNL     1      12.876 -52.005 -24.989  1.00  0.00     0.073 A 
ATOM     21  N   UNL     1      12.371 -53.225 -24.771  1.00  0.00    -0.252 NA
ATOM     22  C   UNL     1      11.235 -54.900 -23.453  1.00  0.00     0.056 C 
ATOM     23  C   UNL     1      10.542 -54.319 -21.129  1.00  0.00     0.005 C 
ATOM     24  C   UNL     1      13.990 -49.495 -25.606  1.00  0.00     0.001 A 
ATOM     25  C   UNL     1      13.579 -51.795 -26.168  1.00  0.00     0.029 A 
ATOM     26  C   UNL     1      10.144 -55.055 -22.399  1.00  0.00     0.007 C 
ATOM     27  C   UNL     1      14.137 -50.556 -26.485  1.00  0.00     0.002 A 
ENDBRANCH  12  14
ENDBRANCH  11  12
ENDBRANCH  10  11
ENDBRANCH   2  10
BRANCH   6  28
ATOM     28  C   UNL     1      14.267 -43.657 -25.268  1.00  0.00     0.161 C 
BRANCH  28  29
ATOM     29  C   UNL     1      15.683 -44.084 -24.876  1.00  0.00     0.272 C 
BRANCH  29  30
ATOM     30  N   UNL     1      16.251 -45.254 -25.685  1.00  0.00    -0.332 N 
ATOM     31  H   UNL     1      17.260 -45.037 -25.683  1.00  0.00     0.348 HD
BRANCH  30  32
ATOM     32  C   UNL     1      16.211 -46.585 -24.941  1.00  0.00     0.258 C 
ATOM     33  C   UNL     1      15.942 -46.450 -23.453  1.00  0.00     0.071 C 
ENDBRANCH  30  32
BRANCH  30  34
ATOM     34  C   UNL     1      15.916 -45.302 -27.187  1.00  0.00     0.184 C 
ATOM     35  C   UNL     1      17.205 -45.389 -28.024  1.00  0.00     0.065 C 
ATOM     36  C   UNL     1      15.020 -46.519 -27.479  1.00  0.00     0.065 C 
ATOM     37  C   UNL     1      16.909 -45.546 -29.515  1.00  0.00     0.006 C 
ATOM     38  C   UNL     1      14.728 -46.669 -28.971  1.00  0.00     0.006 C 
ATOM     39  C   UNL     1      16.010 -46.745 -29.789  1.00  0.00     0.000 C 
ENDBRANCH  30  34
ENDBRANCH  29  30
ENDBRANCH  28  29
ENDBRANCH   6  28
TORSDOF 9
ENDMDL
