MODEL 1
REMARK VINA RESULT:   -11.857      0.000      0.000
REMARK INTER + INTRA:         -16.764
REMARK INTER:                 -16.017
REMARK INTRA:                  -0.748
REMARK UNBOUND:                -0.748
REMARK SMILES COc1ccc2c(c1)C(=O)N(CC[C@H]1CC[N@H+](Cc3ccccc3)CC1)C2=O
REMARK SMILES IDX 13 1 14 2 16 3 17 4 15 5 25 6 26 7 18 9 19 10 20 11 24 12
REMARK SMILES IDX 21 13 23 14 22 15 12 16 11 17 9 18 27 19 7 20 6 21 8 22 5 23
REMARK SMILES IDX 3 24 4 25 10 26 28 27 2 28 1 29
REMARK H PARENT 17 8
ROOT
ATOM      1  C   UNL     1      11.111 -56.299 -21.640  1.00  0.00     0.026 C 
ENDROOT
BRANCH   1   2
ATOM      2  C   UNL     1      11.516 -57.731 -22.039  1.00  0.00     0.002 C 
ATOM      3  C   UNL     1      11.799 -59.285 -24.031  1.00  0.00     0.262 C 
ATOM      4  N   UNL     1      10.861 -60.264 -23.368  1.00  0.00    -0.331 N 
ATOM      5  C   UNL     1      11.467 -57.873 -23.568  1.00  0.00     0.065 C 
ATOM      6  C   UNL     1      10.951 -60.201 -21.866  1.00  0.00     0.262 C 
ATOM      7  C   UNL     1      10.620 -58.794 -21.387  1.00  0.00     0.065 C 
ATOM      8  H   UNL     1       9.905 -59.996 -23.638  1.00  0.00     0.348 HD
BRANCH   4   9
ATOM      9  C   UNL     1      11.047 -61.682 -23.871  1.00  0.00     0.299 C 
BRANCH   9  10
ATOM     10  C   UNL     1       9.749 -62.423 -24.042  1.00  0.00     0.006 A 
ATOM     11  C   UNL     1       9.241 -63.219 -23.004  1.00  0.00     0.009 A 
ATOM     12  C   UNL     1       9.017 -62.313 -25.235  1.00  0.00     0.009 A 
ATOM     13  C   UNL     1       8.025 -63.885 -23.154  1.00  0.00     0.001 A 
ATOM     14  C   UNL     1       7.801 -62.981 -25.380  1.00  0.00     0.001 A 
ATOM     15  C   UNL     1       7.304 -63.763 -24.340  1.00  0.00     0.000 A 
ENDBRANCH   9  10
ENDBRANCH   4   9
ENDBRANCH   1   2
BRANCH   1  16
ATOM     16  C   UNL     1      10.356 -55.543 -22.739  1.00  0.00     0.129 C 
BRANCH  16  17
ATOM     17  N   UNL     1      11.009 -54.289 -23.052  1.00  0.00    -0.274 N 
ATOM     18  C   UNL     1      10.868 -53.152 -22.302  1.00  0.00     0.261 C 
ATOM     19  C   UNL     1      11.724 -54.059 -24.195  1.00  0.00     0.261 C 
ATOM     20  C   UNL     1      11.628 -52.108 -22.985  1.00  0.00     0.056 A 
ATOM     21  C   UNL     1      12.151 -52.661 -24.140  1.00  0.00     0.053 A 
ATOM     22  C   UNL     1      11.839 -50.787 -22.648  1.00  0.00     0.061 A 
ATOM     23  C   UNL     1      12.915 -51.921 -25.019  1.00  0.00     0.018 A 
ATOM     24  C   UNL     1      12.615 -50.009 -23.517  1.00  0.00     0.119 A 
ATOM     25  C   UNL     1      13.147 -50.577 -24.695  1.00  0.00     0.047 A 
ATOM     26  O   UNL     1      10.220 -52.997 -21.284  1.00  0.00    -0.269 OA
ATOM     27  O   UNL     1      11.957 -54.822 -25.112  1.00  0.00    -0.269 OA
BRANCH  24  28
ATOM     28  O   UNL     1      12.780 -48.714 -23.113  1.00  0.00    -0.497 OA
ATOM     29  C   UNL     1      11.604 -47.972 -22.809  1.00  0.00     0.278 C 
ENDBRANCH  24  28
ENDBRANCH  16  17
ENDBRANCH   1  16
TORSDOF 6
ENDMDL
MODEL 2
REMARK VINA RESULT:   -11.812      0.792      2.228
REMARK INTER + INTRA:         -16.704
REMARK INTER:                 -15.939
REMARK INTRA:                  -0.764
REMARK UNBOUND:                -0.748
REMARK SMILES COc1ccc2c(c1)C(=O)N(CC[C@H]1CC[N@H+](Cc3ccccc3)CC1)C2=O
REMARK SMILES IDX 13 1 14 2 16 3 17 4 15 5 25 6 26 7 18 9 19 10 20 11 24 12
REMARK SMILES IDX 21 13 23 14 22 15 12 16 11 17 9 18 27 19 7 20 6 21 8 22 5 23
REMARK SMILES IDX 3 24 4 25 10 26 28 27 2 28 1 29
REMARK H PARENT 17 8
ROOT
ATOM      1  C   UNL     1      11.239 -56.513 -21.664  1.00  0.00     0.026 C 
ENDROOT
BRANCH   1   2
ATOM      2  C   UNL     1      11.547 -57.997 -21.944  1.00  0.00     0.002 C 
ATOM      3  C   UNL     1      11.986 -59.666 -23.810  1.00  0.00     0.262 C 
ATOM      4  N   UNL     1      10.849 -60.511 -23.288  1.00  0.00    -0.331 N 
ATOM      5  C   UNL     1      11.737 -58.207 -23.454  1.00  0.00     0.065 C 
ATOM      6  C   UNL     1      10.694 -60.385 -21.796  1.00  0.00     0.262 C 
ATOM      7  C   UNL     1      10.444 -58.930 -21.423  1.00  0.00     0.065 C 
ATOM      8  H   UNL     1       9.987 -60.159 -23.725  1.00  0.00     0.348 HD
BRANCH   4   9
ATOM      9  C   UNL     1      10.961 -61.963 -23.709  1.00  0.00     0.299 C 
BRANCH   9  10
ATOM     10  C   UNL     1       9.632 -62.586 -24.036  1.00  0.00     0.006 A 
ATOM     11  C   UNL     1       9.027 -62.360 -25.283  1.00  0.00     0.009 A 
ATOM     12  C   UNL     1       8.987 -63.420 -23.110  1.00  0.00     0.009 A 
ATOM     13  C   UNL     1       7.808 -62.961 -25.596  1.00  0.00     0.001 A 
ATOM     14  C   UNL     1       7.767 -64.018 -23.428  1.00  0.00     0.001 A 
ATOM     15  C   UNL     1       7.180 -63.791 -24.670  1.00  0.00     0.000 A 
ENDBRANCH   9  10
ENDBRANCH   4   9
ENDBRANCH   1   2
BRANCH   1  16
ATOM     16  C   UNL     1      10.382 -55.846 -22.745  1.00  0.00     0.129 C 
BRANCH  16  17
ATOM     17  N   UNL     1      10.902 -54.540 -23.090  1.00  0.00    -0.274 N 
ATOM     18  C   UNL     1      11.704 -54.305 -24.175  1.00  0.00     0.261 C 
ATOM     19  C   UNL     1      10.767 -53.427 -22.307  1.00  0.00     0.261 C 
ATOM     20  C   UNL     1      12.057 -52.888 -24.130  1.00  0.00     0.056 A 
ATOM     21  C   UNL     1      11.486 -52.352 -22.990  1.00  0.00     0.053 A 
ATOM     22  C   UNL     1      12.821 -52.127 -24.991  1.00  0.00     0.061 A 
ATOM     23  C   UNL     1      11.647 -51.024 -22.652  1.00  0.00     0.018 A 
ATOM     24  C   UNL     1      12.999 -50.773 -24.679  1.00  0.00     0.119 A 
ATOM     25  C   UNL     1      12.414 -50.229 -23.515  1.00  0.00     0.047 A 
ATOM     26  O   UNL     1      12.092 -55.099 -25.011  1.00  0.00    -0.269 OA
ATOM     27  O   UNL     1      10.201 -53.315 -21.237  1.00  0.00    -0.269 OA
BRANCH  24  28
ATOM     28  O   UNL     1      13.765 -50.088 -25.581  1.00  0.00    -0.497 OA
ATOM     29  C   UNL     1      15.049 -50.620 -25.882  1.00  0.00     0.278 C 
ENDBRANCH  24  28
ENDBRANCH  16  17
ENDBRANCH   1  16
TORSDOF 6
ENDMDL
MODEL 3
REMARK VINA RESULT:   -10.720      1.480      2.048
REMARK INTER + INTRA:         -15.227
REMARK INTER:                 -14.422
REMARK INTRA:                  -0.806
REMARK UNBOUND:                -0.748
REMARK SMILES COc1ccc2c(c1)C(=O)N(CC[C@H]1CC[N@H+](Cc3ccccc3)CC1)C2=O
REMARK SMILES IDX 13 1 14 2 16 3 17 4 15 5 25 6 26 7 18 9 19 10 20 11 24 12
REMARK SMILES IDX 21 13 23 14 22 15 12 16 11 17 9 18 27 19 7 20 6 21 8 22 5 23
REMARK SMILES IDX 3 24 4 25 10 26 28 27 2 28 1 29
REMARK H PARENT 17 8
ROOT
ATOM      1  C   UNL     1      11.030 -56.134 -22.047  1.00  0.00     0.026 C 
ENDROOT
BRANCH   1   2
ATOM      2  C   UNL     1      10.576 -57.605 -22.128  1.00  0.00     0.002 C 
ATOM      3  C   UNL     1      11.348 -59.938 -22.776  1.00  0.00     0.262 C 
ATOM      4  N   UNL     1      10.171 -60.039 -23.716  1.00  0.00    -0.331 N 
ATOM      5  C   UNL     1      11.743 -58.477 -22.615  1.00  0.00     0.065 C 
ATOM      6  C   UNL     1       8.985 -59.257 -23.218  1.00  0.00     0.262 C 
ATOM      7  C   UNL     1       9.365 -57.791 -23.052  1.00  0.00     0.065 C 
ATOM      8  H   UNL     1      10.465 -59.629 -24.612  1.00  0.00     0.348 HD
BRANCH   4   9
ATOM      9  C   UNL     1       9.793 -61.474 -24.026  1.00  0.00     0.299 C 
BRANCH   9  10
ATOM     10  C   UNL     1       9.525 -61.712 -25.486  1.00  0.00     0.006 A 
ATOM     11  C   UNL     1       8.574 -62.663 -25.890  1.00  0.00     0.009 A 
ATOM     12  C   UNL     1      10.207 -60.974 -26.466  1.00  0.00     0.009 A 
ATOM     13  C   UNL     1       8.308 -62.865 -27.244  1.00  0.00     0.001 A 
ATOM     14  C   UNL     1       9.936 -61.180 -27.820  1.00  0.00     0.001 A 
ATOM     15  C   UNL     1       8.987 -62.122 -28.208  1.00  0.00     0.000 A 
ENDBRANCH   9  10
ENDBRANCH   4   9
ENDBRANCH   1   2
BRANCH   1  16
ATOM     16  C   UNL     1      10.266 -55.200 -22.992  1.00  0.00     0.129 C 
BRANCH  16  17
ATOM     17  N   UNL     1      11.127 -54.150 -23.496  1.00  0.00    -0.274 N 
ATOM     18  C   UNL     1      11.170 -52.887 -22.969  1.00  0.00     0.261 C 
ATOM     19  C   UNL     1      11.886 -54.256 -24.628  1.00  0.00     0.261 C 
ATOM     20  C   UNL     1      12.106 -52.127 -23.794  1.00  0.00     0.056 A 
ATOM     21  C   UNL     1      12.543 -52.962 -24.806  1.00  0.00     0.053 A 
ATOM     22  C   UNL     1      12.533 -50.819 -23.691  1.00  0.00     0.061 A 
ATOM     23  C   UNL     1      13.434 -52.532 -25.769  1.00  0.00     0.018 A 
ATOM     24  C   UNL     1      13.442 -50.354 -24.650  1.00  0.00     0.119 A 
ATOM     25  C   UNL     1      13.887 -51.209 -25.682  1.00  0.00     0.047 A 
ATOM     26  O   UNL     1      10.544 -52.442 -22.026  1.00  0.00    -0.269 OA
ATOM     27  O   UNL     1      11.999 -55.203 -25.381  1.00  0.00    -0.269 OA
BRANCH  24  28
ATOM     28  O   UNL     1      13.818 -49.051 -24.478  1.00  0.00    -0.497 OA
ATOM     29  C   UNL     1      15.213 -48.784 -24.375  1.00  0.00     0.278 C 
ENDBRANCH  24  28
ENDBRANCH  16  17
ENDBRANCH   1  16
TORSDOF 6
ENDMDL
MODEL 4
REMARK VINA RESULT:   -10.604      3.259      8.533
REMARK INTER + INTRA:         -15.071
REMARK INTER:                 -14.034
REMARK INTRA:                  -1.037
REMARK UNBOUND:                -0.748
REMARK SMILES COc1ccc2c(c1)C(=O)N(CC[C@H]1CC[N@H+](Cc3ccccc3)CC1)C2=O
REMARK SMILES IDX 13 1 14 2 16 3 17 4 15 5 25 6 26 7 18 9 19 10 20 11 24 12
REMARK SMILES IDX 21 13 23 14 22 15 12 16 11 17 9 18 27 19 7 20 6 21 8 22 5 23
REMARK SMILES IDX 3 24 4 25 10 26 28 27 2 28 1 29
REMARK H PARENT 17 8
ROOT
ATOM      1  C   UNL     1      10.064 -60.367 -22.012  1.00  0.00     0.026 C 
ENDROOT
BRANCH   1   2
ATOM      2  C   UNL     1       9.900 -58.836 -21.948  1.00  0.00     0.002 C 
ATOM      3  C   UNL     1       8.921 -56.843 -23.185  1.00  0.00     0.262 C 
ATOM      4  N   UNL     1      10.288 -56.201 -23.181  1.00  0.00    -0.331 N 
ATOM      5  C   UNL     1       9.073 -58.358 -23.152  1.00  0.00     0.065 C 
ATOM      6  C   UNL     1      11.088 -56.592 -21.967  1.00  0.00     0.262 C 
ATOM      7  C   UNL     1      11.250 -58.106 -21.919  1.00  0.00     0.065 C 
ATOM      8  H   UNL     1      10.785 -56.547 -24.011  1.00  0.00     0.348 HD
BRANCH   4   9
ATOM      9  C   UNL     1      10.225 -54.695 -23.337  1.00  0.00     0.299 C 
BRANCH   9  10
ATOM     10  C   UNL     1      11.389 -54.132 -24.105  1.00  0.00     0.006 A 
ATOM     11  C   UNL     1      11.966 -54.859 -25.158  1.00  0.00     0.009 A 
ATOM     12  C   UNL     1      11.901 -52.863 -23.794  1.00  0.00     0.009 A 
ATOM     13  C   UNL     1      13.029 -54.325 -25.886  1.00  0.00     0.001 A 
ATOM     14  C   UNL     1      12.964 -52.332 -24.527  1.00  0.00     0.001 A 
ATOM     15  C   UNL     1      13.525 -53.061 -25.572  1.00  0.00     0.000 A 
ENDBRANCH   9  10
ENDBRANCH   4   9
ENDBRANCH   1   2
BRANCH   1  16
ATOM     16  C   UNL     1      11.361 -60.821 -22.691  1.00  0.00     0.129 C 
BRANCH  16  17
ATOM     17  N   UNL     1      11.234 -60.790 -24.133  1.00  0.00    -0.274 N 
ATOM     18  C   UNL     1      11.996 -59.993 -24.944  1.00  0.00     0.261 C 
ATOM     19  C   UNL     1      10.258 -61.444 -24.833  1.00  0.00     0.261 C 
ATOM     20  C   UNL     1      11.517 -60.211 -26.307  1.00  0.00     0.056 A 
ATOM     21  C   UNL     1      10.457 -61.096 -26.239  1.00  0.00     0.053 A 
ATOM     22  C   UNL     1      11.949 -59.678 -27.504  1.00  0.00     0.061 A 
ATOM     23  C   UNL     1       9.772 -61.497 -27.368  1.00  0.00     0.018 A 
ATOM     24  C   UNL     1      11.277 -60.070 -28.670  1.00  0.00     0.119 A 
ATOM     25  C   UNL     1      10.196 -60.975 -28.597  1.00  0.00     0.047 A 
ATOM     26  O   UNL     1      12.881 -59.220 -24.626  1.00  0.00    -0.269 OA
ATOM     27  O   UNL     1       9.367 -62.154 -24.411  1.00  0.00    -0.269 OA
BRANCH  24  28
ATOM     28  O   UNL     1      11.765 -59.502 -29.814  1.00  0.00    -0.497 OA
ATOM     29  C   UNL     1      12.102 -58.120 -29.762  1.00  0.00     0.278 C 
ENDBRANCH  24  28
ENDBRANCH  16  17
ENDBRANCH   1  16
TORSDOF 6
ENDMDL
MODEL 5
REMARK VINA RESULT:   -10.103      2.897      9.988
REMARK INTER + INTRA:         -14.395
REMARK INTER:                 -14.385
REMARK INTRA:                  -0.010
REMARK UNBOUND:                -0.748
REMARK SMILES COc1ccc2c(c1)C(=O)N(CC[C@H]1CC[N@H+](Cc3ccccc3)CC1)C2=O
REMARK SMILES IDX 13 1 14 2 16 3 17 4 15 5 25 6 26 7 18 9 19 10 20 11 24 12
REMARK SMILES IDX 21 13 23 14 22 15 12 16 11 17 9 18 27 19 7 20 6 21 8 22 5 23
REMARK SMILES IDX 3 24 4 25 10 26 28 27 2 28 1 29
REMARK H PARENT 17 8
ROOT
ATOM      1  C   UNL     1      11.138 -58.009 -21.705  1.00  0.00     0.026 C 
ENDROOT
BRANCH   1   2
ATOM      2  C   UNL     1      10.710 -56.583 -22.103  1.00  0.00     0.002 C 
ATOM      3  C   UNL     1      11.030 -54.783 -23.869  1.00  0.00     0.262 C 
ATOM      4  N   UNL     1      11.444 -53.823 -22.779  1.00  0.00    -0.331 N 
ATOM      5  C   UNL     1      11.362 -56.206 -23.443  1.00  0.00     0.065 C 
ATOM      6  C   UNL     1      10.756 -54.123 -21.474  1.00  0.00     0.262 C 
ATOM      7  C   UNL     1      11.079 -55.545 -21.034  1.00  0.00     0.065 C 
ATOM      8  H   UNL     1      12.455 -53.947 -22.638  1.00  0.00     0.348 HD
BRANCH   4   9
ATOM      9  C   UNL     1      11.259 -52.373 -23.178  1.00  0.00     0.299 C 
BRANCH   9  10
ATOM     10  C   UNL     1      12.346 -51.867 -24.086  1.00  0.00     0.006 A 
ATOM     11  C   UNL     1      12.854 -50.567 -23.934  1.00  0.00     0.009 A 
ATOM     12  C   UNL     1      12.884 -52.694 -25.085  1.00  0.00     0.009 A 
ATOM     13  C   UNL     1      13.880 -50.108 -24.759  1.00  0.00     0.001 A 
ATOM     14  C   UNL     1      13.911 -52.229 -25.908  1.00  0.00     0.001 A 
ATOM     15  C   UNL     1      14.410 -50.940 -25.744  1.00  0.00     0.000 A 
ENDBRANCH   9  10
ENDBRANCH   4   9
ENDBRANCH   1   2
BRANCH   1  16
ATOM     16  C   UNL     1      11.824 -58.786 -22.834  1.00  0.00     0.129 C 
BRANCH  16  17
ATOM     17  N   UNL     1      10.965 -59.834 -23.344  1.00  0.00    -0.274 N 
ATOM     18  C   UNL     1      10.631 -59.965 -24.666  1.00  0.00     0.261 C 
ATOM     19  C   UNL     1      10.285 -60.722 -22.557  1.00  0.00     0.261 C 
ATOM     20  C   UNL     1       9.708 -61.094 -24.750  1.00  0.00     0.056 A 
ATOM     21  C   UNL     1       9.497 -61.557 -23.463  1.00  0.00     0.053 A 
ATOM     22  C   UNL     1       9.089 -61.666 -25.842  1.00  0.00     0.061 A 
ATOM     23  C   UNL     1       8.656 -62.618 -23.202  1.00  0.00     0.018 A 
ATOM     24  C   UNL     1       8.232 -62.750 -25.610  1.00  0.00     0.119 A 
ATOM     25  C   UNL     1       8.019 -63.220 -24.296  1.00  0.00     0.047 A 
ATOM     26  O   UNL     1      10.986 -59.277 -25.604  1.00  0.00    -0.269 OA
ATOM     27  O   UNL     1      10.283 -60.815 -21.346  1.00  0.00    -0.269 OA
BRANCH  24  28
ATOM     28  O   UNL     1       7.660 -63.262 -26.741  1.00  0.00    -0.497 OA
ATOM     29  C   UNL     1       8.364 -63.083 -27.965  1.00  0.00     0.278 C 
ENDBRANCH  24  28
ENDBRANCH  16  17
ENDBRANCH   1  16
TORSDOF 6
ENDMDL
MODEL 6
REMARK VINA RESULT:    -9.885      1.929      3.065
REMARK INTER + INTRA:         -14.099
REMARK INTER:                 -13.372
REMARK INTRA:                  -0.727
REMARK UNBOUND:                -0.748
REMARK SMILES COc1ccc2c(c1)C(=O)N(CC[C@H]1CC[N@H+](Cc3ccccc3)CC1)C2=O
REMARK SMILES IDX 13 1 14 2 16 3 17 4 15 5 25 6 26 7 18 9 19 10 20 11 24 12
REMARK SMILES IDX 21 13 23 14 22 15 12 16 11 17 9 18 27 19 7 20 6 21 8 22 5 23
REMARK SMILES IDX 3 24 4 25 10 26 28 27 2 28 1 29
REMARK H PARENT 17 8
ROOT
ATOM      1  C   UNL     1      10.166 -53.637 -22.819  1.00  0.00     0.026 C 
ENDROOT
BRANCH   1   2
ATOM      2  C   UNL     1      11.053 -54.893 -22.929  1.00  0.00     0.002 C 
ATOM      3  C   UNL     1      12.245 -56.401 -24.592  1.00  0.00     0.262 C 
ATOM      4  N   UNL     1      11.499 -57.582 -24.018  1.00  0.00    -0.331 N 
ATOM      5  C   UNL     1      11.417 -55.138 -24.402  1.00  0.00     0.065 C 
ATOM      6  C   UNL     1      11.202 -57.400 -22.553  1.00  0.00     0.262 C 
ATOM      7  C   UNL     1      10.372 -56.140 -22.346  1.00  0.00     0.065 C 
ATOM      8  H   UNL     1      10.602 -57.642 -24.517  1.00  0.00     0.348 HD
BRANCH   4   9
ATOM      9  C   UNL     1      12.204 -58.898 -24.277  1.00  0.00     0.299 C 
BRANCH   9  10
ATOM     10  C   UNL     1      11.258 -60.063 -24.382  1.00  0.00     0.006 A 
ATOM     11  C   UNL     1      11.414 -61.184 -23.552  1.00  0.00     0.009 A 
ATOM     12  C   UNL     1      10.194 -60.038 -25.297  1.00  0.00     0.009 A 
ATOM     13  C   UNL     1      10.521 -62.253 -23.632  1.00  0.00     0.001 A 
ATOM     14  C   UNL     1       9.303 -61.109 -25.372  1.00  0.00     0.001 A 
ATOM     15  C   UNL     1       9.465 -62.214 -24.540  1.00  0.00     0.000 A 
ENDBRANCH   9  10
ENDBRANCH   4   9
ENDBRANCH   1   2
BRANCH   1  16
ATOM     16  C   UNL     1      10.535 -52.721 -21.648  1.00  0.00     0.129 C 
BRANCH  16  17
ATOM     17  N   UNL     1      10.868 -51.390 -22.111  1.00  0.00    -0.274 N 
ATOM     18  C   UNL     1      10.018 -50.321 -22.018  1.00  0.00     0.261 C 
ATOM     19  C   UNL     1      12.002 -51.081 -22.810  1.00  0.00     0.261 C 
ATOM     20  C   UNL     1      10.701 -49.194 -22.650  1.00  0.00     0.056 A 
ATOM     21  C   UNL     1      11.912 -49.657 -23.132  1.00  0.00     0.053 A 
ATOM     22  C   UNL     1      10.306 -47.882 -22.808  1.00  0.00     0.061 A 
ATOM     23  C   UNL     1      12.793 -48.830 -23.799  1.00  0.00     0.018 A 
ATOM     24  C   UNL     1      11.180 -47.015 -23.477  1.00  0.00     0.119 A 
ATOM     25  C   UNL     1      12.416 -47.491 -23.968  1.00  0.00     0.047 A 
ATOM     26  O   UNL     1       8.899 -50.287 -21.543  1.00  0.00    -0.269 OA
ATOM     27  O   UNL     1      12.912 -51.814 -23.145  1.00  0.00    -0.269 OA
BRANCH  24  28
ATOM     28  O   UNL     1      10.719 -45.733 -23.592  1.00  0.00    -0.497 OA
ATOM     29  C   UNL     1      11.497 -44.705 -22.991  1.00  0.00     0.278 C 
ENDBRANCH  24  28
ENDBRANCH  16  17
ENDBRANCH   1  16
TORSDOF 6
ENDMDL
MODEL 7
REMARK VINA RESULT:    -9.725      2.372      4.412
REMARK INTER + INTRA:         -13.884
REMARK INTER:                 -13.153
REMARK INTRA:                  -0.732
REMARK UNBOUND:                -0.748
REMARK SMILES COc1ccc2c(c1)C(=O)N(CC[C@H]1CC[N@H+](Cc3ccccc3)CC1)C2=O
REMARK SMILES IDX 13 1 14 2 16 3 17 4 15 5 25 6 26 7 18 9 19 10 20 11 24 12
REMARK SMILES IDX 21 13 23 14 22 15 12 16 11 17 9 18 27 19 7 20 6 21 8 22 5 23
REMARK SMILES IDX 3 24 4 25 10 26 28 27 2 28 1 29
REMARK H PARENT 17 8
ROOT
ATOM      1  C   UNL     1      10.231 -52.204 -22.545  1.00  0.00     0.026 C 
ENDROOT
BRANCH   1   2
ATOM      2  C   UNL     1      11.015 -53.528 -22.625  1.00  0.00     0.002 C 
ATOM      3  C   UNL     1      11.812 -55.325 -24.237  1.00  0.00     0.262 C 
ATOM      4  N   UNL     1      11.116 -56.361 -23.388  1.00  0.00    -0.331 N 
ATOM      5  C   UNL     1      11.101 -53.987 -24.089  1.00  0.00     0.065 C 
ATOM      6  C   UNL     1      11.090 -55.971 -21.934  1.00  0.00     0.262 C 
ATOM      7  C   UNL     1      10.380 -54.634 -21.769  1.00  0.00     0.065 C 
ATOM      8  H   UNL     1      10.143 -56.414 -23.717  1.00  0.00     0.348 HD
BRANCH   4   9
ATOM      9  C   UNL     1      11.691 -57.750 -23.575  1.00  0.00     0.299 C 
BRANCH   9  10
ATOM     10  C   UNL     1      10.788 -58.837 -23.059  1.00  0.00     0.006 A 
ATOM     11  C   UNL     1      11.063 -59.470 -21.836  1.00  0.00     0.009 A 
ATOM     12  C   UNL     1       9.647 -59.220 -23.781  1.00  0.00     0.009 A 
ATOM     13  C   UNL     1      10.212 -60.460 -21.346  1.00  0.00     0.001 A 
ATOM     14  C   UNL     1       8.798 -60.210 -23.285  1.00  0.00     0.001 A 
ATOM     15  C   UNL     1       9.078 -60.827 -22.068  1.00  0.00     0.000 A 
ENDBRANCH   9  10
ENDBRANCH   4   9
ENDBRANCH   1   2
BRANCH   1  16
ATOM     16  C   UNL     1      10.951 -51.108 -21.751  1.00  0.00     0.129 C 
BRANCH  16  17
ATOM     17  N   UNL     1      11.398 -50.041 -22.621  1.00  0.00    -0.274 N 
ATOM     18  C   UNL     1      12.568 -50.081 -23.331  1.00  0.00     0.261 C 
ATOM     19  C   UNL     1      10.778 -48.827 -22.730  1.00  0.00     0.261 C 
ATOM     20  C   UNL     1      12.676 -48.799 -24.024  1.00  0.00     0.056 A 
ATOM     21  C   UNL     1      11.584 -48.034 -23.657  1.00  0.00     0.053 A 
ATOM     22  C   UNL     1      13.643 -48.326 -24.886  1.00  0.00     0.061 A 
ATOM     23  C   UNL     1      11.401 -46.753 -24.137  1.00  0.00     0.018 A 
ATOM     24  C   UNL     1      13.484 -47.030 -25.395  1.00  0.00     0.119 A 
ATOM     25  C   UNL     1      12.368 -46.252 -25.019  1.00  0.00     0.047 A 
ATOM     26  O   UNL     1      13.394 -50.974 -23.372  1.00  0.00    -0.269 OA
ATOM     27  O   UNL     1       9.778 -48.431 -22.164  1.00  0.00    -0.269 OA
BRANCH  24  28
ATOM     28  O   UNL     1      14.481 -46.636 -26.243  1.00  0.00    -0.497 OA
ATOM     29  C   UNL     1      15.064 -47.635 -27.072  1.00  0.00     0.278 C 
ENDBRANCH  24  28
ENDBRANCH  16  17
ENDBRANCH   1  16
TORSDOF 6
ENDMDL
MODEL 8
REMARK VINA RESULT:    -9.434      2.219      4.101
REMARK INTER + INTRA:         -13.490
REMARK INTER:                 -12.568
REMARK INTRA:                  -0.923
REMARK UNBOUND:                -0.748
REMARK SMILES COc1ccc2c(c1)C(=O)N(CC[C@H]1CC[N@H+](Cc3ccccc3)CC1)C2=O
REMARK SMILES IDX 13 1 14 2 16 3 17 4 15 5 25 6 26 7 18 9 19 10 20 11 24 12
REMARK SMILES IDX 21 13 23 14 22 15 12 16 11 17 9 18 27 19 7 20 6 21 8 22 5 23
REMARK SMILES IDX 3 24 4 25 10 26 28 27 2 28 1 29
REMARK H PARENT 17 8
ROOT
ATOM      1  C   UNL     1      10.288 -60.053 -20.951  1.00  0.00     0.026 C 
ENDROOT
BRANCH   1   2
ATOM      2  C   UNL     1       9.412 -61.063 -21.717  1.00  0.00     0.002 C 
ATOM      3  C   UNL     1       9.478 -62.867 -23.506  1.00  0.00     0.262 C 
ATOM      4  N   UNL     1       8.413 -62.116 -24.268  1.00  0.00    -0.331 N 
ATOM      5  C   UNL     1      10.290 -61.887 -22.671  1.00  0.00     0.065 C 
ATOM      6  C   UNL     1       7.489 -61.365 -23.348  1.00  0.00     0.262 C 
ATOM      7  C   UNL     1       8.287 -60.378 -22.505  1.00  0.00     0.065 C 
ATOM      8  H   UNL     1       8.896 -61.428 -24.860  1.00  0.00     0.348 HD
BRANCH   4   9
ATOM      9  C   UNL     1       7.639 -63.006 -25.219  1.00  0.00     0.299 C 
BRANCH   9  10
ATOM     10  C   UNL     1       8.147 -62.942 -26.634  1.00  0.00     0.006 A 
ATOM     11  C   UNL     1       7.687 -63.853 -27.598  1.00  0.00     0.009 A 
ATOM     12  C   UNL     1       9.071 -61.956 -27.016  1.00  0.00     0.009 A 
ATOM     13  C   UNL     1       8.139 -63.776 -28.915  1.00  0.00     0.001 A 
ATOM     14  C   UNL     1       9.519 -61.883 -28.335  1.00  0.00     0.001 A 
ATOM     15  C   UNL     1       9.052 -62.789 -29.284  1.00  0.00     0.000 A 
ENDBRANCH   9  10
ENDBRANCH   4   9
ENDBRANCH   1   2
BRANCH   1  16
ATOM     16  C   UNL     1      11.395 -59.425 -21.804  1.00  0.00     0.129 C 
BRANCH  16  17
ATOM     17  N   UNL     1      11.173 -58.006 -21.986  1.00  0.00    -0.274 N 
ATOM     18  C   UNL     1      11.366 -57.076 -21.001  1.00  0.00     0.261 C 
ATOM     19  C   UNL     1      10.619 -57.453 -23.107  1.00  0.00     0.261 C 
ATOM     20  C   UNL     1      10.973 -55.787 -21.565  1.00  0.00     0.056 A 
ATOM     21  C   UNL     1      10.517 -56.017 -22.851  1.00  0.00     0.053 A 
ATOM     22  C   UNL     1      10.991 -54.524 -21.012  1.00  0.00     0.061 A 
ATOM     23  C   UNL     1      10.056 -54.992 -23.652  1.00  0.00     0.018 A 
ATOM     24  C   UNL     1      10.534 -53.460 -21.802  1.00  0.00     0.119 A 
ATOM     25  C   UNL     1      10.070 -53.698 -23.114  1.00  0.00     0.047 A 
ATOM     26  O   UNL     1      11.755 -57.255 -19.862  1.00  0.00    -0.269 OA
ATOM     27  O   UNL     1      10.243 -58.007 -24.122  1.00  0.00    -0.269 OA
BRANCH  24  28
ATOM     28  O   UNL     1      10.587 -52.242 -21.184  1.00  0.00    -0.497 OA
ATOM     29  C   UNL     1      11.359 -51.225 -21.814  1.00  0.00     0.278 C 
ENDBRANCH  24  28
ENDBRANCH  16  17
ENDBRANCH   1  16
TORSDOF 6
ENDMDL
MODEL 9
REMARK VINA RESULT:    -9.277      2.884     10.337
REMARK INTER + INTRA:         -13.279
REMARK INTER:                 -12.585
REMARK INTRA:                  -0.694
REMARK UNBOUND:                -0.748
REMARK SMILES COc1ccc2c(c1)C(=O)N(CC[C@H]1CC[N@H+](Cc3ccccc3)CC1)C2=O
REMARK SMILES IDX 13 1 14 2 16 3 17 4 15 5 25 6 26 7 18 9 19 10 20 11 24 12
REMARK SMILES IDX 21 13 23 14 22 15 12 16 11 17 9 18 27 19 7 20 6 21 8 22 5 23
REMARK SMILES IDX 3 24 4 25 10 26 28 27 2 28 1 29
REMARK H PARENT 17 8
ROOT
ATOM      1  C   UNL     1      10.311 -56.327 -22.682  1.00  0.00     0.026 C 
ENDROOT
BRANCH   1   2
ATOM      2  C   UNL     1      10.559 -54.916 -23.250  1.00  0.00     0.002 C 
ATOM      3  C   UNL     1      12.095 -53.579 -24.771  1.00  0.00     0.262 C 
ATOM      4  N   UNL     1      12.356 -52.627 -23.629  1.00  0.00    -0.331 N 
ATOM      5  C   UNL     1      11.754 -54.955 -24.216  1.00  0.00     0.065 C 
ATOM      6  C   UNL     1      11.168 -52.510 -22.712  1.00  0.00     0.262 C 
ATOM      7  C   UNL     1      10.814 -53.879 -22.147  1.00  0.00     0.065 C 
ATOM      8  H   UNL     1      13.137 -53.016 -23.085  1.00  0.00     0.348 HD
BRANCH   4   9
ATOM      9  C   UNL     1      12.823 -51.264 -24.101  1.00  0.00     0.299 C 
BRANCH   9  10
ATOM     10  C   UNL     1      14.317 -51.172 -24.254  1.00  0.00     0.006 A 
ATOM     11  C   UNL     1      14.899 -51.115 -25.531  1.00  0.00     0.009 A 
ATOM     12  C   UNL     1      15.148 -51.122 -23.125  1.00  0.00     0.009 A 
ATOM     13  C   UNL     1      16.282 -51.003 -25.671  1.00  0.00     0.001 A 
ATOM     14  C   UNL     1      16.531 -51.009 -23.271  1.00  0.00     0.001 A 
ATOM     15  C   UNL     1      17.097 -50.948 -24.542  1.00  0.00     0.000 A 
ENDBRANCH   9  10
ENDBRANCH   4   9
ENDBRANCH   1   2
BRANCH   1  16
ATOM     16  C   UNL     1      11.373 -57.353 -23.090  1.00  0.00     0.129 C 
BRANCH  16  17
ATOM     17  N   UNL     1      10.856 -58.702 -23.000  1.00  0.00    -0.274 N 
ATOM     18  C   UNL     1      10.322 -59.382 -24.063  1.00  0.00     0.261 C 
ATOM     19  C   UNL     1      10.716 -59.397 -21.830  1.00  0.00     0.261 C 
ATOM     20  C   UNL     1       9.865 -60.669 -23.543  1.00  0.00     0.056 A 
ATOM     21  C   UNL     1      10.105 -60.678 -22.181  1.00  0.00     0.053 A 
ATOM     22  C   UNL     1       9.276 -61.737 -24.188  1.00  0.00     0.061 A 
ATOM     23  C   UNL     1       9.770 -61.759 -21.392  1.00  0.00     0.018 A 
ATOM     24  C   UNL     1       8.928 -62.852 -23.415  1.00  0.00     0.119 A 
ATOM     25  C   UNL     1       9.176 -62.858 -22.025  1.00  0.00     0.047 A 
ATOM     26  O   UNL     1      10.205 -59.008 -25.214  1.00  0.00    -0.269 OA
ATOM     27  O   UNL     1      11.000 -59.047 -20.701  1.00  0.00    -0.269 OA
BRANCH  24  28
ATOM     28  O   UNL     1       8.353 -63.868 -24.126  1.00  0.00    -0.497 OA
ATOM     29  C   UNL     1       7.321 -63.519 -25.041  1.00  0.00     0.278 C 
ENDBRANCH  24  28
ENDBRANCH  16  17
ENDBRANCH   1  16
TORSDOF 6
ENDMDL
