MODEL 1
REMARK VINA RESULT:   -13.183      0.000      0.000
REMARK INTER + INTRA:         -19.693
REMARK INTER:                 -18.963
REMARK INTRA:                  -0.729
REMARK UNBOUND:                -0.729
REMARK SMILES Cc1cc(=O)[nH]c2c1C(=O)C(=NCCCCN=c1c3c([nH]c4cc(Cl)ccc14)CCCC3)C=C2O
REMARK SMILES IDX 14 1 13 2 12 3 11 4 34 5 33 6 7 7 6 8 8 9 9 10 4 11 2 12
REMARK SMILES IDX 3 13 10 15 5 16 1 17 35 18 15 20 16 21 17 22 18 23 19 24
REMARK SMILES IDX 28 25 20 26 32 27 27 28 22 29 21 30 29 31 31 32 26 33 23 34
REMARK SMILES IDX 30 35 24 36 25 38
REMARK H PARENT 6 14 35 19 21 37
ROOT
ATOM      1  C   UNL     1      11.386 -58.289 -22.395  1.00  0.00     0.025 C 
ENDROOT
BRANCH   1   2
ATOM      2  C   UNL     1      11.002 -56.827 -22.169  1.00  0.00     0.143 C 
BRANCH   2   3
ATOM      3  N   UNL     1      10.992 -56.089 -23.425  1.00  0.00    -0.281 NA
BRANCH   3   4
ATOM      4  C   UNL     1      10.803 -54.818 -23.454  1.00  0.00     0.109 C 
ATOM      5  C   UNL     1      10.015 -52.720 -22.552  1.00  0.00     0.142 C 
ATOM      6  C   UNL     1       9.798 -54.029 -22.705  1.00  0.00     0.080 C 
ATOM      7  C   UNL     1      11.219 -52.058 -23.018  1.00  0.00     0.095 A 
ATOM      8  N   UNL     1      11.506 -50.815 -22.497  1.00  0.00    -0.319 N 
ATOM      9  C   UNL     1      12.054 -52.616 -23.918  1.00  0.00     0.055 A 
ATOM     10  C   UNL     1      11.702 -53.992 -24.384  1.00  0.00     0.213 C 
ATOM     11  C   UNL     1      12.604 -50.070 -22.840  1.00  0.00     0.248 A 
ATOM     12  C   UNL     1      13.232 -51.880 -24.380  1.00  0.00    -0.032 A 
ATOM     13  C   UNL     1      13.491 -50.661 -23.869  1.00  0.00     0.075 A 
ATOM     14  H   UNL     1      10.957 -50.437 -21.736  1.00  0.00     0.170 HD
ATOM     15  O   UNL     1      12.069 -54.451 -25.457  1.00  0.00    -0.287 OA
ATOM     16  O   UNL     1      12.846 -48.983 -22.333  1.00  0.00    -0.270 OA
ATOM     17  C   UNL     1      14.147 -52.489 -25.403  1.00  0.00     0.045 C 
BRANCH   5  18
ATOM     18  O   UNL     1       9.066 -51.933 -21.931  1.00  0.00    -0.506 OA
ATOM     19  H   UNL     1       8.623 -52.478 -21.255  1.00  0.00     0.293 HD
ENDBRANCH   5  18
ENDBRANCH   3   4
ENDBRANCH   2   3
ENDBRANCH   1   2
BRANCH   1  20
ATOM     20  C   UNL     1      11.037 -59.244 -21.248  1.00  0.00     0.025 C 
BRANCH  20  21
ATOM     21  C   UNL     1      10.168 -60.429 -21.675  1.00  0.00     0.143 C 
BRANCH  21  22
ATOM     22  N   UNL     1      10.882 -61.158 -22.704  1.00  0.00    -0.284 NA
BRANCH  22  23
ATOM     23  C   UNL     1      10.449 -61.412 -23.894  1.00  0.00     0.072 A 
ATOM     24  C   UNL     1       9.312 -62.403 -23.994  1.00  0.00    -0.003 A 
ATOM     25  C   UNL     1      10.913 -60.827 -25.200  1.00  0.00     0.024 A 
ATOM     26  C   UNL     1       8.562 -62.412 -25.115  1.00  0.00     0.021 A 
ATOM     27  C   UNL     1       9.037 -63.277 -22.797  1.00  0.00     0.039 C 
ATOM     28  C   UNL     1      12.183 -60.270 -25.387  1.00  0.00     0.014 A 
ATOM     29  C   UNL     1      10.036 -60.908 -26.301  1.00  0.00     0.049 A 
ATOM     30  N   UNL     1       8.807 -61.574 -26.183  1.00  0.00    -0.358 N 
ATOM     31  C   UNL     1       7.394 -63.364 -25.268  1.00  0.00     0.054 C 
ATOM     32  C   UNL     1       7.679 -63.979 -22.853  1.00  0.00     0.005 C 
ATOM     33  C   UNL     1      12.539 -59.702 -26.614  1.00  0.00     0.021 A 
ATOM     34  C   UNL     1      10.387 -60.309 -27.519  1.00  0.00     0.047 A 
ATOM     35  C   UNL     1       7.391 -64.504 -24.250  1.00  0.00     0.007 C 
ATOM     36  C   UNL     1      11.632 -59.707 -27.667  1.00  0.00     0.043 A 
ATOM     37  H   UNL     1       8.293 -61.756 -27.036  1.00  0.00     0.166 HD
ATOM     38  Cl  UNL     1      12.066 -58.996 -29.173  1.00  0.00    -0.084 Cl
ENDBRANCH  22  23
ENDBRANCH  21  22
ENDBRANCH  20  21
ENDBRANCH   1  20
TORSDOF 8
ENDMDL
MODEL 2
REMARK VINA RESULT:   -12.103      1.689      2.675
REMARK INTER + INTRA:         -18.139
REMARK INTER:                 -17.255
REMARK INTRA:                  -0.884
REMARK UNBOUND:                -0.729
REMARK SMILES Cc1cc(=O)[nH]c2c1C(=O)C(=NCCCCN=c1c3c([nH]c4cc(Cl)ccc14)CCCC3)C=C2O
REMARK SMILES IDX 14 1 13 2 12 3 11 4 34 5 33 6 7 7 6 8 8 9 9 10 4 11 2 12
REMARK SMILES IDX 3 13 10 15 5 16 1 17 35 18 15 20 16 21 17 22 18 23 19 24
REMARK SMILES IDX 28 25 20 26 32 27 27 28 22 29 21 30 29 31 31 32 26 33 23 34
REMARK SMILES IDX 30 35 24 36 25 38
REMARK H PARENT 6 14 35 19 21 37
ROOT
ATOM      1  C   UNL     1      10.922 -56.217 -22.028  1.00  0.00     0.025 C 
ENDROOT
BRANCH   1   2
ATOM      2  C   UNL     1       9.881 -55.867 -23.091  1.00  0.00     0.143 C 
BRANCH   2   3
ATOM      3  N   UNL     1      10.084 -54.515 -23.595  1.00  0.00    -0.281 NA
BRANCH   3   4
ATOM      4  C   UNL     1      11.231 -54.124 -24.022  1.00  0.00     0.109 C 
ATOM      5  C   UNL     1      13.063 -54.085 -25.597  1.00  0.00     0.142 C 
ATOM      6  C   UNL     1      12.132 -54.812 -24.976  1.00  0.00     0.080 C 
ATOM      7  C   UNL     1      13.179 -52.647 -25.438  1.00  0.00     0.095 A 
ATOM      8  N   UNL     1      13.909 -51.958 -26.382  1.00  0.00    -0.319 N 
ATOM      9  C   UNL     1      12.595 -51.977 -24.424  1.00  0.00     0.055 A 
ATOM     10  C   UNL     1      11.769 -52.793 -23.481  1.00  0.00     0.213 C 
ATOM     11  C   UNL     1      14.106 -50.602 -26.365  1.00  0.00     0.248 A 
ATOM     12  C   UNL     1      12.784 -50.531 -24.294  1.00  0.00    -0.032 A 
ATOM     13  C   UNL     1      13.510 -49.876 -25.219  1.00  0.00     0.075 A 
ATOM     14  H   UNL     1      14.250 -52.427 -27.212  1.00  0.00     0.170 HD
ATOM     15  O   UNL     1      11.543 -52.458 -22.326  1.00  0.00    -0.287 OA
ATOM     16  O   UNL     1      14.734 -50.017 -27.238  1.00  0.00    -0.270 OA
ATOM     17  C   UNL     1      12.157 -49.791 -23.148  1.00  0.00     0.045 C 
BRANCH   5  18
ATOM     18  O   UNL     1      13.974 -54.699 -26.432  1.00  0.00    -0.506 OA
ATOM     19  H   UNL     1      14.052 -54.157 -27.239  1.00  0.00     0.293 HD
ENDBRANCH   5  18
ENDBRANCH   3   4
ENDBRANCH   2   3
ENDBRANCH   1   2
BRANCH   1  20
ATOM     20  C   UNL     1      11.386 -57.678 -22.020  1.00  0.00     0.025 C 
BRANCH  20  21
ATOM     21  C   UNL     1      11.733 -58.222 -23.408  1.00  0.00     0.143 C 
BRANCH  21  22
ATOM     22  N   UNL     1      11.583 -59.663 -23.372  1.00  0.00    -0.284 NA
BRANCH  22  23
ATOM     23  C   UNL     1      11.090 -60.399 -24.312  1.00  0.00     0.072 A 
ATOM     24  C   UNL     1      10.175 -61.519 -23.874  1.00  0.00    -0.003 A 
ATOM     25  C   UNL     1      11.287 -60.270 -25.798  1.00  0.00     0.024 A 
ATOM     26  C   UNL     1       9.330 -62.053 -24.780  1.00  0.00     0.021 A 
ATOM     27  C   UNL     1      10.209 -61.924 -22.423  1.00  0.00     0.039 C 
ATOM     28  C   UNL     1      12.391 -59.633 -26.376  1.00  0.00     0.014 A 
ATOM     29  C   UNL     1      10.336 -60.882 -26.640  1.00  0.00     0.049 A 
ATOM     30  N   UNL     1       9.288 -61.638 -26.094  1.00  0.00    -0.358 N 
ATOM     31  C   UNL     1       8.371 -63.161 -24.398  1.00  0.00     0.054 C 
ATOM     32  C   UNL     1       9.024 -62.796 -22.004  1.00  0.00     0.005 C 
ATOM     33  C   UNL     1      12.495 -59.507 -27.765  1.00  0.00     0.021 A 
ATOM     34  C   UNL     1      10.429 -60.725 -28.030  1.00  0.00     0.047 A 
ATOM     35  C   UNL     1       8.706 -63.835 -23.068  1.00  0.00     0.007 C 
ATOM     36  C   UNL     1      11.504 -60.036 -28.584  1.00  0.00     0.043 A 
ATOM     37  H   UNL     1       8.735 -62.196 -26.734  1.00  0.00     0.166 HD
ATOM     38  Cl  UNL     1      11.626 -59.870 -30.292  1.00  0.00    -0.084 Cl
ENDBRANCH  22  23
ENDBRANCH  21  22
ENDBRANCH  20  21
ENDBRANCH   1  20
TORSDOF 8
ENDMDL
MODEL 3
REMARK VINA RESULT:   -11.816      1.813      2.610
REMARK INTER + INTRA:         -17.726
REMARK INTER:                 -17.219
REMARK INTRA:                  -0.507
REMARK UNBOUND:                -0.729
REMARK SMILES Cc1cc(=O)[nH]c2c1C(=O)C(=NCCCCN=c1c3c([nH]c4cc(Cl)ccc14)CCCC3)C=C2O
REMARK SMILES IDX 14 1 13 2 12 3 11 4 34 5 33 6 7 7 6 8 8 9 9 10 4 11 2 12
REMARK SMILES IDX 3 13 10 15 5 16 1 17 35 18 15 20 16 21 17 22 18 23 19 24
REMARK SMILES IDX 28 25 20 26 32 27 27 28 22 29 21 30 29 31 31 32 26 33 23 34
REMARK SMILES IDX 30 35 24 36 25 38
REMARK H PARENT 6 14 35 19 21 37
ROOT
ATOM      1  C   UNL     1      11.126 -55.403 -22.973  1.00  0.00     0.025 C 
ENDROOT
BRANCH   1   2
ATOM      2  C   UNL     1      10.955 -54.233 -22.005  1.00  0.00     0.143 C 
BRANCH   2   3
ATOM      3  N   UNL     1      11.723 -53.075 -22.443  1.00  0.00    -0.281 NA
BRANCH   3   4
ATOM      4  C   UNL     1      11.166 -51.931 -22.624  1.00  0.00     0.109 C 
ATOM      5  C   UNL     1       9.657 -50.136 -22.043  1.00  0.00     0.142 C 
ATOM      6  C   UNL     1       9.871 -51.453 -22.087  1.00  0.00     0.080 C 
ATOM      7  C   UNL     1      10.661 -49.159 -22.423  1.00  0.00     0.095 A 
ATOM      8  N   UNL     1      10.479 -47.861 -21.999  1.00  0.00    -0.319 N 
ATOM      9  C   UNL     1      11.749 -49.479 -23.152  1.00  0.00     0.055 A 
ATOM     10  C   UNL     1      11.901 -50.921 -23.516  1.00  0.00     0.213 C 
ATOM     11  C   UNL     1      11.339 -46.831 -22.279  1.00  0.00     0.248 A 
ATOM     12  C   UNL     1      12.705 -48.440 -23.539  1.00  0.00    -0.032 A 
ATOM     13  C   UNL     1      12.505 -47.174 -23.126  1.00  0.00     0.075 A 
ATOM     14  H   UNL     1       9.735 -47.629 -21.353  1.00  0.00     0.170 HD
ATOM     15  O   UNL     1      12.544 -51.305 -24.484  1.00  0.00    -0.287 OA
ATOM     16  O   UNL     1      11.164 -45.695 -21.859  1.00  0.00    -0.270 OA
ATOM     17  C   UNL     1      13.901 -48.792 -24.375  1.00  0.00     0.045 C 
BRANCH   5  18
ATOM     18  O   UNL     1       8.434 -49.650 -21.626  1.00  0.00    -0.506 OA
ATOM     19  H   UNL     1       8.052 -50.299 -21.007  1.00  0.00     0.293 HD
ENDBRANCH   5  18
ENDBRANCH   3   4
ENDBRANCH   2   3
ENDBRANCH   1   2
BRANCH   1  20
ATOM     20  C   UNL     1      11.066 -56.796 -22.336  1.00  0.00     0.025 C 
BRANCH  20  21
ATOM     21  C   UNL     1      10.270 -57.814 -23.156  1.00  0.00     0.143 C 
BRANCH  21  22
ATOM     22  N   UNL     1      11.183 -58.860 -23.576  1.00  0.00    -0.284 NA
BRANCH  22  23
ATOM     23  C   UNL     1      10.917 -59.811 -24.409  1.00  0.00     0.072 A 
ATOM     24  C   UNL     1      10.262 -61.043 -23.829  1.00  0.00    -0.003 A 
ATOM     25  C   UNL     1      11.151 -59.842 -25.894  1.00  0.00     0.024 A 
ATOM     26  C   UNL     1       9.606 -61.877 -24.662  1.00  0.00     0.021 A 
ATOM     27  C   UNL     1      10.317 -61.228 -22.334  1.00  0.00     0.039 C 
ATOM     28  C   UNL     1      12.107 -59.049 -26.540  1.00  0.00     0.014 A 
ATOM     29  C   UNL     1      10.407 -60.767 -26.655  1.00  0.00     0.049 A 
ATOM     30  N   UNL     1       9.534 -61.665 -26.023  1.00  0.00    -0.358 N 
ATOM     31  C   UNL     1       8.909 -63.116 -24.141  1.00  0.00     0.054 C 
ATOM     32  C   UNL     1       9.344 -62.288 -21.814  1.00  0.00     0.005 C 
ATOM     33  C   UNL     1      12.247 -59.092 -27.931  1.00  0.00     0.021 A 
ATOM     34  C   UNL     1      10.529 -60.783 -28.051  1.00  0.00     0.047 A 
ATOM     35  C   UNL     1       9.323 -63.507 -22.723  1.00  0.00     0.007 C 
ATOM     36  C   UNL     1      11.444 -59.944 -28.681  1.00  0.00     0.043 A 
ATOM     37  H   UNL     1       9.156 -62.419 -26.585  1.00  0.00     0.166 HD
ATOM     38  Cl  UNL     1      11.607 -59.987 -30.393  1.00  0.00    -0.084 Cl
ENDBRANCH  22  23
ENDBRANCH  21  22
ENDBRANCH  20  21
ENDBRANCH   1  20
TORSDOF 8
ENDMDL
MODEL 4
REMARK VINA RESULT:   -11.392      3.593     10.646
REMARK INTER + INTRA:         -17.116
REMARK INTER:                 -16.264
REMARK INTRA:                  -0.852
REMARK UNBOUND:                -0.729
REMARK SMILES Cc1cc(=O)[nH]c2c1C(=O)C(=NCCCCN=c1c3c([nH]c4cc(Cl)ccc14)CCCC3)C=C2O
REMARK SMILES IDX 14 1 13 2 12 3 11 4 34 5 33 6 7 7 6 8 8 9 9 10 4 11 2 12
REMARK SMILES IDX 3 13 10 15 5 16 1 17 35 18 15 20 16 21 17 22 18 23 19 24
REMARK SMILES IDX 28 25 20 26 32 27 27 28 22 29 21 30 29 31 31 32 26 33 23 34
REMARK SMILES IDX 30 35 24 36 25 38
REMARK H PARENT 6 14 35 19 21 37
ROOT
ATOM      1  C   UNL     1      11.081 -54.886 -22.955  1.00  0.00     0.025 C 
ENDROOT
BRANCH   1   2
ATOM      2  C   UNL     1      10.831 -56.282 -22.384  1.00  0.00     0.143 C 
BRANCH   2   3
ATOM      3  N   UNL     1      10.363 -57.194 -23.419  1.00  0.00    -0.281 NA
BRANCH   3   4
ATOM      4  C   UNL     1       9.426 -58.044 -23.189  1.00  0.00     0.109 C 
ATOM      5  C   UNL     1       7.159 -58.865 -23.328  1.00  0.00     0.142 C 
ATOM      6  C   UNL     1       7.964 -57.809 -23.185  1.00  0.00     0.080 C 
ATOM      7  C   UNL     1       7.652 -60.210 -23.563  1.00  0.00     0.095 A 
ATOM      8  N   UNL     1       6.761 -61.138 -24.055  1.00  0.00    -0.319 N 
ATOM      9  C   UNL     1       8.931 -60.566 -23.330  1.00  0.00     0.055 A 
ATOM     10  C   UNL     1       9.845 -59.482 -22.857  1.00  0.00     0.213 C 
ATOM     11  C   UNL     1       7.080 -62.444 -24.326  1.00  0.00     0.248 A 
ATOM     12  C   UNL     1       9.358 -61.950 -23.547  1.00  0.00    -0.032 A 
ATOM     13  C   UNL     1       8.471 -62.847 -24.018  1.00  0.00     0.075 A 
ATOM     14  H   UNL     1       5.834 -60.858 -24.348  1.00  0.00     0.170 HD
ATOM     15  O   UNL     1      10.862 -59.696 -22.212  1.00  0.00    -0.287 OA
ATOM     16  O   UNL     1       6.271 -63.235 -24.793  1.00  0.00    -0.270 OA
ATOM     17  C   UNL     1      10.776 -62.353 -23.261  1.00  0.00     0.045 C 
BRANCH   5  18
ATOM     18  O   UNL     1       5.790 -58.703 -23.250  1.00  0.00    -0.506 OA
ATOM     19  H   UNL     1       5.478 -59.182 -22.460  1.00  0.00     0.293 HD
ENDBRANCH   5  18
ENDBRANCH   3   4
ENDBRANCH   2   3
ENDBRANCH   1   2
BRANCH   1  20
ATOM     20  C   UNL     1      10.196 -53.774 -22.379  1.00  0.00     0.025 C 
BRANCH  20  21
ATOM     21  C   UNL     1      10.973 -52.524 -21.959  1.00  0.00     0.143 C 
BRANCH  21  22
ATOM     22  N   UNL     1      11.088 -51.660 -23.117  1.00  0.00    -0.284 NA
BRANCH  22  23
ATOM     23  C   UNL     1      12.132 -50.979 -23.456  1.00  0.00     0.072 A 
ATOM     24  C   UNL     1      12.092 -49.499 -23.154  1.00  0.00    -0.003 A 
ATOM     25  C   UNL     1      13.402 -51.474 -24.092  1.00  0.00     0.024 A 
ATOM     26  C   UNL     1      13.256 -48.819 -23.104  1.00  0.00     0.021 A 
ATOM     27  C   UNL     1      10.751 -48.882 -22.850  1.00  0.00     0.039 C 
ATOM     28  C   UNL     1      13.480 -52.656 -24.839  1.00  0.00     0.014 A 
ATOM     29  C   UNL     1      14.551 -50.665 -23.976  1.00  0.00     0.049 A 
ATOM     30  N   UNL     1      14.477 -49.414 -23.346  1.00  0.00    -0.358 N 
ATOM     31  C   UNL     1      13.287 -47.340 -22.783  1.00  0.00     0.054 C 
ATOM     32  C   UNL     1      10.847 -47.492 -22.220  1.00  0.00     0.005 C 
ATOM     33  C   UNL     1      14.701 -53.086 -25.369  1.00  0.00     0.021 A 
ATOM     34  C   UNL     1      15.778 -51.117 -24.482  1.00  0.00     0.047 A 
ATOM     35  C   UNL     1      11.924 -46.657 -22.895  1.00  0.00     0.007 C 
ATOM     36  C   UNL     1      15.847 -52.324 -25.171  1.00  0.00     0.043 A 
ATOM     37  H   UNL     1      15.277 -48.799 -23.437  1.00  0.00     0.166 HD
ATOM     38  Cl  UNL     1      17.351 -52.859 -25.812  1.00  0.00    -0.084 Cl
ENDBRANCH  22  23
ENDBRANCH  21  22
ENDBRANCH  20  21
ENDBRANCH   1  20
TORSDOF 8
ENDMDL
MODEL 5
REMARK VINA RESULT:   -11.218      4.154     11.168
REMARK INTER + INTRA:         -16.866
REMARK INTER:                 -16.298
REMARK INTRA:                  -0.569
REMARK UNBOUND:                -0.729
REMARK SMILES Cc1cc(=O)[nH]c2c1C(=O)C(=NCCCCN=c1c3c([nH]c4cc(Cl)ccc14)CCCC3)C=C2O
REMARK SMILES IDX 14 1 13 2 12 3 11 4 34 5 33 6 7 7 6 8 8 9 9 10 4 11 2 12
REMARK SMILES IDX 3 13 10 15 5 16 1 17 35 18 15 20 16 21 17 22 18 23 19 24
REMARK SMILES IDX 28 25 20 26 32 27 27 28 22 29 21 30 29 31 31 32 26 33 23 34
REMARK SMILES IDX 30 35 24 36 25 38
REMARK H PARENT 6 14 35 19 21 37
ROOT
ATOM      1  C   UNL     1      10.192 -54.651 -23.420  1.00  0.00     0.025 C 
ENDROOT
BRANCH   1   2
ATOM      2  C   UNL     1      10.054 -55.932 -22.598  1.00  0.00     0.143 C 
BRANCH   2   3
ATOM      3  N   UNL     1       9.959 -57.100 -23.464  1.00  0.00    -0.281 NA
BRANCH   3   4
ATOM      4  C   UNL     1       9.098 -58.029 -23.243  1.00  0.00     0.109 C 
ATOM      5  C   UNL     1       6.906 -59.034 -23.384  1.00  0.00     0.142 C 
ATOM      6  C   UNL     1       7.621 -57.918 -23.227  1.00  0.00     0.080 C 
ATOM      7  C   UNL     1       7.508 -60.329 -23.643  1.00  0.00     0.095 A 
ATOM      8  N   UNL     1       6.695 -61.321 -24.147  1.00  0.00    -0.319 N 
ATOM      9  C   UNL     1       8.814 -60.582 -23.424  1.00  0.00     0.055 A 
ATOM     10  C   UNL     1       9.638 -59.433 -22.937  1.00  0.00     0.213 C 
ATOM     11  C   UNL     1       7.119 -62.591 -24.441  1.00  0.00     0.248 A 
ATOM     12  C   UNL     1       9.353 -61.921 -23.666  1.00  0.00    -0.032 A 
ATOM     13  C   UNL     1       8.542 -62.882 -24.147  1.00  0.00     0.075 A 
ATOM     14  H   UNL     1       5.745 -61.114 -24.429  1.00  0.00     0.170 HD
ATOM     15  O   UNL     1      10.673 -59.572 -22.301  1.00  0.00    -0.287 OA
ATOM     16  O   UNL     1       6.376 -63.439 -24.917  1.00  0.00    -0.270 OA
ATOM     17  C   UNL     1      10.802 -62.209 -23.394  1.00  0.00     0.045 C 
BRANCH   5  18
ATOM     18  O   UNL     1       5.529 -58.989 -23.296  1.00  0.00    -0.506 OA
ATOM     19  H   UNL     1       5.166 -59.517 -24.030  1.00  0.00     0.293 HD
ENDBRANCH   5  18
ENDBRANCH   3   4
ENDBRANCH   2   3
ENDBRANCH   1   2
BRANCH   1  20
ATOM     20  C   UNL     1      11.148 -53.601 -22.842  1.00  0.00     0.025 C 
BRANCH  20  21
ATOM     21  C   UNL     1      11.929 -52.826 -23.906  1.00  0.00     0.143 C 
BRANCH  21  22
ATOM     22  N   UNL     1      12.801 -51.889 -23.226  1.00  0.00    -0.284 NA
BRANCH  22  23
ATOM     23  C   UNL     1      13.221 -50.762 -23.697  1.00  0.00     0.072 A 
ATOM     24  C   UNL     1      14.568 -50.785 -24.382  1.00  0.00    -0.003 A 
ATOM     25  C   UNL     1      12.529 -49.427 -23.677  1.00  0.00     0.024 A 
ATOM     26  C   UNL     1      14.879 -49.780 -25.226  1.00  0.00     0.021 A 
ATOM     27  C   UNL     1      15.459 -51.975 -24.137  1.00  0.00     0.039 C 
ATOM     28  C   UNL     1      11.539 -49.086 -22.748  1.00  0.00     0.014 A 
ATOM     29  C   UNL     1      12.953 -48.456 -24.607  1.00  0.00     0.049 A 
ATOM     30  N   UNL     1      14.029 -48.720 -25.467  1.00  0.00    -0.358 N 
ATOM     31  C   UNL     1      16.202 -49.756 -25.962  1.00  0.00     0.054 C 
ATOM     32  C   UNL     1      16.620 -52.084 -25.127  1.00  0.00     0.005 C 
ATOM     33  C   UNL     1      10.901 -47.843 -22.809  1.00  0.00     0.021 A 
ATOM     34  C   UNL     1      12.288 -47.224 -24.684  1.00  0.00     0.047 A 
ATOM     35  C   UNL     1      17.241 -50.721 -25.394  1.00  0.00     0.007 C 
ATOM     36  C   UNL     1      11.265 -46.927 -23.788  1.00  0.00     0.043 A 
ATOM     37  H   UNL     1      14.407 -47.940 -25.992  1.00  0.00     0.166 HD
ATOM     38  Cl  UNL     1      10.472 -45.402 -23.871  1.00  0.00    -0.084 Cl
ENDBRANCH  22  23
ENDBRANCH  21  22
ENDBRANCH  20  21
ENDBRANCH   1  20
TORSDOF 8
ENDMDL
MODEL 6
REMARK VINA RESULT:   -11.068      3.151     10.488
REMARK INTER + INTRA:         -16.651
REMARK INTER:                 -15.512
REMARK INTRA:                  -1.139
REMARK UNBOUND:                -0.729
REMARK SMILES Cc1cc(=O)[nH]c2c1C(=O)C(=NCCCCN=c1c3c([nH]c4cc(Cl)ccc14)CCCC3)C=C2O
REMARK SMILES IDX 14 1 13 2 12 3 11 4 34 5 33 6 7 7 6 8 8 9 9 10 4 11 2 12
REMARK SMILES IDX 3 13 10 15 5 16 1 17 35 18 15 20 16 21 17 22 18 23 19 24
REMARK SMILES IDX 28 25 20 26 32 27 27 28 22 29 21 30 29 31 31 32 26 33 23 34
REMARK SMILES IDX 30 35 24 36 25 38
REMARK H PARENT 6 14 35 19 21 37
ROOT
ATOM      1  C   UNL     1      10.233 -53.608 -23.207  1.00  0.00     0.025 C 
ENDROOT
BRANCH   1   2
ATOM      2  C   UNL     1       9.966 -55.086 -23.487  1.00  0.00     0.143 C 
BRANCH   2   3
ATOM      3  N   UNL     1      11.214 -55.822 -23.646  1.00  0.00    -0.281 NA
BRANCH   3   4
ATOM      4  C   UNL     1      11.394 -56.965 -23.087  1.00  0.00     0.109 C 
ATOM      5  C   UNL     1      11.118 -58.579 -21.311  1.00  0.00     0.142 C 
ATOM      6  C   UNL     1      11.299 -57.300 -21.647  1.00  0.00     0.080 C 
ATOM      7  C   UNL     1      10.935 -59.635 -22.289  1.00  0.00     0.095 A 
ATOM      8  N   UNL     1      10.398 -60.825 -21.849  1.00  0.00    -0.319 N 
ATOM      9  C   UNL     1      11.256 -59.486 -23.590  1.00  0.00     0.055 A 
ATOM     10  C   UNL     1      11.773 -58.142 -23.994  1.00  0.00     0.213 C 
ATOM     11  C   UNL     1      10.167 -61.911 -22.653  1.00  0.00     0.248 A 
ATOM     12  C   UNL     1      11.087 -60.604 -24.520  1.00  0.00    -0.032 A 
ATOM     13  C   UNL     1      10.572 -61.763 -24.070  1.00  0.00     0.075 A 
ATOM     14  H   UNL     1      10.042 -60.912 -20.905  1.00  0.00     0.170 HD
ATOM     15  O   UNL     1      12.486 -57.965 -24.972  1.00  0.00    -0.287 OA
ATOM     16  O   UNL     1       9.659 -62.943 -22.235  1.00  0.00    -0.270 OA
ATOM     17  C   UNL     1      11.471 -60.446 -25.963  1.00  0.00     0.045 C 
BRANCH   5  18
ATOM     18  O   UNL     1      11.104 -58.946 -19.980  1.00  0.00    -0.506 OA
ATOM     19  H   UNL     1      11.993 -59.274 -19.752  1.00  0.00     0.293 HD
ENDBRANCH   5  18
ENDBRANCH   3   4
ENDBRANCH   2   3
ENDBRANCH   1   2
BRANCH   1  20
ATOM     20  C   UNL     1      10.864 -53.302 -21.844  1.00  0.00     0.025 C 
BRANCH  20  21
ATOM     21  C   UNL     1      11.041 -51.807 -21.568  1.00  0.00     0.143 C 
BRANCH  21  22
ATOM     22  N   UNL     1      11.093 -51.121 -22.844  1.00  0.00    -0.284 NA
BRANCH  22  23
ATOM     23  C   UNL     1      12.086 -50.429 -23.295  1.00  0.00     0.072 A 
ATOM     24  C   UNL     1      11.982 -48.929 -23.135  1.00  0.00    -0.003 A 
ATOM     25  C   UNL     1      13.353 -50.924 -23.937  1.00  0.00     0.024 A 
ATOM     26  C   UNL     1      13.111 -48.194 -23.204  1.00  0.00     0.021 A 
ATOM     27  C   UNL     1      10.625 -48.349 -22.832  1.00  0.00     0.039 C 
ATOM     28  C   UNL     1      13.461 -52.168 -24.569  1.00  0.00     0.014 A 
ATOM     29  C   UNL     1      14.462 -50.054 -23.952  1.00  0.00     0.049 A 
ATOM     30  N   UNL     1      14.350 -48.752 -23.442  1.00  0.00    -0.358 N 
ATOM     31  C   UNL     1      13.078 -46.691 -23.029  1.00  0.00     0.054 C 
ATOM     32  C   UNL     1      10.674 -46.901 -22.344  1.00  0.00     0.005 C 
ATOM     33  C   UNL     1      14.680 -52.590 -25.110  1.00  0.00     0.021 A 
ATOM     34  C   UNL     1      15.690 -50.494 -24.467  1.00  0.00     0.047 A 
ATOM     35  C   UNL     1      11.679 -46.087 -23.144  1.00  0.00     0.007 C 
ATOM     36  C   UNL     1      15.792 -51.759 -25.038  1.00  0.00     0.043 A 
ATOM     37  H   UNL     1      15.112 -48.112 -23.629  1.00  0.00     0.166 HD
ATOM     38  Cl  UNL     1      17.295 -52.284 -25.692  1.00  0.00    -0.084 Cl
ENDBRANCH  22  23
ENDBRANCH  21  22
ENDBRANCH  20  21
ENDBRANCH   1  20
TORSDOF 8
ENDMDL
MODEL 7
REMARK VINA RESULT:   -10.936      3.240     10.830
REMARK INTER + INTRA:         -16.461
REMARK INTER:                 -15.411
REMARK INTRA:                  -1.049
REMARK UNBOUND:                -0.729
REMARK SMILES Cc1cc(=O)[nH]c2c1C(=O)C(=NCCCCN=c1c3c([nH]c4cc(Cl)ccc14)CCCC3)C=C2O
REMARK SMILES IDX 14 1 13 2 12 3 11 4 34 5 33 6 7 7 6 8 8 9 9 10 4 11 2 12
REMARK SMILES IDX 3 13 10 15 5 16 1 17 35 18 15 20 16 21 17 22 18 23 19 24
REMARK SMILES IDX 28 25 20 26 32 27 27 28 22 29 21 30 29 31 31 32 26 33 23 34
REMARK SMILES IDX 30 35 24 36 25 38
REMARK H PARENT 6 14 35 19 21 37
ROOT
ATOM      1  C   UNL     1      10.899 -53.601 -22.094  1.00  0.00     0.025 C 
ENDROOT
BRANCH   1   2
ATOM      2  C   UNL     1      10.753 -54.760 -23.078  1.00  0.00     0.143 C 
BRANCH   2   3
ATOM      3  N   UNL     1      10.277 -55.961 -22.404  1.00  0.00    -0.281 NA
BRANCH   3   4
ATOM      4  C   UNL     1      10.489 -57.132 -22.891  1.00  0.00     0.109 C 
ATOM      5  C   UNL     1      11.799 -59.130 -23.245  1.00  0.00     0.142 C 
ATOM      6  C   UNL     1      11.790 -57.801 -23.121  1.00  0.00     0.080 C 
ATOM      7  C   UNL     1      10.610 -59.947 -23.089  1.00  0.00     0.095 A 
ATOM      8  N   UNL     1      10.787 -61.296 -22.870  1.00  0.00    -0.319 N 
ATOM      9  C   UNL     1       9.364 -59.434 -23.136  1.00  0.00     0.055 A 
ATOM     10  C   UNL     1       9.263 -57.953 -23.313  1.00  0.00     0.213 C 
ATOM     11  C   UNL     1       9.762 -62.190 -22.705  1.00  0.00     0.248 A 
ATOM     12  C   UNL     1       8.202 -60.317 -23.014  1.00  0.00    -0.032 A 
ATOM     13  C   UNL     1       8.393 -61.634 -22.813  1.00  0.00     0.075 A 
ATOM     14  H   UNL     1      11.712 -61.674 -22.712  1.00  0.00     0.170 HD
ATOM     15  O   UNL     1       8.284 -57.399 -23.794  1.00  0.00    -0.287 OA
ATOM     16  O   UNL     1       9.955 -63.378 -22.481  1.00  0.00    -0.270 OA
ATOM     17  C   UNL     1       6.814 -59.749 -23.096  1.00  0.00     0.045 C 
BRANCH   5  18
ATOM     18  O   UNL     1      12.977 -59.786 -23.539  1.00  0.00    -0.506 OA
ATOM     19  H   UNL     1      12.992 -60.615 -23.026  1.00  0.00     0.293 HD
ENDBRANCH   5  18
ENDBRANCH   3   4
ENDBRANCH   2   3
ENDBRANCH   1   2
BRANCH   1  20
ATOM     20  C   UNL     1       9.910 -52.445 -22.289  1.00  0.00     0.025 C 
BRANCH  20  21
ATOM     21  C   UNL     1      10.419 -51.102 -21.759  1.00  0.00     0.143 C 
BRANCH  21  22
ATOM     22  N   UNL     1      10.889 -50.326 -22.890  1.00  0.00    -0.284 NA
BRANCH  22  23
ATOM     23  C   UNL     1      12.118 -50.024 -23.146  1.00  0.00     0.072 A 
ATOM     24  C   UNL     1      12.572 -48.648 -22.715  1.00  0.00    -0.003 A 
ATOM     25  C   UNL     1      13.172 -50.877 -23.798  1.00  0.00     0.024 A 
ATOM     26  C   UNL     1      13.895 -48.418 -22.582  1.00  0.00     0.021 A 
ATOM     27  C   UNL     1      11.510 -47.631 -22.386  1.00  0.00     0.039 C 
ATOM     28  C   UNL     1      12.877 -51.953 -24.644  1.00  0.00     0.014 A 
ATOM     29  C   UNL     1      14.521 -50.526 -23.587  1.00  0.00     0.049 A 
ATOM     30  N   UNL     1      14.848 -49.378 -22.850  1.00  0.00    -0.358 N 
ATOM     31  C   UNL     1      14.414 -47.070 -22.131  1.00  0.00     0.054 C 
ATOM     32  C   UNL     1      12.045 -46.411 -21.633  1.00  0.00     0.005 C 
ATOM     33  C   UNL     1      13.901 -52.736 -25.184  1.00  0.00     0.021 A 
ATOM     34  C   UNL     1      15.543 -51.334 -24.106  1.00  0.00     0.047 A 
ATOM     35  C   UNL     1      13.375 -45.951 -22.210  1.00  0.00     0.007 C 
ATOM     36  C   UNL     1      15.228 -52.435 -24.897  1.00  0.00     0.043 A 
ATOM     37  H   UNL     1      15.814 -49.072 -22.871  1.00  0.00     0.166 HD
ATOM     38  Cl  UNL     1      16.488 -53.407 -25.552  1.00  0.00    -0.084 Cl
ENDBRANCH  22  23
ENDBRANCH  21  22
ENDBRANCH  20  21
ENDBRANCH   1  20
TORSDOF 8
ENDMDL
MODEL 8
REMARK VINA RESULT:   -10.903      2.236      4.041
REMARK INTER + INTRA:         -16.412
REMARK INTER:                 -15.470
REMARK INTRA:                  -0.942
REMARK UNBOUND:                -0.729
REMARK SMILES Cc1cc(=O)[nH]c2c1C(=O)C(=NCCCCN=c1c3c([nH]c4cc(Cl)ccc14)CCCC3)C=C2O
REMARK SMILES IDX 14 1 13 2 12 3 11 4 34 5 33 6 7 7 6 8 8 9 9 10 4 11 2 12
REMARK SMILES IDX 3 13 10 15 5 16 1 17 35 18 15 20 16 21 17 22 18 23 19 24
REMARK SMILES IDX 28 25 20 26 32 27 27 28 22 29 21 30 29 31 31 32 26 33 23 34
REMARK SMILES IDX 30 35 24 36 25 38
REMARK H PARENT 6 14 35 19 21 37
ROOT
ATOM      1  C   UNL     1      12.193 -57.106 -27.859  1.00  0.00     0.025 C 
ENDROOT
BRANCH   1   2
ATOM      2  C   UNL     1      12.908 -56.287 -26.786  1.00  0.00     0.143 C 
BRANCH   2   3
ATOM      3  N   UNL     1      12.180 -55.060 -26.493  1.00  0.00    -0.281 NA
BRANCH   3   4
ATOM      4  C   UNL     1      12.610 -54.217 -25.622  1.00  0.00     0.109 C 
ATOM      5  C   UNL     1      13.840 -52.261 -24.919  1.00  0.00     0.142 C 
ATOM      6  C   UNL     1      13.790 -53.327 -25.721  1.00  0.00     0.080 C 
ATOM      7  C   UNL     1      12.763 -51.898 -24.017  1.00  0.00     0.095 A 
ATOM      8  N   UNL     1      12.752 -50.613 -23.521  1.00  0.00    -0.319 N 
ATOM      9  C   UNL     1      11.785 -52.759 -23.668  1.00  0.00     0.055 A 
ATOM     10  C   UNL     1      11.837 -54.112 -24.301  1.00  0.00     0.213 C 
ATOM     11  C   UNL     1      11.802 -50.126 -22.662  1.00  0.00     0.248 A 
ATOM     12  C   UNL     1      10.749 -52.346 -22.720  1.00  0.00    -0.032 A 
ATOM     13  C   UNL     1      10.760 -51.089 -22.236  1.00  0.00     0.075 A 
ATOM     14  H   UNL     1      13.407 -49.922 -23.866  1.00  0.00     0.170 HD
ATOM     15  O   UNL     1      11.328 -55.106 -23.802  1.00  0.00    -0.287 OA
ATOM     16  O   UNL     1      11.805 -48.968 -22.265  1.00  0.00    -0.270 OA
ATOM     17  C   UNL     1       9.677 -53.314 -22.309  1.00  0.00     0.045 C 
BRANCH   5  18
ATOM     18  O   UNL     1      14.957 -51.450 -24.921  1.00  0.00    -0.506 OA
ATOM     19  H   UNL     1      15.633 -51.871 -24.358  1.00  0.00     0.293 HD
ENDBRANCH   5  18
ENDBRANCH   3   4
ENDBRANCH   2   3
ENDBRANCH   1   2
BRANCH   1  20
ATOM     20  C   UNL     1      12.417 -58.621 -27.787  1.00  0.00     0.025 C 
BRANCH  20  21
ATOM     21  C   UNL     1      11.124 -59.430 -27.656  1.00  0.00     0.143 C 
BRANCH  21  22
ATOM     22  N   UNL     1      11.354 -60.486 -26.690  1.00  0.00    -0.284 NA
BRANCH  22  23
ATOM     23  C   UNL     1      10.688 -60.678 -25.600  1.00  0.00     0.072 A 
ATOM     24  C   UNL     1       9.572 -61.695 -25.670  1.00  0.00    -0.003 A 
ATOM     25  C   UNL     1      10.894 -60.037 -24.255  1.00  0.00     0.024 A 
ATOM     26  C   UNL     1       9.115 -62.230 -24.519  1.00  0.00     0.021 A 
ATOM     27  C   UNL     1       9.085 -62.108 -27.035  1.00  0.00     0.039 C 
ATOM     28  C   UNL     1      11.530 -58.803 -24.079  1.00  0.00     0.014 A 
ATOM     29  C   UNL     1      10.359 -60.693 -23.128  1.00  0.00     0.049 A 
ATOM     30  N   UNL     1       9.604 -61.866 -23.282  1.00  0.00    -0.358 N 
ATOM     31  C   UNL     1       8.016 -63.272 -24.522  1.00  0.00     0.054 C 
ATOM     32  C   UNL     1       8.226 -63.373 -27.020  1.00  0.00     0.005 C 
ATOM     33  C   UNL     1      11.731 -58.280 -22.798  1.00  0.00     0.021 A 
ATOM     34  C   UNL     1      10.591 -60.181 -21.844  1.00  0.00     0.047 A 
ATOM     35  C   UNL     1       7.258 -63.365 -25.847  1.00  0.00     0.007 C 
ATOM     36  C   UNL     1      11.278 -58.981 -21.686  1.00  0.00     0.043 A 
ATOM     37  H   UNL     1       9.099 -62.204 -22.472  1.00  0.00     0.166 HD
ATOM     38  Cl  UNL     1      11.537 -58.344 -20.109  1.00  0.00    -0.084 Cl
ENDBRANCH  22  23
ENDBRANCH  21  22
ENDBRANCH  20  21
ENDBRANCH   1  20
TORSDOF 8
ENDMDL
MODEL 9
REMARK VINA RESULT:   -10.859      3.832     10.737
REMARK INTER + INTRA:         -16.349
REMARK INTER:                 -15.443
REMARK INTRA:                  -0.906
REMARK UNBOUND:                -0.729
REMARK SMILES Cc1cc(=O)[nH]c2c1C(=O)C(=NCCCCN=c1c3c([nH]c4cc(Cl)ccc14)CCCC3)C=C2O
REMARK SMILES IDX 14 1 13 2 12 3 11 4 34 5 33 6 7 7 6 8 8 9 9 10 4 11 2 12
REMARK SMILES IDX 3 13 10 15 5 16 1 17 35 18 15 20 16 21 17 22 18 23 19 24
REMARK SMILES IDX 28 25 20 26 32 27 27 28 22 29 21 30 29 31 31 32 26 33 23 34
REMARK SMILES IDX 30 35 24 36 25 38
REMARK H PARENT 6 14 35 19 21 37
ROOT
ATOM      1  C   UNL     1       9.884 -53.208 -22.803  1.00  0.00     0.025 C 
ENDROOT
BRANCH   1   2
ATOM      2  C   UNL     1       9.704 -54.672 -23.205  1.00  0.00     0.143 C 
BRANCH   2   3
ATOM      3  N   UNL     1      10.983 -55.281 -23.544  1.00  0.00    -0.281 NA
BRANCH   3   4
ATOM      4  C   UNL     1      11.312 -56.441 -23.097  1.00  0.00     0.109 C 
ATOM      5  C   UNL     1      11.273 -58.233 -21.478  1.00  0.00     0.142 C 
ATOM      6  C   UNL     1      11.290 -56.916 -21.694  1.00  0.00     0.080 C 
ATOM      7  C   UNL     1      11.198 -59.209 -22.549  1.00  0.00     0.095 A 
ATOM      8  N   UNL     1      10.819 -60.492 -22.218  1.00  0.00    -0.319 N 
ATOM      9  C   UNL     1      11.469 -58.902 -23.834  1.00  0.00     0.055 A 
ATOM     10  C   UNL     1      11.811 -57.474 -24.115  1.00  0.00     0.213 C 
ATOM     11  C   UNL     1      10.704 -61.519 -23.118  1.00  0.00     0.248 A 
ATOM     12  C   UNL     1      11.416 -59.942 -24.864  1.00  0.00    -0.032 A 
ATOM     13  C   UNL     1      11.055 -61.193 -24.520  1.00  0.00     0.075 A 
ATOM     14  H   UNL     1      10.496 -60.708 -21.283  1.00  0.00     0.170 HD
ATOM     15  O   UNL     1      12.476 -57.121 -25.080  1.00  0.00    -0.287 OA
ATOM     16  O   UNL     1      10.334 -62.639 -22.794  1.00  0.00    -0.270 OA
ATOM     17  C   UNL     1      11.747 -59.606 -26.289  1.00  0.00     0.045 C 
BRANCH   5  18
ATOM     18  O   UNL     1      11.333 -58.720 -20.188  1.00  0.00    -0.506 OA
ATOM     19  H   UNL     1      12.249 -59.011 -20.021  1.00  0.00     0.293 HD
ENDBRANCH   5  18
ENDBRANCH   3   4
ENDBRANCH   2   3
ENDBRANCH   1   2
BRANCH   1  20
ATOM     20  C   UNL     1      10.897 -52.956 -21.680  1.00  0.00     0.025 C 
BRANCH  20  21
ATOM     21  C   UNL     1      11.534 -51.565 -21.726  1.00  0.00     0.143 C 
BRANCH  21  22
ATOM     22  N   UNL     1      11.488 -51.098 -23.098  1.00  0.00    -0.284 NA
BRANCH  22  23
ATOM     23  C   UNL     1      12.131 -50.087 -23.578  1.00  0.00     0.072 A 
ATOM     24  C   UNL     1      13.381 -50.403 -24.366  1.00  0.00    -0.003 A 
ATOM     25  C   UNL     1      11.783 -48.627 -23.478  1.00  0.00     0.024 A 
ATOM     26  C   UNL     1      13.863 -49.469 -25.212  1.00  0.00     0.021 A 
ATOM     27  C   UNL     1      13.976 -51.779 -24.215  1.00  0.00     0.039 C 
ATOM     28  C   UNL     1      10.971 -48.096 -22.468  1.00  0.00     0.014 A 
ATOM     29  C   UNL     1      12.360 -47.750 -24.418  1.00  0.00     0.049 A 
ATOM     30  N   UNL     1      13.278 -48.229 -25.365  1.00  0.00    -0.358 N 
ATOM     31  C   UNL     1      15.098 -49.732 -26.048  1.00  0.00     0.054 C 
ATOM     32  C   UNL     1      15.004 -52.123 -25.293  1.00  0.00     0.005 C 
ATOM     33  C   UNL     1      10.648 -46.736 -22.454  1.00  0.00     0.021 A 
ATOM     34  C   UNL     1      12.007 -46.393 -24.419  1.00  0.00     0.047 A 
ATOM     35  C   UNL     1      15.913 -50.938 -25.581  1.00  0.00     0.007 C 
ATOM     36  C   UNL     1      11.151 -45.895 -23.441  1.00  0.00     0.043 A 
ATOM     37  H   UNL     1      13.794 -47.542 -25.902  1.00  0.00     0.166 HD
ATOM     38  Cl  UNL     1      10.742 -44.224 -23.432  1.00  0.00    -0.084 Cl
ENDBRANCH  22  23
ENDBRANCH  21  22
ENDBRANCH  20  21
ENDBRANCH   1  20
TORSDOF 8
ENDMDL
