MODEL 1
REMARK VINA RESULT:    -9.826      0.000      0.000
REMARK INTER + INTRA:         -10.113
REMARK INTER:                 -10.113
REMARK INTRA:                   0.000
REMARK UNBOUND:                 0.000
REMARK SMILES CC1=C[C@@H]2Cc3nc4cc(Cl)ccc4c(N)c3[C@H](C1)C2
REMARK SMILES IDX 1 1 2 2 3 3 4 4 5 5 6 6 7 7 8 8 9 9 10 10 11 11 12 12 13 13
REMARK SMILES IDX 14 14 15 15 17 16 18 17 19 18 20 19 16 20
REMARK H PARENT 16 21 16 22
ROOT
ATOM      1  C   UNL     1       8.725 -60.763 -25.360  1.00  0.00     0.039 C 
ATOM      2  C   UNL     1       9.936 -60.424 -24.542  1.00  0.00    -0.076 C 
ATOM      3  C   UNL     1      10.008 -60.680 -23.223  1.00  0.00    -0.024 C 
ATOM      4  C   UNL     1      11.230 -60.362 -22.388  1.00  0.00     0.018 C 
ATOM      5  C   UNL     1      11.043 -59.043 -21.627  1.00  0.00     0.064 C 
ATOM      6  C   UNL     1      11.249 -57.807 -22.477  1.00  0.00     0.047 A 
ATOM      7  N   UNL     1      10.899 -56.645 -21.877  1.00  0.00    -0.252 NA
ATOM      8  C   UNL     1      11.122 -55.492 -22.515  1.00  0.00     0.074 A 
ATOM      9  C   UNL     1      10.796 -54.321 -21.848  1.00  0.00     0.049 A 
ATOM     10  C   UNL     1      11.020 -53.074 -22.423  1.00  0.00     0.043 A 
ATOM     11  Cl  UNL     1      10.605 -51.644 -21.561  1.00  0.00    -0.084 Cl
ATOM     12  C   UNL     1      11.584 -52.979 -23.685  1.00  0.00     0.021 A 
ATOM     13  C   UNL     1      11.913 -54.146 -24.373  1.00  0.00     0.014 A 
ATOM     14  C   UNL     1      11.679 -55.427 -23.810  1.00  0.00     0.024 A 
ATOM     15  C   UNL     1      11.966 -56.658 -24.467  1.00  0.00     0.046 A 
ATOM     16  C   UNL     1      11.814 -57.868 -23.758  1.00  0.00     0.001 A 
ATOM     17  C   UNL     1      12.198 -59.217 -24.358  1.00  0.00     0.028 C 
ATOM     18  C   UNL     1      11.078 -59.759 -25.282  1.00  0.00     0.039 C 
ATOM     19  C   UNL     1      12.482 -60.248 -23.260  1.00  0.00     0.017 C 
ENDROOT
BRANCH  15  20
ATOM     20  N   UNL     1      12.591 -56.657 -25.738  1.00  0.00    -0.398 N 
ATOM     21  H   UNL     1      13.592 -56.496 -25.695  1.00  0.00     0.156 HD
ATOM     22  H   UNL     1      12.163 -56.033 -26.413  1.00  0.00     0.156 HD
ENDBRANCH  15  20
TORSDOF 1
ENDMDL
MODEL 2
REMARK VINA RESULT:    -9.196      1.981      3.017
REMARK INTER + INTRA:          -9.465
REMARK INTER:                  -9.465
REMARK INTRA:                   0.000
REMARK UNBOUND:                 0.000
REMARK SMILES CC1=C[C@@H]2Cc3nc4cc(Cl)ccc4c(N)c3[C@H](C1)C2
REMARK SMILES IDX 1 1 2 2 3 3 4 4 5 5 6 6 7 7 8 8 9 9 10 10 11 11 12 12 13 13
REMARK SMILES IDX 14 14 15 15 17 16 18 17 19 18 20 19 16 20
REMARK H PARENT 16 21 16 22
ROOT
ATOM      1  C   UNL     1       9.128 -62.361 -27.125  1.00  0.00     0.039 C 
ATOM      2  C   UNL     1       9.045 -62.161 -25.641  1.00  0.00    -0.076 C 
ATOM      3  C   UNL     1       7.871 -62.128 -24.984  1.00  0.00    -0.024 C 
ATOM      4  C   UNL     1       7.771 -61.947 -23.484  1.00  0.00     0.018 C 
ATOM      5  C   UNL     1       7.455 -60.488 -23.130  1.00  0.00     0.064 C 
ATOM      6  C   UNL     1       8.651 -59.563 -23.205  1.00  0.00     0.047 A 
ATOM      7  N   UNL     1       8.354 -58.247 -23.088  1.00  0.00    -0.252 NA
ATOM      8  C   UNL     1       9.350 -57.357 -23.059  1.00  0.00     0.074 A 
ATOM      9  C   UNL     1       9.009 -56.024 -22.888  1.00  0.00     0.049 A 
ATOM     10  C   UNL     1       9.982 -55.031 -22.816  1.00  0.00     0.043 A 
ATOM     11  Cl  UNL     1       9.518 -53.389 -22.600  1.00  0.00    -0.084 Cl
ATOM     12  C   UNL     1      11.324 -55.362 -22.909  1.00  0.00     0.021 A 
ATOM     13  C   UNL     1      11.686 -56.697 -23.087  1.00  0.00     0.014 A 
ATOM     14  C   UNL     1      10.708 -57.721 -23.178  1.00  0.00     0.024 A 
ATOM     15  C   UNL     1      11.006 -59.099 -23.385  1.00  0.00     0.046 A 
ATOM     16  C   UNL     1       9.961 -60.045 -23.326  1.00  0.00     0.001 A 
ATOM     17  C   UNL     1      10.214 -61.546 -23.436  1.00  0.00     0.028 C 
ATOM     18  C   UNL     1      10.362 -61.983 -24.915  1.00  0.00     0.039 C 
ATOM     19  C   UNL     1       9.076 -62.344 -22.791  1.00  0.00     0.017 C 
ENDROOT
BRANCH  15  20
ATOM     20  N   UNL     1      12.353 -59.536 -23.441  1.00  0.00    -0.398 N 
ATOM     21  H   UNL     1      13.009 -58.870 -23.046  1.00  0.00     0.156 HD
ATOM     22  H   UNL     1      12.658 -59.827 -24.362  1.00  0.00     0.156 HD
ENDBRANCH  15  20
TORSDOF 1
ENDMDL
MODEL 3
REMARK VINA RESULT:    -8.947      4.105      7.215
REMARK INTER + INTRA:          -9.208
REMARK INTER:                  -9.208
REMARK INTRA:                   0.000
REMARK UNBOUND:                 0.000
REMARK SMILES CC1=C[C@@H]2Cc3nc4cc(Cl)ccc4c(N)c3[C@H](C1)C2
REMARK SMILES IDX 1 1 2 2 3 3 4 4 5 5 6 6 7 7 8 8 9 9 10 10 11 11 12 12 13 13
REMARK SMILES IDX 14 14 15 15 17 16 18 17 19 18 20 19 16 20
REMARK H PARENT 16 21 16 22
ROOT
ATOM      1  C   UNL     1       9.619 -56.376 -22.760  1.00  0.00     0.039 C 
ATOM      2  C   UNL     1      10.502 -57.569 -22.968  1.00  0.00    -0.076 C 
ATOM      3  C   UNL     1      11.564 -57.544 -23.795  1.00  0.00    -0.024 C 
ATOM      4  C   UNL     1      12.476 -58.734 -24.001  1.00  0.00     0.018 C 
ATOM      5  C   UNL     1      12.108 -59.489 -25.284  1.00  0.00     0.064 C 
ATOM      6  C   UNL     1      10.897 -60.387 -25.146  1.00  0.00     0.047 A 
ATOM      7  N   UNL     1      10.444 -60.907 -26.310  1.00  0.00    -0.252 NA
ATOM      8  C   UNL     1       9.431 -61.778 -26.283  1.00  0.00     0.074 A 
ATOM      9  C   UNL     1       9.027 -62.325 -27.490  1.00  0.00     0.049 A 
ATOM     10  C   UNL     1       8.000 -63.262 -27.554  1.00  0.00     0.043 A 
ATOM     11  Cl  UNL     1       7.531 -63.920 -29.072  1.00  0.00    -0.084 Cl
ATOM     12  C   UNL     1       7.359 -63.673 -26.396  1.00  0.00     0.021 A 
ATOM     13  C   UNL     1       7.748 -63.129 -25.172  1.00  0.00     0.014 A 
ATOM     14  C   UNL     1       8.782 -62.162 -25.090  1.00  0.00     0.024 A 
ATOM     15  C   UNL     1       9.211 -61.546 -23.878  1.00  0.00     0.046 A 
ATOM     16  C   UNL     1      10.337 -60.697 -23.899  1.00  0.00     0.001 A 
ATOM     17  C   UNL     1      10.918 -60.083 -22.628  1.00  0.00     0.028 C 
ATOM     18  C   UNL     1      10.126 -58.821 -22.202  1.00  0.00     0.039 C 
ATOM     19  C   UNL     1      12.391 -59.707 -22.822  1.00  0.00     0.017 C 
ENDROOT
BRANCH  15  20
ATOM     20  N   UNL     1       8.647 -61.943 -22.640  1.00  0.00    -0.398 N 
ATOM     21  H   UNL     1       9.323 -61.987 -21.885  1.00  0.00     0.156 HD
ATOM     22  H   UNL     1       8.110 -62.801 -22.683  1.00  0.00     0.156 HD
ENDBRANCH  15  20
TORSDOF 1
ENDMDL
MODEL 4
REMARK VINA RESULT:    -8.841      4.105      8.319
REMARK INTER + INTRA:          -9.099
REMARK INTER:                  -9.099
REMARK INTRA:                   0.000
REMARK UNBOUND:                 0.000
REMARK SMILES CC1=C[C@@H]2Cc3nc4cc(Cl)ccc4c(N)c3[C@H](C1)C2
REMARK SMILES IDX 1 1 2 2 3 3 4 4 5 5 6 6 7 7 8 8 9 9 10 10 11 11 12 12 13 13
REMARK SMILES IDX 14 14 15 15 17 16 18 17 19 18 20 19 16 20
REMARK H PARENT 16 21 16 22
ROOT
ATOM      1  C   UNL     1      11.812 -46.966 -25.082  1.00  0.00     0.039 C 
ATOM      2  C   UNL     1      12.792 -48.027 -24.681  1.00  0.00    -0.076 C 
ATOM      3  C   UNL     1      13.559 -48.675 -25.578  1.00  0.00    -0.024 C 
ATOM      4  C   UNL     1      14.567 -49.735 -25.188  1.00  0.00     0.018 C 
ATOM      5  C   UNL     1      13.989 -51.141 -25.393  1.00  0.00     0.064 C 
ATOM      6  C   UNL     1      13.037 -51.582 -24.301  1.00  0.00     0.047 A 
ATOM      7  N   UNL     1      12.371 -52.731 -24.563  1.00  0.00    -0.252 NA
ATOM      8  C   UNL     1      11.571 -53.246 -23.625  1.00  0.00     0.074 A 
ATOM      9  C   UNL     1      10.945 -54.449 -23.912  1.00  0.00     0.049 A 
ATOM     10  C   UNL     1      10.117 -55.074 -22.985  1.00  0.00     0.043 A 
ATOM     11  Cl  UNL     1       9.361 -56.568 -23.378  1.00  0.00    -0.084 Cl
ATOM     12  C   UNL     1       9.906 -54.501 -21.741  1.00  0.00     0.021 A 
ATOM     13  C   UNL     1      10.523 -53.288 -21.437  1.00  0.00     0.014 A 
ATOM     14  C   UNL     1      11.359 -52.628 -22.375  1.00  0.00     0.024 A 
ATOM     15  C   UNL     1      11.998 -51.377 -22.140  1.00  0.00     0.046 A 
ATOM     16  C   UNL     1      12.910 -50.881 -23.094  1.00  0.00     0.001 A 
ATOM     17  C   UNL     1      13.710 -49.601 -22.868  1.00  0.00     0.028 C 
ATOM     18  C   UNL     1      12.866 -48.346 -23.202  1.00  0.00     0.039 C 
ATOM     19  C   UNL     1      14.983 -49.589 -23.722  1.00  0.00     0.017 C 
ENDROOT
BRANCH  15  20
ATOM     20  N   UNL     1      11.880 -50.743 -20.878  1.00  0.00    -0.398 N 
ATOM     21  H   UNL     1      11.098 -51.084 -20.328  1.00  0.00     0.156 HD
ATOM     22  H   UNL     1      11.867 -49.731 -20.920  1.00  0.00     0.156 HD
ENDBRANCH  15  20
TORSDOF 1
ENDMDL
MODEL 5
REMARK VINA RESULT:    -8.513      4.807      5.856
REMARK INTER + INTRA:          -8.762
REMARK INTER:                  -8.762
REMARK INTRA:                   0.000
REMARK UNBOUND:                 0.000
REMARK SMILES CC1=C[C@@H]2Cc3nc4cc(Cl)ccc4c(N)c3[C@H](C1)C2
REMARK SMILES IDX 1 1 2 2 3 3 4 4 5 5 6 6 7 7 8 8 9 9 10 10 11 11 12 12 13 13
REMARK SMILES IDX 14 14 15 15 17 16 18 17 19 18 20 19 16 20
REMARK H PARENT 16 21 16 22
ROOT
ATOM      1  C   UNL     1       8.238 -63.975 -22.743  1.00  0.00     0.039 C 
ATOM      2  C   UNL     1       8.503 -62.500 -22.807  1.00  0.00    -0.076 C 
ATOM      3  C   UNL     1       7.543 -61.608 -23.114  1.00  0.00    -0.024 C 
ATOM      4  C   UNL     1       7.790 -60.116 -23.163  1.00  0.00     0.018 C 
ATOM      5  C   UNL     1       8.009 -59.646 -24.607  1.00  0.00     0.064 C 
ATOM      6  C   UNL     1       9.393 -59.936 -25.146  1.00  0.00     0.047 A 
ATOM      7  N   UNL     1       9.542 -59.707 -26.472  1.00  0.00    -0.252 NA
ATOM      8  C   UNL     1      10.749 -59.854 -27.026  1.00  0.00     0.074 A 
ATOM      9  C   UNL     1      10.872 -59.563 -28.375  1.00  0.00     0.049 A 
ATOM     10  C   UNL     1      12.097 -59.660 -29.029  1.00  0.00     0.043 A 
ATOM     11  Cl  UNL     1      12.208 -59.286 -30.704  1.00  0.00    -0.084 Cl
ATOM     12  C   UNL     1      13.230 -60.048 -28.332  1.00  0.00     0.021 A 
ATOM     13  C   UNL     1      13.125 -60.351 -26.975  1.00  0.00     0.014 A 
ATOM     14  C   UNL     1      11.882 -60.272 -26.295  1.00  0.00     0.024 A 
ATOM     15  C   UNL     1      11.698 -60.591 -24.919  1.00  0.00     0.046 A 
ATOM     16  C   UNL     1      10.446 -60.350 -24.318  1.00  0.00     0.001 A 
ATOM     17  C   UNL     1      10.201 -60.570 -22.828  1.00  0.00     0.028 C 
ATOM     18  C   UNL     1       9.925 -62.063 -22.519  1.00  0.00     0.039 C 
ATOM     19  C   UNL     1       9.017 -59.730 -22.334  1.00  0.00     0.017 C 
ENDROOT
BRANCH  15  20
ATOM     20  N   UNL     1      12.810 -60.949 -24.117  1.00  0.00    -0.398 N 
ATOM     21  H   UNL     1      12.628 -60.878 -23.121  1.00  0.00     0.156 HD
ATOM     22  H   UNL     1      13.668 -60.464 -24.353  1.00  0.00     0.156 HD
ENDBRANCH  15  20
TORSDOF 1
ENDMDL
MODEL 6
REMARK VINA RESULT:    -8.508      4.311      8.788
REMARK INTER + INTRA:          -8.757
REMARK INTER:                  -8.757
REMARK INTRA:                   0.000
REMARK UNBOUND:                 0.000
REMARK SMILES CC1=C[C@@H]2Cc3nc4cc(Cl)ccc4c(N)c3[C@H](C1)C2
REMARK SMILES IDX 1 1 2 2 3 3 4 4 5 5 6 6 7 7 8 8 9 9 10 10 11 11 12 12 13 13
REMARK SMILES IDX 14 14 15 15 17 16 18 17 19 18 20 19 16 20
REMARK H PARENT 16 21 16 22
ROOT
ATOM      1  C   UNL     1      16.629 -48.198 -22.593  1.00  0.00     0.039 C 
ATOM      2  C   UNL     1      15.250 -48.158 -23.183  1.00  0.00    -0.076 C 
ATOM      3  C   UNL     1      14.190 -47.684 -22.502  1.00  0.00    -0.024 C 
ATOM      4  C   UNL     1      12.797 -47.617 -23.090  1.00  0.00     0.018 C 
ATOM      5  C   UNL     1      11.949 -48.808 -22.623  1.00  0.00     0.064 C 
ATOM      6  C   UNL     1      12.244 -50.099 -23.356  1.00  0.00     0.047 A 
ATOM      7  N   UNL     1      11.650 -51.196 -22.828  1.00  0.00    -0.252 NA
ATOM      8  C   UNL     1      11.782 -52.370 -23.452  1.00  0.00     0.074 A 
ATOM      9  C   UNL     1      11.119 -53.459 -22.908  1.00  0.00     0.049 A 
ATOM     10  C   UNL     1      11.176 -54.714 -23.507  1.00  0.00     0.043 A 
ATOM     11  Cl  UNL     1      10.336 -56.040 -22.803  1.00  0.00    -0.084 Cl
ATOM     12  C   UNL     1      11.899 -54.897 -24.675  1.00  0.00     0.021 A 
ATOM     13  C   UNL     1      12.577 -53.814 -25.233  1.00  0.00     0.014 A 
ATOM     14  C   UNL     1      12.543 -52.531 -24.629  1.00  0.00     0.024 A 
ATOM     15  C   UNL     1      13.232 -51.389 -25.131  1.00  0.00     0.046 A 
ATOM     16  C   UNL     1      13.020 -50.135 -24.522  1.00  0.00     0.001 A 
ATOM     17  C   UNL     1      13.641 -48.851 -25.064  1.00  0.00     0.028 C 
ATOM     18  C   UNL     1      15.109 -48.695 -24.592  1.00  0.00     0.039 C 
ATOM     19  C   UNL     1      12.840 -47.622 -24.620  1.00  0.00     0.017 C 
ENDROOT
BRANCH  15  20
ATOM     20  N   UNL     1      13.955 -51.472 -26.347  1.00  0.00    -0.398 N 
ATOM     21  H   UNL     1      13.362 -51.468 -27.170  1.00  0.00     0.156 HD
ATOM     22  H   UNL     1      14.612 -52.243 -26.390  1.00  0.00     0.156 HD
ENDBRANCH  15  20
TORSDOF 1
ENDMDL
MODEL 7
REMARK VINA RESULT:    -7.997      5.325      9.996
REMARK INTER + INTRA:          -8.231
REMARK INTER:                  -8.231
REMARK INTRA:                   0.000
REMARK UNBOUND:                 0.000
REMARK SMILES CC1=C[C@@H]2Cc3nc4cc(Cl)ccc4c(N)c3[C@H](C1)C2
REMARK SMILES IDX 1 1 2 2 3 3 4 4 5 5 6 6 7 7 8 8 9 9 10 10 11 11 12 12 13 13
REMARK SMILES IDX 14 14 15 15 17 16 18 17 19 18 20 19 16 20
REMARK H PARENT 16 21 16 22
ROOT
ATOM      1  C   UNL     1      15.026 -45.819 -21.444  1.00  0.00     0.039 C 
ATOM      2  C   UNL     1      13.823 -46.064 -22.305  1.00  0.00    -0.076 C 
ATOM      3  C   UNL     1      12.583 -45.698 -21.929  1.00  0.00    -0.024 C 
ATOM      4  C   UNL     1      11.361 -45.920 -22.795  1.00  0.00     0.018 C 
ATOM      5  C   UNL     1      10.599 -47.175 -22.353  1.00  0.00     0.064 C 
ATOM      6  C   UNL     1      11.221 -48.472 -22.824  1.00  0.00     0.047 A 
ATOM      7  N   UNL     1      10.678 -49.588 -22.284  1.00  0.00    -0.252 NA
ATOM      8  C   UNL     1      11.103 -50.785 -22.700  1.00  0.00     0.074 A 
ATOM      9  C   UNL     1      10.488 -51.903 -22.159  1.00  0.00     0.049 A 
ATOM     10  C   UNL     1      10.846 -53.188 -22.555  1.00  0.00     0.043 A 
ATOM     11  Cl  UNL     1      10.056 -54.551 -21.863  1.00  0.00    -0.084 Cl
ATOM     12  C   UNL     1      11.830 -53.375 -23.511  1.00  0.00     0.021 A 
ATOM     13  C   UNL     1      12.464 -52.261 -24.062  1.00  0.00     0.014 A 
ATOM     14  C   UNL     1      12.124 -50.944 -23.661  1.00  0.00     0.024 A 
ATOM     15  C   UNL     1      12.747 -49.765 -24.162  1.00  0.00     0.046 A 
ATOM     16  C   UNL     1      12.237 -48.505 -23.789  1.00  0.00     0.001 A 
ATOM     17  C   UNL     1      12.785 -47.202 -24.363  1.00  0.00     0.028 C 
ATOM     18  C   UNL     1      14.075 -46.762 -23.625  1.00  0.00     0.039 C 
ATOM     19  C   UNL     1      11.747 -46.078 -24.267  1.00  0.00     0.017 C 
ENDROOT
BRANCH  15  20
ATOM     20  N   UNL     1      13.729 -49.858 -25.180  1.00  0.00    -0.398 N 
ATOM     21  H   UNL     1      14.658 -49.592 -24.870  1.00  0.00     0.156 HD
ATOM     22  H   UNL     1      13.491 -49.370 -26.035  1.00  0.00     0.156 HD
ENDBRANCH  15  20
TORSDOF 1
ENDMDL
MODEL 8
REMARK VINA RESULT:    -7.882      4.438      6.053
REMARK INTER + INTRA:          -8.112
REMARK INTER:                  -8.112
REMARK INTRA:                   0.000
REMARK UNBOUND:                 0.000
REMARK SMILES CC1=C[C@@H]2Cc3nc4cc(Cl)ccc4c(N)c3[C@H](C1)C2
REMARK SMILES IDX 1 1 2 2 3 3 4 4 5 5 6 6 7 7 8 8 9 9 10 10 11 11 12 12 13 13
REMARK SMILES IDX 14 14 15 15 17 16 18 17 19 18 20 19 16 20
REMARK H PARENT 16 21 16 22
ROOT
ATOM      1  C   UNL     1       6.335 -59.479 -22.738  1.00  0.00     0.039 C 
ATOM      2  C   UNL     1       7.654 -60.185 -22.843  1.00  0.00    -0.076 C 
ATOM      3  C   UNL     1       8.763 -59.735 -22.226  1.00  0.00    -0.024 C 
ATOM      4  C   UNL     1      10.096 -60.447 -22.305  1.00  0.00     0.018 C 
ATOM      5  C   UNL     1      11.003 -59.793 -23.356  1.00  0.00     0.064 C 
ATOM      6  C   UNL     1      10.667 -60.172 -24.782  1.00  0.00     0.047 A 
ATOM      7  N   UNL     1      11.324 -59.459 -25.726  1.00  0.00    -0.252 NA
ATOM      8  C   UNL     1      11.158 -59.775 -27.014  1.00  0.00     0.074 A 
ATOM      9  C   UNL     1      11.886 -59.054 -27.947  1.00  0.00     0.049 A 
ATOM     10  C   UNL     1      11.798 -59.334 -29.307  1.00  0.00     0.043 A 
ATOM     11  Cl  UNL     1      12.720 -58.418 -30.434  1.00  0.00    -0.084 Cl
ATOM     12  C   UNL     1      10.976 -60.355 -29.758  1.00  0.00     0.021 A 
ATOM     13  C   UNL     1      10.232 -61.087 -28.833  1.00  0.00     0.014 A 
ATOM     14  C   UNL     1      10.297 -60.807 -27.444  1.00  0.00     0.024 A 
ATOM     15  C   UNL     1       9.545 -61.497 -26.450  1.00  0.00     0.046 A 
ATOM     16  C   UNL     1       9.789 -61.221 -25.089  1.00  0.00     0.001 A 
ATOM     17  C   UNL     1       9.100 -61.990 -23.965  1.00  0.00     0.028 C 
ATOM     18  C   UNL     1       7.678 -61.436 -23.697  1.00  0.00     0.039 C 
ATOM     19  C   UNL     1       9.915 -61.922 -22.669  1.00  0.00     0.017 C 
ENDROOT
BRANCH  15  20
ATOM     20  N   UNL     1       8.718 -62.588 -26.813  1.00  0.00    -0.398 N 
ATOM     21  H   UNL     1       8.144 -62.405 -27.630  1.00  0.00     0.156 HD
ATOM     22  H   UNL     1       8.148 -62.950 -26.057  1.00  0.00     0.156 HD
ENDBRANCH  15  20
TORSDOF 1
ENDMDL
MODEL 9
REMARK VINA RESULT:    -7.249      6.712     10.911
REMARK INTER + INTRA:          -7.461
REMARK INTER:                  -7.461
REMARK INTRA:                   0.000
REMARK UNBOUND:                 0.000
REMARK SMILES CC1=C[C@@H]2Cc3nc4cc(Cl)ccc4c(N)c3[C@H](C1)C2
REMARK SMILES IDX 1 1 2 2 3 3 4 4 5 5 6 6 7 7 8 8 9 9 10 10 11 11 12 12 13 13
REMARK SMILES IDX 14 14 15 15 17 16 18 17 19 18 20 19 16 20
REMARK H PARENT 16 21 16 22
ROOT
ATOM      1  C   UNL     1      14.612 -44.885 -20.995  1.00  0.00     0.039 C 
ATOM      2  C   UNL     1      13.436 -45.212 -21.866  1.00  0.00    -0.076 C 
ATOM      3  C   UNL     1      12.237 -45.552 -21.359  1.00  0.00    -0.024 C 
ATOM      4  C   UNL     1      11.035 -45.865 -22.224  1.00  0.00     0.018 C 
ATOM      5  C   UNL     1      10.854 -47.380 -22.382  1.00  0.00     0.064 C 
ATOM      6  C   UNL     1      11.795 -48.011 -23.385  1.00  0.00     0.047 A 
ATOM      7  N   UNL     1      11.785 -49.365 -23.394  1.00  0.00    -0.252 NA
ATOM      8  C   UNL     1      12.519 -50.014 -24.302  1.00  0.00     0.074 A 
ATOM      9  C   UNL     1      12.444 -51.398 -24.312  1.00  0.00     0.049 A 
ATOM     10  C   UNL     1      13.151 -52.156 -25.240  1.00  0.00     0.043 A 
ATOM     11  Cl  UNL     1      13.028 -53.872 -25.221  1.00  0.00    -0.084 Cl
ATOM     12  C   UNL     1      13.948 -51.532 -26.187  1.00  0.00     0.021 A 
ATOM     13  C   UNL     1      14.041 -50.141 -26.189  1.00  0.00     0.014 A 
ATOM     14  C   UNL     1      13.339 -49.352 -25.241  1.00  0.00     0.024 A 
ATOM     15  C   UNL     1      13.408 -47.931 -25.170  1.00  0.00     0.046 A 
ATOM     16  C   UNL     1      12.566 -47.246 -24.271  1.00  0.00     0.001 A 
ATOM     17  C   UNL     1      12.509 -45.722 -24.209  1.00  0.00     0.028 C 
ATOM     18  C   UNL     1      13.673 -45.151 -23.361  1.00  0.00     0.039 C 
ATOM     19  C   UNL     1      11.178 -45.244 -23.616  1.00  0.00     0.017 C 
ENDROOT
BRANCH  15  20
ATOM     20  N   UNL     1      14.159 -47.207 -26.129  1.00  0.00    -0.398 N 
ATOM     21  H   UNL     1      13.588 -46.797 -26.861  1.00  0.00     0.156 HD
ATOM     22  H   UNL     1      14.930 -47.725 -26.533  1.00  0.00     0.156 HD
ENDBRANCH  15  20
TORSDOF 1
ENDMDL
