MODEL 1
REMARK VINA RESULT:    -9.925      0.000      0.000
REMARK INTER + INTRA:         -15.176
REMARK INTER:                 -13.696
REMARK INTRA:                  -1.480
REMARK UNBOUND:                -1.480
REMARK SMILES COc1ccc([C@@H]2CC(c3cc(F)ccc3F)=NN2c2ccc(S(N)(=O)=O)cc2)cc1OC
REMARK SMILES IDX 20 1 21 2 22 3 23 4 28 5 29 6 19 7 7 8 8 9 9 10 18 11 6 12
REMARK SMILES IDX 3 13 4 14 31 15 5 16 30 17 2 18 1 19 32 20 33 21 10 22 11 23
REMARK SMILES IDX 16 24 12 25 15 26 14 27 17 28 13 29 24 30 26 31 27 32 25 33
REMARK H PARENT 25 34 25 35
ROOT
ATOM      1  C   UNL     1      10.353 -57.886 -23.236  1.00  0.00     0.060 A 
ATOM      2  C   UNL     1       9.241 -57.063 -23.481  1.00  0.00     0.029 A 
ATOM      3  C   UNL     1       9.187 -55.740 -23.024  1.00  0.00     0.024 A 
ATOM      4  C   UNL     1      10.264 -55.215 -22.313  1.00  0.00     0.082 A 
ATOM      5  C   UNL     1      11.379 -56.004 -22.038  1.00  0.00     0.024 A 
ATOM      6  C   UNL     1      11.415 -57.322 -22.504  1.00  0.00     0.029 A 
ENDROOT
BRANCH   1   7
ATOM      7  N   UNL     1      10.421 -59.205 -23.682  1.00  0.00    -0.257 N 
ATOM      8  C   UNL     1      11.561 -59.829 -24.361  1.00  0.00     0.144 C 
ATOM      9  C   UNL     1      11.203 -61.316 -24.320  1.00  0.00     0.091 C 
ATOM     10  C   UNL     1       9.765 -61.237 -23.888  1.00  0.00     0.074 C 
ATOM     11  N   UNL     1       9.369 -60.059 -23.512  1.00  0.00    -0.176 NA
BRANCH   8  12
ATOM     12  C   UNL     1      11.752 -59.353 -25.793  1.00  0.00    -0.019 A 
ATOM     13  C   UNL     1      12.142 -58.385 -28.432  1.00  0.00     0.160 A 
ATOM     14  C   UNL     1      11.797 -59.722 -28.197  1.00  0.00     0.051 A 
ATOM     15  C   UNL     1      12.334 -57.536 -27.330  1.00  0.00     0.161 A 
ATOM     16  C   UNL     1      11.612 -60.202 -26.895  1.00  0.00     0.010 A 
ATOM     17  C   UNL     1      12.120 -58.021 -26.030  1.00  0.00     0.056 A 
BRANCH  13  18
ATOM     18  O   UNL     1      12.293 -57.857 -29.686  1.00  0.00    -0.493 OA
ATOM     19  C   UNL     1      12.157 -58.736 -30.797  1.00  0.00     0.278 C 
ENDBRANCH  13  18
BRANCH  15  20
ATOM     20  O   UNL     1      12.679 -56.208 -27.349  1.00  0.00    -0.493 OA
ATOM     21  C   UNL     1      12.820 -55.562 -26.090  1.00  0.00     0.278 C 
ENDBRANCH  15  20
ENDBRANCH   8  12
BRANCH  10  22
ATOM     22  C   UNL     1       8.875 -62.419 -23.868  1.00  0.00     0.037 A 
ATOM     23  C   UNL     1       8.094 -62.691 -25.000  1.00  0.00     0.052 A 
ATOM     24  C   UNL     1       8.786 -63.267 -22.761  1.00  0.00     0.132 A 
ATOM     25  C   UNL     1       7.252 -63.798 -25.004  1.00  0.00     0.124 A 
ATOM     26  C   UNL     1       7.938 -64.375 -22.774  1.00  0.00     0.043 A 
ATOM     27  C   UNL     1       7.167 -64.644 -23.904  1.00  0.00     0.042 A 
ATOM     28  F   UNL     1       9.499 -63.040 -21.649  1.00  0.00    -0.206 F 
ATOM     29  F   UNL     1       6.510 -64.055 -26.088  1.00  0.00    -0.207 F 
ENDBRANCH  10  22
ENDBRANCH   1   7
BRANCH   4  30
ATOM     30  S   UNL     1      10.218 -53.544 -21.729  1.00  0.00     0.238 S 
ATOM     31  O   UNL     1       8.998 -52.924 -22.194  1.00  0.00    -0.207 OA
ATOM     32  O   UNL     1      10.618 -53.530 -20.342  1.00  0.00    -0.207 OA
BRANCH  30  33
ATOM     33  N   UNL     1      11.452 -52.839 -22.635  1.00  0.00    -0.225 NA
ATOM     34  H   UNL     1      12.272 -52.603 -22.076  1.00  0.00     0.137 HD
ATOM     35  H   UNL     1      11.684 -53.460 -23.411  1.00  0.00     0.137 HD
ENDBRANCH  30  33
ENDBRANCH   4  30
TORSDOF 7
ENDMDL
MODEL 2
REMARK VINA RESULT:    -9.459      7.370     11.348
REMARK INTER + INTRA:         -14.533
REMARK INTER:                 -13.113
REMARK INTRA:                  -1.420
REMARK UNBOUND:                -1.480
REMARK SMILES COc1ccc([C@@H]2CC(c3cc(F)ccc3F)=NN2c2ccc(S(N)(=O)=O)cc2)cc1OC
REMARK SMILES IDX 20 1 21 2 22 3 23 4 28 5 29 6 19 7 7 8 8 9 9 10 18 11 6 12
REMARK SMILES IDX 3 13 4 14 31 15 5 16 30 17 2 18 1 19 32 20 33 21 10 22 11 23
REMARK SMILES IDX 16 24 12 25 15 26 14 27 17 28 13 29 24 30 26 31 27 32 25 33
REMARK H PARENT 25 34 25 35
ROOT
ATOM      1  C   UNL     1      12.012 -52.217 -23.661  1.00  0.00     0.060 A 
ATOM      2  C   UNL     1      11.379 -52.602 -22.467  1.00  0.00     0.029 A 
ATOM      3  C   UNL     1      10.994 -53.928 -22.230  1.00  0.00     0.024 A 
ATOM      4  C   UNL     1      11.249 -54.900 -23.195  1.00  0.00     0.082 A 
ATOM      5  C   UNL     1      11.863 -54.555 -24.397  1.00  0.00     0.024 A 
ATOM      6  C   UNL     1      12.241 -53.226 -24.615  1.00  0.00     0.029 A 
ENDROOT
BRANCH   1   7
ATOM      7  N   UNL     1      12.399 -50.902 -23.912  1.00  0.00    -0.257 N 
ATOM      8  C   UNL     1      13.277 -50.453 -24.997  1.00  0.00     0.144 C 
ATOM      9  C   UNL     1      13.089 -48.934 -24.974  1.00  0.00     0.091 C 
ATOM     10  C   UNL     1      12.360 -48.771 -23.669  1.00  0.00     0.074 C 
ATOM     11  N   UNL     1      11.964 -49.879 -23.119  1.00  0.00    -0.176 NA
BRANCH   8  12
ATOM     12  C   UNL     1      14.738 -50.824 -24.791  1.00  0.00    -0.019 A 
ATOM     13  C   UNL     1      17.480 -51.491 -24.496  1.00  0.00     0.160 A 
ATOM     14  C   UNL     1      16.619 -51.470 -23.391  1.00  0.00     0.051 A 
ATOM     15  C   UNL     1      16.969 -51.134 -25.754  1.00  0.00     0.161 A 
ATOM     16  C   UNL     1      15.268 -51.134 -23.535  1.00  0.00     0.010 A 
ATOM     17  C   UNL     1      15.607 -50.824 -25.892  1.00  0.00     0.056 A 
BRANCH  13  18
ATOM     18  O   UNL     1      18.798 -51.853 -24.414  1.00  0.00    -0.493 OA
ATOM     19  C   UNL     1      19.759 -50.820 -24.230  1.00  0.00     0.278 C 
ENDBRANCH  13  18
BRANCH  15  20
ATOM     20  O   UNL     1      17.646 -51.085 -26.947  1.00  0.00    -0.493 OA
ATOM     21  C   UNL     1      17.971 -49.795 -27.449  1.00  0.00     0.278 C 
ENDBRANCH  15  20
ENDBRANCH   8  12
BRANCH  10  22
ATOM     22  C   UNL     1      12.092 -47.445 -23.069  1.00  0.00     0.037 A 
ATOM     23  C   UNL     1      11.191 -46.587 -23.713  1.00  0.00     0.052 A 
ATOM     24  C   UNL     1      12.708 -47.021 -21.889  1.00  0.00     0.132 A 
ATOM     25  C   UNL     1      10.921 -45.336 -23.166  1.00  0.00     0.124 A 
ATOM     26  C   UNL     1      12.433 -45.765 -21.348  1.00  0.00     0.043 A 
ATOM     27  C   UNL     1      11.532 -44.918 -21.990  1.00  0.00     0.042 A 
ATOM     28  F   UNL     1      13.591 -47.798 -21.246  1.00  0.00    -0.206 F 
ATOM     29  F   UNL     1      10.058 -44.520 -23.784  1.00  0.00    -0.207 F 
ENDBRANCH  10  22
ENDBRANCH   1   7
BRANCH   4  30
ATOM     30  S   UNL     1      10.774 -56.582 -22.914  1.00  0.00     0.238 S 
ATOM     31  O   UNL     1      11.275 -56.996 -21.623  1.00  0.00    -0.207 OA
ATOM     32  O   UNL     1       9.393 -56.741 -23.300  1.00  0.00    -0.207 OA
BRANCH  30  33
ATOM     33  N   UNL     1      11.727 -57.393 -24.044  1.00  0.00    -0.225 NA
ATOM     34  H   UNL     1      12.170 -58.229 -23.665  1.00  0.00     0.137 HD
ATOM     35  H   UNL     1      11.155 -57.602 -24.864  1.00  0.00     0.137 HD
ENDBRANCH  30  33
ENDBRANCH   4  30
TORSDOF 7
ENDMDL
MODEL 3
REMARK VINA RESULT:    -9.047      7.544     10.475
REMARK INTER + INTRA:         -13.965
REMARK INTER:                 -12.597
REMARK INTRA:                  -1.368
REMARK UNBOUND:                -1.480
REMARK SMILES COc1ccc([C@@H]2CC(c3cc(F)ccc3F)=NN2c2ccc(S(N)(=O)=O)cc2)cc1OC
REMARK SMILES IDX 20 1 21 2 22 3 23 4 28 5 29 6 19 7 7 8 8 9 9 10 18 11 6 12
REMARK SMILES IDX 3 13 4 14 31 15 5 16 30 17 2 18 1 19 32 20 33 21 10 22 11 23
REMARK SMILES IDX 16 24 12 25 15 26 14 27 17 28 13 29 24 30 26 31 27 32 25 33
REMARK H PARENT 25 34 25 35
ROOT
ATOM      1  C   UNL     1      12.724 -47.608 -23.606  1.00  0.00     0.060 A 
ATOM      2  C   UNL     1      13.538 -46.626 -23.018  1.00  0.00     0.029 A 
ATOM      3  C   UNL     1      13.178 -45.272 -23.014  1.00  0.00     0.024 A 
ATOM      4  C   UNL     1      11.977 -44.881 -23.602  1.00  0.00     0.082 A 
ATOM      5  C   UNL     1      11.149 -45.823 -24.207  1.00  0.00     0.024 A 
ATOM      6  C   UNL     1      11.524 -47.170 -24.200  1.00  0.00     0.029 A 
ENDROOT
BRANCH   1   7
ATOM      7  N   UNL     1      13.069 -48.958 -23.618  1.00  0.00    -0.257 N 
ATOM      8  C   UNL     1      14.421 -49.502 -23.789  1.00  0.00     0.144 C 
ATOM      9  C   UNL     1      14.241 -50.972 -23.404  1.00  0.00     0.091 C 
ATOM     10  C   UNL     1      12.741 -51.064 -23.374  1.00  0.00     0.074 C 
ATOM     11  N   UNL     1      12.120 -49.927 -23.465  1.00  0.00    -0.176 NA
BRANCH   8  12
ATOM     12  C   UNL     1      14.955 -49.371 -25.207  1.00  0.00    -0.019 A 
ATOM     13  C   UNL     1      16.012 -49.196 -27.835  1.00  0.00     0.160 A 
ATOM     14  C   UNL     1      14.862 -48.484 -27.470  1.00  0.00     0.051 A 
ATOM     15  C   UNL     1      16.612 -50.037 -26.884  1.00  0.00     0.161 A 
ATOM     16  C   UNL     1      14.336 -48.575 -26.176  1.00  0.00     0.010 A 
ATOM     17  C   UNL     1      16.092 -50.101 -25.582  1.00  0.00     0.056 A 
BRANCH  13  18
ATOM     18  O   UNL     1      16.588 -49.109 -29.074  1.00  0.00    -0.493 OA
ATOM     19  C   UNL     1      15.810 -48.560 -30.131  1.00  0.00     0.278 C 
ENDBRANCH  13  18
BRANCH  15  20
ATOM     20  O   UNL     1      17.729 -50.818 -27.047  1.00  0.00    -0.493 OA
ATOM     21  C   UNL     1      18.143 -51.589 -25.926  1.00  0.00     0.278 C 
ENDBRANCH  15  20
ENDBRANCH   8  12
BRANCH  10  22
ATOM     22  C   UNL     1      12.027 -52.351 -23.226  1.00  0.00     0.037 A 
ATOM     23  C   UNL     1      11.362 -52.615 -22.020  1.00  0.00     0.052 A 
ATOM     24  C   UNL     1      11.997 -53.310 -24.242  1.00  0.00     0.132 A 
ATOM     25  C   UNL     1      10.681 -53.818 -21.859  1.00  0.00     0.124 A 
ATOM     26  C   UNL     1      11.313 -54.514 -24.071  1.00  0.00     0.043 A 
ATOM     27  C   UNL     1      10.650 -54.769 -22.873  1.00  0.00     0.042 A 
ATOM     28  F   UNL     1      12.633 -53.112 -25.405  1.00  0.00    -0.206 F 
ATOM     29  F   UNL     1      10.045 -54.065 -20.707  1.00  0.00    -0.207 F 
ENDBRANCH  10  22
ENDBRANCH   1   7
BRANCH   4  30
ATOM     30  S   UNL     1      11.501 -43.175 -23.606  1.00  0.00     0.238 S 
ATOM     31  O   UNL     1      10.918 -42.853 -22.324  1.00  0.00    -0.207 OA
ATOM     32  O   UNL     1      12.569 -42.401 -24.191  1.00  0.00    -0.207 OA
BRANCH  30  33
ATOM     33  N   UNL     1      10.213 -43.190 -24.693  1.00  0.00    -0.225 NA
ATOM     34  H   UNL     1      10.415 -43.714 -25.544  1.00  0.00     0.137 HD
ATOM     35  H   UNL     1       9.384 -43.544 -24.214  1.00  0.00     0.137 HD
ENDBRANCH  30  33
ENDBRANCH   4  30
TORSDOF 7
ENDMDL
MODEL 4
REMARK VINA RESULT:    -9.040      7.735     12.180
REMARK INTER + INTRA:         -13.955
REMARK INTER:                 -12.636
REMARK INTRA:                  -1.319
REMARK UNBOUND:                -1.480
REMARK SMILES COc1ccc([C@@H]2CC(c3cc(F)ccc3F)=NN2c2ccc(S(N)(=O)=O)cc2)cc1OC
REMARK SMILES IDX 20 1 21 2 22 3 23 4 28 5 29 6 19 7 7 8 8 9 9 10 18 11 6 12
REMARK SMILES IDX 3 13 4 14 31 15 5 16 30 17 2 18 1 19 32 20 33 21 10 22 11 23
REMARK SMILES IDX 16 24 12 25 15 26 14 27 17 28 13 29 24 30 26 31 27 32 25 33
REMARK H PARENT 25 34 25 35
ROOT
ATOM      1  C   UNL     1      12.904 -51.586 -24.276  1.00  0.00     0.060 A 
ATOM      2  C   UNL     1      12.135 -51.396 -23.115  1.00  0.00     0.029 A 
ATOM      3  C   UNL     1      11.300 -52.401 -22.610  1.00  0.00     0.024 A 
ATOM      4  C   UNL     1      11.229 -53.628 -23.266  1.00  0.00     0.082 A 
ATOM      5  C   UNL     1      11.965 -53.850 -24.427  1.00  0.00     0.024 A 
ATOM      6  C   UNL     1      12.795 -52.836 -24.916  1.00  0.00     0.029 A 
ENDROOT
BRANCH   1   7
ATOM      7  N   UNL     1      13.739 -50.596 -24.791  1.00  0.00    -0.257 N 
ATOM      8  C   UNL     1      14.281 -49.452 -24.050  1.00  0.00     0.144 C 
ATOM      9  C   UNL     1      15.348 -48.911 -25.003  1.00  0.00     0.091 C 
ATOM     10  C   UNL     1      15.006 -49.672 -26.254  1.00  0.00     0.074 C 
ATOM     11  N   UNL     1      14.132 -50.620 -26.098  1.00  0.00    -0.176 NA
BRANCH   8  12
ATOM     12  C   UNL     1      13.244 -48.387 -23.730  1.00  0.00    -0.019 A 
ATOM     13  C   UNL     1      11.354 -46.380 -23.054  1.00  0.00     0.160 A 
ATOM     14  C   UNL     1      11.352 -46.978 -24.321  1.00  0.00     0.051 A 
ATOM     15  C   UNL     1      12.342 -46.764 -22.132  1.00  0.00     0.161 A 
ATOM     16  C   UNL     1      12.288 -47.962 -24.657  1.00  0.00     0.010 A 
ATOM     17  C   UNL     1      13.259 -47.771 -22.470  1.00  0.00     0.056 A 
BRANCH  13  18
ATOM     18  O   UNL     1      10.436 -45.444 -22.662  1.00  0.00    -0.493 OA
ATOM     19  C   UNL     1      10.605 -44.111 -23.131  1.00  0.00     0.278 C 
ENDBRANCH  13  18
BRANCH  15  20
ATOM     20  O   UNL     1      12.518 -46.296 -20.854  1.00  0.00    -0.493 OA
ATOM     21  C   UNL     1      13.588 -46.857 -20.105  1.00  0.00     0.278 C 
ENDBRANCH  15  20
ENDBRANCH   8  12
BRANCH  10  22
ATOM     22  C   UNL     1      15.638 -49.379 -27.559  1.00  0.00     0.037 A 
ATOM     23  C   UNL     1      14.851 -48.818 -28.575  1.00  0.00     0.052 A 
ATOM     24  C   UNL     1      16.985 -49.646 -27.813  1.00  0.00     0.132 A 
ATOM     25  C   UNL     1      15.425 -48.532 -29.810  1.00  0.00     0.124 A 
ATOM     26  C   UNL     1      17.552 -49.357 -29.055  1.00  0.00     0.043 A 
ATOM     27  C   UNL     1      16.767 -48.795 -30.060  1.00  0.00     0.042 A 
ATOM     28  F   UNL     1      17.774 -50.198 -26.881  1.00  0.00    -0.206 F 
ATOM     29  F   UNL     1      14.670 -47.995 -30.777  1.00  0.00    -0.207 F 
ENDBRANCH  10  22
ENDBRANCH   1   7
BRANCH   4  30
ATOM     30  S   UNL     1      10.182 -54.913 -22.643  1.00  0.00     0.238 S 
ATOM     31  O   UNL     1       9.435 -54.398 -21.518  1.00  0.00    -0.207 OA
ATOM     32  O   UNL     1       9.549 -55.573 -23.760  1.00  0.00    -0.207 OA
BRANCH  30  33
ATOM     33  N   UNL     1      11.311 -55.975 -21.983  1.00  0.00    -0.225 NA
ATOM     34  H   UNL     1      10.932 -56.538 -21.222  1.00  0.00     0.137 HD
ATOM     35  H   UNL     1      11.694 -56.554 -22.732  1.00  0.00     0.137 HD
ENDBRANCH  30  33
ENDBRANCH   4  30
TORSDOF 7
ENDMDL
MODEL 5
REMARK VINA RESULT:    -8.965      7.955     12.032
REMARK INTER + INTRA:         -13.852
REMARK INTER:                 -12.760
REMARK INTRA:                  -1.092
REMARK UNBOUND:                -1.480
REMARK SMILES COc1ccc([C@@H]2CC(c3cc(F)ccc3F)=NN2c2ccc(S(N)(=O)=O)cc2)cc1OC
REMARK SMILES IDX 20 1 21 2 22 3 23 4 28 5 29 6 19 7 7 8 8 9 9 10 18 11 6 12
REMARK SMILES IDX 3 13 4 14 31 15 5 16 30 17 2 18 1 19 32 20 33 21 10 22 11 23
REMARK SMILES IDX 16 24 12 25 15 26 14 27 17 28 13 29 24 30 26 31 27 32 25 33
REMARK H PARENT 25 34 25 35
ROOT
ATOM      1  C   UNL     1      12.147 -51.767 -23.687  1.00  0.00     0.060 A 
ATOM      2  C   UNL     1      11.422 -52.148 -22.545  1.00  0.00     0.029 A 
ATOM      3  C   UNL     1      11.018 -53.473 -22.335  1.00  0.00     0.024 A 
ATOM      4  C   UNL     1      11.345 -54.447 -23.276  1.00  0.00     0.082 A 
ATOM      5  C   UNL     1      12.051 -54.106 -24.427  1.00  0.00     0.024 A 
ATOM      6  C   UNL     1      12.447 -52.779 -24.619  1.00  0.00     0.029 A 
ENDROOT
BRANCH   1   7
ATOM      7  N   UNL     1      12.555 -50.453 -23.911  1.00  0.00    -0.257 N 
ATOM      8  C   UNL     1      13.791 -50.035 -24.580  1.00  0.00     0.144 C 
ATOM      9  C   UNL     1      13.554 -48.542 -24.818  1.00  0.00     0.091 C 
ATOM     10  C   UNL     1      12.338 -48.320 -23.962  1.00  0.00     0.074 C 
ATOM     11  N   UNL     1      11.789 -49.401 -23.497  1.00  0.00    -0.176 NA
BRANCH   8  12
ATOM     12  C   UNL     1      15.041 -50.262 -23.745  1.00  0.00    -0.019 A 
ATOM     13  C   UNL     1      17.371 -50.596 -22.159  1.00  0.00     0.160 A 
ATOM     14  C   UNL     1      16.741 -51.695 -22.757  1.00  0.00     0.051 A 
ATOM     15  C   UNL     1      16.802 -49.323 -22.324  1.00  0.00     0.161 A 
ATOM     16  C   UNL     1      15.588 -51.531 -23.533  1.00  0.00     0.010 A 
ATOM     17  C   UNL     1      15.661 -49.166 -23.125  1.00  0.00     0.056 A 
BRANCH  13  18
ATOM     18  O   UNL     1      18.523 -50.698 -21.425  1.00  0.00    -0.493 OA
ATOM     19  C   UNL     1      18.405 -50.752 -20.009  1.00  0.00     0.278 C 
ENDBRANCH  13  18
BRANCH  15  20
ATOM     20  O   UNL     1      17.259 -48.132 -21.816  1.00  0.00    -0.493 OA
ATOM     21  C   UNL     1      18.077 -47.341 -22.669  1.00  0.00     0.278 C 
ENDBRANCH  15  20
ENDBRANCH   8  12
BRANCH  10  22
ATOM     22  C   UNL     1      11.794 -46.971 -23.690  1.00  0.00     0.037 A 
ATOM     23  C   UNL     1      12.308 -45.882 -24.407  1.00  0.00     0.052 A 
ATOM     24  C   UNL     1      10.790 -46.748 -22.744  1.00  0.00     0.132 A 
ATOM     25  C   UNL     1      11.810 -44.605 -24.171  1.00  0.00     0.124 A 
ATOM     26  C   UNL     1      10.296 -45.464 -22.513  1.00  0.00     0.043 A 
ATOM     27  C   UNL     1      10.808 -44.385 -23.231  1.00  0.00     0.042 A 
ATOM     28  F   UNL     1      10.278 -47.753 -22.021  1.00  0.00    -0.206 F 
ATOM     29  F   UNL     1      12.303 -43.568 -24.859  1.00  0.00    -0.207 F 
ENDBRANCH  10  22
ENDBRANCH   1   7
BRANCH   4  30
ATOM     30  S   UNL     1      10.847 -56.128 -23.029  1.00  0.00     0.238 S 
ATOM     31  O   UNL     1      11.349 -56.577 -21.750  1.00  0.00    -0.207 OA
ATOM     32  O   UNL     1       9.461 -56.258 -23.409  1.00  0.00    -0.207 OA
BRANCH  30  33
ATOM     33  N   UNL     1      11.781 -56.928 -24.182  1.00  0.00    -0.225 NA
ATOM     34  H   UNL     1      11.221 -57.449 -24.856  1.00  0.00     0.137 HD
ATOM     35  H   UNL     1      12.391 -56.247 -24.637  1.00  0.00     0.137 HD
ENDBRANCH  30  33
ENDBRANCH   4  30
TORSDOF 7
ENDMDL
MODEL 6
REMARK VINA RESULT:    -8.746      7.781     12.034
REMARK INTER + INTRA:         -13.550
REMARK INTER:                 -12.017
REMARK INTRA:                  -1.533
REMARK UNBOUND:                -1.480
REMARK SMILES COc1ccc([C@@H]2CC(c3cc(F)ccc3F)=NN2c2ccc(S(N)(=O)=O)cc2)cc1OC
REMARK SMILES IDX 20 1 21 2 22 3 23 4 28 5 29 6 19 7 7 8 8 9 9 10 18 11 6 12
REMARK SMILES IDX 3 13 4 14 31 15 5 16 30 17 2 18 1 19 32 20 33 21 10 22 11 23
REMARK SMILES IDX 16 24 12 25 15 26 14 27 17 28 13 29 24 30 26 31 27 32 25 33
REMARK H PARENT 25 34 25 35
ROOT
ATOM      1  C   UNL     1      13.348 -52.013 -24.809  1.00  0.00     0.060 A 
ATOM      2  C   UNL     1      12.688 -51.599 -23.640  1.00  0.00     0.029 A 
ATOM      3  C   UNL     1      11.727 -52.401 -23.011  1.00  0.00     0.024 A 
ATOM      4  C   UNL     1      11.415 -53.648 -23.549  1.00  0.00     0.082 A 
ATOM      5  C   UNL     1      12.038 -54.088 -24.715  1.00  0.00     0.024 A 
ATOM      6  C   UNL     1      12.996 -53.274 -25.328  1.00  0.00     0.029 A 
ENDROOT
BRANCH   1   7
ATOM      7  N   UNL     1      14.305 -51.226 -25.447  1.00  0.00    -0.257 N 
ATOM      8  C   UNL     1      15.759 -51.334 -25.286  1.00  0.00     0.144 C 
ATOM      9  C   UNL     1      16.288 -50.470 -26.432  1.00  0.00     0.091 C 
ATOM     10  C   UNL     1      15.023 -49.778 -26.858  1.00  0.00     0.074 C 
ATOM     11  N   UNL     1      13.937 -50.239 -26.316  1.00  0.00    -0.176 NA
BRANCH   8  12
ATOM     12  C   UNL     1      16.262 -50.827 -23.943  1.00  0.00    -0.019 A 
ATOM     13  C   UNL     1      17.154 -49.799 -21.452  1.00  0.00     0.160 A 
ATOM     14  C   UNL     1      17.365 -51.141 -21.798  1.00  0.00     0.051 A 
ATOM     15  C   UNL     1      16.451 -48.977 -22.348  1.00  0.00     0.161 A 
ATOM     16  C   UNL     1      16.919 -51.649 -23.023  1.00  0.00     0.010 A 
ATOM     17  C   UNL     1      16.031 -49.490 -23.585  1.00  0.00     0.056 A 
BRANCH  13  18
ATOM     18  O   UNL     1      17.606 -49.244 -20.286  1.00  0.00    -0.493 OA
ATOM     19  C   UNL     1      18.686 -49.887 -19.619  1.00  0.00     0.278 C 
ENDBRANCH  13  18
BRANCH  15  20
ATOM     20  O   UNL     1      16.138 -47.650 -22.192  1.00  0.00    -0.493 OA
ATOM     21  C   UNL     1      14.785 -47.277 -22.422  1.00  0.00     0.278 C 
ENDBRANCH  15  20
ENDBRANCH   8  12
BRANCH  10  22
ATOM     22  C   UNL     1      15.015 -48.672 -27.840  1.00  0.00     0.037 A 
ATOM     23  C   UNL     1      15.168 -48.978 -29.199  1.00  0.00     0.052 A 
ATOM     24  C   UNL     1      14.864 -47.336 -27.458  1.00  0.00     0.132 A 
ATOM     25  C   UNL     1      15.161 -47.954 -30.140  1.00  0.00     0.124 A 
ATOM     26  C   UNL     1      14.859 -46.315 -28.409  1.00  0.00     0.043 A 
ATOM     27  C   UNL     1      15.007 -46.626 -29.759  1.00  0.00     0.042 A 
ATOM     28  F   UNL     1      14.733 -46.990 -26.170  1.00  0.00    -0.206 F 
ATOM     29  F   UNL     1      15.305 -48.252 -31.437  1.00  0.00    -0.207 F 
ENDBRANCH  10  22
ENDBRANCH   1   7
BRANCH   4  30
ATOM     30  S   UNL     1      10.206 -54.679 -22.769  1.00  0.00     0.238 S 
ATOM     31  O   UNL     1       9.486 -53.892 -21.793  1.00  0.00    -0.207 OA
ATOM     32  O   UNL     1       9.539 -55.457 -23.785  1.00  0.00    -0.207 OA
BRANCH  30  33
ATOM     33  N   UNL     1      11.181 -55.720 -21.872  1.00  0.00    -0.225 NA
ATOM     34  H   UNL     1      11.298 -56.633 -22.311  1.00  0.00     0.137 HD
ATOM     35  H   UNL     1      12.078 -55.262 -21.700  1.00  0.00     0.137 HD
ENDBRANCH  30  33
ENDBRANCH   4  30
TORSDOF 7
ENDMDL
MODEL 7
REMARK VINA RESULT:    -8.509      7.744     11.785
REMARK INTER + INTRA:         -13.223
REMARK INTER:                 -11.821
REMARK INTRA:                  -1.402
REMARK UNBOUND:                -1.480
REMARK SMILES COc1ccc([C@@H]2CC(c3cc(F)ccc3F)=NN2c2ccc(S(N)(=O)=O)cc2)cc1OC
REMARK SMILES IDX 20 1 21 2 22 3 23 4 28 5 29 6 19 7 7 8 8 9 9 10 18 11 6 12
REMARK SMILES IDX 3 13 4 14 31 15 5 16 30 17 2 18 1 19 32 20 33 21 10 22 11 23
REMARK SMILES IDX 16 24 12 25 15 26 14 27 17 28 13 29 24 30 26 31 27 32 25 33
REMARK H PARENT 25 34 25 35
ROOT
ATOM      1  C   UNL     1      12.262 -51.817 -23.997  1.00  0.00     0.060 A 
ATOM      2  C   UNL     1      11.554 -52.185 -22.840  1.00  0.00     0.029 A 
ATOM      3  C   UNL     1      11.160 -53.508 -22.605  1.00  0.00     0.024 A 
ATOM      4  C   UNL     1      11.480 -54.495 -23.535  1.00  0.00     0.082 A 
ATOM      5  C   UNL     1      12.169 -54.168 -24.701  1.00  0.00     0.024 A 
ATOM      6  C   UNL     1      12.555 -52.841 -24.917  1.00  0.00     0.029 A 
ENDROOT
BRANCH   1   7
ATOM      7  N   UNL     1      12.659 -50.504 -24.245  1.00  0.00    -0.257 N 
ATOM      8  C   UNL     1      13.592 -50.068 -25.289  1.00  0.00     0.144 C 
ATOM      9  C   UNL     1      13.401 -48.550 -25.297  1.00  0.00     0.091 C 
ATOM     10  C   UNL     1      12.605 -48.371 -24.034  1.00  0.00     0.074 C 
ATOM     11  N   UNL     1      12.183 -49.472 -23.490  1.00  0.00    -0.176 NA
BRANCH   8  12
ATOM     12  C   UNL     1      15.041 -50.434 -25.003  1.00  0.00    -0.019 A 
ATOM     13  C   UNL     1      17.740 -51.063 -24.390  1.00  0.00     0.160 A 
ATOM     14  C   UNL     1      17.059 -51.727 -25.419  1.00  0.00     0.051 A 
ATOM     15  C   UNL     1      17.046 -50.104 -23.634  1.00  0.00     0.161 A 
ATOM     16  C   UNL     1      15.726 -51.422 -25.717  1.00  0.00     0.010 A 
ATOM     17  C   UNL     1      15.718 -49.787 -23.958  1.00  0.00     0.056 A 
BRANCH  13  18
ATOM     18  O   UNL     1      19.054 -51.295 -24.088  1.00  0.00    -0.493 OA
ATOM     19  C   UNL     1      19.918 -51.698 -25.144  1.00  0.00     0.278 C 
ENDBRANCH  13  18
BRANCH  15  20
ATOM     20  O   UNL     1      17.528 -49.357 -22.589  1.00  0.00    -0.493 OA
ATOM     21  C   UNL     1      17.586 -49.992 -21.318  1.00  0.00     0.278 C 
ENDBRANCH  15  20
ENDBRANCH   8  12
BRANCH  10  22
ATOM     22  C   UNL     1      12.304 -47.038 -23.467  1.00  0.00     0.037 A 
ATOM     23  C   UNL     1      13.157 -46.517 -22.484  1.00  0.00     0.052 A 
ATOM     24  C   UNL     1      11.200 -46.285 -23.875  1.00  0.00     0.132 A 
ATOM     25  C   UNL     1      12.895 -45.265 -21.938  1.00  0.00     0.124 A 
ATOM     26  C   UNL     1      10.944 -45.030 -23.322  1.00  0.00     0.043 A 
ATOM     27  C   UNL     1      11.798 -44.515 -22.349  1.00  0.00     0.042 A 
ATOM     28  F   UNL     1      10.345 -46.746 -24.799  1.00  0.00    -0.206 F 
ATOM     29  F   UNL     1      13.714 -44.771 -21.001  1.00  0.00    -0.207 F 
ENDBRANCH  10  22
ENDBRANCH   1   7
BRANCH   4  30
ATOM     30  S   UNL     1      10.994 -56.174 -23.257  1.00  0.00     0.238 S 
ATOM     31  O   UNL     1       9.557 -56.268 -23.378  1.00  0.00    -0.207 OA
ATOM     32  O   UNL     1      11.893 -57.040 -23.980  1.00  0.00    -0.207 OA
BRANCH  30  33
ATOM     33  N   UNL     1      11.315 -56.348 -21.611  1.00  0.00    -0.225 NA
ATOM     34  H   UNL     1      10.536 -56.061 -21.020  1.00  0.00     0.137 HD
ATOM     35  H   UNL     1      11.595 -57.314 -21.432  1.00  0.00     0.137 HD
ENDBRANCH  30  33
ENDBRANCH   4  30
TORSDOF 7
ENDMDL
MODEL 8
REMARK VINA RESULT:    -8.311      7.924     11.106
REMARK INTER + INTRA:         -12.950
REMARK INTER:                 -11.399
REMARK INTRA:                  -1.551
REMARK UNBOUND:                -1.480
REMARK SMILES COc1ccc([C@@H]2CC(c3cc(F)ccc3F)=NN2c2ccc(S(N)(=O)=O)cc2)cc1OC
REMARK SMILES IDX 20 1 21 2 22 3 23 4 28 5 29 6 19 7 7 8 8 9 9 10 18 11 6 12
REMARK SMILES IDX 3 13 4 14 31 15 5 16 30 17 2 18 1 19 32 20 33 21 10 22 11 23
REMARK SMILES IDX 16 24 12 25 15 26 14 27 17 28 13 29 24 30 26 31 27 32 25 33
REMARK H PARENT 25 34 25 35
ROOT
ATOM      1  C   UNL     1      16.799 -51.263 -24.970  1.00  0.00     0.060 A 
ATOM      2  C   UNL     1      17.475 -50.346 -24.148  1.00  0.00     0.029 A 
ATOM      3  C   UNL     1      18.874 -50.319 -24.068  1.00  0.00     0.024 A 
ATOM      4  C   UNL     1      19.622 -51.217 -24.826  1.00  0.00     0.082 A 
ATOM      5  C   UNL     1      18.988 -52.150 -25.643  1.00  0.00     0.024 A 
ATOM      6  C   UNL     1      17.591 -52.161 -25.711  1.00  0.00     0.029 A 
ENDROOT
BRANCH   1   7
ATOM      7  N   UNL     1      15.408 -51.303 -25.060  1.00  0.00    -0.257 N 
ATOM      8  C   UNL     1      14.602 -50.829 -26.189  1.00  0.00     0.144 C 
ATOM      9  C   UNL     1      13.219 -51.405 -25.879  1.00  0.00     0.091 C 
ATOM     10  C   UNL     1      13.425 -51.856 -24.460  1.00  0.00     0.074 C 
ATOM     11  N   UNL     1      14.654 -51.816 -24.044  1.00  0.00    -0.176 NA
BRANCH   8  12
ATOM     12  C   UNL     1      14.547 -49.313 -26.303  1.00  0.00    -0.019 A 
ATOM     13  C   UNL     1      14.470 -46.492 -26.605  1.00  0.00     0.160 A 
ATOM     14  C   UNL     1      13.990 -47.107 -25.441  1.00  0.00     0.051 A 
ATOM     15  C   UNL     1      14.954 -47.304 -27.644  1.00  0.00     0.161 A 
ATOM     16  C   UNL     1      14.022 -48.499 -25.295  1.00  0.00     0.010 A 
ATOM     17  C   UNL     1      15.005 -48.696 -27.476  1.00  0.00     0.056 A 
BRANCH  13  18
ATOM     18  O   UNL     1      14.499 -45.135 -26.780  1.00  0.00    -0.493 OA
ATOM     19  C   UNL     1      13.391 -44.380 -26.305  1.00  0.00     0.278 C 
ENDBRANCH  13  18
BRANCH  15  20
ATOM     20  O   UNL     1      15.455 -46.898 -28.856  1.00  0.00    -0.493 OA
ATOM     21  C   UNL     1      14.614 -47.072 -29.990  1.00  0.00     0.278 C 
ENDBRANCH  15  20
ENDBRANCH   8  12
BRANCH  10  22
ATOM     22  C   UNL     1      12.313 -52.334 -23.609  1.00  0.00     0.037 A 
ATOM     23  C   UNL     1      11.699 -53.554 -23.928  1.00  0.00     0.052 A 
ATOM     24  C   UNL     1      11.853 -51.611 -22.505  1.00  0.00     0.132 A 
ATOM     25  C   UNL     1      10.653 -54.024 -23.141  1.00  0.00     0.124 A 
ATOM     26  C   UNL     1      10.803 -52.090 -21.721  1.00  0.00     0.043 A 
ATOM     27  C   UNL     1      10.200 -53.305 -22.040  1.00  0.00     0.042 A 
ATOM     28  F   UNL     1      12.395 -50.432 -22.170  1.00  0.00    -0.206 F 
ATOM     29  F   UNL     1      10.072 -55.190 -23.448  1.00  0.00    -0.207 F 
ENDBRANCH  10  22
ENDBRANCH   1   7
BRANCH   4  30
ATOM     30  S   UNL     1      21.391 -51.198 -24.741  1.00  0.00     0.238 S 
ATOM     31  O   UNL     1      21.890 -50.227 -25.688  1.00  0.00    -0.207 OA
ATOM     32  O   UNL     1      21.786 -51.204 -23.353  1.00  0.00    -0.207 OA
BRANCH  30  33
ATOM     33  N   UNL     1      21.774 -52.702 -25.398  1.00  0.00    -0.225 NA
ATOM     34  H   UNL     1      22.562 -52.665 -26.045  1.00  0.00     0.137 HD
ATOM     35  H   UNL     1      21.937 -53.360 -24.634  1.00  0.00     0.137 HD
ENDBRANCH  30  33
ENDBRANCH   4  30
TORSDOF 7
ENDMDL
MODEL 9
REMARK VINA RESULT:    -8.128      7.794     11.297
REMARK INTER + INTRA:         -12.697
REMARK INTER:                 -11.092
REMARK INTRA:                  -1.605
REMARK UNBOUND:                -1.480
REMARK SMILES COc1ccc([C@@H]2CC(c3cc(F)ccc3F)=NN2c2ccc(S(N)(=O)=O)cc2)cc1OC
REMARK SMILES IDX 20 1 21 2 22 3 23 4 28 5 29 6 19 7 7 8 8 9 9 10 18 11 6 12
REMARK SMILES IDX 3 13 4 14 31 15 5 16 30 17 2 18 1 19 32 20 33 21 10 22 11 23
REMARK SMILES IDX 16 24 12 25 15 26 14 27 17 28 13 29 24 30 26 31 27 32 25 33
REMARK H PARENT 25 34 25 35
ROOT
ATOM      1  C   UNL     1      17.116 -51.255 -25.082  1.00  0.00     0.060 A 
ATOM      2  C   UNL     1      17.759 -50.484 -24.100  1.00  0.00     0.029 A 
ATOM      3  C   UNL     1      19.154 -50.468 -23.970  1.00  0.00     0.024 A 
ATOM      4  C   UNL     1      19.933 -51.229 -24.838  1.00  0.00     0.082 A 
ATOM      5  C   UNL     1      19.331 -52.017 -25.816  1.00  0.00     0.024 A 
ATOM      6  C   UNL     1      17.937 -52.020 -25.932  1.00  0.00     0.029 A 
ENDROOT
BRANCH   1   7
ATOM      7  N   UNL     1      15.729 -51.282 -25.223  1.00  0.00    -0.257 N 
ATOM      8  C   UNL     1      14.948 -50.545 -26.221  1.00  0.00     0.144 C 
ATOM      9  C   UNL     1      13.566 -51.192 -26.110  1.00  0.00     0.091 C 
ATOM     10  C   UNL     1      13.738 -51.984 -24.844  1.00  0.00     0.074 C 
ATOM     11  N   UNL     1      14.954 -52.040 -24.392  1.00  0.00    -0.176 NA
BRANCH   8  12
ATOM     12  C   UNL     1      14.873 -49.050 -25.952  1.00  0.00    -0.019 A 
ATOM     13  C   UNL     1      14.670 -46.277 -25.384  1.00  0.00     0.160 A 
ATOM     14  C   UNL     1      15.665 -46.768 -26.240  1.00  0.00     0.051 A 
ATOM     15  C   UNL     1      13.796 -47.191 -24.775  1.00  0.00     0.161 A 
ATOM     16  C   UNL     1      15.770 -48.136 -26.515  1.00  0.00     0.010 A 
ATOM     17  C   UNL     1      13.893 -48.558 -25.078  1.00  0.00     0.056 A 
BRANCH  13  18
ATOM     18  O   UNL     1      14.500 -44.945 -25.116  1.00  0.00    -0.493 OA
ATOM     19  C   UNL     1      15.563 -44.258 -24.467  1.00  0.00     0.278 C 
ENDBRANCH  13  18
BRANCH  15  20
ATOM     20  O   UNL     1      12.769 -46.914 -23.907  1.00  0.00    -0.493 OA
ATOM     21  C   UNL     1      11.470 -46.783 -24.470  1.00  0.00     0.278 C 
ENDBRANCH  15  20
ENDBRANCH   8  12
BRANCH  10  22
ATOM     22  C   UNL     1      12.609 -52.669 -24.176  1.00  0.00     0.037 A 
ATOM     23  C   UNL     1      12.044 -52.080 -23.037  1.00  0.00     0.052 A 
ATOM     24  C   UNL     1      12.092 -53.882 -24.640  1.00  0.00     0.132 A 
ATOM     25  C   UNL     1      10.981 -52.705 -22.394  1.00  0.00     0.124 A 
ATOM     26  C   UNL     1      11.026 -54.502 -23.989  1.00  0.00     0.043 A 
ATOM     27  C   UNL     1      10.465 -53.909 -22.860  1.00  0.00     0.042 A 
ATOM     28  F   UNL     1      12.609 -54.494 -25.715  1.00  0.00    -0.206 F 
ATOM     29  F   UNL     1      10.443 -52.137 -21.308  1.00  0.00    -0.207 F 
ENDBRANCH  10  22
ENDBRANCH   1   7
BRANCH   4  30
ATOM     30  S   UNL     1      21.697 -51.221 -24.693  1.00  0.00     0.238 S 
ATOM     31  O   UNL     1      22.236 -50.266 -25.634  1.00  0.00    -0.207 OA
ATOM     32  O   UNL     1      22.044 -51.212 -23.292  1.00  0.00    -0.207 OA
BRANCH  30  33
ATOM     33  N   UNL     1      22.092 -52.736 -25.317  1.00  0.00    -0.225 NA
ATOM     34  H   UNL     1      22.933 -53.133 -24.899  1.00  0.00     0.137 HD
ATOM     35  H   UNL     1      21.285 -53.354 -25.211  1.00  0.00     0.137 HD
ENDBRANCH  30  33
ENDBRANCH   4  30
TORSDOF 7
ENDMDL
