MODEL 1
REMARK VINA RESULT:   -11.734      0.000      0.000
REMARK INTER + INTRA:         -19.793
REMARK INTER:                 -18.593
REMARK INTRA:                  -1.200
REMARK UNBOUND:                -1.200
REMARK SMILES CC[N@H+](CCCOc1ccc2c(=O)c3ccccc3oc2c1)Cc1cccc(OC(=O)NC)c1
REMARK SMILES IDX 3 1 2 3 1 4 4 5 5 6 6 7 7 8 8 9 9 10 22 11 10 12 21 13 11 14
REMARK SMILES IDX 20 15 12 16 19 17 14 18 18 19 15 20 17 21 16 22 13 23 23 24
REMARK SMILES IDX 24 25 25 26 34 27 26 28 28 29 27 30 29 31 30 32 32 33 31 34
REMARK SMILES IDX 33 35
REMARK H PARENT 3 2 32 36
ROOT
ATOM      1  N   UNL     1      11.478 -59.858 -24.778  1.00  0.00    -0.331 N 
ATOM      2  H   UNL     1      10.465 -59.691 -24.842  1.00  0.00     0.348 HD
ENDROOT
BRANCH   1   3
ATOM      3  C   UNL     1      11.994 -60.112 -26.188  1.00  0.00     0.259 C 
ATOM      4  C   UNL     1      10.873 -59.908 -27.190  1.00  0.00     0.071 C 
ENDBRANCH   1   3
BRANCH   1   5
ATOM      5  C   UNL     1      12.087 -58.631 -24.126  1.00  0.00     0.266 C 
BRANCH   5   6
ATOM      6  C   UNL     1      11.849 -58.657 -22.622  1.00  0.00     0.103 C 
BRANCH   6   7
ATOM      7  C   UNL     1      10.620 -57.831 -22.244  1.00  0.00     0.235 C 
BRANCH   7   8
ATOM      8  O   UNL     1      10.338 -56.881 -23.267  1.00  0.00    -0.493 OA
BRANCH   8   9
ATOM      9  C   UNL     1      10.629 -55.562 -23.058  1.00  0.00     0.123 A 
ATOM     10  C   UNL     1      10.244 -54.793 -21.958  1.00  0.00     0.047 A 
ATOM     11  C   UNL     1      11.392 -54.972 -24.074  1.00  0.00     0.094 A 
ATOM     12  C   UNL     1      10.630 -53.452 -21.871  1.00  0.00     0.020 A 
ATOM     13  C   UNL     1      11.778 -53.634 -23.992  1.00  0.00     0.142 A 
ATOM     14  C   UNL     1      11.398 -52.880 -22.888  1.00  0.00     0.066 A 
ATOM     15  O   UNL     1      12.526 -53.143 -25.033  1.00  0.00    -0.456 OA
ATOM     16  C   UNL     1      11.821 -51.475 -22.810  1.00  0.00     0.200 A 
ATOM     17  C   UNL     1      12.911 -51.824 -24.990  1.00  0.00     0.138 A 
ATOM     18  C   UNL     1      12.604 -50.958 -23.942  1.00  0.00     0.065 A 
ATOM     19  C   UNL     1      13.654 -51.355 -26.075  1.00  0.00     0.048 A 
ATOM     20  C   UNL     1      13.033 -49.628 -23.966  1.00  0.00     0.016 A 
ATOM     21  C   UNL     1      14.085 -50.027 -26.104  1.00  0.00     0.004 A 
ATOM     22  C   UNL     1      13.775 -49.163 -25.052  1.00  0.00     0.001 A 
ATOM     23  O   UNL     1      11.536 -50.781 -21.843  1.00  0.00    -0.288 OA
ENDBRANCH   8   9
ENDBRANCH   7   8
ENDBRANCH   6   7
ENDBRANCH   5   6
ENDBRANCH   1   5
BRANCH   1  24
ATOM     24  C   UNL     1      11.608 -61.081 -23.884  1.00  0.00     0.299 C 
BRANCH  24  25
ATOM     25  C   UNL     1      10.291 -61.753 -23.605  1.00  0.00     0.010 A 
ATOM     26  C   UNL     1      10.245 -63.008 -22.976  1.00  0.00     0.010 A 
ATOM     27  C   UNL     1       9.088 -61.130 -23.966  1.00  0.00     0.056 A 
ATOM     28  C   UNL     1       9.020 -63.625 -22.712  1.00  0.00     0.004 A 
ATOM     29  C   UNL     1       7.871 -61.771 -23.730  1.00  0.00     0.133 A 
ATOM     30  C   UNL     1       7.830 -63.005 -23.086  1.00  0.00     0.047 A 
BRANCH  29  31
ATOM     31  O   UNL     1       6.633 -61.193 -24.062  1.00  0.00    -0.410 OA
BRANCH  31  32
ATOM     32  C   UNL     1       6.370 -59.887 -23.665  1.00  0.00     0.412 C 
ATOM     33  N   UNL     1       5.428 -59.895 -22.675  1.00  0.00    -0.324 N 
ATOM     34  O   UNL     1       6.894 -58.882 -24.126  1.00  0.00    -0.224 OA
ATOM     35  C   UNL     1       4.842 -58.682 -22.172  1.00  0.00     0.146 C 
ATOM     36  H   UNL     1       4.973 -60.780 -22.494  1.00  0.00     0.166 HD
ENDBRANCH  31  32
ENDBRANCH  29  31
ENDBRANCH  24  25
ENDBRANCH   1  24
TORSDOF 10
ENDMDL
MODEL 2
REMARK VINA RESULT:   -11.413      1.780      2.319
REMARK INTER + INTRA:         -19.285
REMARK INTER:                 -18.302
REMARK INTRA:                  -0.983
REMARK UNBOUND:                -1.200
REMARK SMILES CC[N@H+](CCCOc1ccc2c(=O)c3ccccc3oc2c1)Cc1cccc(OC(=O)NC)c1
REMARK SMILES IDX 3 1 2 3 1 4 4 5 5 6 6 7 7 8 8 9 9 10 22 11 10 12 21 13 11 14
REMARK SMILES IDX 20 15 12 16 19 17 14 18 18 19 15 20 17 21 16 22 13 23 23 24
REMARK SMILES IDX 24 25 25 26 34 27 26 28 28 29 27 30 29 31 30 32 32 33 31 34
REMARK SMILES IDX 33 35
REMARK H PARENT 3 2 32 36
ROOT
ATOM      1  N   UNL     1      11.704 -59.944 -24.836  1.00  0.00    -0.331 N 
ATOM      2  H   UNL     1      10.697 -59.931 -25.045  1.00  0.00     0.348 HD
ENDROOT
BRANCH   1   3
ATOM      3  C   UNL     1      12.447 -60.078 -26.159  1.00  0.00     0.259 C 
ATOM      4  C   UNL     1      11.508 -59.769 -27.310  1.00  0.00     0.071 C 
ENDBRANCH   1   3
BRANCH   1   5
ATOM      5  C   UNL     1      12.018 -58.657 -24.097  1.00  0.00     0.266 C 
BRANCH   5   6
ATOM      6  C   UNL     1      11.791 -58.837 -22.601  1.00  0.00     0.103 C 
BRANCH   6   7
ATOM      7  C   UNL     1      10.714 -57.882 -22.088  1.00  0.00     0.235 C 
BRANCH   7   8
ATOM      8  O   UNL     1      10.348 -56.964 -23.114  1.00  0.00    -0.493 OA
BRANCH   8   9
ATOM      9  C   UNL     1      10.630 -55.636 -22.961  1.00  0.00     0.123 A 
ATOM     10  C   UNL     1      10.241 -54.825 -21.891  1.00  0.00     0.047 A 
ATOM     11  C   UNL     1      11.387 -55.083 -24.001  1.00  0.00     0.094 A 
ATOM     12  C   UNL     1      10.617 -53.479 -21.861  1.00  0.00     0.020 A 
ATOM     13  C   UNL     1      11.763 -53.739 -23.975  1.00  0.00     0.142 A 
ATOM     14  C   UNL     1      11.380 -52.944 -22.902  1.00  0.00     0.066 A 
ATOM     15  O   UNL     1      12.505 -53.286 -25.037  1.00  0.00    -0.456 OA
ATOM     16  C   UNL     1      11.793 -51.534 -22.882  1.00  0.00     0.200 A 
ATOM     17  C   UNL     1      12.881 -51.964 -25.048  1.00  0.00     0.138 A 
ATOM     18  C   UNL     1      12.569 -51.058 -24.036  1.00  0.00     0.065 A 
ATOM     19  C   UNL     1      13.619 -51.534 -26.153  1.00  0.00     0.048 A 
ATOM     20  C   UNL     1      12.989 -49.727 -24.115  1.00  0.00     0.016 A 
ATOM     21  C   UNL     1      14.040 -50.205 -26.238  1.00  0.00     0.004 A 
ATOM     22  C   UNL     1      13.726 -49.302 -25.221  1.00  0.00     0.001 A 
ATOM     23  O   UNL     1      11.505 -50.803 -21.944  1.00  0.00    -0.288 OA
ENDBRANCH   8   9
ENDBRANCH   7   8
ENDBRANCH   6   7
ENDBRANCH   5   6
ENDBRANCH   1   5
BRANCH   1  24
ATOM     24  C   UNL     1      11.894 -61.157 -23.939  1.00  0.00     0.299 C 
BRANCH  24  25
ATOM     25  C   UNL     1      10.619 -61.917 -23.696  1.00  0.00     0.010 A 
ATOM     26  C   UNL     1      10.451 -62.683 -22.530  1.00  0.00     0.010 A 
ATOM     27  C   UNL     1       9.574 -61.867 -24.630  1.00  0.00     0.056 A 
ATOM     28  C   UNL     1       9.263 -63.382 -22.304  1.00  0.00     0.004 A 
ATOM     29  C   UNL     1       8.405 -62.597 -24.411  1.00  0.00     0.133 A 
ATOM     30  C   UNL     1       8.236 -63.337 -23.244  1.00  0.00     0.047 A 
BRANCH  29  31
ATOM     31  O   UNL     1       7.322 -62.580 -25.308  1.00  0.00    -0.410 OA
BRANCH  31  32
ATOM     32  C   UNL     1       7.321 -63.463 -26.382  1.00  0.00     0.412 C 
ATOM     33  N   UNL     1       8.062 -62.938 -27.402  1.00  0.00    -0.324 N 
ATOM     34  O   UNL     1       6.748 -64.543 -26.416  1.00  0.00    -0.224 OA
ATOM     35  C   UNL     1       8.116 -63.556 -28.700  1.00  0.00     0.146 C 
ATOM     36  H   UNL     1       8.356 -61.976 -27.296  1.00  0.00     0.166 HD
ENDBRANCH  31  32
ENDBRANCH  29  31
ENDBRANCH  24  25
ENDBRANCH   1  24
TORSDOF 10
ENDMDL
MODEL 3
REMARK VINA RESULT:   -11.035      2.062      3.667
REMARK INTER + INTRA:         -18.686
REMARK INTER:                 -17.845
REMARK INTRA:                  -0.842
REMARK UNBOUND:                -1.200
REMARK SMILES CC[N@H+](CCCOc1ccc2c(=O)c3ccccc3oc2c1)Cc1cccc(OC(=O)NC)c1
REMARK SMILES IDX 3 1 2 3 1 4 4 5 5 6 6 7 7 8 8 9 9 10 22 11 10 12 21 13 11 14
REMARK SMILES IDX 20 15 12 16 19 17 14 18 18 19 15 20 17 21 16 22 13 23 23 24
REMARK SMILES IDX 24 25 25 26 34 27 26 28 28 29 27 30 29 31 30 32 32 33 31 34
REMARK SMILES IDX 33 35
REMARK H PARENT 3 2 32 36
ROOT
ATOM      1  N   UNL     1      10.703 -59.657 -22.939  1.00  0.00    -0.331 N 
ATOM      2  H   UNL     1      10.797 -59.202 -23.856  1.00  0.00     0.348 HD
ENDROOT
BRANCH   1   3
ATOM      3  C   UNL     1      11.871 -59.198 -22.075  1.00  0.00     0.259 C 
ATOM      4  C   UNL     1      11.350 -58.627 -20.769  1.00  0.00     0.071 C 
ENDBRANCH   1   3
BRANCH   1   5
ATOM      5  C   UNL     1       9.350 -59.256 -22.384  1.00  0.00     0.266 C 
BRANCH   5   6
ATOM      6  C   UNL     1       8.532 -58.538 -23.449  1.00  0.00     0.103 C 
BRANCH   6   7
ATOM      7  C   UNL     1       8.715 -57.023 -23.358  1.00  0.00     0.235 C 
BRANCH   7   8
ATOM      8  O   UNL     1      10.052 -56.716 -22.974  1.00  0.00    -0.493 OA
BRANCH   8   9
ATOM      9  C   UNL     1      10.430 -55.410 -22.840  1.00  0.00     0.123 A 
ATOM     10  C   UNL     1      10.116 -54.563 -21.776  1.00  0.00     0.047 A 
ATOM     11  C   UNL     1      11.210 -54.924 -23.897  1.00  0.00     0.094 A 
ATOM     12  C   UNL     1      10.588 -53.247 -21.766  1.00  0.00     0.020 A 
ATOM     13  C   UNL     1      11.682 -53.611 -23.892  1.00  0.00     0.142 A 
ATOM     14  C   UNL     1      11.372 -52.778 -22.823  1.00  0.00     0.066 A 
ATOM     15  O   UNL     1      12.440 -53.224 -24.969  1.00  0.00    -0.456 OA
ATOM     16  C   UNL     1      11.885 -51.402 -22.825  1.00  0.00     0.200 A 
ATOM     17  C   UNL     1      12.910 -51.932 -25.000  1.00  0.00     0.138 A 
ATOM     18  C   UNL     1      12.678 -50.995 -23.994  1.00  0.00     0.065 A 
ATOM     19  C   UNL     1      13.660 -51.569 -26.120  1.00  0.00     0.048 A 
ATOM     20  C   UNL     1      13.191 -49.698 -24.095  1.00  0.00     0.016 A 
ATOM     21  C   UNL     1      14.174 -50.274 -26.226  1.00  0.00     0.004 A 
ATOM     22  C   UNL     1      13.940 -49.340 -25.215  1.00  0.00     0.001 A 
ATOM     23  O   UNL     1      11.664 -50.642 -21.892  1.00  0.00    -0.288 OA
ENDBRANCH   8   9
ENDBRANCH   7   8
ENDBRANCH   6   7
ENDBRANCH   5   6
ENDBRANCH   1   5
BRANCH   1  24
ATOM     24  C   UNL     1      10.757 -61.146 -23.243  1.00  0.00     0.299 C 
BRANCH  24  25
ATOM     25  C   UNL     1      10.141 -61.501 -24.568  1.00  0.00     0.010 A 
ATOM     26  C   UNL     1       9.101 -62.443 -24.647  1.00  0.00     0.010 A 
ATOM     27  C   UNL     1      10.592 -60.890 -25.746  1.00  0.00     0.056 A 
ATOM     28  C   UNL     1       8.526 -62.765 -25.879  1.00  0.00     0.004 A 
ATOM     29  C   UNL     1      10.035 -61.245 -26.976  1.00  0.00     0.133 A 
ATOM     30  C   UNL     1       8.990 -62.163 -27.046  1.00  0.00     0.047 A 
BRANCH  29  31
ATOM     31  O   UNL     1      10.442 -60.661 -28.189  1.00  0.00    -0.410 OA
BRANCH  31  32
ATOM     32  C   UNL     1      11.523 -59.786 -28.188  1.00  0.00     0.412 C 
ATOM     33  N   UNL     1      11.267 -58.748 -29.037  1.00  0.00    -0.324 N 
ATOM     34  O   UNL     1      12.547 -59.920 -27.532  1.00  0.00    -0.224 OA
ATOM     35  C   UNL     1      12.266 -57.765 -29.361  1.00  0.00     0.146 C 
ATOM     36  H   UNL     1      10.449 -58.838 -29.625  1.00  0.00     0.166 HD
ENDBRANCH  31  32
ENDBRANCH  29  31
ENDBRANCH  24  25
ENDBRANCH   1  24
TORSDOF 10
ENDMDL
MODEL 4
REMARK VINA RESULT:   -10.974      1.204      1.437
REMARK INTER + INTRA:         -18.589
REMARK INTER:                 -17.599
REMARK INTRA:                  -0.990
REMARK UNBOUND:                -1.200
REMARK SMILES CC[N@H+](CCCOc1ccc2c(=O)c3ccccc3oc2c1)Cc1cccc(OC(=O)NC)c1
REMARK SMILES IDX 3 1 2 3 1 4 4 5 5 6 6 7 7 8 8 9 9 10 22 11 10 12 21 13 11 14
REMARK SMILES IDX 20 15 12 16 19 17 14 18 18 19 15 20 17 21 16 22 13 23 23 24
REMARK SMILES IDX 24 25 25 26 34 27 26 28 28 29 27 30 29 31 30 32 32 33 31 34
REMARK SMILES IDX 33 35
REMARK H PARENT 3 2 32 36
ROOT
ATOM      1  N   UNL     1      11.221 -59.619 -26.189  1.00  0.00    -0.331 N 
ATOM      2  H   UNL     1      10.785 -58.825 -25.701  1.00  0.00     0.348 HD
ENDROOT
BRANCH   1   3
ATOM      3  C   UNL     1      12.120 -59.053 -27.280  1.00  0.00     0.259 C 
ATOM      4  C   UNL     1      11.700 -59.603 -28.630  1.00  0.00     0.071 C 
ENDBRANCH   1   3
BRANCH   1   5
ATOM      5  C   UNL     1      11.974 -60.420 -25.144  1.00  0.00     0.266 C 
BRANCH   5   6
ATOM      6  C   UNL     1      11.925 -59.710 -23.797  1.00  0.00     0.103 C 
BRANCH   6   7
ATOM      7  C   UNL     1      12.166 -58.210 -23.955  1.00  0.00     0.235 C 
BRANCH   7   8
ATOM      8  O   UNL     1      10.953 -57.496 -23.739  1.00  0.00    -0.493 OA
BRANCH   8   9
ATOM      9  C   UNL     1      11.001 -56.177 -23.387  1.00  0.00     0.123 A 
ATOM     10  C   UNL     1      10.415 -55.599 -22.259  1.00  0.00     0.047 A 
ATOM     11  C   UNL     1      11.724 -55.370 -24.274  1.00  0.00     0.094 A 
ATOM     12  C   UNL     1      10.562 -54.230 -22.017  1.00  0.00     0.020 A 
ATOM     13  C   UNL     1      11.872 -54.002 -24.038  1.00  0.00     0.142 A 
ATOM     14  C   UNL     1      11.293 -53.438 -22.908  1.00  0.00     0.066 A 
ATOM     15  O   UNL     1      12.597 -53.292 -24.962  1.00  0.00    -0.456 OA
ATOM     16  C   UNL     1      11.466 -52.000 -22.666  1.00  0.00     0.200 A 
ATOM     17  C   UNL     1      12.751 -51.940 -24.765  1.00  0.00     0.138 A 
ATOM     18  C   UNL     1      12.228 -51.248 -23.673  1.00  0.00     0.065 A 
ATOM     19  C   UNL     1      13.478 -51.247 -25.734  1.00  0.00     0.048 A 
ATOM     20  C   UNL     1      12.427 -49.871 -23.539  1.00  0.00     0.016 A 
ATOM     21  C   UNL     1      13.680 -49.871 -25.605  1.00  0.00     0.004 A 
ATOM     22  C   UNL     1      13.155 -49.183 -24.510  1.00  0.00     0.001 A 
ATOM     23  O   UNL     1      11.001 -51.465 -21.668  1.00  0.00    -0.288 OA
ENDBRANCH   8   9
ENDBRANCH   7   8
ENDBRANCH   6   7
ENDBRANCH   5   6
ENDBRANCH   1   5
BRANCH   1  24
ATOM     24  C   UNL     1      10.051 -60.409 -26.754  1.00  0.00     0.299 C 
BRANCH  24  25
ATOM     25  C   UNL     1       9.171 -61.005 -25.690  1.00  0.00     0.010 A 
ATOM     26  C   UNL     1       8.893 -62.383 -25.678  1.00  0.00     0.010 A 
ATOM     27  C   UNL     1       8.620 -60.193 -24.689  1.00  0.00     0.056 A 
ATOM     28  C   UNL     1       8.081 -62.934 -24.683  1.00  0.00     0.004 A 
ATOM     29  C   UNL     1       7.782 -60.748 -23.721  1.00  0.00     0.133 A 
ATOM     30  C   UNL     1       7.527 -62.118 -23.700  1.00  0.00     0.047 A 
BRANCH  29  31
ATOM     31  O   UNL     1       7.207 -59.986 -22.689  1.00  0.00    -0.410 OA
BRANCH  31  32
ATOM     32  C   UNL     1       6.242 -59.036 -23.009  1.00  0.00     0.412 C 
ATOM     33  N   UNL     1       5.109 -59.279 -22.285  1.00  0.00    -0.324 N 
ATOM     34  O   UNL     1       6.379 -58.124 -23.811  1.00  0.00    -0.224 OA
ATOM     35  C   UNL     1       3.889 -58.554 -22.515  1.00  0.00     0.146 C 
ATOM     36  H   UNL     1       5.081 -60.150 -21.771  1.00  0.00     0.166 HD
ENDBRANCH  31  32
ENDBRANCH  29  31
ENDBRANCH  24  25
ENDBRANCH   1  24
TORSDOF 10
ENDMDL
MODEL 5
REMARK VINA RESULT:   -10.723      2.632      4.440
REMARK INTER + INTRA:         -18.193
REMARK INTER:                 -17.295
REMARK INTRA:                  -0.897
REMARK UNBOUND:                -1.200
REMARK SMILES CC[N@H+](CCCOc1ccc2c(=O)c3ccccc3oc2c1)Cc1cccc(OC(=O)NC)c1
REMARK SMILES IDX 3 1 2 3 1 4 4 5 5 6 6 7 7 8 8 9 9 10 22 11 10 12 21 13 11 14
REMARK SMILES IDX 20 15 12 16 19 17 14 18 18 19 15 20 17 21 16 22 13 23 23 24
REMARK SMILES IDX 24 25 25 26 34 27 26 28 28 29 27 30 29 31 30 32 32 33 31 34
REMARK SMILES IDX 33 35
REMARK H PARENT 3 2 32 36
ROOT
ATOM      1  N   UNL     1      11.113 -56.000 -23.882  1.00  0.00    -0.331 N 
ATOM      2  H   UNL     1      10.437 -56.613 -24.357  1.00  0.00     0.348 HD
ENDROOT
BRANCH   1   3
ATOM      3  C   UNL     1      12.368 -55.942 -24.744  1.00  0.00     0.259 C 
ATOM      4  C   UNL     1      12.410 -54.628 -25.502  1.00  0.00     0.071 C 
ENDBRANCH   1   3
BRANCH   1   5
ATOM      5  C   UNL     1      10.441 -54.653 -23.707  1.00  0.00     0.266 C 
BRANCH   5   6
ATOM      6  C   UNL     1       9.858 -54.530 -22.305  1.00  0.00     0.103 C 
BRANCH   6   7
ATOM      7  C   UNL     1      10.701 -53.598 -21.436  1.00  0.00     0.235 C 
BRANCH   7   8
ATOM      8  O   UNL     1      10.163 -52.280 -21.471  1.00  0.00    -0.493 OA
BRANCH   8   9
ATOM      9  C   UNL     1      10.815 -51.305 -22.173  1.00  0.00     0.123 A 
ATOM     10  C   UNL     1      11.910 -51.487 -23.020  1.00  0.00     0.047 A 
ATOM     11  C   UNL     1      10.293 -50.018 -21.993  1.00  0.00     0.094 A 
ATOM     12  C   UNL     1      12.468 -50.394 -23.689  1.00  0.00     0.020 A 
ATOM     13  C   UNL     1      10.848 -48.923 -22.657  1.00  0.00     0.142 A 
ATOM     14  C   UNL     1      11.931 -49.116 -23.506  1.00  0.00     0.066 A 
ATOM     15  O   UNL     1      10.270 -47.701 -22.421  1.00  0.00    -0.456 OA
ATOM     16  C   UNL     1      12.498 -47.957 -24.207  1.00  0.00     0.200 A 
ATOM     17  C   UNL     1      10.801 -46.600 -23.050  1.00  0.00     0.138 A 
ATOM     18  C   UNL     1      11.881 -46.652 -23.929  1.00  0.00     0.065 A 
ATOM     19  C   UNL     1      10.199 -45.371 -22.771  1.00  0.00     0.048 A 
ATOM     20  C   UNL     1      12.366 -45.488 -24.534  1.00  0.00     0.016 A 
ATOM     21  C   UNL     1      10.679 -44.206 -23.372  1.00  0.00     0.004 A 
ATOM     22  C   UNL     1      11.761 -44.263 -24.252  1.00  0.00     0.001 A 
ATOM     23  O   UNL     1      13.432 -48.083 -24.988  1.00  0.00    -0.288 OA
ENDBRANCH   8   9
ENDBRANCH   7   8
ENDBRANCH   6   7
ENDBRANCH   5   6
ENDBRANCH   1   5
BRANCH   1  24
ATOM     24  C   UNL     1      11.362 -56.673 -22.541  1.00  0.00     0.299 C 
BRANCH  24  25
ATOM     25  C   UNL     1      10.698 -58.017 -22.422  1.00  0.00     0.010 A 
ATOM     26  C   UNL     1      11.041 -58.897 -21.382  1.00  0.00     0.010 A 
ATOM     27  C   UNL     1       9.720 -58.410 -23.347  1.00  0.00     0.056 A 
ATOM     28  C   UNL     1      10.416 -60.142 -21.270  1.00  0.00     0.004 A 
ATOM     29  C   UNL     1       9.128 -59.669 -23.248  1.00  0.00     0.133 A 
ATOM     30  C   UNL     1       9.456 -60.529 -22.202  1.00  0.00     0.047 A 
BRANCH  29  31
ATOM     31  O   UNL     1       8.138 -60.114 -24.141  1.00  0.00    -0.410 OA
BRANCH  31  32
ATOM     32  C   UNL     1       6.832 -60.257 -23.684  1.00  0.00     0.412 C 
ATOM     33  N   UNL     1       6.402 -59.071 -23.160  1.00  0.00    -0.324 N 
ATOM     34  O   UNL     1       6.166 -61.282 -23.738  1.00  0.00    -0.224 OA
ATOM     35  C   UNL     1       5.145 -58.954 -22.472  1.00  0.00     0.146 C 
ATOM     36  H   UNL     1       7.102 -58.350 -23.045  1.00  0.00     0.166 HD
ENDBRANCH  31  32
ENDBRANCH  29  31
ENDBRANCH  24  25
ENDBRANCH   1  24
TORSDOF 10
ENDMDL
MODEL 6
REMARK VINA RESULT:   -10.157      1.801      3.304
REMARK INTER + INTRA:         -17.296
REMARK INTER:                 -16.941
REMARK INTRA:                  -0.354
REMARK UNBOUND:                -1.200
REMARK SMILES CC[N@H+](CCCOc1ccc2c(=O)c3ccccc3oc2c1)Cc1cccc(OC(=O)NC)c1
REMARK SMILES IDX 3 1 2 3 1 4 4 5 5 6 6 7 7 8 8 9 9 10 22 11 10 12 21 13 11 14
REMARK SMILES IDX 20 15 12 16 19 17 14 18 18 19 15 20 17 21 16 22 13 23 23 24
REMARK SMILES IDX 24 25 25 26 34 27 26 28 28 29 27 30 29 31 30 32 32 33 31 34
REMARK SMILES IDX 33 35
REMARK H PARENT 3 2 32 36
ROOT
ATOM      1  N   UNL     1      11.021 -58.974 -24.135  1.00  0.00    -0.331 N 
ATOM      2  H   UNL     1      10.229 -58.543 -24.631  1.00  0.00     0.348 HD
ENDROOT
BRANCH   1   3
ATOM      3  C   UNL     1      11.721 -59.911 -25.111  1.00  0.00     0.259 C 
ATOM      4  C   UNL     1      12.922 -60.549 -24.439  1.00  0.00     0.071 C 
ENDBRANCH   1   3
BRANCH   1   5
ATOM      5  C   UNL     1      11.905 -57.842 -23.648  1.00  0.00     0.266 C 
BRANCH   5   6
ATOM      6  C   UNL     1      11.459 -57.377 -22.268  1.00  0.00     0.103 C 
BRANCH   6   7
ATOM      7  C   UNL     1      10.994 -55.922 -22.300  1.00  0.00     0.235 C 
BRANCH   7   8
ATOM      8  O   UNL     1      10.759 -55.515 -23.644  1.00  0.00    -0.493 OA
BRANCH   8   9
ATOM      9  C   UNL     1      11.485 -54.485 -24.172  1.00  0.00     0.123 A 
ATOM     10  C   UNL     1      12.303 -54.542 -25.302  1.00  0.00     0.047 A 
ATOM     11  C   UNL     1      11.358 -53.275 -23.478  1.00  0.00     0.094 A 
ATOM     12  C   UNL     1      12.977 -53.398 -25.737  1.00  0.00     0.020 A 
ATOM     13  C   UNL     1      12.030 -52.130 -23.908  1.00  0.00     0.142 A 
ATOM     14  C   UNL     1      12.835 -52.196 -25.039  1.00  0.00     0.066 A 
ATOM     15  O   UNL     1      11.845 -50.991 -23.166  1.00  0.00    -0.456 OA
ATOM     16  C   UNL     1      13.527 -50.980 -25.487  1.00  0.00     0.200 A 
ATOM     17  C   UNL     1      12.504 -49.849 -23.555  1.00  0.00     0.138 A 
ATOM     18  C   UNL     1      13.336 -49.773 -24.671  1.00  0.00     0.065 A 
ATOM     19  C   UNL     1      12.306 -48.715 -22.766  1.00  0.00     0.048 A 
ATOM     20  C   UNL     1      13.971 -48.574 -25.007  1.00  0.00     0.016 A 
ATOM     21  C   UNL     1      12.939 -47.514 -23.097  1.00  0.00     0.004 A 
ATOM     22  C   UNL     1      13.771 -47.443 -24.216  1.00  0.00     0.001 A 
ATOM     23  O   UNL     1      14.222 -50.982 -26.495  1.00  0.00    -0.288 OA
ENDBRANCH   8   9
ENDBRANCH   7   8
ENDBRANCH   6   7
ENDBRANCH   5   6
ENDBRANCH   1   5
BRANCH   1  24
ATOM     24  C   UNL     1      10.384 -59.719 -22.972  1.00  0.00     0.299 C 
BRANCH  24  25
ATOM     25  C   UNL     1       8.920 -59.995 -23.177  1.00  0.00     0.010 A 
ATOM     26  C   UNL     1       7.974 -58.962 -23.071  1.00  0.00     0.010 A 
ATOM     27  C   UNL     1       8.479 -61.290 -23.484  1.00  0.00     0.056 A 
ATOM     28  C   UNL     1       6.615 -59.221 -23.270  1.00  0.00     0.004 A 
ATOM     29  C   UNL     1       7.117 -61.545 -23.646  1.00  0.00     0.133 A 
ATOM     30  C   UNL     1       6.185 -60.513 -23.562  1.00  0.00     0.047 A 
BRANCH  29  31
ATOM     31  O   UNL     1       6.617 -62.820 -23.961  1.00  0.00    -0.410 OA
BRANCH  31  32
ATOM     32  C   UNL     1       7.001 -63.419 -25.156  1.00  0.00     0.412 C 
ATOM     33  N   UNL     1       7.888 -62.608 -25.805  1.00  0.00    -0.324 N 
ATOM     34  O   UNL     1       6.610 -64.502 -25.569  1.00  0.00    -0.224 OA
ATOM     35  C   UNL     1       8.344 -62.892 -27.140  1.00  0.00     0.146 C 
ATOM     36  H   UNL     1       8.011 -61.679 -25.425  1.00  0.00     0.166 HD
ENDBRANCH  31  32
ENDBRANCH  29  31
ENDBRANCH  24  25
ENDBRANCH   1  24
TORSDOF 10
ENDMDL
MODEL 7
REMARK VINA RESULT:   -10.063      3.269     10.721
REMARK INTER + INTRA:         -17.147
REMARK INTER:                 -16.116
REMARK INTRA:                  -1.031
REMARK UNBOUND:                -1.200
REMARK SMILES CC[N@H+](CCCOc1ccc2c(=O)c3ccccc3oc2c1)Cc1cccc(OC(=O)NC)c1
REMARK SMILES IDX 3 1 2 3 1 4 4 5 5 6 6 7 7 8 8 9 9 10 22 11 10 12 21 13 11 14
REMARK SMILES IDX 20 15 12 16 19 17 14 18 18 19 15 20 17 21 16 22 13 23 23 24
REMARK SMILES IDX 24 25 25 26 34 27 26 28 28 29 27 30 29 31 30 32 32 33 31 34
REMARK SMILES IDX 33 35
REMARK H PARENT 3 2 32 36
ROOT
ATOM      1  N   UNL     1      10.334 -50.863 -22.742  1.00  0.00    -0.331 N 
ATOM      2  H   UNL     1      10.173 -50.823 -23.757  1.00  0.00     0.348 HD
ENDROOT
BRANCH   1   3
ATOM      3  C   UNL     1       9.862 -49.541 -22.149  1.00  0.00     0.259 C 
ATOM      4  C   UNL     1      10.614 -48.391 -22.792  1.00  0.00     0.071 C 
ENDBRANCH   1   3
BRANCH   1   5
ATOM      5  C   UNL     1       9.568 -52.063 -22.221  1.00  0.00     0.266 C 
BRANCH   5   6
ATOM      6  C   UNL     1      10.524 -53.070 -21.594  1.00  0.00     0.103 C 
BRANCH   6   7
ATOM      7  C   UNL     1       9.902 -54.465 -21.545  1.00  0.00     0.235 C 
BRANCH   7   8
ATOM      8  O   UNL     1       9.910 -55.048 -22.844  1.00  0.00    -0.493 OA
BRANCH   8   9
ATOM      9  C   UNL     1      10.233 -56.369 -22.986  1.00  0.00     0.123 A 
ATOM     10  C   UNL     1      11.521 -56.902 -23.068  1.00  0.00     0.047 A 
ATOM     11  C   UNL     1       9.129 -57.229 -23.046  1.00  0.00     0.094 A 
ATOM     12  C   UNL     1      11.700 -58.282 -23.198  1.00  0.00     0.020 A 
ATOM     13  C   UNL     1       9.303 -58.607 -23.177  1.00  0.00     0.142 A 
ATOM     14  C   UNL     1      10.589 -59.129 -23.248  1.00  0.00     0.066 A 
ATOM     15  O   UNL     1       8.164 -59.371 -23.225  1.00  0.00    -0.456 OA
ATOM     16  C   UNL     1      10.758 -60.583 -23.374  1.00  0.00     0.200 A 
ATOM     17  C   UNL     1       8.301 -60.732 -23.367  1.00  0.00     0.138 A 
ATOM     18  C   UNL     1       9.529 -61.386 -23.445  1.00  0.00     0.065 A 
ATOM     19  C   UNL     1       7.121 -61.474 -23.432  1.00  0.00     0.048 A 
ATOM     20  C   UNL     1       9.590 -62.775 -23.587  1.00  0.00     0.016 A 
ATOM     21  C   UNL     1       7.175 -62.862 -23.573  1.00  0.00     0.004 A 
ATOM     22  C   UNL     1       8.408 -63.513 -23.651  1.00  0.00     0.001 A 
ATOM     23  O   UNL     1      11.871 -61.090 -23.410  1.00  0.00    -0.288 OA
ENDBRANCH   8   9
ENDBRANCH   7   8
ENDBRANCH   6   7
ENDBRANCH   5   6
ENDBRANCH   1   5
BRANCH   1  24
ATOM     24  C   UNL     1      11.835 -51.059 -22.599  1.00  0.00     0.299 C 
BRANCH  24  25
ATOM     25  C   UNL     1      12.517 -51.366 -23.903  1.00  0.00     0.010 A 
ATOM     26  C   UNL     1      12.563 -52.680 -24.398  1.00  0.00     0.010 A 
ATOM     27  C   UNL     1      13.115 -50.340 -24.649  1.00  0.00     0.056 A 
ATOM     28  C   UNL     1      13.191 -52.960 -25.615  1.00  0.00     0.004 A 
ATOM     29  C   UNL     1      13.771 -50.635 -25.845  1.00  0.00     0.133 A 
ATOM     30  C   UNL     1      13.794 -51.936 -26.342  1.00  0.00     0.047 A 
BRANCH  29  31
ATOM     31  O   UNL     1      14.381 -49.648 -26.638  1.00  0.00    -0.410 OA
BRANCH  31  32
ATOM     32  C   UNL     1      15.766 -49.647 -26.768  1.00  0.00     0.412 C 
ATOM     33  N   UNL     1      16.098 -49.553 -28.090  1.00  0.00    -0.324 N 
ATOM     34  O   UNL     1      16.568 -49.719 -25.847  1.00  0.00    -0.224 OA
ATOM     35  C   UNL     1      17.456 -49.682 -28.545  1.00  0.00     0.146 C 
ATOM     36  H   UNL     1      15.340 -49.648 -28.752  1.00  0.00     0.166 HD
ENDBRANCH  31  32
ENDBRANCH  29  31
ENDBRANCH  24  25
ENDBRANCH   1  24
TORSDOF 10
ENDMDL
MODEL 8
REMARK VINA RESULT:   -10.022      2.320      4.211
REMARK INTER + INTRA:         -17.081
REMARK INTER:                 -16.489
REMARK INTRA:                  -0.593
REMARK UNBOUND:                -1.200
REMARK SMILES CC[N@H+](CCCOc1ccc2c(=O)c3ccccc3oc2c1)Cc1cccc(OC(=O)NC)c1
REMARK SMILES IDX 3 1 2 3 1 4 4 5 5 6 6 7 7 8 8 9 9 10 22 11 10 12 21 13 11 14
REMARK SMILES IDX 20 15 12 16 19 17 14 18 18 19 15 20 17 21 16 22 13 23 23 24
REMARK SMILES IDX 24 25 25 26 34 27 26 28 28 29 27 30 29 31 30 32 32 33 31 34
REMARK SMILES IDX 33 35
REMARK H PARENT 3 2 32 36
ROOT
ATOM      1  N   UNL     1       9.807 -58.859 -23.145  1.00  0.00    -0.331 N 
ATOM      2  H   UNL     1       9.517 -58.916 -22.160  1.00  0.00     0.348 HD
ENDROOT
BRANCH   1   3
ATOM      3  C   UNL     1       8.553 -58.642 -23.982  1.00  0.00     0.259 C 
ATOM      4  C   UNL     1       7.355 -58.445 -23.072  1.00  0.00     0.071 C 
ENDBRANCH   1   3
BRANCH   1   5
ATOM      5  C   UNL     1      10.804 -57.721 -23.247  1.00  0.00     0.266 C 
BRANCH   5   6
ATOM      6  C   UNL     1      11.155 -57.199 -21.860  1.00  0.00     0.103 C 
BRANCH   6   7
ATOM      7  C   UNL     1      11.126 -55.672 -21.820  1.00  0.00     0.235 C 
BRANCH   7   8
ATOM      8  O   UNL     1      10.639 -55.162 -23.058  1.00  0.00    -0.493 OA
BRANCH   8   9
ATOM      9  C   UNL     1      11.383 -54.248 -23.749  1.00  0.00     0.123 A 
ATOM     10  C   UNL     1      12.133 -54.493 -24.902  1.00  0.00     0.047 A 
ATOM     11  C   UNL     1      11.354 -52.956 -23.211  1.00  0.00     0.094 A 
ATOM     12  C   UNL     1      12.837 -53.451 -25.513  1.00  0.00     0.020 A 
ATOM     13  C   UNL     1      12.057 -51.913 -23.817  1.00  0.00     0.142 A 
ATOM     14  C   UNL     1      12.792 -52.165 -24.969  1.00  0.00     0.066 A 
ATOM     15  O   UNL     1      11.969 -50.681 -23.219  1.00  0.00    -0.456 OA
ATOM     16  C   UNL     1      13.517 -51.055 -25.603  1.00  0.00     0.200 A 
ATOM     17  C   UNL     1      12.659 -49.635 -23.785  1.00  0.00     0.138 A 
ATOM     18  C   UNL     1      13.430 -49.746 -24.941  1.00  0.00     0.065 A 
ATOM     19  C   UNL     1      12.562 -48.401 -23.139  1.00  0.00     0.048 A 
ATOM     20  C   UNL     1      14.103 -48.636 -25.459  1.00  0.00     0.016 A 
ATOM     21  C   UNL     1      13.232 -47.289 -23.652  1.00  0.00     0.004 A 
ATOM     22  C   UNL     1      14.003 -47.406 -24.811  1.00  0.00     0.001 A 
ATOM     23  O   UNL     1      14.152 -51.223 -26.636  1.00  0.00    -0.288 OA
ENDBRANCH   8   9
ENDBRANCH   7   8
ENDBRANCH   6   7
ENDBRANCH   5   6
ENDBRANCH   1   5
BRANCH   1  24
ATOM     24  C   UNL     1      10.467 -60.200 -23.427  1.00  0.00     0.299 C 
BRANCH  24  25
ATOM     25  C   UNL     1       9.964 -60.853 -24.686  1.00  0.00     0.010 A 
ATOM     26  C   UNL     1       8.991 -61.864 -24.629  1.00  0.00     0.010 A 
ATOM     27  C   UNL     1      10.457 -60.455 -25.937  1.00  0.00     0.056 A 
ATOM     28  C   UNL     1       8.520 -62.464 -25.800  1.00  0.00     0.004 A 
ATOM     29  C   UNL     1      10.007 -61.084 -27.098  1.00  0.00     0.133 A 
ATOM     30  C   UNL     1       9.026 -62.071 -27.038  1.00  0.00     0.047 A 
BRANCH  29  31
ATOM     31  O   UNL     1      10.459 -60.724 -28.379  1.00  0.00    -0.410 OA
BRANCH  31  32
ATOM     32  C   UNL     1      11.593 -59.928 -28.496  1.00  0.00     0.412 C 
ATOM     33  N   UNL     1      11.259 -58.747 -29.096  1.00  0.00    -0.324 N 
ATOM     34  O   UNL     1      12.718 -60.231 -28.122  1.00  0.00    -0.224 OA
ATOM     35  C   UNL     1      12.254 -57.785 -29.489  1.00  0.00     0.146 C 
ATOM     36  H   UNL     1      10.328 -58.688 -29.485  1.00  0.00     0.166 HD
ENDBRANCH  31  32
ENDBRANCH  29  31
ENDBRANCH  24  25
ENDBRANCH   1  24
TORSDOF 10
ENDMDL
MODEL 9
REMARK VINA RESULT:    -9.900      3.360     10.580
REMARK INTER + INTRA:         -16.887
REMARK INTER:                 -15.835
REMARK INTRA:                  -1.052
REMARK UNBOUND:                -1.200
REMARK SMILES CC[N@H+](CCCOc1ccc2c(=O)c3ccccc3oc2c1)Cc1cccc(OC(=O)NC)c1
REMARK SMILES IDX 3 1 2 3 1 4 4 5 5 6 6 7 7 8 8 9 9 10 22 11 10 12 21 13 11 14
REMARK SMILES IDX 20 15 12 16 19 17 14 18 18 19 15 20 17 21 16 22 13 23 23 24
REMARK SMILES IDX 24 25 25 26 34 27 26 28 28 29 27 30 29 31 30 32 32 33 31 34
REMARK SMILES IDX 33 35
REMARK H PARENT 3 2 32 36
ROOT
ATOM      1  N   UNL     1      10.493 -52.935 -23.135  1.00  0.00    -0.331 N 
ATOM      2  H   UNL     1      10.270 -52.402 -23.986  1.00  0.00     0.348 HD
ENDROOT
BRANCH   1   3
ATOM      3  C   UNL     1       9.568 -52.444 -22.028  1.00  0.00     0.259 C 
ATOM      4  C   UNL     1       9.573 -50.927 -21.990  1.00  0.00     0.071 C 
ENDBRANCH   1   3
BRANCH   1   5
ATOM      5  C   UNL     1      10.304 -54.402 -23.470  1.00  0.00     0.266 C 
BRANCH   5   6
ATOM      6  C   UNL     1      10.657 -55.270 -22.270  1.00  0.00     0.103 C 
BRANCH   6   7
ATOM      7  C   UNL     1      11.503 -56.472 -22.688  1.00  0.00     0.235 C 
BRANCH   7   8
ATOM      8  O   UNL     1      11.299 -57.550 -21.780  1.00  0.00    -0.493 OA
BRANCH   8   9
ATOM      9  C   UNL     1      10.719 -58.705 -22.225  1.00  0.00     0.123 A 
ATOM     10  C   UNL     1      10.229 -59.744 -21.432  1.00  0.00     0.047 A 
ATOM     11  C   UNL     1      10.628 -58.804 -23.619  1.00  0.00     0.094 A 
ATOM     12  C   UNL     1       9.644 -60.865 -22.029  1.00  0.00     0.020 A 
ATOM     13  C   UNL     1      10.047 -59.921 -24.220  1.00  0.00     0.142 A 
ATOM     14  C   UNL     1       9.553 -60.946 -23.421  1.00  0.00     0.066 A 
ATOM     15  O   UNL     1      10.000 -59.930 -25.591  1.00  0.00    -0.456 OA
ATOM     16  C   UNL     1       8.933 -62.111 -24.067  1.00  0.00     0.200 A 
ATOM     17  C   UNL     1       9.445 -61.023 -26.215  1.00  0.00     0.138 A 
ATOM     18  C   UNL     1       8.909 -62.116 -25.536  1.00  0.00     0.065 A 
ATOM     19  C   UNL     1       9.433 -61.005 -27.610  1.00  0.00     0.048 A 
ATOM     20  C   UNL     1       8.358 -63.192 -26.239  1.00  0.00     0.016 A 
ATOM     21  C   UNL     1       8.884 -62.077 -28.317  1.00  0.00     0.004 A 
ATOM     22  C   UNL     1       8.348 -63.170 -27.634  1.00  0.00     0.001 A 
ATOM     23  O   UNL     1       8.457 -63.023 -23.404  1.00  0.00    -0.288 OA
ENDBRANCH   8   9
ENDBRANCH   7   8
ENDBRANCH   6   7
ENDBRANCH   5   6
ENDBRANCH   1   5
BRANCH   1  24
ATOM     24  C   UNL     1      11.953 -52.616 -22.854  1.00  0.00     0.299 C 
BRANCH  24  25
ATOM     25  C   UNL     1      12.607 -51.825 -23.954  1.00  0.00     0.010 A 
ATOM     26  C   UNL     1      12.978 -52.444 -25.160  1.00  0.00     0.010 A 
ATOM     27  C   UNL     1      12.850 -50.454 -23.793  1.00  0.00     0.056 A 
ATOM     28  C   UNL     1      13.578 -51.705 -26.183  1.00  0.00     0.004 A 
ATOM     29  C   UNL     1      13.482 -49.732 -24.807  1.00  0.00     0.133 A 
ATOM     30  C   UNL     1      13.828 -50.345 -26.008  1.00  0.00     0.047 A 
BRANCH  29  31
ATOM     31  O   UNL     1      13.745 -48.355 -24.705  1.00  0.00    -0.410 OA
BRANCH  31  32
ATOM     32  C   UNL     1      12.759 -47.515 -24.198  1.00  0.00     0.412 C 
ATOM     33  N   UNL     1      13.194 -46.960 -23.028  1.00  0.00    -0.324 N 
ATOM     34  O   UNL     1      11.670 -47.302 -24.712  1.00  0.00    -0.224 OA
ATOM     35  C   UNL     1      12.331 -46.167 -22.194  1.00  0.00     0.146 C 
ATOM     36  H   UNL     1      14.051 -47.335 -22.643  1.00  0.00     0.166 HD
ENDBRANCH  31  32
ENDBRANCH  29  31
ENDBRANCH  24  25
ENDBRANCH   1  24
TORSDOF 10
ENDMDL
