MODEL 1
REMARK VINA RESULT:    -9.804      0.000      0.000
REMARK INTER + INTRA:         -10.091
REMARK INTER:                 -10.091
REMARK INTRA:                   0.000
REMARK UNBOUND:                 0.000
REMARK SMILES CC1=C[C@@H]2Cc3[nH]c4cc(Cl)ccc4c(=N)c3[C@H](C1)C2
REMARK SMILES IDX 7 1 6 2 17 3 15 4 14 5 13 6 12 7 10 8 11 9 9 10 8 11 18 12
REMARK SMILES IDX 19 13 2 14 1 15 3 16 4 17 5 18 20 19 16 21
REMARK H PARENT 7 20 16 22
ROOT
ATOM      1  N   UNL     1      10.922 -57.117 -21.984  1.00  0.00    -0.358 N 
ATOM      2  C   UNL     1      11.288 -58.256 -22.669  1.00  0.00     0.021 A 
ATOM      3  C   UNL     1      11.857 -58.235 -23.896  1.00  0.00     0.000 A 
ATOM      4  C   UNL     1      12.079 -56.898 -24.557  1.00  0.00     0.068 A 
ATOM      5  C   UNL     1      11.641 -55.684 -23.805  1.00  0.00     0.023 A 
ATOM      6  C   UNL     1      11.807 -54.407 -24.357  1.00  0.00     0.014 A 
ATOM      7  C   UNL     1      11.396 -53.280 -23.643  1.00  0.00     0.021 A 
ATOM      8  C   UNL     1      10.825 -53.436 -22.383  1.00  0.00     0.043 A 
ATOM      9  Cl  UNL     1      10.325 -52.047 -21.497  1.00  0.00    -0.084 Cl
ATOM     10  C   UNL     1      10.657 -54.705 -21.828  1.00  0.00     0.047 A 
ATOM     11  C   UNL     1      11.054 -55.842 -22.542  1.00  0.00     0.049 A 
ATOM     12  C   UNL     1      12.289 -59.503 -24.617  1.00  0.00     0.028 C 
ATOM     13  C   UNL     1      11.224 -59.941 -25.651  1.00  0.00     0.039 C 
ATOM     14  C   UNL     1      10.041 -60.668 -25.038  1.00  0.00    -0.076 C 
ATOM     15  C   UNL     1       8.876 -60.917 -25.950  1.00  0.00     0.039 C 
ATOM     16  C   UNL     1      10.040 -61.049 -23.746  1.00  0.00    -0.024 C 
ATOM     17  C   UNL     1      11.217 -60.825 -22.819  1.00  0.00     0.018 C 
ATOM     18  C   UNL     1      10.999 -59.571 -21.952  1.00  0.00     0.062 C 
ATOM     19  C   UNL     1      12.510 -60.649 -23.620  1.00  0.00     0.017 C 
ATOM     20  H   UNL     1      10.384 -57.222 -21.132  1.00  0.00     0.166 HD
ENDROOT
BRANCH   4  21
ATOM     21  N   UNL     1      12.611 -56.744 -25.728  1.00  0.00    -0.300 NA
ATOM     22  H   UNL     1      13.630 -56.737 -25.696  1.00  0.00     0.188 HD
ENDBRANCH   4  21
TORSDOF 1
ENDMDL
MODEL 2
REMARK VINA RESULT:    -9.200      1.574      2.122
REMARK INTER + INTRA:          -9.469
REMARK INTER:                  -9.469
REMARK INTRA:                   0.000
REMARK UNBOUND:                 0.000
REMARK SMILES CC1=C[C@@H]2Cc3[nH]c4cc(Cl)ccc4c(=N)c3[C@H](C1)C2
REMARK SMILES IDX 7 1 6 2 17 3 15 4 14 5 13 6 12 7 10 8 11 9 9 10 8 11 18 12
REMARK SMILES IDX 19 13 2 14 1 15 3 16 4 17 5 18 20 19 16 21
REMARK H PARENT 7 20 16 22
ROOT
ATOM      1  N   UNL     1       8.978 -58.252 -22.749  1.00  0.00    -0.358 N 
ATOM      2  C   UNL     1       9.381 -59.533 -23.059  1.00  0.00     0.021 A 
ATOM      3  C   UNL     1      10.585 -59.820 -23.606  1.00  0.00     0.000 A 
ATOM      4  C   UNL     1      11.520 -58.678 -23.913  1.00  0.00     0.068 A 
ATOM      5  C   UNL     1      11.040 -57.299 -23.598  1.00  0.00     0.023 A 
ATOM      6  C   UNL     1      11.850 -56.186 -23.862  1.00  0.00     0.014 A 
ATOM      7  C   UNL     1      11.391 -54.904 -23.560  1.00  0.00     0.021 A 
ATOM      8  C   UNL     1      10.130 -54.740 -22.993  1.00  0.00     0.043 A 
ATOM      9  Cl  UNL     1       9.565 -53.159 -22.612  1.00  0.00    -0.084 Cl
ATOM     10  C   UNL     1       9.319 -55.845 -22.728  1.00  0.00     0.047 A 
ATOM     11  C   UNL     1       9.765 -57.135 -23.040  1.00  0.00     0.049 A 
ATOM     12  C   UNL     1      11.027 -61.245 -23.904  1.00  0.00     0.028 C 
ATOM     13  C   UNL     1      10.809 -61.590 -25.397  1.00  0.00     0.039 C 
ATOM     14  C   UNL     1       9.373 -61.941 -25.739  1.00  0.00    -0.076 C 
ATOM     15  C   UNL     1       9.054 -62.064 -27.200  1.00  0.00     0.039 C 
ATOM     16  C   UNL     1       8.442 -62.116 -24.781  1.00  0.00    -0.024 C 
ATOM     17  C   UNL     1       8.753 -62.017 -23.301  1.00  0.00     0.018 C 
ATOM     18  C   UNL     1       8.368 -60.630 -22.753  1.00  0.00     0.062 C 
ATOM     19  C   UNL     1      10.244 -62.249 -23.046  1.00  0.00     0.017 C 
ATOM     20  H   UNL     1       8.015 -58.108 -22.466  1.00  0.00     0.166 HD
ENDROOT
BRANCH   4  21
ATOM     21  N   UNL     1      12.696 -58.821 -24.438  1.00  0.00    -0.300 NA
ATOM     22  H   UNL     1      13.388 -59.148 -23.764  1.00  0.00     0.188 HD
ENDBRANCH   4  21
TORSDOF 1
ENDMDL
MODEL 3
REMARK VINA RESULT:    -8.972      4.383      8.666
REMARK INTER + INTRA:          -9.234
REMARK INTER:                  -9.234
REMARK INTRA:                   0.000
REMARK UNBOUND:                 0.000
REMARK SMILES CC1=C[C@@H]2Cc3[nH]c4cc(Cl)ccc4c(=N)c3[C@H](C1)C2
REMARK SMILES IDX 7 1 6 2 17 3 15 4 14 5 13 6 12 7 10 8 11 9 9 10 8 11 18 12
REMARK SMILES IDX 19 13 2 14 1 15 3 16 4 17 5 18 20 19 16 21
REMARK H PARENT 7 20 16 22
ROOT
ATOM      1  N   UNL     1      12.445 -52.553 -24.547  1.00  0.00    -0.358 N 
ATOM      2  C   UNL     1      13.047 -51.343 -24.276  1.00  0.00     0.021 A 
ATOM      3  C   UNL     1      12.922 -50.700 -23.092  1.00  0.00     0.000 A 
ATOM      4  C   UNL     1      12.059 -51.328 -22.027  1.00  0.00     0.068 A 
ATOM      5  C   UNL     1      11.392 -52.621 -22.363  1.00  0.00     0.023 A 
ATOM      6  C   UNL     1      10.568 -53.261 -21.426  1.00  0.00     0.014 A 
ATOM      7  C   UNL     1       9.953 -54.471 -21.752  1.00  0.00     0.021 A 
ATOM      8  C   UNL     1      10.165 -55.034 -23.007  1.00  0.00     0.043 A 
ATOM      9  Cl  UNL     1       9.414 -56.530 -23.408  1.00  0.00    -0.084 Cl
ATOM     10  C   UNL     1      10.984 -54.401 -23.944  1.00  0.00     0.047 A 
ATOM     11  C   UNL     1      11.595 -53.181 -23.632  1.00  0.00     0.049 A 
ATOM     12  C   UNL     1      13.628 -49.385 -22.800  1.00  0.00     0.028 C 
ATOM     13  C   UNL     1      12.669 -48.186 -23.000  1.00  0.00     0.039 C 
ATOM     14  C   UNL     1      12.485 -47.789 -24.453  1.00  0.00    -0.076 C 
ATOM     15  C   UNL     1      11.401 -46.788 -24.731  1.00  0.00     0.039 C 
ATOM     16  C   UNL     1      13.244 -48.319 -25.431  1.00  0.00    -0.024 C 
ATOM     17  C   UNL     1      14.356 -49.313 -25.165  1.00  0.00     0.018 C 
ATOM     18  C   UNL     1      13.873 -50.754 -25.414  1.00  0.00     0.062 C 
ATOM     19  C   UNL     1      14.844 -49.203 -23.718  1.00  0.00     0.017 C 
ATOM     20  H   UNL     1      12.479 -52.903 -25.497  1.00  0.00     0.166 HD
ENDROOT
BRANCH   4  21
ATOM     21  N   UNL     1      11.857 -50.811 -20.855  1.00  0.00    -0.300 NA
ATOM     22  H   UNL     1      10.866 -50.723 -20.633  1.00  0.00     0.188 HD
ENDBRANCH   4  21
TORSDOF 1
ENDMDL
MODEL 4
REMARK VINA RESULT:    -8.392      1.800      2.767
REMARK INTER + INTRA:          -8.637
REMARK INTER:                  -8.637
REMARK INTRA:                   0.000
REMARK UNBOUND:                 0.000
REMARK SMILES CC1=C[C@@H]2Cc3[nH]c4cc(Cl)ccc4c(=N)c3[C@H](C1)C2
REMARK SMILES IDX 7 1 6 2 17 3 15 4 14 5 13 6 12 7 10 8 11 9 9 10 8 11 18 12
REMARK SMILES IDX 19 13 2 14 1 15 3 16 4 17 5 18 20 19 16 21
REMARK H PARENT 7 20 16 22
ROOT
ATOM      1  N   UNL     1       9.131 -56.944 -23.648  1.00  0.00    -0.358 N 
ATOM      2  C   UNL     1       9.474 -58.274 -23.531  1.00  0.00     0.021 A 
ATOM      3  C   UNL     1      10.328 -58.740 -22.591  1.00  0.00     0.000 A 
ATOM      4  C   UNL     1      10.954 -57.750 -21.641  1.00  0.00     0.068 A 
ATOM      5  C   UNL     1      10.589 -56.313 -21.815  1.00  0.00     0.023 A 
ATOM      6  C   UNL     1      11.136 -55.333 -20.975  1.00  0.00     0.014 A 
ATOM      7  C   UNL     1      10.785 -53.994 -21.147  1.00  0.00     0.021 A 
ATOM      8  C   UNL     1       9.888 -53.641 -22.153  1.00  0.00     0.043 A 
ATOM      9  Cl  UNL     1       9.447 -51.990 -22.361  1.00  0.00    -0.084 Cl
ATOM     10  C   UNL     1       9.341 -54.612 -22.992  1.00  0.00     0.047 A 
ATOM     11  C   UNL     1       9.697 -55.957 -22.836  1.00  0.00     0.049 A 
ATOM     12  C   UNL     1      10.663 -60.218 -22.454  1.00  0.00     0.028 C 
ATOM     13  C   UNL     1      12.008 -60.546 -23.144  1.00  0.00     0.039 C 
ATOM     14  C   UNL     1      11.902 -60.688 -24.651  1.00  0.00    -0.076 C 
ATOM     15  C   UNL     1      13.200 -60.782 -25.398  1.00  0.00     0.039 C 
ATOM     16  C   UNL     1      10.709 -60.713 -25.275  1.00  0.00    -0.024 C 
ATOM     17  C   UNL     1       9.389 -60.643 -24.534  1.00  0.00     0.018 C 
ATOM     18  C   UNL     1       8.829 -59.208 -24.549  1.00  0.00     0.062 C 
ATOM     19  C   UNL     1       9.563 -61.086 -23.079  1.00  0.00     0.017 C 
ATOM     20  H   UNL     1       8.591 -56.658 -24.456  1.00  0.00     0.166 HD
ENDROOT
BRANCH   4  21
ATOM     21  N   UNL     1      11.787 -58.070 -20.701  1.00  0.00    -0.300 NA
ATOM     22  H   UNL     1      11.320 -58.441 -19.875  1.00  0.00     0.188 HD
ENDBRANCH   4  21
TORSDOF 1
ENDMDL
MODEL 5
REMARK VINA RESULT:    -8.328      6.232     10.934
REMARK INTER + INTRA:          -8.571
REMARK INTER:                  -8.571
REMARK INTRA:                   0.000
REMARK UNBOUND:                 0.000
REMARK SMILES CC1=C[C@@H]2Cc3[nH]c4cc(Cl)ccc4c(=N)c3[C@H](C1)C2
REMARK SMILES IDX 7 1 6 2 17 3 15 4 14 5 13 6 12 7 10 8 11 9 9 10 8 11 18 12
REMARK SMILES IDX 19 13 2 14 1 15 3 16 4 17 5 18 20 19 16 21
REMARK H PARENT 7 20 16 22
ROOT
ATOM      1  N   UNL     1      10.369 -48.810 -22.244  1.00  0.00    -0.358 N 
ATOM      2  C   UNL     1      10.920 -47.656 -22.757  1.00  0.00     0.021 A 
ATOM      3  C   UNL     1      11.959 -47.651 -23.624  1.00  0.00     0.000 A 
ATOM      4  C   UNL     1      12.559 -48.975 -24.026  1.00  0.00     0.068 A 
ATOM      5  C   UNL     1      11.963 -50.205 -23.426  1.00  0.00     0.023 A 
ATOM      6  C   UNL     1      12.471 -51.471 -23.746  1.00  0.00     0.014 A 
ATOM      7  C   UNL     1      11.903 -52.613 -23.180  1.00  0.00     0.021 A 
ATOM      8  C   UNL     1      10.830 -52.485 -22.301  1.00  0.00     0.043 A 
ATOM      9  Cl  UNL     1      10.123 -53.893 -21.609  1.00  0.00    -0.084 Cl
ATOM     10  C   UNL     1      10.320 -51.226 -21.979  1.00  0.00     0.047 A 
ATOM     11  C   UNL     1      10.892 -50.074 -22.531  1.00  0.00     0.049 A 
ATOM     12  C   UNL     1      12.527 -46.367 -24.210  1.00  0.00     0.028 C 
ATOM     13  C   UNL     1      13.794 -45.921 -23.441  1.00  0.00     0.039 C 
ATOM     14  C   UNL     1      13.497 -45.217 -22.131  1.00  0.00    -0.076 C 
ATOM     15  C   UNL     1      14.675 -44.963 -21.236  1.00  0.00     0.039 C 
ATOM     16  C   UNL     1      12.244 -44.857 -21.792  1.00  0.00    -0.024 C 
ATOM     17  C   UNL     1      11.048 -45.086 -22.694  1.00  0.00     0.018 C 
ATOM     18  C   UNL     1      10.284 -46.357 -22.276  1.00  0.00     0.062 C 
ATOM     19  C   UNL     1      11.491 -45.236 -24.151  1.00  0.00     0.017 C 
ATOM     20  H   UNL     1       9.683 -48.725 -21.503  1.00  0.00     0.166 HD
ENDROOT
BRANCH   4  21
ATOM     21  N   UNL     1      13.556 -49.104 -24.844  1.00  0.00    -0.300 NA
ATOM     22  H   UNL     1      13.712 -48.267 -25.404  1.00  0.00     0.188 HD
ENDBRANCH   4  21
TORSDOF 1
ENDMDL
MODEL 6
REMARK VINA RESULT:    -8.293      4.667      9.100
REMARK INTER + INTRA:          -8.536
REMARK INTER:                  -8.536
REMARK INTRA:                   0.000
REMARK UNBOUND:                 0.000
REMARK SMILES CC1=C[C@@H]2Cc3[nH]c4cc(Cl)ccc4c(=N)c3[C@H](C1)C2
REMARK SMILES IDX 7 1 6 2 17 3 15 4 14 5 13 6 12 7 10 8 11 9 9 10 8 11 18 12
REMARK SMILES IDX 19 13 2 14 1 15 3 16 4 17 5 18 20 19 16 21
REMARK H PARENT 7 20 16 22
ROOT
ATOM      1  N   UNL     1      11.755 -50.955 -22.887  1.00  0.00    -0.358 N 
ATOM      2  C   UNL     1      12.416 -49.895 -23.468  1.00  0.00     0.021 A 
ATOM      3  C   UNL     1      13.120 -50.000 -24.620  1.00  0.00     0.000 A 
ATOM      4  C   UNL     1      13.205 -51.351 -25.284  1.00  0.00     0.068 A 
ATOM      5  C   UNL     1      12.507 -52.487 -24.611  1.00  0.00     0.023 A 
ATOM      6  C   UNL     1      12.546 -53.774 -25.165  1.00  0.00     0.014 A 
ATOM      7  C   UNL     1      11.888 -54.827 -24.528  1.00  0.00     0.021 A 
ATOM      8  C   UNL     1      11.192 -54.588 -23.345  1.00  0.00     0.043 A 
ATOM      9  Cl  UNL     1      10.372 -55.883 -22.562  1.00  0.00    -0.084 Cl
ATOM     10  C   UNL     1      11.150 -53.308 -22.790  1.00  0.00     0.047 A 
ATOM     11  C   UNL     1      11.818 -52.248 -23.414  1.00  0.00     0.049 A 
ATOM     12  C   UNL     1      13.809 -48.808 -25.266  1.00  0.00     0.028 C 
ATOM     13  C   UNL     1      15.317 -48.784 -24.914  1.00  0.00     0.039 C 
ATOM     14  C   UNL     1      15.612 -48.232 -23.532  1.00  0.00    -0.076 C 
ATOM     15  C   UNL     1      17.023 -48.391 -23.046  1.00  0.00     0.039 C 
ATOM     16  C   UNL     1      14.654 -47.649 -22.785  1.00  0.00    -0.024 C 
ATOM     17  C   UNL     1      13.231 -47.461 -23.270  1.00  0.00     0.018 C 
ATOM     18  C   UNL     1      12.315 -48.571 -22.720  1.00  0.00     0.062 C 
ATOM     19  C   UNL     1      13.173 -47.491 -24.799  1.00  0.00     0.017 C 
ATOM     20  H   UNL     1      11.363 -50.827 -21.961  1.00  0.00     0.166 HD
ENDROOT
BRANCH   4  21
ATOM     21  N   UNL     1      13.848 -51.582 -26.385  1.00  0.00    -0.300 NA
ATOM     22  H   UNL     1      13.495 -52.400 -26.879  1.00  0.00     0.188 HD
ENDBRANCH   4  21
TORSDOF 1
ENDMDL
MODEL 7
REMARK VINA RESULT:    -8.201      7.534      9.591
REMARK INTER + INTRA:          -8.441
REMARK INTER:                  -8.441
REMARK INTRA:                   0.000
REMARK UNBOUND:                 0.000
REMARK SMILES CC1=C[C@@H]2Cc3[nH]c4cc(Cl)ccc4c(=N)c3[C@H](C1)C2
REMARK SMILES IDX 7 1 6 2 17 3 15 4 14 5 13 6 12 7 10 8 11 9 9 10 8 11 18 12
REMARK SMILES IDX 19 13 2 14 1 15 3 16 4 17 5 18 20 19 16 21
REMARK H PARENT 7 20 16 22
ROOT
ATOM      1  N   UNL     1      12.966 -47.468 -25.158  1.00  0.00    -0.358 N 
ATOM      2  C   UNL     1      13.227 -48.821 -25.134  1.00  0.00     0.021 A 
ATOM      3  C   UNL     1      12.676 -49.668 -24.234  1.00  0.00     0.000 A 
ATOM      4  C   UNL     1      11.748 -49.097 -23.192  1.00  0.00     0.068 A 
ATOM      5  C   UNL     1      11.512 -47.622 -23.223  1.00  0.00     0.023 A 
ATOM      6  C   UNL     1      10.668 -47.017 -22.281  1.00  0.00     0.014 A 
ATOM      7  C   UNL     1      10.453 -45.639 -22.323  1.00  0.00     0.021 A 
ATOM      8  C   UNL     1      11.079 -44.875 -23.305  1.00  0.00     0.043 A 
ATOM      9  Cl  UNL     1      10.809 -43.176 -23.363  1.00  0.00    -0.084 Cl
ATOM     10  C   UNL     1      11.920 -45.472 -24.244  1.00  0.00     0.047 A 
ATOM     11  C   UNL     1      12.153 -46.852 -24.203  1.00  0.00     0.049 A 
ATOM     12  C   UNL     1      12.947 -51.165 -24.250  1.00  0.00     0.028 C 
ATOM     13  C   UNL     1      14.033 -51.540 -23.212  1.00  0.00     0.039 C 
ATOM     14  C   UNL     1      15.448 -51.257 -23.679  1.00  0.00    -0.076 C 
ATOM     15  C   UNL     1      16.524 -51.387 -22.641  1.00  0.00     0.039 C 
ATOM     16  C   UNL     1      15.713 -50.897 -24.950  1.00  0.00    -0.024 C 
ATOM     17  C   UNL     1      14.641 -50.783 -26.015  1.00  0.00     0.018 C 
ATOM     18  C   UNL     1      14.202 -49.318 -26.196  1.00  0.00     0.062 C 
ATOM     19  C   UNL     1      13.415 -51.619 -25.639  1.00  0.00     0.017 C 
ATOM     20  H   UNL     1      13.517 -46.884 -25.776  1.00  0.00     0.166 HD
ENDROOT
BRANCH   4  21
ATOM     21  N   UNL     1      11.161 -49.801 -22.276  1.00  0.00    -0.300 NA
ATOM     22  H   UNL     1      10.755 -50.660 -22.644  1.00  0.00     0.188 HD
ENDBRANCH   4  21
TORSDOF 1
ENDMDL
MODEL 8
REMARK VINA RESULT:    -6.951      7.335     10.187
REMARK INTER + INTRA:          -7.154
REMARK INTER:                  -7.154
REMARK INTRA:                   0.000
REMARK UNBOUND:                 0.000
REMARK SMILES CC1=C[C@@H]2Cc3[nH]c4cc(Cl)ccc4c(=N)c3[C@H](C1)C2
REMARK SMILES IDX 7 1 6 2 17 3 15 4 14 5 13 6 12 7 10 8 11 9 9 10 8 11 18 12
REMARK SMILES IDX 19 13 2 14 1 15 3 16 4 17 5 18 20 19 16 21
REMARK H PARENT 7 20 16 22
ROOT
ATOM      1  N   UNL     1      15.898 -48.854 -21.966  1.00  0.00    -0.358 N 
ATOM      2  C   UNL     1      14.730 -49.064 -22.666  1.00  0.00     0.021 A 
ATOM      3  C   UNL     1      13.570 -48.427 -22.385  1.00  0.00     0.000 A 
ATOM      4  C   UNL     1      13.550 -47.458 -21.230  1.00  0.00     0.068 A 
ATOM      5  C   UNL     1      14.822 -47.278 -20.469  1.00  0.00     0.023 A 
ATOM      6  C   UNL     1      14.880 -46.399 -19.378  1.00  0.00     0.014 A 
ATOM      7  C   UNL     1      16.075 -46.237 -18.677  1.00  0.00     0.021 A 
ATOM      8  C   UNL     1      17.205 -46.951 -19.070  1.00  0.00     0.043 A 
ATOM      9  Cl  UNL     1      18.683 -46.747 -18.211  1.00  0.00    -0.084 Cl
ATOM     10  C   UNL     1      17.153 -47.827 -20.155  1.00  0.00     0.047 A 
ATOM     11  C   UNL     1      15.955 -48.006 -20.857  1.00  0.00     0.049 A 
ATOM     12  C   UNL     1      12.302 -48.645 -23.197  1.00  0.00     0.028 C 
ATOM     13  C   UNL     1      11.359 -49.648 -22.490  1.00  0.00     0.039 C 
ATOM     14  C   UNL     1      11.757 -51.100 -22.684  1.00  0.00    -0.076 C 
ATOM     15  C   UNL     1      11.021 -52.103 -21.845  1.00  0.00     0.039 C 
ATOM     16  C   UNL     1      12.725 -51.456 -23.550  1.00  0.00    -0.024 C 
ATOM     17  C   UNL     1      13.461 -50.458 -24.420  1.00  0.00     0.018 C 
ATOM     18  C   UNL     1      14.819 -50.085 -23.796  1.00  0.00     0.062 C 
ATOM     19  C   UNL     1      12.635 -49.181 -24.595  1.00  0.00     0.017 C 
ATOM     20  H   UNL     1      16.685 -49.464 -22.152  1.00  0.00     0.166 HD
ENDROOT
BRANCH   4  21
ATOM     21  N   UNL     1      12.504 -46.789 -20.859  1.00  0.00    -0.300 NA
ATOM     22  H   UNL     1      11.644 -47.329 -20.944  1.00  0.00     0.188 HD
ENDBRANCH   4  21
TORSDOF 1
ENDMDL
MODEL 9
REMARK VINA RESULT:    -6.921      6.403      8.978
REMARK INTER + INTRA:          -7.123
REMARK INTER:                  -7.123
REMARK INTRA:                   0.000
REMARK UNBOUND:                 0.000
REMARK SMILES CC1=C[C@@H]2Cc3[nH]c4cc(Cl)ccc4c(=N)c3[C@H](C1)C2
REMARK SMILES IDX 7 1 6 2 17 3 15 4 14 5 13 6 12 7 10 8 11 9 9 10 8 11 18 12
REMARK SMILES IDX 19 13 2 14 1 15 3 16 4 17 5 18 20 19 16 21
REMARK H PARENT 7 20 16 22
ROOT
ATOM      1  N   UNL     1      16.960 -51.387 -23.471  1.00  0.00    -0.358 N 
ATOM      2  C   UNL     1      15.758 -51.245 -24.130  1.00  0.00     0.021 A 
ATOM      3  C   UNL     1      14.877 -50.253 -23.862  1.00  0.00     0.000 A 
ATOM      4  C   UNL     1      15.218 -49.272 -22.769  1.00  0.00     0.068 A 
ATOM      5  C   UNL     1      16.512 -49.473 -22.050  1.00  0.00     0.023 A 
ATOM      6  C   UNL     1      16.894 -48.606 -21.017  1.00  0.00     0.014 A 
ATOM      7  C   UNL     1      18.107 -48.803 -20.356  1.00  0.00     0.021 A 
ATOM      8  C   UNL     1      18.930 -49.862 -20.730  1.00  0.00     0.043 A 
ATOM      9  Cl  UNL     1      20.430 -50.103 -19.920  1.00  0.00    -0.084 Cl
ATOM     10  C   UNL     1      18.554 -50.729 -21.757  1.00  0.00     0.047 A 
ATOM     11  C   UNL     1      17.334 -50.547 -22.418  1.00  0.00     0.049 A 
ATOM     12  C   UNL     1      13.573 -50.091 -24.628  1.00  0.00     0.028 C 
ATOM     13  C   UNL     1      12.389 -50.699 -23.839  1.00  0.00     0.039 C 
ATOM     14  C   UNL     1      12.291 -52.209 -23.952  1.00  0.00    -0.076 C 
ATOM     15  C   UNL     1      11.308 -52.877 -23.035  1.00  0.00     0.039 C 
ATOM     16  C   UNL     1      13.057 -52.903 -24.816  1.00  0.00    -0.024 C 
ATOM     17  C   UNL     1      14.037 -52.241 -25.764  1.00  0.00     0.018 C 
ATOM     18  C   UNL     1      15.468 -52.296 -25.196  1.00  0.00     0.062 C 
ATOM     19  C   UNL     1      13.658 -50.777 -25.998  1.00  0.00     0.017 C 
ATOM     20  H   UNL     1      17.502 -52.227 -23.638  1.00  0.00     0.166 HD
ENDROOT
BRANCH   4  21
ATOM     21  N   UNL     1      14.459 -48.283 -22.415  1.00  0.00    -0.300 NA
ATOM     22  H   UNL     1      14.991 -47.488 -22.064  1.00  0.00     0.188 HD
ENDBRANCH   4  21
TORSDOF 1
ENDMDL
