MODEL 1
REMARK VINA RESULT:   -12.643      0.000      0.000
REMARK INTER + INTRA:         -17.256
REMARK INTER:                 -16.708
REMARK INTRA:                  -0.548
REMARK UNBOUND:                -0.548
REMARK SMILES OC1=Cc2cc3c(CC[C@H]4CC[N@H+](Cc5ccccc5)CC4)noc3cc2NC1
REMARK SMILES IDX 8 1 7 2 2 3 3 4 29 5 4 6 28 7 5 8 27 9 6 10 26 11 25 12
REMARK SMILES IDX 23 13 24 14 1 16 9 18 10 19 22 20 11 21 21 22 12 23 13 24
REMARK SMILES IDX 14 26 15 27 16 28 20 29 17 30 19 31 18 32
REMARK H PARENT 28 15 1 17 13 25
ROOT
ATOM      1  C   UNL     1      10.600 -55.699 -22.636  1.00  0.00     0.061 C 
ENDROOT
BRANCH   1   2
ATOM      2  C   UNL     1      10.706 -54.246 -22.328  1.00  0.00     0.091 A 
ATOM      3  C   UNL     1      14.019 -50.565 -26.089  1.00  0.00     0.112 C 
ATOM      4  C   UNL     1      13.418 -51.731 -25.826  1.00  0.00     0.053 C 
ATOM      5  C   UNL     1      13.947 -49.381 -25.153  1.00  0.00     0.187 C 
ATOM      6  C   UNL     1      12.647 -51.868 -24.589  1.00  0.00     0.002 A 
ATOM      7  N   UNL     1      12.809 -49.446 -24.237  1.00  0.00    -0.377 N 
ATOM      8  C   UNL     1      12.155 -53.134 -24.218  1.00  0.00     0.024 A 
ATOM      9  C   UNL     1      12.397 -50.719 -23.803  1.00  0.00     0.046 A 
ATOM     10  C   UNL     1      11.383 -53.231 -23.048  1.00  0.00     0.046 A 
ATOM     11  C   UNL     1      11.593 -50.816 -22.657  1.00  0.00     0.077 A 
ATOM     12  C   UNL     1      11.129 -52.084 -22.320  1.00  0.00     0.169 A 
ATOM     13  N   UNL     1      10.089 -53.756 -21.243  1.00  0.00    -0.084 NA
ATOM     14  O   UNL     1      10.356 -52.395 -21.245  1.00  0.00    -0.356 OA
ATOM     15  H   UNL     1      12.873 -48.771 -23.480  1.00  0.00     0.161 HD
BRANCH   3  16
ATOM     16  O   UNL     1      14.751 -50.433 -27.258  1.00  0.00    -0.510 OA
ATOM     17  H   UNL     1      15.696 -50.370 -27.035  1.00  0.00     0.293 HD
ENDBRANCH   3  16
ENDBRANCH   1   2
BRANCH   1  18
ATOM     18  C   UNL     1      11.308 -56.559 -21.582  1.00  0.00     0.010 C 
BRANCH  18  19
ATOM     19  C   UNL     1      11.525 -58.038 -21.958  1.00  0.00     0.000 C 
ATOM     20  C   UNL     1      10.393 -58.958 -21.480  1.00  0.00     0.065 C 
ATOM     21  C   UNL     1      11.767 -58.225 -23.464  1.00  0.00     0.065 C 
ATOM     22  C   UNL     1      10.669 -60.415 -21.843  1.00  0.00     0.262 C 
ATOM     23  C   UNL     1      12.032 -59.686 -23.809  1.00  0.00     0.262 C 
ATOM     24  N   UNL     1      10.868 -60.523 -23.336  1.00  0.00    -0.331 N 
ATOM     25  H   UNL     1      10.028 -60.129 -23.775  1.00  0.00     0.348 HD
BRANCH  24  26
ATOM     26  C   UNL     1      10.913 -61.956 -23.835  1.00  0.00     0.299 C 
BRANCH  26  27
ATOM     27  C   UNL     1       9.581 -62.605 -24.093  1.00  0.00     0.006 A 
ATOM     28  C   UNL     1       8.891 -62.370 -25.294  1.00  0.00     0.009 A 
ATOM     29  C   UNL     1       9.003 -63.457 -23.139  1.00  0.00     0.009 A 
ATOM     30  C   UNL     1       7.664 -62.988 -25.540  1.00  0.00     0.001 A 
ATOM     31  C   UNL     1       7.775 -64.072 -23.388  1.00  0.00     0.001 A 
ATOM     32  C   UNL     1       7.109 -63.840 -24.588  1.00  0.00     0.000 A 
ENDBRANCH  26  27
ENDBRANCH  24  26
ENDBRANCH  18  19
ENDBRANCH   1  18
TORSDOF 6
ENDMDL
MODEL 2
REMARK VINA RESULT:   -12.433      0.845      1.569
REMARK INTER + INTRA:         -16.978
REMARK INTER:                 -16.596
REMARK INTRA:                  -0.383
REMARK UNBOUND:                -0.548
REMARK SMILES OC1=Cc2cc3c(CC[C@H]4CC[N@H+](Cc5ccccc5)CC4)noc3cc2NC1
REMARK SMILES IDX 8 1 7 2 2 3 3 4 29 5 4 6 28 7 5 8 27 9 6 10 26 11 25 12
REMARK SMILES IDX 23 13 24 14 1 16 9 18 10 19 22 20 11 21 21 22 12 23 13 24
REMARK SMILES IDX 14 26 15 27 16 28 20 29 17 30 19 31 18 32
REMARK H PARENT 28 15 1 17 13 25
ROOT
ATOM      1  C   UNL     1      10.516 -54.847 -22.981  1.00  0.00     0.061 C 
ENDROOT
BRANCH   1   2
ATOM      2  C   UNL     1      10.975 -53.498 -22.546  1.00  0.00     0.091 A 
ATOM      3  C   UNL     1      14.515 -50.108 -26.373  1.00  0.00     0.112 C 
ATOM      4  C   UNL     1      13.711 -51.151 -26.142  1.00  0.00     0.053 C 
ATOM      5  C   UNL     1      14.822 -49.066 -25.322  1.00  0.00     0.187 C 
ATOM      6  C   UNL     1      13.091 -51.290 -24.822  1.00  0.00     0.002 A 
ATOM      7  N   UNL     1      13.822 -49.018 -24.257  1.00  0.00    -0.377 N 
ATOM      8  C   UNL     1      12.383 -52.466 -24.511  1.00  0.00     0.024 A 
ATOM      9  C   UNL     1      13.199 -50.226 -23.896  1.00  0.00     0.046 A 
ATOM     10  C   UNL     1      11.763 -52.557 -23.255  1.00  0.00     0.046 A 
ATOM     11  C   UNL     1      12.543 -50.307 -22.658  1.00  0.00     0.077 A 
ATOM     12  C   UNL     1      11.859 -51.487 -22.385  1.00  0.00     0.169 A 
ATOM     13  N   UNL     1      10.621 -53.040 -21.338  1.00  0.00    -0.084 NA
ATOM     14  O   UNL     1      11.178 -51.773 -21.242  1.00  0.00    -0.356 OA
ATOM     15  H   UNL     1      14.127 -48.475 -23.454  1.00  0.00     0.161 HD
BRANCH   3  16
ATOM     16  O   UNL     1      15.106 -49.976 -27.619  1.00  0.00    -0.510 OA
ATOM     17  H   UNL     1      15.557 -49.115 -27.667  1.00  0.00     0.293 HD
ENDBRANCH   3  16
ENDBRANCH   1   2
BRANCH   1  18
ATOM     18  C   UNL     1      11.064 -55.956 -22.074  1.00  0.00     0.010 C 
BRANCH  18  19
ATOM     19  C   UNL     1      10.872 -57.397 -22.586  1.00  0.00     0.000 C 
ATOM     20  C   UNL     1      11.738 -57.727 -23.809  1.00  0.00     0.065 C 
ATOM     21  C   UNL     1      11.090 -58.441 -21.479  1.00  0.00     0.065 C 
ATOM     22  C   UNL     1      11.486 -59.150 -24.302  1.00  0.00     0.262 C 
ATOM     23  C   UNL     1      10.843 -59.856 -21.991  1.00  0.00     0.262 C 
ATOM     24  N   UNL     1      11.745 -60.117 -23.172  1.00  0.00    -0.331 N 
ATOM     25  H   UNL     1      12.705 -59.943 -22.850  1.00  0.00     0.348 HD
BRANCH  24  26
ATOM     26  C   UNL     1      11.757 -61.569 -23.612  1.00  0.00     0.299 C 
BRANCH  26  27
ATOM     27  C   UNL     1      10.411 -62.231 -23.732  1.00  0.00     0.006 A 
ATOM     28  C   UNL     1       9.943 -63.090 -22.723  1.00  0.00     0.009 A 
ATOM     29  C   UNL     1       9.597 -62.002 -24.853  1.00  0.00     0.009 A 
ATOM     30  C   UNL     1       8.687 -63.687 -22.827  1.00  0.00     0.001 A 
ATOM     31  C   UNL     1       8.342 -62.602 -24.953  1.00  0.00     0.001 A 
ATOM     32  C   UNL     1       7.886 -63.442 -23.939  1.00  0.00     0.000 A 
ENDBRANCH  26  27
ENDBRANCH  24  26
ENDBRANCH  18  19
ENDBRANCH   1  18
TORSDOF 6
ENDMDL
MODEL 3
REMARK VINA RESULT:   -12.156      1.770      2.563
REMARK INTER + INTRA:         -16.613
REMARK INTER:                 -16.288
REMARK INTRA:                  -0.325
REMARK UNBOUND:                -0.548
REMARK SMILES OC1=Cc2cc3c(CC[C@H]4CC[N@H+](Cc5ccccc5)CC4)noc3cc2NC1
REMARK SMILES IDX 8 1 7 2 2 3 3 4 29 5 4 6 28 7 5 8 27 9 6 10 26 11 25 12
REMARK SMILES IDX 23 13 24 14 1 16 9 18 10 19 22 20 11 21 21 22 12 23 13 24
REMARK SMILES IDX 14 26 15 27 16 28 20 29 17 30 19 31 18 32
REMARK H PARENT 28 15 1 17 13 25
ROOT
ATOM      1  C   UNL     1      10.444 -55.185 -22.659  1.00  0.00     0.061 C 
ENDROOT
BRANCH   1   2
ATOM      2  C   UNL     1      11.282 -54.414 -23.619  1.00  0.00     0.091 A 
ATOM      3  C   UNL     1      12.421 -48.400 -22.519  1.00  0.00     0.112 C 
ATOM      4  C   UNL     1      11.980 -49.598 -22.120  1.00  0.00     0.053 C 
ATOM      5  C   UNL     1      13.043 -48.170 -23.877  1.00  0.00     0.187 C 
ATOM      6  C   UNL     1      12.113 -50.740 -23.027  1.00  0.00     0.002 A 
ATOM      7  N   UNL     1      13.560 -49.396 -24.483  1.00  0.00    -0.377 N 
ATOM      8  C   UNL     1      11.503 -51.964 -22.692  1.00  0.00     0.024 A 
ATOM      9  C   UNL     1      12.873 -50.594 -24.211  1.00  0.00     0.046 A 
ATOM     10  C   UNL     1      11.680 -53.055 -23.558  1.00  0.00     0.046 A 
ATOM     11  C   UNL     1      13.080 -51.698 -25.052  1.00  0.00     0.077 A 
ATOM     12  C   UNL     1      12.456 -52.888 -24.690  1.00  0.00     0.169 A 
ATOM     13  N   UNL     1      11.773 -55.026 -24.704  1.00  0.00    -0.084 NA
ATOM     14  O   UNL     1      12.513 -54.063 -25.374  1.00  0.00    -0.356 OA
ATOM     15  H   UNL     1      13.787 -49.285 -25.467  1.00  0.00     0.161 HD
BRANCH   3  16
ATOM     16  O   UNL     1      12.293 -47.317 -21.664  1.00  0.00    -0.510 OA
ATOM     17  H   UNL     1      11.590 -47.503 -21.018  1.00  0.00     0.293 HD
ENDBRANCH   3  16
ENDBRANCH   1   2
BRANCH   1  18
ATOM     18  C   UNL     1      11.229 -56.332 -22.010  1.00  0.00     0.010 C 
BRANCH  18  19
ATOM     19  C   UNL     1      10.879 -57.748 -22.506  1.00  0.00     0.000 C 
ATOM     20  C   UNL     1      11.689 -58.177 -23.738  1.00  0.00     0.065 C 
ATOM     21  C   UNL     1      11.001 -58.801 -21.393  1.00  0.00     0.065 C 
ATOM     22  C   UNL     1      11.282 -59.569 -24.214  1.00  0.00     0.262 C 
ATOM     23  C   UNL     1      10.600 -60.186 -21.889  1.00  0.00     0.262 C 
ATOM     24  N   UNL     1      11.454 -60.549 -23.079  1.00  0.00    -0.331 N 
ATOM     25  H   UNL     1      12.430 -60.476 -22.770  1.00  0.00     0.348 HD
BRANCH  24  26
ATOM     26  C   UNL     1      11.307 -61.998 -23.506  1.00  0.00     0.299 C 
BRANCH  26  27
ATOM     27  C   UNL     1       9.896 -62.502 -23.649  1.00  0.00     0.006 A 
ATOM     28  C   UNL     1       9.107 -62.119 -24.746  1.00  0.00     0.009 A 
ATOM     29  C   UNL     1       9.343 -63.365 -22.689  1.00  0.00     0.009 A 
ATOM     30  C   UNL     1       7.805 -62.603 -24.886  1.00  0.00     0.001 A 
ATOM     31  C   UNL     1       8.041 -63.845 -22.833  1.00  0.00     0.001 A 
ATOM     32  C   UNL     1       7.274 -63.466 -23.932  1.00  0.00     0.000 A 
ENDBRANCH  26  27
ENDBRANCH  24  26
ENDBRANCH  18  19
ENDBRANCH   1  18
TORSDOF 6
ENDMDL
MODEL 4
REMARK VINA RESULT:   -11.608      3.885      8.843
REMARK INTER + INTRA:         -15.888
REMARK INTER:                 -15.148
REMARK INTRA:                  -0.740
REMARK UNBOUND:                -0.548
REMARK SMILES OC1=Cc2cc3c(CC[C@H]4CC[N@H+](Cc5ccccc5)CC4)noc3cc2NC1
REMARK SMILES IDX 8 1 7 2 2 3 3 4 29 5 4 6 28 7 5 8 27 9 6 10 26 11 25 12
REMARK SMILES IDX 23 13 24 14 1 16 9 18 10 19 22 20 11 21 21 22 12 23 13 24
REMARK SMILES IDX 14 26 15 27 16 28 20 29 17 30 19 31 18 32
REMARK H PARENT 28 15 1 17 13 25
ROOT
ATOM      1  C   UNL     1       7.397 -62.467 -23.585  1.00  0.00     0.061 C 
ENDROOT
BRANCH   1   2
ATOM      2  C   UNL     1       7.661 -62.679 -25.036  1.00  0.00     0.091 A 
ATOM      3  C   UNL     1      11.789 -59.048 -27.943  1.00  0.00     0.112 C 
ATOM      4  C   UNL     1      11.224 -59.511 -26.822  1.00  0.00     0.053 C 
ATOM      5  C   UNL     1      11.420 -59.564 -29.315  1.00  0.00     0.187 C 
ATOM      6  C   UNL     1      10.216 -60.569 -26.921  1.00  0.00     0.002 A 
ATOM      7  N   UNL     1      10.806 -60.890 -29.280  1.00  0.00    -0.377 N 
ATOM      8  C   UNL     1       9.494 -60.945 -25.773  1.00  0.00     0.024 A 
ATOM      9  C   UNL     1      10.007 -61.206 -28.166  1.00  0.00     0.046 A 
ATOM     10  C   UNL     1       8.563 -61.991 -25.885  1.00  0.00     0.046 A 
ATOM     11  C   UNL     1       9.104 -62.276 -28.263  1.00  0.00     0.077 A 
ATOM     12  C   UNL     1       8.405 -62.615 -27.108  1.00  0.00     0.169 A 
ATOM     13  N   UNL     1       7.003 -63.645 -25.690  1.00  0.00    -0.084 NA
ATOM     14  O   UNL     1       7.476 -63.602 -26.993  1.00  0.00    -0.356 OA
ATOM     15  H   UNL     1      10.374 -61.148 -30.163  1.00  0.00     0.161 HD
BRANCH   3  16
ATOM     16  O   UNL     1      12.740 -58.045 -27.853  1.00  0.00    -0.510 OA
ATOM     17  H   UNL     1      13.513 -58.383 -27.369  1.00  0.00     0.293 HD
ENDBRANCH   3  16
ENDBRANCH   1   2
BRANCH   1  18
ATOM     18  C   UNL     1       6.881 -61.050 -23.301  1.00  0.00     0.010 C 
BRANCH  18  19
ATOM     19  C   UNL     1       7.924 -60.052 -22.762  1.00  0.00     0.000 C 
ATOM     20  C   UNL     1       9.258 -60.713 -22.385  1.00  0.00     0.065 C 
ATOM     21  C   UNL     1       8.162 -58.881 -23.728  1.00  0.00     0.065 C 
ATOM     22  C   UNL     1      10.245 -59.692 -21.823  1.00  0.00     0.262 C 
ATOM     23  C   UNL     1       9.156 -57.877 -23.155  1.00  0.00     0.262 C 
ATOM     24  N   UNL     1      10.447 -58.591 -22.836  1.00  0.00    -0.331 N 
ATOM     25  H   UNL     1      10.754 -59.043 -23.705  1.00  0.00     0.348 HD
BRANCH  24  26
ATOM     26  C   UNL     1      11.585 -57.650 -22.483  1.00  0.00     0.299 C 
BRANCH  26  27
ATOM     27  C   UNL     1      11.286 -56.180 -22.611  1.00  0.00     0.006 A 
ATOM     28  C   UNL     1      10.830 -55.444 -21.505  1.00  0.00     0.009 A 
ATOM     29  C   UNL     1      11.460 -55.519 -23.837  1.00  0.00     0.009 A 
ATOM     30  C   UNL     1      10.572 -54.077 -21.621  1.00  0.00     0.001 A 
ATOM     31  C   UNL     1      11.200 -54.152 -23.948  1.00  0.00     0.001 A 
ATOM     32  C   UNL     1      10.759 -53.432 -22.841  1.00  0.00     0.000 A 
ENDBRANCH  26  27
ENDBRANCH  24  26
ENDBRANCH  18  19
ENDBRANCH   1  18
TORSDOF 6
ENDMDL
MODEL 5
REMARK VINA RESULT:   -11.566      1.738      2.324
REMARK INTER + INTRA:         -15.833
REMARK INTER:                 -15.507
REMARK INTRA:                  -0.325
REMARK UNBOUND:                -0.548
REMARK SMILES OC1=Cc2cc3c(CC[C@H]4CC[N@H+](Cc5ccccc5)CC4)noc3cc2NC1
REMARK SMILES IDX 8 1 7 2 2 3 3 4 29 5 4 6 28 7 5 8 27 9 6 10 26 11 25 12
REMARK SMILES IDX 23 13 24 14 1 16 9 18 10 19 22 20 11 21 21 22 12 23 13 24
REMARK SMILES IDX 14 26 15 27 16 28 20 29 17 30 19 31 18 32
REMARK H PARENT 28 15 1 17 13 25
ROOT
ATOM      1  C   UNL     1      11.172 -54.744 -22.787  1.00  0.00     0.061 C 
ENDROOT
BRANCH   1   2
ATOM      2  C   UNL     1      10.461 -53.470 -22.491  1.00  0.00     0.091 A 
ATOM      3  C   UNL     1      13.515 -48.080 -23.041  1.00  0.00     0.112 C 
ATOM      4  C   UNL     1      13.422 -49.398 -23.250  1.00  0.00     0.053 C 
ATOM      5  C   UNL     1      12.406 -47.276 -22.401  1.00  0.00     0.187 C 
ATOM      6  C   UNL     1      12.196 -50.094 -22.856  1.00  0.00     0.002 A 
ATOM      7  N   UNL     1      11.101 -47.929 -22.493  1.00  0.00    -0.377 N 
ATOM      8  C   UNL     1      12.150 -51.500 -22.912  1.00  0.00     0.024 A 
ATOM      9  C   UNL     1      11.074 -49.335 -22.448  1.00  0.00     0.046 A 
ATOM     10  C   UNL     1      10.949 -52.142 -22.568  1.00  0.00     0.046 A 
ATOM     11  C   UNL     1       9.865 -49.979 -22.144  1.00  0.00     0.077 A 
ATOM     12  C   UNL     1       9.861 -51.369 -22.205  1.00  0.00     0.169 A 
ATOM     13  N   UNL     1       9.178 -53.505 -22.108  1.00  0.00    -0.084 NA
ATOM     14  O   UNL     1       8.804 -52.181 -21.932  1.00  0.00    -0.356 OA
ATOM     15  H   UNL     1      10.402 -47.500 -21.893  1.00  0.00     0.161 HD
BRANCH   3  16
ATOM     16  O   UNL     1      14.675 -47.419 -23.410  1.00  0.00    -0.510 OA
ATOM     17  H   UNL     1      14.452 -46.511 -23.676  1.00  0.00     0.293 HD
ENDBRANCH   3  16
ENDBRANCH   1   2
BRANCH   1  18
ATOM     18  C   UNL     1      10.392 -55.964 -22.280  1.00  0.00     0.010 C 
BRANCH  18  19
ATOM     19  C   UNL     1      10.581 -57.263 -23.086  1.00  0.00     0.000 C 
ATOM     20  C   UNL     1      11.852 -58.036 -22.704  1.00  0.00     0.065 C 
ATOM     21  C   UNL     1       9.352 -58.183 -23.006  1.00  0.00     0.065 C 
ATOM     22  C   UNL     1      12.015 -59.294 -23.554  1.00  0.00     0.262 C 
ATOM     23  C   UNL     1       9.537 -59.437 -23.852  1.00  0.00     0.262 C 
ATOM     24  N   UNL     1      10.785 -60.155 -23.402  1.00  0.00    -0.331 N 
ATOM     25  H   UNL     1      10.672 -60.335 -22.398  1.00  0.00     0.348 HD
BRANCH  24  26
ATOM     26  C   UNL     1      10.938 -61.537 -24.012  1.00  0.00     0.299 C 
BRANCH  26  27
ATOM     27  C   UNL     1       9.704 -62.397 -24.011  1.00  0.00     0.006 A 
ATOM     28  C   UNL     1       9.358 -63.151 -22.877  1.00  0.00     0.009 A 
ATOM     29  C   UNL     1       8.874 -62.461 -25.143  1.00  0.00     0.009 A 
ATOM     30  C   UNL     1       8.202 -63.933 -22.871  1.00  0.00     0.001 A 
ATOM     31  C   UNL     1       7.720 -63.246 -25.132  1.00  0.00     0.001 A 
ATOM     32  C   UNL     1       7.383 -63.978 -23.997  1.00  0.00     0.000 A 
ENDBRANCH  26  27
ENDBRANCH  24  26
ENDBRANCH  18  19
ENDBRANCH   1  18
TORSDOF 6
ENDMDL
MODEL 6
REMARK VINA RESULT:   -11.188      3.255     11.088
REMARK INTER + INTRA:         -15.334
REMARK INTER:                 -15.042
REMARK INTRA:                  -0.292
REMARK UNBOUND:                -0.548
REMARK SMILES OC1=Cc2cc3c(CC[C@H]4CC[N@H+](Cc5ccccc5)CC4)noc3cc2NC1
REMARK SMILES IDX 8 1 7 2 2 3 3 4 29 5 4 6 28 7 5 8 27 9 6 10 26 11 25 12
REMARK SMILES IDX 23 13 24 14 1 16 9 18 10 19 22 20 11 21 21 22 12 23 13 24
REMARK SMILES IDX 14 26 15 27 16 28 20 29 17 30 19 31 18 32
REMARK H PARENT 28 15 1 17 13 25
ROOT
ATOM      1  C   UNL     1       9.810 -55.968 -23.092  1.00  0.00     0.061 C 
ENDROOT
BRANCH   1   2
ATOM      2  C   UNL     1      10.319 -57.270 -22.579  1.00  0.00     0.091 A 
ATOM      3  C   UNL     1       7.211 -62.490 -23.907  1.00  0.00     0.112 C 
ATOM      4  C   UNL     1       7.446 -61.188 -24.103  1.00  0.00     0.053 C 
ATOM      5  C   UNL     1       8.029 -63.334 -22.957  1.00  0.00     0.187 C 
ATOM      6  C   UNL     1       8.548 -60.550 -23.378  1.00  0.00     0.002 A 
ATOM      7  N   UNL     1       9.345 -62.761 -22.674  1.00  0.00    -0.377 N 
ATOM      8  C   UNL     1       8.700 -59.152 -23.442  1.00  0.00     0.024 A 
ATOM      9  C   UNL     1       9.449 -61.358 -22.647  1.00  0.00     0.046 A 
ATOM     10  C   UNL     1       9.788 -58.570 -22.773  1.00  0.00     0.046 A 
ATOM     11  C   UNL     1      10.557 -60.775 -22.013  1.00  0.00     0.077 A 
ATOM     12  C   UNL     1      10.670 -59.390 -22.094  1.00  0.00     0.169 A 
ATOM     13  N   UNL     1      11.434 -57.295 -21.838  1.00  0.00    -0.084 NA
ATOM     14  O   UNL     1      11.652 -58.632 -21.537  1.00  0.00    -0.356 OA
ATOM     15  H   UNL     1       9.808 -63.208 -21.888  1.00  0.00     0.161 HD
BRANCH   3  16
ATOM     16  O   UNL     1       6.167 -63.095 -24.589  1.00  0.00    -0.510 OA
ATOM     17  H   UNL     1       6.499 -63.894 -25.034  1.00  0.00     0.293 HD
ENDBRANCH   3  16
ENDBRANCH   1   2
BRANCH   1  18
ATOM     18  C   UNL     1       9.874 -54.869 -22.023  1.00  0.00     0.010 C 
BRANCH  18  19
ATOM     19  C   UNL     1      10.954 -53.791 -22.234  1.00  0.00     0.000 C 
ATOM     20  C   UNL     1      11.323 -53.581 -23.709  1.00  0.00     0.065 C 
ATOM     21  C   UNL     1      10.575 -52.451 -21.583  1.00  0.00     0.065 C 
ATOM     22  C   UNL     1      12.422 -52.533 -23.865  1.00  0.00     0.262 C 
ATOM     23  C   UNL     1      11.678 -51.414 -21.756  1.00  0.00     0.262 C 
ATOM     24  N   UNL     1      11.966 -51.242 -23.227  1.00  0.00    -0.331 N 
ATOM     25  H   UNL     1      11.075 -50.992 -23.671  1.00  0.00     0.348 HD
BRANCH  24  26
ATOM     26  C   UNL     1      12.877 -50.066 -23.530  1.00  0.00     0.299 C 
BRANCH  26  27
ATOM     27  C   UNL     1      12.206 -48.724 -23.632  1.00  0.00     0.006 A 
ATOM     28  C   UNL     1      11.179 -48.367 -22.742  1.00  0.00     0.009 A 
ATOM     29  C   UNL     1      12.595 -47.802 -24.618  1.00  0.00     0.009 A 
ATOM     30  C   UNL     1      10.571 -47.114 -22.827  1.00  0.00     0.001 A 
ATOM     31  C   UNL     1      11.983 -46.550 -24.699  1.00  0.00     0.001 A 
ATOM     32  C   UNL     1      10.974 -46.206 -23.803  1.00  0.00     0.000 A 
ENDBRANCH  26  27
ENDBRANCH  24  26
ENDBRANCH  18  19
ENDBRANCH   1  18
TORSDOF 6
ENDMDL
MODEL 7
REMARK VINA RESULT:   -11.165      3.415     10.062
REMARK INTER + INTRA:         -15.303
REMARK INTER:                 -14.890
REMARK INTRA:                  -0.413
REMARK UNBOUND:                -0.548
REMARK SMILES OC1=Cc2cc3c(CC[C@H]4CC[N@H+](Cc5ccccc5)CC4)noc3cc2NC1
REMARK SMILES IDX 8 1 7 2 2 3 3 4 29 5 4 6 28 7 5 8 27 9 6 10 26 11 25 12
REMARK SMILES IDX 23 13 24 14 1 16 9 18 10 19 22 20 11 21 21 22 12 23 13 24
REMARK SMILES IDX 14 26 15 27 16 28 20 29 17 30 19 31 18 32
REMARK H PARENT 28 15 1 17 13 25
ROOT
ATOM      1  C   UNL     1      12.117 -59.369 -22.658  1.00  0.00     0.061 C 
ENDROOT
BRANCH   1   2
ATOM      2  C   UNL     1      11.884 -59.420 -24.129  1.00  0.00     0.091 A 
ATOM      3  C   UNL     1       7.694 -63.408 -26.413  1.00  0.00     0.112 C 
ATOM      4  C   UNL     1       8.254 -62.762 -25.384  1.00  0.00     0.053 C 
ATOM      5  C   UNL     1       8.101 -63.163 -27.848  1.00  0.00     0.187 C 
ATOM      6  C   UNL     1       9.296 -61.769 -25.652  1.00  0.00     0.002 A 
ATOM      7  N   UNL     1       8.757 -61.871 -28.043  1.00  0.00    -0.377 N 
ATOM      8  C   UNL     1      10.010 -61.208 -24.576  1.00  0.00     0.024 A 
ATOM      9  C   UNL     1       9.546 -61.378 -26.988  1.00  0.00     0.046 A 
ATOM     10  C   UNL     1      10.976 -60.228 -24.857  1.00  0.00     0.046 A 
ATOM     11  C   UNL     1      10.484 -60.369 -27.259  1.00  0.00     0.077 A 
ATOM     12  C   UNL     1      11.173 -59.844 -26.170  1.00  0.00     0.169 A 
ATOM     13  N   UNL     1      12.584 -58.610 -24.934  1.00  0.00    -0.084 NA
ATOM     14  O   UNL     1      12.131 -58.879 -26.218  1.00  0.00    -0.356 OA
ATOM     15  H   UNL     1       9.211 -61.792 -28.948  1.00  0.00     0.161 HD
BRANCH   3  16
ATOM     16  O   UNL     1       6.710 -64.350 -26.162  1.00  0.00    -0.510 OA
ATOM     17  H   UNL     1       7.120 -65.140 -25.769  1.00  0.00     0.293 HD
ENDBRANCH   3  16
ENDBRANCH   1   2
BRANCH   1  18
ATOM     18  C   UNL     1      11.026 -58.568 -21.936  1.00  0.00     0.010 C 
BRANCH  18  19
ATOM     19  C   UNL     1      10.955 -57.068 -22.282  1.00  0.00     0.000 C 
ATOM     20  C   UNL     1       9.691 -56.684 -23.063  1.00  0.00     0.065 C 
ATOM     21  C   UNL     1      11.107 -56.177 -21.039  1.00  0.00     0.065 C 
ATOM     22  C   UNL     1       9.684 -55.198 -23.415  1.00  0.00     0.262 C 
ATOM     23  C   UNL     1      11.089 -54.697 -21.408  1.00  0.00     0.262 C 
ATOM     24  N   UNL     1       9.809 -54.390 -22.146  1.00  0.00    -0.331 N 
ATOM     25  H   UNL     1       9.040 -54.684 -21.532  1.00  0.00     0.348 HD
BRANCH  24  26
ATOM     26  C   UNL     1       9.574 -52.904 -22.352  1.00  0.00     0.299 C 
BRANCH  26  27
ATOM     27  C   UNL     1      10.800 -52.077 -22.632  1.00  0.00     0.006 A 
ATOM     28  C   UNL     1      10.995 -50.846 -21.985  1.00  0.00     0.009 A 
ATOM     29  C   UNL     1      11.771 -52.522 -23.544  1.00  0.00     0.009 A 
ATOM     30  C   UNL     1      12.142 -50.090 -22.231  1.00  0.00     0.001 A 
ATOM     31  C   UNL     1      12.915 -51.762 -23.788  1.00  0.00     0.001 A 
ATOM     32  C   UNL     1      13.102 -50.549 -23.130  1.00  0.00     0.000 A 
ENDBRANCH  26  27
ENDBRANCH  24  26
ENDBRANCH  18  19
ENDBRANCH   1  18
TORSDOF 6
ENDMDL
MODEL 8
REMARK VINA RESULT:   -11.004      3.317      9.982
REMARK INTER + INTRA:         -15.091
REMARK INTER:                 -14.956
REMARK INTRA:                  -0.134
REMARK UNBOUND:                -0.548
REMARK SMILES OC1=Cc2cc3c(CC[C@H]4CC[N@H+](Cc5ccccc5)CC4)noc3cc2NC1
REMARK SMILES IDX 8 1 7 2 2 3 3 4 29 5 4 6 28 7 5 8 27 9 6 10 26 11 25 12
REMARK SMILES IDX 23 13 24 14 1 16 9 18 10 19 22 20 11 21 21 22 12 23 13 24
REMARK SMILES IDX 14 26 15 27 16 28 20 29 17 30 19 31 18 32
REMARK H PARENT 28 15 1 17 13 25
ROOT
ATOM      1  C   UNL     1      11.685 -58.655 -22.424  1.00  0.00     0.061 C 
ENDROOT
BRANCH   1   2
ATOM      2  C   UNL     1      10.792 -59.837 -22.576  1.00  0.00     0.091 A 
ATOM      3  C   UNL     1       9.289 -61.801 -28.282  1.00  0.00     0.112 C 
ATOM      4  C   UNL     1      10.036 -61.054 -27.462  1.00  0.00     0.053 C 
ATOM      5  C   UNL     1       8.248 -62.773 -27.778  1.00  0.00     0.187 C 
ATOM      6  C   UNL     1       9.849 -61.186 -26.016  1.00  0.00     0.002 A 
ATOM      7  N   UNL     1       8.469 -63.178 -26.390  1.00  0.00    -0.377 N 
ATOM      8  C   UNL     1      10.502 -60.288 -25.150  1.00  0.00     0.024 A 
ATOM      9  C   UNL     1       9.033 -62.229 -25.520  1.00  0.00     0.046 A 
ATOM     10  C   UNL     1      10.340 -60.461 -23.765  1.00  0.00     0.046 A 
ATOM     11  C   UNL     1       8.907 -62.421 -24.135  1.00  0.00     0.077 A 
ATOM     12  C   UNL     1       9.562 -61.510 -23.312  1.00  0.00     0.169 A 
ATOM     13  N   UNL     1      10.323 -60.454 -21.483  1.00  0.00    -0.084 NA
ATOM     14  O   UNL     1       9.552 -61.508 -21.952  1.00  0.00    -0.356 OA
ATOM     15  H   UNL     1       7.670 -63.660 -25.988  1.00  0.00     0.161 HD
BRANCH   3  16
ATOM     16  O   UNL     1       9.461 -61.676 -29.651  1.00  0.00    -0.510 OA
ATOM     17  H   UNL     1      10.304 -61.223 -29.825  1.00  0.00     0.293 HD
ENDBRANCH   3  16
ENDBRANCH   1   2
BRANCH   1  18
ATOM     18  C   UNL     1      11.174 -57.689 -21.347  1.00  0.00     0.010 C 
BRANCH  18  19
ATOM     19  C   UNL     1      10.833 -56.266 -21.830  1.00  0.00     0.000 C 
ATOM     20  C   UNL     1      11.191 -55.176 -20.811  1.00  0.00     0.065 C 
ATOM     21  C   UNL     1      11.463 -55.949 -23.196  1.00  0.00     0.065 C 
ATOM     22  C   UNL     1      10.801 -53.790 -21.317  1.00  0.00     0.262 C 
ATOM     23  C   UNL     1      11.070 -54.558 -23.682  1.00  0.00     0.262 C 
ATOM     24  N   UNL     1      11.477 -53.541 -22.644  1.00  0.00    -0.331 N 
ATOM     25  H   UNL     1      12.484 -53.668 -22.490  1.00  0.00     0.348 HD
BRANCH  24  26
ATOM     26  C   UNL     1      11.351 -52.107 -23.125  1.00  0.00     0.299 C 
BRANCH  26  27
ATOM     27  C   UNL     1      12.350 -51.670 -24.161  1.00  0.00     0.006 A 
ATOM     28  C   UNL     1      12.940 -52.607 -25.026  1.00  0.00     0.009 A 
ATOM     29  C   UNL     1      12.711 -50.318 -24.284  1.00  0.00     0.009 A 
ATOM     30  C   UNL     1      13.853 -52.197 -26.000  1.00  0.00     0.001 A 
ATOM     31  C   UNL     1      13.624 -49.913 -25.258  1.00  0.00     0.001 A 
ATOM     32  C   UNL     1      14.192 -50.851 -26.116  1.00  0.00     0.000 A 
ENDBRANCH  26  27
ENDBRANCH  24  26
ENDBRANCH  18  19
ENDBRANCH   1  18
TORSDOF 6
ENDMDL
MODEL 9
REMARK VINA RESULT:   -10.601      3.094      6.444
REMARK INTER + INTRA:         -14.558
REMARK INTER:                 -13.857
REMARK INTRA:                  -0.700
REMARK UNBOUND:                -0.548
REMARK SMILES OC1=Cc2cc3c(CC[C@H]4CC[N@H+](Cc5ccccc5)CC4)noc3cc2NC1
REMARK SMILES IDX 8 1 7 2 2 3 3 4 29 5 4 6 28 7 5 8 27 9 6 10 26 11 25 12
REMARK SMILES IDX 23 13 24 14 1 16 9 18 10 19 22 20 11 21 21 22 12 23 13 24
REMARK SMILES IDX 14 26 15 27 16 28 20 29 17 30 19 31 18 32
REMARK H PARENT 28 15 1 17 13 25
ROOT
ATOM      1  C   UNL     1      14.123 -51.078 -26.163  1.00  0.00     0.061 C 
ENDROOT
BRANCH   1   2
ATOM      2  C   UNL     1      14.265 -49.598 -26.259  1.00  0.00     0.091 A 
ATOM      3  C   UNL     1      10.637 -45.956 -22.760  1.00  0.00     0.112 C 
ATOM      4  C   UNL     1      11.140 -47.157 -23.066  1.00  0.00     0.053 C 
ATOM      5  C   UNL     1      11.063 -44.689 -23.466  1.00  0.00     0.187 C 
ATOM      6  C   UNL     1      12.152 -47.254 -24.120  1.00  0.00     0.002 A 
ATOM      7  N   UNL     1      12.366 -44.811 -24.120  1.00  0.00    -0.377 N 
ATOM      8  C   UNL     1      12.563 -48.524 -24.569  1.00  0.00     0.024 A 
ATOM      9  C   UNL     1      12.712 -46.068 -24.648  1.00  0.00     0.046 A 
ATOM     10  C   UNL     1      13.565 -48.591 -25.550  1.00  0.00     0.046 A 
ATOM     11  C   UNL     1      13.741 -46.142 -25.599  1.00  0.00     0.077 A 
ATOM     12  C   UNL     1      14.115 -47.414 -26.022  1.00  0.00     0.169 A 
ATOM     13  N   UNL     1      15.168 -49.077 -27.100  1.00  0.00    -0.084 NA
ATOM     14  O   UNL     1      15.072 -47.702 -26.945  1.00  0.00    -0.356 OA
ATOM     15  H   UNL     1      12.558 -44.045 -24.760  1.00  0.00     0.161 HD
BRANCH   3  16
ATOM     16  O   UNL     1       9.677 -45.861 -21.766  1.00  0.00    -0.510 OA
ATOM     17  H   UNL     1       9.620 -44.938 -21.466  1.00  0.00     0.293 HD
ENDBRANCH   3  16
ENDBRANCH   1   2
BRANCH   1  18
ATOM     18  C   UNL     1      13.904 -51.537 -24.715  1.00  0.00     0.010 C 
BRANCH  18  19
ATOM     19  C   UNL     1      12.597 -52.307 -24.446  1.00  0.00     0.000 C 
ATOM     20  C   UNL     1      12.642 -53.766 -24.923  1.00  0.00     0.065 C 
ATOM     21  C   UNL     1      12.176 -52.241 -22.969  1.00  0.00     0.065 C 
ATOM     22  C   UNL     1      11.315 -54.476 -24.670  1.00  0.00     0.262 C 
ATOM     23  C   UNL     1      10.854 -52.962 -22.733  1.00  0.00     0.262 C 
ATOM     24  N   UNL     1      10.983 -54.392 -23.199  1.00  0.00    -0.331 N 
ATOM     25  H   UNL     1      11.781 -54.793 -22.693  1.00  0.00     0.348 HD
BRANCH  24  26
ATOM     26  C   UNL     1       9.809 -55.265 -22.795  1.00  0.00     0.299 C 
BRANCH  26  27
ATOM     27  C   UNL     1      10.120 -56.719 -22.563  1.00  0.00     0.006 A 
ATOM     28  C   UNL     1       9.311 -57.723 -23.121  1.00  0.00     0.009 A 
ATOM     29  C   UNL     1      11.226 -57.099 -21.784  1.00  0.00     0.009 A 
ATOM     30  C   UNL     1       9.613 -59.070 -22.920  1.00  0.00     0.001 A 
ATOM     31  C   UNL     1      11.523 -58.447 -21.585  1.00  0.00     0.001 A 
ATOM     32  C   UNL     1      10.719 -59.431 -22.155  1.00  0.00     0.000 A 
ENDBRANCH  26  27
ENDBRANCH  24  26
ENDBRANCH  18  19
ENDBRANCH   1  18
TORSDOF 6
ENDMDL
