MODEL 1
REMARK VINA RESULT:    -8.946      0.000      0.000
REMARK INTER + INTRA:          -9.208
REMARK INTER:                  -9.208
REMARK INTRA:                   0.000
REMARK UNBOUND:                 0.000
REMARK SMILES CC1=C[C@@H]2Cc3nc4cc(Cl)ccc4c(N)c3[C@H](C1)C2
REMARK SMILES IDX 1 1 2 2 3 3 4 4 5 5 6 6 7 7 8 8 9 9 10 10 11 11 12 12 13 13
REMARK SMILES IDX 14 14 15 15 17 16 18 17 19 18 20 19 16 20
REMARK H PARENT 16 21 16 22
ROOT
ATOM      1  C   UNL     1       9.656 -56.392 -22.749  1.00  0.00     0.039 C 
ATOM      2  C   UNL     1      10.533 -57.590 -22.959  1.00  0.00    -0.076 C 
ATOM      3  C   UNL     1      11.590 -57.571 -23.793  1.00  0.00    -0.024 C 
ATOM      4  C   UNL     1      12.496 -58.766 -24.001  1.00  0.00     0.018 C 
ATOM      5  C   UNL     1      12.117 -59.523 -25.280  1.00  0.00     0.064 C 
ATOM      6  C   UNL     1      10.903 -60.415 -25.132  1.00  0.00     0.047 A 
ATOM      7  N   UNL     1      10.441 -60.935 -26.293  1.00  0.00    -0.252 NA
ATOM      8  C   UNL     1       9.424 -61.801 -26.257  1.00  0.00     0.074 A 
ATOM      9  C   UNL     1       9.011 -62.350 -27.461  1.00  0.00     0.049 A 
ATOM     10  C   UNL     1       7.979 -63.282 -27.516  1.00  0.00     0.043 A 
ATOM     11  Cl  UNL     1       7.498 -63.943 -29.030  1.00  0.00    -0.084 Cl
ATOM     12  C   UNL     1       7.343 -63.688 -26.354  1.00  0.00     0.021 A 
ATOM     13  C   UNL     1       7.742 -63.142 -25.134  1.00  0.00     0.014 A 
ATOM     14  C   UNL     1       8.781 -62.180 -25.060  1.00  0.00     0.024 A 
ATOM     15  C   UNL     1       9.220 -61.564 -23.852  1.00  0.00     0.046 A 
ATOM     16  C   UNL     1      10.349 -60.719 -23.882  1.00  0.00     0.001 A 
ATOM     17  C   UNL     1      10.940 -60.105 -22.616  1.00  0.00     0.028 C 
ATOM     18  C   UNL     1      10.156 -58.839 -22.188  1.00  0.00     0.039 C 
ATOM     19  C   UNL     1      12.414 -59.735 -22.820  1.00  0.00     0.017 C 
ENDROOT
BRANCH  15  20
ATOM     20  N   UNL     1       8.661 -61.954 -22.610  1.00  0.00    -0.398 N 
ATOM     21  H   UNL     1       9.312 -61.884 -21.835  1.00  0.00     0.156 HD
ATOM     22  H   UNL     1       8.222 -62.867 -22.619  1.00  0.00     0.156 HD
ENDBRANCH  15  20
TORSDOF 1
ENDMDL
MODEL 2
REMARK VINA RESULT:    -8.833      7.304      9.976
REMARK INTER + INTRA:          -9.091
REMARK INTER:                  -9.091
REMARK INTRA:                   0.000
REMARK UNBOUND:                 0.000
REMARK SMILES CC1=C[C@@H]2Cc3nc4cc(Cl)ccc4c(N)c3[C@H](C1)C2
REMARK SMILES IDX 1 1 2 2 3 3 4 4 5 5 6 6 7 7 8 8 9 9 10 10 11 11 12 12 13 13
REMARK SMILES IDX 14 14 15 15 17 16 18 17 19 18 20 19 16 20
REMARK H PARENT 16 21 16 22
ROOT
ATOM      1  C   UNL     1      11.819 -46.961 -25.080  1.00  0.00     0.039 C 
ATOM      2  C   UNL     1      12.799 -48.021 -24.674  1.00  0.00    -0.076 C 
ATOM      3  C   UNL     1      13.572 -48.667 -25.567  1.00  0.00    -0.024 C 
ATOM      4  C   UNL     1      14.580 -49.725 -25.171  1.00  0.00     0.018 C 
ATOM      5  C   UNL     1      14.005 -51.132 -25.381  1.00  0.00     0.064 C 
ATOM      6  C   UNL     1      13.049 -51.575 -24.295  1.00  0.00     0.047 A 
ATOM      7  N   UNL     1      12.386 -52.726 -24.561  1.00  0.00    -0.252 NA
ATOM      8  C   UNL     1      11.582 -53.243 -23.629  1.00  0.00     0.074 A 
ATOM      9  C   UNL     1      10.959 -54.447 -23.920  1.00  0.00     0.049 A 
ATOM     10  C   UNL     1      10.128 -55.074 -22.998  1.00  0.00     0.043 A 
ATOM     11  Cl  UNL     1       9.376 -56.569 -23.396  1.00  0.00    -0.084 Cl
ATOM     12  C   UNL     1       9.909 -54.502 -21.755  1.00  0.00     0.021 A 
ATOM     13  C   UNL     1      10.522 -53.288 -21.446  1.00  0.00     0.014 A 
ATOM     14  C   UNL     1      11.361 -52.626 -22.379  1.00  0.00     0.024 A 
ATOM     15  C   UNL     1      11.997 -51.374 -22.140  1.00  0.00     0.046 A 
ATOM     16  C   UNL     1      12.913 -50.876 -23.088  1.00  0.00     0.001 A 
ATOM     17  C   UNL     1      13.710 -49.595 -22.857  1.00  0.00     0.028 C 
ATOM     18  C   UNL     1      12.865 -48.340 -23.195  1.00  0.00     0.039 C 
ATOM     19  C   UNL     1      14.987 -49.580 -23.703  1.00  0.00     0.017 C 
ENDROOT
BRANCH  15  20
ATOM     20  N   UNL     1      11.870 -50.741 -20.878  1.00  0.00    -0.398 N 
ATOM     21  H   UNL     1      12.446 -51.162 -20.156  1.00  0.00     0.156 HD
ATOM     22  H   UNL     1      10.915 -50.644 -20.554  1.00  0.00     0.156 HD
ENDBRANCH  15  20
TORSDOF 1
ENDMDL
MODEL 3
REMARK VINA RESULT:    -8.514      7.991     10.856
REMARK INTER + INTRA:          -8.763
REMARK INTER:                  -8.763
REMARK INTRA:                   0.000
REMARK UNBOUND:                 0.000
REMARK SMILES CC1=C[C@@H]2Cc3nc4cc(Cl)ccc4c(N)c3[C@H](C1)C2
REMARK SMILES IDX 1 1 2 2 3 3 4 4 5 5 6 6 7 7 8 8 9 9 10 10 11 11 12 12 13 13
REMARK SMILES IDX 14 14 15 15 17 16 18 17 19 18 20 19 16 20
REMARK H PARENT 16 21 16 22
ROOT
ATOM      1  C   UNL     1      16.638 -48.211 -22.586  1.00  0.00     0.039 C 
ATOM      2  C   UNL     1      15.265 -48.160 -23.187  1.00  0.00    -0.076 C 
ATOM      3  C   UNL     1      14.206 -47.664 -22.521  1.00  0.00    -0.024 C 
ATOM      4  C   UNL     1      12.818 -47.587 -23.121  1.00  0.00     0.018 C 
ATOM      5  C   UNL     1      11.952 -48.760 -22.645  1.00  0.00     0.064 C 
ATOM      6  C   UNL     1      12.235 -50.064 -23.359  1.00  0.00     0.047 A 
ATOM      7  N   UNL     1      11.623 -51.146 -22.822  1.00  0.00    -0.252 NA
ATOM      8  C   UNL     1      11.744 -52.330 -23.430  1.00  0.00     0.074 A 
ATOM      9  C   UNL     1      11.063 -53.403 -22.877  1.00  0.00     0.049 A 
ATOM     10  C   UNL     1      11.107 -54.666 -23.459  1.00  0.00     0.043 A 
ATOM     11  Cl  UNL     1      10.245 -55.972 -22.745  1.00  0.00    -0.084 Cl
ATOM     12  C   UNL     1      11.837 -54.874 -24.618  1.00  0.00     0.021 A 
ATOM     13  C   UNL     1      12.534 -53.808 -25.186  1.00  0.00     0.014 A 
ATOM     14  C   UNL     1      12.513 -52.516 -24.599  1.00  0.00     0.024 A 
ATOM     15  C   UNL     1      13.220 -51.390 -25.109  1.00  0.00     0.046 A 
ATOM     16  C   UNL     1      13.020 -50.126 -24.518  1.00  0.00     0.001 A 
ATOM     17  C   UNL     1      13.662 -48.857 -25.072  1.00  0.00     0.028 C 
ATOM     18  C   UNL     1      15.128 -48.714 -24.590  1.00  0.00     0.039 C 
ATOM     19  C   UNL     1      12.874 -47.612 -24.650  1.00  0.00     0.017 C 
ENDROOT
BRANCH  15  20
ATOM     20  N   UNL     1      13.952 -51.498 -26.318  1.00  0.00    -0.398 N 
ATOM     21  H   UNL     1      13.398 -51.843 -27.095  1.00  0.00     0.156 HD
ATOM     22  H   UNL     1      14.813 -52.026 -26.239  1.00  0.00     0.156 HD
ENDBRANCH  15  20
TORSDOF 1
ENDMDL
MODEL 4
REMARK VINA RESULT:    -8.341      8.212     10.894
REMARK INTER + INTRA:          -8.585
REMARK INTER:                  -8.585
REMARK INTRA:                   0.000
REMARK UNBOUND:                 0.000
REMARK SMILES CC1=C[C@@H]2Cc3nc4cc(Cl)ccc4c(N)c3[C@H](C1)C2
REMARK SMILES IDX 1 1 2 2 3 3 4 4 5 5 6 6 7 7 8 8 9 9 10 10 11 11 12 12 13 13
REMARK SMILES IDX 14 14 15 15 17 16 18 17 19 18 20 19 16 20
REMARK H PARENT 16 21 16 22
ROOT
ATOM      1  C   UNL     1      10.636 -46.038 -24.220  1.00  0.00     0.039 C 
ATOM      2  C   UNL     1      11.817 -46.792 -23.686  1.00  0.00    -0.076 C 
ATOM      3  C   UNL     1      13.040 -46.700 -24.240  1.00  0.00    -0.024 C 
ATOM      4  C   UNL     1      14.246 -47.439 -23.702  1.00  0.00     0.018 C 
ATOM      5  C   UNL     1      14.510 -48.716 -24.509  1.00  0.00     0.064 C 
ATOM      6  C   UNL     1      13.593 -49.868 -24.157  1.00  0.00     0.047 A 
ATOM      7  N   UNL     1      13.680 -50.933 -24.988  1.00  0.00    -0.252 NA
ATOM      8  C   UNL     1      12.971 -52.032 -24.713  1.00  0.00     0.074 A 
ATOM      9  C   UNL     1      13.125 -53.118 -25.560  1.00  0.00     0.049 A 
ATOM     10  C   UNL     1      12.449 -54.314 -25.334  1.00  0.00     0.043 A 
ATOM     11  Cl  UNL     1      12.669 -55.641 -26.406  1.00  0.00    -0.084 Cl
ATOM     12  C   UNL     1      11.606 -54.443 -24.242  1.00  0.00     0.021 A 
ATOM     13  C   UNL     1      11.435 -53.358 -23.382  1.00  0.00     0.014 A 
ATOM     14  C   UNL     1      12.103 -52.127 -23.604  1.00  0.00     0.024 A 
ATOM     15  C   UNL     1      11.955 -50.972 -22.782  1.00  0.00     0.046 A 
ATOM     16  C   UNL     1      12.769 -49.847 -23.023  1.00  0.00     0.001 A 
ATOM     17  C   UNL     1      12.741 -48.614 -22.125  1.00  0.00     0.028 C 
ATOM     18  C   UNL     1      11.557 -47.682 -22.488  1.00  0.00     0.039 C 
ATOM     19  C   UNL     1      14.050 -47.823 -22.233  1.00  0.00     0.017 C 
ENDROOT
BRANCH  15  20
ATOM     20  N   UNL     1      11.152 -51.028 -21.616  1.00  0.00    -0.398 N 
ATOM     21  H   UNL     1      10.320 -50.451 -21.671  1.00  0.00     0.156 HD
ATOM     22  H   UNL     1      11.654 -50.841 -20.755  1.00  0.00     0.156 HD
ENDBRANCH  15  20
TORSDOF 1
ENDMDL
MODEL 5
REMARK VINA RESULT:    -8.322     11.019     13.392
REMARK INTER + INTRA:          -8.565
REMARK INTER:                  -8.565
REMARK INTRA:                   0.000
REMARK UNBOUND:                 0.000
REMARK SMILES CC1=C[C@@H]2Cc3nc4cc(Cl)ccc4c(N)c3[C@H](C1)C2
REMARK SMILES IDX 1 1 2 2 3 3 4 4 5 5 6 6 7 7 8 8 9 9 10 10 11 11 12 12 13 13
REMARK SMILES IDX 14 14 15 15 17 16 18 17 19 18 20 19 16 20
REMARK H PARENT 16 21 16 22
ROOT
ATOM      1  C   UNL     1      16.570 -51.350 -22.721  1.00  0.00     0.039 C 
ATOM      2  C   UNL     1      15.433 -51.234 -23.692  1.00  0.00    -0.076 C 
ATOM      3  C   UNL     1      15.618 -50.886 -24.979  1.00  0.00    -0.024 C 
ATOM      4  C   UNL     1      14.483 -50.784 -25.976  1.00  0.00     0.018 C 
ATOM      5  C   UNL     1      14.039 -49.326 -26.151  1.00  0.00     0.064 C 
ATOM      6  C   UNL     1      13.160 -48.810 -25.032  1.00  0.00     0.047 A 
ATOM      7  N   UNL     1      12.921 -47.478 -25.069  1.00  0.00    -0.252 NA
ATOM      8  C   UNL     1      12.089 -46.942 -24.172  1.00  0.00     0.074 A 
ATOM      9  C   UNL     1      11.831 -45.584 -24.274  1.00  0.00     0.049 A 
ATOM     10  C   UNL     1      10.955 -44.945 -23.401  1.00  0.00     0.043 A 
ATOM     11  Cl  UNL     1      10.660 -43.258 -23.562  1.00  0.00    -0.084 Cl
ATOM     12  C   UNL     1      10.312 -45.666 -22.408  1.00  0.00     0.021 A 
ATOM     13  C   UNL     1      10.563 -47.033 -22.287  1.00  0.00     0.014 A 
ATOM     14  C   UNL     1      11.464 -47.698 -23.157  1.00  0.00     0.024 A 
ATOM     15  C   UNL     1      11.786 -49.083 -23.074  1.00  0.00     0.046 A 
ATOM     16  C   UNL     1      12.594 -49.663 -24.074  1.00  0.00     0.001 A 
ATOM     17  C   UNL     1      12.898 -51.158 -24.110  1.00  0.00     0.028 C 
ATOM     18  C   UNL     1      14.051 -51.520 -23.141  1.00  0.00     0.039 C 
ATOM     19  C   UNL     1      13.275 -51.609 -25.526  1.00  0.00     0.017 C 
ENDROOT
BRANCH  15  20
ATOM     20  N   UNL     1      11.138 -49.908 -22.122  1.00  0.00    -0.398 N 
ATOM     21  H   UNL     1      11.725 -50.659 -21.773  1.00  0.00     0.156 HD
ATOM     22  H   UNL     1      10.243 -50.273 -22.427  1.00  0.00     0.156 HD
ENDBRANCH  15  20
TORSDOF 1
ENDMDL
MODEL 6
REMARK VINA RESULT:    -8.173      3.899      6.436
REMARK INTER + INTRA:          -8.412
REMARK INTER:                  -8.412
REMARK INTRA:                   0.000
REMARK UNBOUND:                 0.000
REMARK SMILES CC1=C[C@@H]2Cc3nc4cc(Cl)ccc4c(N)c3[C@H](C1)C2
REMARK SMILES IDX 1 1 2 2 3 3 4 4 5 5 6 6 7 7 8 8 9 9 10 10 11 11 12 12 13 13
REMARK SMILES IDX 14 14 15 15 17 16 18 17 19 18 20 19 16 20
REMARK H PARENT 16 21 16 22
ROOT
ATOM      1  C   UNL     1       9.075 -63.032 -22.171  1.00  0.00     0.039 C 
ATOM      2  C   UNL     1       9.734 -62.141 -23.181  1.00  0.00    -0.076 C 
ATOM      3  C   UNL     1      11.069 -62.113 -23.354  1.00  0.00    -0.024 C 
ATOM      4  C   UNL     1      11.748 -61.234 -24.383  1.00  0.00     0.018 C 
ATOM      5  C   UNL     1      12.293 -59.956 -23.734  1.00  0.00     0.064 C 
ATOM      6  C   UNL     1      11.240 -58.903 -23.466  1.00  0.00     0.047 A 
ATOM      7  N   UNL     1      11.665 -57.855 -22.722  1.00  0.00    -0.252 NA
ATOM      8  C   UNL     1      10.832 -56.833 -22.502  1.00  0.00     0.074 A 
ATOM      9  C   UNL     1      11.321 -55.758 -21.777  1.00  0.00     0.049 A 
ATOM     10  C   UNL     1      10.534 -54.638 -21.524  1.00  0.00     0.043 A 
ATOM     11  Cl  UNL     1      11.178 -53.321 -20.624  1.00  0.00    -0.084 Cl
ATOM     12  C   UNL     1       9.236 -54.575 -22.004  1.00  0.00     0.021 A 
ATOM     13  C   UNL     1       8.725 -55.651 -22.730  1.00  0.00     0.014 A 
ATOM     14  C   UNL     1       9.507 -56.807 -22.985  1.00  0.00     0.024 A 
ATOM     15  C   UNL     1       9.041 -57.950 -23.696  1.00  0.00     0.046 A 
ATOM     16  C   UNL     1       9.948 -58.986 -24.003  1.00  0.00     0.001 A 
ATOM     17  C   UNL     1       9.550 -60.193 -24.848  1.00  0.00     0.028 C 
ATOM     18  C   UNL     1       8.813 -61.256 -23.995  1.00  0.00     0.039 C 
ATOM     19  C   UNL     1      10.779 -60.838 -25.499  1.00  0.00     0.017 C 
ENDROOT
BRANCH  15  20
ATOM     20  N   UNL     1       7.744 -57.954 -24.266  1.00  0.00    -0.398 N 
ATOM     21  H   UNL     1       7.590 -57.196 -24.923  1.00  0.00     0.156 HD
ATOM     22  H   UNL     1       6.991 -57.990 -23.589  1.00  0.00     0.156 HD
ENDBRANCH  15  20
TORSDOF 1
ENDMDL
MODEL 7
REMARK VINA RESULT:    -8.052      9.147     12.357
REMARK INTER + INTRA:          -8.287
REMARK INTER:                  -8.287
REMARK INTRA:                   0.000
REMARK UNBOUND:                 0.000
REMARK SMILES CC1=C[C@@H]2Cc3nc4cc(Cl)ccc4c(N)c3[C@H](C1)C2
REMARK SMILES IDX 1 1 2 2 3 3 4 4 5 5 6 6 7 7 8 8 9 9 10 10 11 11 12 12 13 13
REMARK SMILES IDX 14 14 15 15 17 16 18 17 19 18 20 19 16 20
REMARK H PARENT 16 21 16 22
ROOT
ATOM      1  C   UNL     1      14.641 -45.765 -20.984  1.00  0.00     0.039 C 
ATOM      2  C   UNL     1      13.534 -46.005 -21.967  1.00  0.00    -0.076 C 
ATOM      3  C   UNL     1      12.264 -45.628 -21.726  1.00  0.00    -0.024 C 
ATOM      4  C   UNL     1      11.139 -45.845 -22.716  1.00  0.00     0.018 C 
ATOM      5  C   UNL     1      10.325 -47.093 -22.353  1.00  0.00     0.064 C 
ATOM      6  C   UNL     1      10.984 -48.396 -22.750  1.00  0.00     0.047 A 
ATOM      7  N   UNL     1      10.378 -49.506 -22.267  1.00  0.00    -0.252 NA
ATOM      8  C   UNL     1      10.835 -50.707 -22.630  1.00  0.00     0.074 A 
ATOM      9  C   UNL     1      10.158 -51.819 -22.154  1.00  0.00     0.049 A 
ATOM     10  C   UNL     1      10.545 -53.108 -22.504  1.00  0.00     0.043 A 
ATOM     11  Cl  UNL     1       9.676 -54.462 -21.895  1.00  0.00    -0.084 Cl
ATOM     12  C   UNL     1      11.624 -53.307 -23.350  1.00  0.00     0.021 A 
ATOM     13  C   UNL     1      12.322 -52.200 -23.835  1.00  0.00     0.014 A 
ATOM     14  C   UNL     1      11.951 -50.879 -23.477  1.00  0.00     0.024 A 
ATOM     15  C   UNL     1      12.634 -49.707 -23.914  1.00  0.00     0.046 A 
ATOM     16  C   UNL     1      12.096 -48.441 -23.602  1.00  0.00     0.001 A 
ATOM     17  C   UNL     1      12.712 -47.145 -24.119  1.00  0.00     0.028 C 
ATOM     18  C   UNL     1      13.920 -46.711 -23.250  1.00  0.00     0.039 C 
ATOM     19  C   UNL     1      11.678 -46.013 -24.138  1.00  0.00     0.017 C 
ENDROOT
BRANCH  15  20
ATOM     20  N   UNL     1      13.717 -49.811 -24.821  1.00  0.00    -0.398 N 
ATOM     21  H   UNL     1      14.417 -49.087 -24.698  1.00  0.00     0.156 HD
ATOM     22  H   UNL     1      13.441 -49.873 -25.794  1.00  0.00     0.156 HD
ENDBRANCH  15  20
TORSDOF 1
ENDMDL
MODEL 8
REMARK VINA RESULT:    -6.892      9.765     12.990
REMARK INTER + INTRA:          -7.094
REMARK INTER:                  -7.094
REMARK INTRA:                   0.000
REMARK UNBOUND:                 0.000
REMARK SMILES CC1=C[C@@H]2Cc3nc4cc(Cl)ccc4c(N)c3[C@H](C1)C2
REMARK SMILES IDX 1 1 2 2 3 3 4 4 5 5 6 6 7 7 8 8 9 9 10 10 11 11 12 12 13 13
REMARK SMILES IDX 14 14 15 15 17 16 18 17 19 18 20 19 16 20
REMARK H PARENT 16 21 16 22
ROOT
ATOM      1  C   UNL     1      11.232 -53.020 -23.100  1.00  0.00     0.039 C 
ATOM      2  C   UNL     1      12.215 -52.325 -23.994  1.00  0.00    -0.076 C 
ATOM      3  C   UNL     1      13.013 -52.996 -24.845  1.00  0.00    -0.024 C 
ATOM      4  C   UNL     1      13.996 -52.308 -25.768  1.00  0.00     0.018 C 
ATOM      5  C   UNL     1      15.413 -52.340 -25.179  1.00  0.00     0.064 C 
ATOM      6  C   UNL     1      15.651 -51.315 -24.091  1.00  0.00     0.047 A 
ATOM      7  N   UNL     1      16.823 -51.457 -23.429  1.00  0.00    -0.252 NA
ATOM      8  C   UNL     1      17.163 -50.551 -22.508  1.00  0.00     0.074 A 
ATOM      9  C   UNL     1      18.393 -50.704 -21.887  1.00  0.00     0.049 A 
ATOM     10  C   UNL     1      18.842 -49.792 -20.936  1.00  0.00     0.043 A 
ATOM     11  Cl  UNL     1      20.376 -50.014 -20.191  1.00  0.00    -0.084 Cl
ATOM     12  C   UNL     1      18.061 -48.701 -20.593  1.00  0.00     0.021 A 
ATOM     13  C   UNL     1      16.818 -48.534 -21.203  1.00  0.00     0.014 A 
ATOM     14  C   UNL     1      16.336 -49.461 -22.163  1.00  0.00     0.024 A 
ATOM     15  C   UNL     1      15.068 -49.366 -22.805  1.00  0.00     0.046 A 
ATOM     16  C   UNL     1      14.751 -50.271 -23.839  1.00  0.00     0.001 A 
ATOM     17  C   UNL     1      13.457 -50.170 -24.642  1.00  0.00     0.028 C 
ATOM     18  C   UNL     1      12.272 -50.816 -23.880  1.00  0.00     0.039 C 
ATOM     19  C   UNL     1      13.602 -50.849 -26.008  1.00  0.00     0.017 C 
ENDROOT
BRANCH  15  20
ATOM     20  N   UNL     1      14.224 -48.256 -22.553  1.00  0.00    -0.398 N 
ATOM     21  H   UNL     1      13.844 -47.839 -23.397  1.00  0.00     0.156 HD
ATOM     22  H   UNL     1      14.638 -47.543 -21.964  1.00  0.00     0.156 HD
ENDBRANCH  15  20
TORSDOF 1
ENDMDL
MODEL 9
REMARK VINA RESULT:    -6.786      8.910     11.601
REMARK INTER + INTRA:          -6.985
REMARK INTER:                  -6.985
REMARK INTRA:                   0.000
REMARK UNBOUND:                 0.000
REMARK SMILES CC1=C[C@@H]2Cc3nc4cc(Cl)ccc4c(N)c3[C@H](C1)C2
REMARK SMILES IDX 1 1 2 2 3 3 4 4 5 5 6 6 7 7 8 8 9 9 10 10 11 11 12 12 13 13
REMARK SMILES IDX 14 14 15 15 17 16 18 17 19 18 20 19 16 20
REMARK H PARENT 16 21 16 22
ROOT
ATOM      1  C   UNL     1      14.833 -48.161 -28.240  1.00  0.00     0.039 C 
ATOM      2  C   UNL     1      15.323 -48.654 -26.911  1.00  0.00    -0.076 C 
ATOM      3  C   UNL     1      16.122 -49.731 -26.793  1.00  0.00    -0.024 C 
ATOM      4  C   UNL     1      16.642 -50.229 -25.462  1.00  0.00     0.018 C 
ATOM      5  C   UNL     1      15.798 -51.405 -24.951  1.00  0.00     0.064 C 
ATOM      6  C   UNL     1      14.480 -50.994 -24.332  1.00  0.00     0.047 A 
ATOM      7  N   UNL     1      13.642 -52.021 -24.056  1.00  0.00    -0.252 NA
ATOM      8  C   UNL     1      12.488 -51.767 -23.432  1.00  0.00     0.074 A 
ATOM      9  C   UNL     1      11.679 -52.850 -23.122  1.00  0.00     0.049 A 
ATOM     10  C   UNL     1      10.474 -52.685 -22.447  1.00  0.00     0.043 A 
ATOM     11  Cl  UNL     1       9.501 -54.054 -22.079  1.00  0.00    -0.084 Cl
ATOM     12  C   UNL     1      10.058 -51.420 -22.063  1.00  0.00     0.021 A 
ATOM     13  C   UNL     1      10.856 -50.318 -22.370  1.00  0.00     0.014 A 
ATOM     14  C   UNL     1      12.080 -50.465 -23.071  1.00  0.00     0.024 A 
ATOM     15  C   UNL     1      12.930 -49.383 -23.440  1.00  0.00     0.046 A 
ATOM     16  C   UNL     1      14.186 -49.660 -24.018  1.00  0.00     0.001 A 
ATOM     17  C   UNL     1      15.192 -48.560 -24.346  1.00  0.00     0.028 C 
ATOM     18  C   UNL     1      14.858 -47.878 -25.696  1.00  0.00     0.039 C 
ATOM     19  C   UNL     1      16.618 -49.120 -24.408  1.00  0.00     0.017 C 
ENDROOT
BRANCH  15  20
ATOM     20  N   UNL     1      12.610 -48.060 -23.044  1.00  0.00    -0.398 N 
ATOM     21  H   UNL     1      13.395 -47.558 -22.643  1.00  0.00     0.156 HD
ATOM     22  H   UNL     1      11.801 -47.991 -22.438  1.00  0.00     0.156 HD
ENDBRANCH  15  20
TORSDOF 1
ENDMDL
