MODEL 1
REMARK VINA RESULT:    -8.664      0.000      0.000
REMARK INTER + INTRA:          -9.910
REMARK INTER:                  -9.677
REMARK INTRA:                  -0.232
REMARK UNBOUND:                -0.232
REMARK SMILES CNC(=O)Oc1ccc2c(c1)[C@]1(C)CC[N@@H+](C)[C@@H]1N2C
REMARK SMILES IDX 5 1 6 2 15 3 16 4 14 5 18 6 12 7 19 8 10 9 9 10 11 11 8 12
REMARK SMILES IDX 7 13 17 14 13 16 20 17 3 18 2 19 4 20 1 21
REMARK H PARENT 16 15 2 22
ROOT
ATOM      1  O   UNL     1      10.243 -55.373 -23.585  1.00  0.00    -0.410 OA
ENDROOT
BRANCH   1   2
ATOM      2  C   UNL     1      10.620 -54.046 -23.337  1.00  0.00     0.133 A 
ATOM      3  C   UNL     1      15.149 -50.394 -23.092  1.00  0.00     0.265 C 
ATOM      4  N   UNL     1      13.983 -49.544 -22.709  1.00  0.00    -0.317 N 
ATOM      5  C   UNL     1      14.527 -51.729 -23.431  1.00  0.00     0.081 C 
ATOM      6  C   UNL     1      12.831 -49.960 -23.548  1.00  0.00     0.296 C 
ATOM      7  C   UNL     1      13.211 -51.355 -24.119  1.00  0.00     0.072 C 
ATOM      8  N   UNL     1      11.771 -50.095 -22.558  1.00  0.00    -0.325 N 
ATOM      9  C   UNL     1      12.071 -52.181 -23.618  1.00  0.00    -0.007 A 
ATOM     10  C   UNL     1      11.288 -51.421 -22.741  1.00  0.00     0.045 A 
ATOM     11  C   UNL     1      11.762 -53.500 -23.919  1.00  0.00     0.054 A 
ATOM     12  C   UNL     1      10.180 -51.995 -22.126  1.00  0.00     0.030 A 
ATOM     13  C   UNL     1       9.844 -53.318 -22.428  1.00  0.00     0.049 A 
ATOM     14  C   UNL     1      14.263 -48.089 -22.664  1.00  0.00     0.334 C 
ATOM     15  H   UNL     1      13.636 -49.837 -21.784  1.00  0.00     0.349 HD
ATOM     16  C   UNL     1      13.325 -51.331 -25.642  1.00  0.00     0.025 C 
ATOM     17  C   UNL     1      10.688 -49.106 -22.613  1.00  0.00     0.150 C 
ENDBRANCH   1   2
BRANCH   1  18
ATOM     18  C   UNL     1      10.972 -56.336 -22.898  1.00  0.00     0.412 C 
ATOM     19  N   UNL     1      11.214 -57.394 -23.726  1.00  0.00    -0.324 N 
ATOM     20  O   UNL     1      11.334 -56.262 -21.732  1.00  0.00    -0.224 OA
ATOM     21  C   UNL     1      11.873 -58.590 -23.274  1.00  0.00     0.146 C 
ATOM     22  H   UNL     1      10.779 -57.371 -24.637  1.00  0.00     0.166 HD
ENDBRANCH   1  18
TORSDOF 2
ENDMDL
MODEL 2
REMARK VINA RESULT:    -8.516      3.747      9.257
REMARK INTER + INTRA:          -9.744
REMARK INTER:                  -9.721
REMARK INTRA:                  -0.023
REMARK UNBOUND:                -0.232
REMARK SMILES CNC(=O)Oc1ccc2c(c1)[C@]1(C)CC[N@@H+](C)[C@@H]1N2C
REMARK SMILES IDX 5 1 6 2 15 3 16 4 14 5 18 6 12 7 19 8 10 9 9 10 11 11 8 12
REMARK SMILES IDX 7 13 17 14 13 16 20 17 3 18 2 19 4 20 1 21
REMARK H PARENT 16 15 2 22
ROOT
ATOM      1  O   UNL     1      11.288 -56.367 -22.295  1.00  0.00    -0.410 OA
ENDROOT
BRANCH   1   2
ATOM      2  C   UNL     1      10.296 -57.294 -22.645  1.00  0.00     0.133 A 
ATOM      3  C   UNL     1       9.368 -62.657 -24.716  1.00  0.00     0.265 C 
ATOM      4  N   UNL     1       7.994 -62.100 -24.536  1.00  0.00    -0.317 N 
ATOM      5  C   UNL     1      10.271 -61.570 -24.179  1.00  0.00     0.081 C 
ATOM      6  C   UNL     1       8.000 -61.287 -23.294  1.00  0.00     0.296 C 
ATOM      7  C   UNL     1       9.498 -61.011 -22.981  1.00  0.00     0.072 C 
ATOM      8  N   UNL     1       7.346 -60.061 -23.735  1.00  0.00    -0.325 N 
ATOM      9  C   UNL     1       9.510 -59.517 -22.965  1.00  0.00    -0.007 A 
ATOM     10  C   UNL     1       8.270 -59.031 -23.398  1.00  0.00     0.045 A 
ATOM     11  C   UNL     1      10.541 -58.665 -22.597  1.00  0.00     0.054 A 
ATOM     12  C   UNL     1       8.056 -57.660 -23.492  1.00  0.00     0.030 A 
ATOM     13  C   UNL     1       9.078 -56.785 -23.110  1.00  0.00     0.049 A 
ATOM     14  C   UNL     1       6.900 -63.093 -24.656  1.00  0.00     0.334 C 
ATOM     15  H   UNL     1       7.835 -61.355 -25.229  1.00  0.00     0.349 HD
ATOM     16  C   UNL     1       9.924 -61.640 -21.655  1.00  0.00     0.025 C 
ATOM     17  C   UNL     1       6.009 -59.796 -23.192  1.00  0.00     0.150 C 
ENDBRANCH   1   2
BRANCH   1  18
ATOM     18  C   UNL     1      11.312 -55.207 -23.059  1.00  0.00     0.412 C 
ATOM     19  N   UNL     1      11.023 -54.137 -22.262  1.00  0.00    -0.324 N 
ATOM     20  O   UNL     1      11.545 -55.144 -24.258  1.00  0.00    -0.224 OA
ATOM     21  C   UNL     1      10.885 -52.803 -22.783  1.00  0.00     0.146 C 
ATOM     22  H   UNL     1      10.758 -54.335 -21.307  1.00  0.00     0.166 HD
ENDBRANCH   1  18
TORSDOF 2
ENDMDL
MODEL 3
REMARK VINA RESULT:    -8.433      3.733      9.180
REMARK INTER + INTRA:          -9.652
REMARK INTER:                  -9.807
REMARK INTRA:                   0.155
REMARK UNBOUND:                -0.232
REMARK SMILES CNC(=O)Oc1ccc2c(c1)[C@]1(C)CC[N@@H+](C)[C@@H]1N2C
REMARK SMILES IDX 5 1 6 2 15 3 16 4 14 5 18 6 12 7 19 8 10 9 9 10 11 11 8 12
REMARK SMILES IDX 7 13 17 14 13 16 20 17 3 18 2 19 4 20 1 21
REMARK H PARENT 16 15 2 22
ROOT
ATOM      1  O   UNL     1      11.389 -56.057 -21.796  1.00  0.00    -0.410 OA
ENDROOT
BRANCH   1   2
ATOM      2  C   UNL     1      10.890 -57.350 -21.998  1.00  0.00     0.133 A 
ATOM      3  C   UNL     1       6.161 -60.406 -23.486  1.00  0.00     0.265 C 
ATOM      4  N   UNL     1       7.186 -61.452 -23.194  1.00  0.00    -0.317 N 
ATOM      5  C   UNL     1       6.918 -59.107 -23.332  1.00  0.00     0.081 C 
ATOM      6  C   UNL     1       8.490 -60.954 -23.699  1.00  0.00     0.296 C 
ATOM      7  C   UNL     1       8.306 -59.422 -23.895  1.00  0.00     0.072 C 
ATOM      8  N   UNL     1       9.369 -61.212 -22.565  1.00  0.00    -0.325 N 
ATOM      9  C   UNL     1       9.392 -58.895 -23.014  1.00  0.00    -0.007 A 
ATOM     10  C   UNL     1       9.961 -59.948 -22.286  1.00  0.00     0.045 A 
ATOM     11  C   UNL     1       9.834 -57.588 -22.875  1.00  0.00     0.054 A 
ATOM     12  C   UNL     1      10.979 -59.689 -21.375  1.00  0.00     0.030 A 
ATOM     13  C   UNL     1      11.448 -58.380 -21.232  1.00  0.00     0.049 A 
ATOM     14  C   UNL     1       6.810 -62.824 -23.611  1.00  0.00     0.334 C 
ATOM     15  H   UNL     1       7.385 -61.462 -22.184  1.00  0.00     0.349 HD
ATOM     16  C   UNL     1       8.457 -59.018 -25.360  1.00  0.00     0.025 C 
ATOM     17  C   UNL     1      10.379 -62.262 -22.740  1.00  0.00     0.150 C 
ENDBRANCH   1   2
BRANCH   1  18
ATOM     18  C   UNL     1      10.931 -55.097 -22.690  1.00  0.00     0.412 C 
ATOM     19  N   UNL     1      10.337 -54.081 -21.996  1.00  0.00    -0.324 N 
ATOM     20  O   UNL     1      11.028 -55.148 -23.908  1.00  0.00    -0.224 OA
ATOM     21  C   UNL     1       9.685 -52.979 -22.651  1.00  0.00     0.146 C 
ATOM     22  H   UNL     1      10.239 -54.205 -20.998  1.00  0.00     0.166 HD
ENDBRANCH   1  18
TORSDOF 2
ENDMDL
MODEL 4
REMARK VINA RESULT:    -7.903      2.857      8.436
REMARK INTER + INTRA:          -9.060
REMARK INTER:                  -9.179
REMARK INTRA:                   0.119
REMARK UNBOUND:                -0.232
REMARK SMILES CNC(=O)Oc1ccc2c(c1)[C@]1(C)CC[N@@H+](C)[C@@H]1N2C
REMARK SMILES IDX 5 1 6 2 15 3 16 4 14 5 18 6 12 7 19 8 10 9 9 10 11 11 8 12
REMARK SMILES IDX 7 13 17 14 13 16 20 17 3 18 2 19 4 20 1 21
REMARK H PARENT 16 15 2 22
ROOT
ATOM      1  O   UNL     1       9.383 -54.546 -22.419  1.00  0.00    -0.410 OA
ENDROOT
BRANCH   1   2
ATOM      2  C   UNL     1       9.828 -55.869 -22.550  1.00  0.00     0.133 A 
ATOM      3  C   UNL     1       8.102 -61.423 -22.833  1.00  0.00     0.265 C 
ATOM      4  N   UNL     1       9.591 -61.507 -22.901  1.00  0.00    -0.317 N 
ATOM      5  C   UNL     1       7.825 -59.937 -22.820  1.00  0.00     0.081 C 
ATOM      6  C   UNL     1      10.067 -60.364 -23.720  1.00  0.00     0.296 C 
ATOM      7  C   UNL     1       8.880 -59.360 -23.767  1.00  0.00     0.072 C 
ATOM      8  N   UNL     1      11.143 -59.831 -22.895  1.00  0.00    -0.325 N 
ATOM      9  C   UNL     1       9.526 -58.139 -23.195  1.00  0.00    -0.007 A 
ATOM     10  C   UNL     1      10.803 -58.460 -22.718  1.00  0.00     0.045 A 
ATOM     11  C   UNL     1       9.015 -56.852 -23.108  1.00  0.00     0.054 A 
ATOM     12  C   UNL     1      11.584 -57.480 -22.115  1.00  0.00     0.030 A 
ATOM     13  C   UNL     1      11.092 -56.174 -22.032  1.00  0.00     0.049 A 
ATOM     14  C   UNL     1      10.121 -62.840 -23.277  1.00  0.00     0.334 C 
ATOM     15  H   UNL     1       9.990 -61.243 -21.989  1.00  0.00     0.349 HD
ATOM     16  C   UNL     1       8.359 -59.166 -25.189  1.00  0.00     0.025 C 
ATOM     17  C   UNL     1      12.508 -59.994 -23.407  1.00  0.00     0.150 C 
ENDBRANCH   1   2
BRANCH   1  18
ATOM     18  C   UNL     1      10.351 -53.629 -22.030  1.00  0.00     0.412 C 
ATOM     19  N   UNL     1      10.951 -53.108 -23.140  1.00  0.00    -0.324 N 
ATOM     20  O   UNL     1      10.636 -53.335 -20.877  1.00  0.00    -0.224 OA
ATOM     21  C   UNL     1      12.058 -52.193 -23.059  1.00  0.00     0.146 C 
ATOM     22  H   UNL     1      10.688 -53.504 -24.031  1.00  0.00     0.166 HD
ENDBRANCH   1  18
TORSDOF 2
ENDMDL
MODEL 5
REMARK VINA RESULT:    -7.342      6.252      8.995
REMARK INTER + INTRA:          -8.433
REMARK INTER:                  -8.408
REMARK INTRA:                  -0.025
REMARK UNBOUND:                -0.232
REMARK SMILES CNC(=O)Oc1ccc2c(c1)[C@]1(C)CC[N@@H+](C)[C@@H]1N2C
REMARK SMILES IDX 5 1 6 2 15 3 16 4 14 5 18 6 12 7 19 8 10 9 9 10 11 11 8 12
REMARK SMILES IDX 7 13 17 14 13 16 20 17 3 18 2 19 4 20 1 21
REMARK H PARENT 16 15 2 22
ROOT
ATOM      1  O   UNL     1       7.489 -63.809 -24.467  1.00  0.00    -0.410 OA
ENDROOT
BRANCH   1   2
ATOM      2  C   UNL     1       7.792 -62.480 -24.141  1.00  0.00     0.133 A 
ATOM      3  C   UNL     1      11.907 -58.970 -21.983  1.00  0.00     0.265 C 
ATOM      4  N   UNL     1      10.754 -58.055 -22.239  1.00  0.00    -0.317 N 
ATOM      5  C   UNL     1      11.430 -60.306 -22.505  1.00  0.00     0.081 C 
ATOM      6  C   UNL     1      10.105 -58.496 -23.499  1.00  0.00     0.296 C 
ATOM      7  C   UNL     1      10.616 -59.943 -23.750  1.00  0.00     0.072 C 
ATOM      8  N   UNL     1       8.698 -58.520 -23.119  1.00  0.00    -0.325 N 
ATOM      9  C   UNL     1       9.323 -60.691 -23.802  1.00  0.00    -0.007 A 
ATOM     10  C   UNL     1       8.272 -59.841 -23.438  1.00  0.00     0.045 A 
ATOM     11  C   UNL     1       9.106 -62.018 -24.144  1.00  0.00     0.054 A 
ATOM     12  C   UNL     1       6.971 -60.329 -23.389  1.00  0.00     0.030 A 
ATOM     13  C   UNL     1       6.730 -61.660 -23.744  1.00  0.00     0.049 A 
ATOM     14  C   UNL     1      11.075 -56.611 -22.145  1.00  0.00     0.334 C 
ATOM     15  H   UNL     1       9.998 -58.265 -21.573  1.00  0.00     0.349 HD
ATOM     16  C   UNL     1      11.430 -60.040 -25.039  1.00  0.00     0.025 C 
ATOM     17  C   UNL     1       7.834 -57.504 -23.729  1.00  0.00     0.150 C 
ENDBRANCH   1   2
BRANCH   1  18
ATOM     18  C   UNL     1       7.047 -64.016 -25.767  1.00  0.00     0.412 C 
ATOM     19  N   UNL     1       7.965 -63.510 -26.642  1.00  0.00    -0.324 N 
ATOM     20  O   UNL     1       5.997 -64.556 -26.089  1.00  0.00    -0.224 OA
ATOM     21  C   UNL     1       7.747 -63.495 -28.064  1.00  0.00     0.146 C 
ATOM     22  H   UNL     1       8.746 -63.006 -26.246  1.00  0.00     0.166 HD
ENDBRANCH   1  18
TORSDOF 2
ENDMDL
MODEL 6
REMARK VINA RESULT:    -7.125      4.203      9.527
REMARK INTER + INTRA:          -8.190
REMARK INTER:                  -8.273
REMARK INTRA:                   0.083
REMARK UNBOUND:                -0.232
REMARK SMILES CNC(=O)Oc1ccc2c(c1)[C@]1(C)CC[N@@H+](C)[C@@H]1N2C
REMARK SMILES IDX 5 1 6 2 15 3 16 4 14 5 18 6 12 7 19 8 10 9 9 10 11 11 8 12
REMARK SMILES IDX 7 13 17 14 13 16 20 17 3 18 2 19 4 20 1 21
REMARK H PARENT 16 15 2 22
ROOT
ATOM      1  O   UNL     1       9.140 -56.574 -22.691  1.00  0.00    -0.410 OA
ENDROOT
BRANCH   1   2
ATOM      2  C   UNL     1       8.778 -57.813 -23.237  1.00  0.00     0.133 A 
ATOM      3  C   UNL     1       9.666 -61.443 -27.702  1.00  0.00     0.265 C 
ATOM      4  N   UNL     1       8.632 -62.136 -26.878  1.00  0.00    -0.317 N 
ATOM      5  C   UNL     1      10.004 -60.210 -26.896  1.00  0.00     0.081 C 
ATOM      6  C   UNL     1       8.965 -61.899 -25.451  1.00  0.00     0.296 C 
ATOM      7  C   UNL     1       9.951 -60.697 -25.445  1.00  0.00     0.072 C 
ATOM      8  N   UNL     1       7.675 -61.493 -24.906  1.00  0.00    -0.325 N 
ATOM      9  C   UNL     1       9.214 -59.736 -24.568  1.00  0.00    -0.007 A 
ATOM     10  C   UNL     1       7.935 -60.235 -24.291  1.00  0.00     0.045 A 
ATOM     11  C   UNL     1       9.650 -58.521 -24.060  1.00  0.00     0.054 A 
ATOM     12  C   UNL     1       7.055 -59.494 -23.511  1.00  0.00     0.030 A 
ATOM     13  C   UNL     1       7.481 -58.273 -22.978  1.00  0.00     0.049 A 
ATOM     14  C   UNL     1       8.376 -63.546 -27.259  1.00  0.00     0.334 C 
ATOM     15  H   UNL     1       7.745 -61.617 -26.937  1.00  0.00     0.349 HD
ATOM     16  C   UNL     1      11.322 -61.092 -24.901  1.00  0.00     0.025 C 
ATOM     17  C   UNL     1       7.027 -62.430 -23.981  1.00  0.00     0.150 C 
ENDBRANCH   1   2
BRANCH   1  18
ATOM     18  C   UNL     1      10.428 -56.147 -22.988  1.00  0.00     0.412 C 
ATOM     19  N   UNL     1      10.364 -55.060 -23.811  1.00  0.00    -0.324 N 
ATOM     20  O   UNL     1      11.463 -56.664 -22.589  1.00  0.00    -0.224 OA
ATOM     21  C   UNL     1      11.540 -54.444 -24.366  1.00  0.00     0.146 C 
ATOM     22  H   UNL     1       9.449 -54.790 -24.143  1.00  0.00     0.166 HD
ENDBRANCH   1  18
TORSDOF 2
ENDMDL
MODEL 7
REMARK VINA RESULT:    -7.041      8.972     11.127
REMARK INTER + INTRA:          -8.097
REMARK INTER:                  -7.994
REMARK INTRA:                  -0.103
REMARK UNBOUND:                -0.232
REMARK SMILES CNC(=O)Oc1ccc2c(c1)[C@]1(C)CC[N@@H+](C)[C@@H]1N2C
REMARK SMILES IDX 5 1 6 2 15 3 16 4 14 5 18 6 12 7 19 8 10 9 9 10 11 11 8 12
REMARK SMILES IDX 7 13 17 14 13 16 20 17 3 18 2 19 4 20 1 21
REMARK H PARENT 16 15 2 22
ROOT
ATOM      1  O   UNL     1      11.006 -59.028 -27.946  1.00  0.00    -0.410 OA
ENDROOT
BRANCH   1   2
ATOM      2  C   UNL     1      10.312 -60.055 -27.292  1.00  0.00     0.133 A 
ATOM      3  C   UNL     1       9.846 -62.986 -22.282  1.00  0.00     0.265 C 
ATOM      4  N   UNL     1       8.844 -63.640 -23.174  1.00  0.00    -0.317 N 
ATOM      5  C   UNL     1      10.387 -61.850 -23.119  1.00  0.00     0.081 C 
ATOM      6  C   UNL     1       8.214 -62.576 -23.995  1.00  0.00     0.296 C 
ATOM      7  C   UNL     1       9.163 -61.349 -23.890  1.00  0.00     0.072 C 
ATOM      8  N   UNL     1       8.281 -63.150 -25.333  1.00  0.00    -0.325 N 
ATOM      9  C   UNL     1       9.477 -61.116 -25.333  1.00  0.00    -0.007 A 
ATOM     10  C   UNL     1       8.954 -62.161 -26.104  1.00  0.00     0.045 A 
ATOM     11  C   UNL     1      10.170 -60.060 -25.906  1.00  0.00     0.054 A 
ATOM     12  C   UNL     1       9.148 -62.170 -27.481  1.00  0.00     0.030 A 
ATOM     13  C   UNL     1       9.832 -61.108 -28.079  1.00  0.00     0.049 A 
ATOM     14  C   UNL     1       7.913 -64.568 -22.487  1.00  0.00     0.334 C 
ATOM     15  H   UNL     1       9.334 -64.161 -23.914  1.00  0.00     0.349 HD
ATOM     16  C   UNL     1       8.481 -60.162 -23.213  1.00  0.00     0.025 C 
ATOM     17  C   UNL     1       7.007 -63.546 -25.944  1.00  0.00     0.150 C 
ENDBRANCH   1   2
BRANCH   1  18
ATOM     18  C   UNL     1      11.913 -59.445 -28.912  1.00  0.00     0.412 C 
ATOM     19  N   UNL     1      11.512 -58.987 -30.135  1.00  0.00    -0.324 N 
ATOM     20  O   UNL     1      12.910 -60.125 -28.712  1.00  0.00    -0.224 OA
ATOM     21  C   UNL     1      12.201 -59.331 -31.350  1.00  0.00     0.146 C 
ATOM     22  H   UNL     1      10.619 -58.516 -30.177  1.00  0.00     0.166 HD
ENDBRANCH   1  18
TORSDOF 2
ENDMDL
MODEL 8
REMARK VINA RESULT:    -7.010      2.510      4.121
REMARK INTER + INTRA:          -8.062
REMARK INTER:                  -7.894
REMARK INTRA:                  -0.168
REMARK UNBOUND:                -0.232
REMARK SMILES CNC(=O)Oc1ccc2c(c1)[C@]1(C)CC[N@@H+](C)[C@@H]1N2C
REMARK SMILES IDX 5 1 6 2 15 3 16 4 14 5 18 6 12 7 19 8 10 9 9 10 11 11 8 12
REMARK SMILES IDX 7 13 17 14 13 16 20 17 3 18 2 19 4 20 1 21
REMARK H PARENT 16 15 2 22
ROOT
ATOM      1  O   UNL     1      11.517 -52.422 -21.577  1.00  0.00    -0.410 OA
ENDROOT
BRANCH   1   2
ATOM      2  C   UNL     1      11.969 -51.408 -22.432  1.00  0.00     0.133 A 
ATOM      3  C   UNL     1      11.195 -45.847 -23.977  1.00  0.00     0.265 C 
ATOM      4  N   UNL     1      12.275 -46.325 -24.891  1.00  0.00    -0.317 N 
ATOM      5  C   UNL     1      10.938 -47.030 -23.072  1.00  0.00     0.081 C 
ATOM      6  C   UNL     1      13.151 -47.234 -24.111  1.00  0.00     0.296 C 
ATOM      7  C   UNL     1      12.329 -47.631 -22.852  1.00  0.00     0.072 C 
ATOM      8  N   UNL     1      13.276 -48.375 -25.009  1.00  0.00    -0.325 N 
ATOM      9  C   UNL     1      12.314 -49.120 -22.987  1.00  0.00    -0.007 A 
ATOM     10  C   UNL     1      12.862 -49.487 -24.222  1.00  0.00     0.045 A 
ATOM     11  C   UNL     1      11.850 -50.064 -22.083  1.00  0.00     0.054 A 
ATOM     12  C   UNL     1      12.927 -50.829 -24.580  1.00  0.00     0.030 A 
ATOM     13  C   UNL     1      12.478 -51.797 -23.676  1.00  0.00     0.049 A 
ATOM     14  C   UNL     1      12.963 -45.256 -25.653  1.00  0.00     0.334 C 
ATOM     15  H   UNL     1      11.880 -47.000 -25.561  1.00  0.00     0.349 HD
ATOM     16  C   UNL     1      12.990 -47.141 -21.566  1.00  0.00     0.025 C 
ATOM     17  C   UNL     1      14.594 -48.595 -25.615  1.00  0.00     0.150 C 
ENDBRANCH   1   2
BRANCH   1  18
ATOM     18  C   UNL     1      10.420 -53.140 -22.035  1.00  0.00     0.412 C 
ATOM     19  N   UNL     1      10.820 -54.396 -22.391  1.00  0.00    -0.324 N 
ATOM     20  O   UNL     1       9.274 -52.720 -22.120  1.00  0.00    -0.224 OA
ATOM     21  C   UNL     1       9.922 -55.350 -22.988  1.00  0.00     0.146 C 
ATOM     22  H   UNL     1      11.811 -54.587 -22.361  1.00  0.00     0.166 HD
ENDBRANCH   1  18
TORSDOF 2
ENDMDL
MODEL 9
REMARK VINA RESULT:    -6.873      2.181      2.918
REMARK INTER + INTRA:          -7.909
REMARK INTER:                  -7.643
REMARK INTRA:                  -0.267
REMARK UNBOUND:                -0.232
REMARK SMILES CNC(=O)Oc1ccc2c(c1)[C@]1(C)CC[N@@H+](C)[C@@H]1N2C
REMARK SMILES IDX 5 1 6 2 15 3 16 4 14 5 18 6 12 7 19 8 10 9 9 10 11 11 8 12
REMARK SMILES IDX 7 13 17 14 13 16 20 17 3 18 2 19 4 20 1 21
REMARK H PARENT 16 15 2 22
ROOT
ATOM      1  O   UNL     1      11.140 -52.596 -21.372  1.00  0.00    -0.410 OA
ENDROOT
BRANCH   1   2
ATOM      2  C   UNL     1      11.644 -51.546 -22.152  1.00  0.00     0.133 A 
ATOM      3  C   UNL     1      16.170 -49.824 -25.387  1.00  0.00     0.265 C 
ATOM      4  N   UNL     1      15.245 -48.652 -25.413  1.00  0.00    -0.317 N 
ATOM      5  C   UNL     1      15.403 -50.872 -24.613  1.00  0.00     0.081 C 
ATOM      6  C   UNL     1      13.858 -49.178 -25.487  1.00  0.00     0.296 C 
ATOM      7  C   UNL     1      13.953 -50.671 -25.062  1.00  0.00     0.072 C 
ATOM      8  N   UNL     1      13.188 -48.403 -24.450  1.00  0.00    -0.325 N 
ATOM      9  C   UNL     1      13.009 -50.692 -23.904  1.00  0.00    -0.007 A 
ATOM     10  C   UNL     1      12.605 -49.386 -23.600  1.00  0.00     0.045 A 
ATOM     11  C   UNL     1      12.550 -51.785 -23.183  1.00  0.00     0.054 A 
ATOM     12  C   UNL     1      11.742 -49.157 -22.535  1.00  0.00     0.030 A 
ATOM     13  C   UNL     1      11.257 -50.247 -21.806  1.00  0.00     0.049 A 
ATOM     14  C   UNL     1      15.596 -47.605 -26.402  1.00  0.00     0.334 C 
ATOM     15  H   UNL     1      15.215 -48.220 -24.478  1.00  0.00     0.349 HD
ATOM     16  C   UNL     1      13.549 -51.608 -26.198  1.00  0.00     0.025 C 
ATOM     17  C   UNL     1      12.201 -47.415 -24.901  1.00  0.00     0.150 C 
ENDBRANCH   1   2
BRANCH   1  18
ATOM     18  C   UNL     1      10.156 -53.367 -21.978  1.00  0.00     0.412 C 
ATOM     19  N   UNL     1      10.622 -54.638 -22.151  1.00  0.00    -0.324 N 
ATOM     20  O   UNL     1       9.047 -52.975 -22.317  1.00  0.00    -0.224 OA
ATOM     21  C   UNL     1       9.862 -55.650 -22.835  1.00  0.00     0.146 C 
ATOM     22  H   UNL     1      11.589 -54.808 -21.913  1.00  0.00     0.166 HD
ENDBRANCH   1  18
TORSDOF 2
ENDMDL
