MODEL 1
REMARK VINA RESULT:   -12.876      0.000      0.000
REMARK INTER + INTRA:         -17.220
REMARK INTER:                 -16.639
REMARK INTRA:                  -0.580
REMARK UNBOUND:                -0.580
REMARK SMILES O=C1C=C(NCCNc2c3c(nc4cc(Cl)ccc24)CCCC3)C(=O)c2ccccc21
REMARK SMILES IDX 6 1 5 2 4 4 2 5 3 6 31 7 30 8 26 9 24 10 29 11 27 12 28 13
REMARK SMILES IDX 1 14 25 15 7 16 8 17 9 19 10 20 19 21 11 22 23 23 18 24
REMARK SMILES IDX 13 25 12 26 20 27 22 28 17 29 14 30 21 31 15 32 16 33
REMARK H PARENT 5 3 8 18
ROOT
ATOM      1  C   UNL     1      11.358 -58.390 -22.559  1.00  0.00     0.134 C 
ENDROOT
BRANCH   1   2
ATOM      2  N   UNL     1      10.886 -57.303 -23.419  1.00  0.00    -0.380 N 
ATOM      3  H   UNL     1       9.930 -57.478 -23.756  1.00  0.00     0.160 HD
BRANCH   2   4
ATOM      4  C   UNL     1      11.013 -55.944 -23.133  1.00  0.00     0.087 C 
ATOM      5  C   UNL     1      10.749 -53.883 -21.786  1.00  0.00     0.188 C 
ATOM      6  C   UNL     1      10.570 -55.325 -22.033  1.00  0.00     0.082 C 
ATOM      7  C   UNL     1      11.473 -53.093 -22.795  1.00  0.00     0.033 A 
ATOM      8  C   UNL     1      11.681 -51.723 -22.585  1.00  0.00     0.013 A 
ATOM      9  C   UNL     1      11.950 -53.701 -23.952  1.00  0.00     0.035 A 
ATOM     10  C   UNL     1      11.733 -55.140 -24.185  1.00  0.00     0.209 C 
ATOM     11  C   UNL     1      12.365 -50.967 -23.537  1.00  0.00     0.001 A 
ATOM     12  C   UNL     1      12.637 -52.940 -24.908  1.00  0.00     0.013 A 
ATOM     13  C   UNL     1      12.843 -51.575 -24.698  1.00  0.00     0.001 A 
ATOM     14  O   UNL     1      10.304 -53.373 -20.765  1.00  0.00    -0.289 OA
ATOM     15  O   UNL     1      12.118 -55.683 -25.219  1.00  0.00    -0.287 OA
ENDBRANCH   2   4
ENDBRANCH   1   2
BRANCH   1  16
ATOM     16  C   UNL     1      10.426 -59.613 -22.663  1.00  0.00     0.134 C 
BRANCH  16  17
ATOM     17  N   UNL     1      11.104 -60.726 -23.363  1.00  0.00    -0.382 N 
ATOM     18  H   UNL     1      11.082 -61.554 -22.768  1.00  0.00     0.160 HD
BRANCH  17  19
ATOM     19  C   UNL     1      10.462 -61.028 -24.601  1.00  0.00     0.049 A 
ATOM     20  C   UNL     1       9.426 -61.984 -24.603  1.00  0.00    -0.003 A 
ATOM     21  C   UNL     1      10.897 -60.452 -25.829  1.00  0.00     0.024 A 
ATOM     22  C   UNL     1       8.832 -62.294 -25.826  1.00  0.00     0.046 A 
ATOM     23  C   UNL     1       8.898 -62.565 -23.312  1.00  0.00     0.039 C 
ATOM     24  C   UNL     1      11.941 -59.498 -25.946  1.00  0.00     0.014 A 
ATOM     25  C   UNL     1      10.233 -60.864 -27.003  1.00  0.00     0.074 A 
ATOM     26  N   UNL     1       9.237 -61.759 -27.001  1.00  0.00    -0.252 NA
ATOM     27  C   UNL     1       7.717 -63.304 -25.931  1.00  0.00     0.056 C 
ATOM     28  C   UNL     1       7.998 -63.785 -23.503  1.00  0.00     0.005 C 
ATOM     29  C   UNL     1      12.309 -58.976 -27.185  1.00  0.00     0.021 A 
ATOM     30  C   UNL     1      10.614 -60.334 -28.226  1.00  0.00     0.049 A 
ATOM     31  C   UNL     1       6.989 -63.535 -24.613  1.00  0.00     0.007 C 
ATOM     32  C   UNL     1      11.641 -59.400 -28.324  1.00  0.00     0.043 A 
ATOM     33  Cl  UNL     1      12.085 -58.767 -29.860  1.00  0.00    -0.084 Cl
ENDBRANCH  17  19
ENDBRANCH  16  17
ENDBRANCH   1  16
TORSDOF 5
ENDMDL
MODEL 2
REMARK VINA RESULT:   -11.946      2.079      3.853
REMARK INTER + INTRA:         -16.018
REMARK INTER:                 -16.030
REMARK INTRA:                   0.012
REMARK UNBOUND:                -0.580
REMARK SMILES O=C1C=C(NCCNc2c3c(nc4cc(Cl)ccc24)CCCC3)C(=O)c2ccccc21
REMARK SMILES IDX 6 1 5 2 4 4 2 5 3 6 31 7 30 8 26 9 24 10 29 11 27 12 28 13
REMARK SMILES IDX 1 14 25 15 7 16 8 17 9 19 10 20 19 21 11 22 23 23 18 24
REMARK SMILES IDX 13 25 12 26 20 27 22 28 17 29 14 30 21 31 15 32 16 33
REMARK H PARENT 5 3 8 18
ROOT
ATOM      1  C   UNL     1      10.938 -57.596 -23.110  1.00  0.00     0.134 C 
ENDROOT
BRANCH   1   2
ATOM      2  N   UNL     1      10.277 -56.373 -23.568  1.00  0.00    -0.380 N 
ATOM      3  H   UNL     1       9.258 -56.420 -23.428  1.00  0.00     0.160 HD
BRANCH   2   4
ATOM      4  C   UNL     1      10.703 -55.076 -23.281  1.00  0.00     0.087 C 
ATOM      5  C   UNL     1      10.921 -53.017 -21.922  1.00  0.00     0.188 C 
ATOM      6  C   UNL     1      10.427 -54.383 -22.170  1.00  0.00     0.082 C 
ATOM      7  C   UNL     1      11.781 -52.397 -22.944  1.00  0.00     0.033 A 
ATOM      8  C   UNL     1      12.286 -51.106 -22.734  1.00  0.00     0.013 A 
ATOM      9  C   UNL     1      12.090 -53.085 -24.112  1.00  0.00     0.035 A 
ATOM     10  C   UNL     1      11.560 -54.441 -24.346  1.00  0.00     0.209 C 
ATOM     11  C   UNL     1      13.100 -50.511 -23.698  1.00  0.00     0.001 A 
ATOM     12  C   UNL     1      12.907 -52.485 -25.080  1.00  0.00     0.013 A 
ATOM     13  C   UNL     1      13.411 -51.200 -24.870  1.00  0.00     0.001 A 
ATOM     14  O   UNL     1      10.619 -52.430 -20.891  1.00  0.00    -0.289 OA
ATOM     15  O   UNL     1      11.797 -55.047 -25.388  1.00  0.00    -0.287 OA
ENDBRANCH   2   4
ENDBRANCH   1   2
BRANCH   1  16
ATOM     16  C   UNL     1      12.104 -57.969 -24.046  1.00  0.00     0.134 C 
BRANCH  16  17
ATOM     17  N   UNL     1      12.416 -59.411 -23.938  1.00  0.00    -0.382 N 
ATOM     18  H   UNL     1      12.328 -59.697 -22.963  1.00  0.00     0.160 HD
BRANCH  17  19
ATOM     19  C   UNL     1      11.526 -60.195 -24.732  1.00  0.00     0.049 A 
ATOM     20  C   UNL     1      11.485 -59.961 -26.121  1.00  0.00    -0.003 A 
ATOM     21  C   UNL     1      10.634 -61.137 -24.144  1.00  0.00     0.024 A 
ATOM     22  C   UNL     1      10.585 -60.711 -26.878  1.00  0.00     0.046 A 
ATOM     23  C   UNL     1      12.462 -59.017 -26.783  1.00  0.00     0.039 C 
ATOM     24  C   UNL     1      10.576 -61.436 -22.759  1.00  0.00     0.014 A 
ATOM     25  C   UNL     1       9.754 -61.817 -25.013  1.00  0.00     0.074 A 
ATOM     26  N   UNL     1       9.728 -61.606 -26.335  1.00  0.00    -0.252 NA
ATOM     27  C   UNL     1      10.467 -60.533 -28.371  1.00  0.00     0.056 C 
ATOM     28  C   UNL     1      12.096 -58.655 -28.222  1.00  0.00     0.005 C 
ATOM     29  C   UNL     1       9.674 -62.375 -22.259  1.00  0.00     0.021 A 
ATOM     30  C   UNL     1       8.864 -62.746 -24.496  1.00  0.00     0.049 A 
ATOM     31  C   UNL     1      11.700 -59.899 -29.001  1.00  0.00     0.007 C 
ATOM     32  C   UNL     1       8.819 -63.027 -23.135  1.00  0.00     0.043 A 
ATOM     33  Cl  UNL     1       7.700 -64.186 -22.532  1.00  0.00    -0.084 Cl
ENDBRANCH  17  19
ENDBRANCH  16  17
ENDBRANCH   1  16
TORSDOF 5
ENDMDL
MODEL 3
REMARK VINA RESULT:   -11.326      3.229      8.636
REMARK INTER + INTRA:         -15.217
REMARK INTER:                 -15.017
REMARK INTRA:                  -0.200
REMARK UNBOUND:                -0.580
REMARK SMILES O=C1C=C(NCCNc2c3c(nc4cc(Cl)ccc24)CCCC3)C(=O)c2ccccc21
REMARK SMILES IDX 6 1 5 2 4 4 2 5 3 6 31 7 30 8 26 9 24 10 29 11 27 12 28 13
REMARK SMILES IDX 1 14 25 15 7 16 8 17 9 19 10 20 19 21 11 22 23 23 18 24
REMARK SMILES IDX 13 25 12 26 20 27 22 28 17 29 14 30 21 31 15 32 16 33
REMARK H PARENT 5 3 8 18
ROOT
ATOM      1  C   UNL     1      12.188 -56.954 -25.727  1.00  0.00     0.134 C 
ENDROOT
BRANCH   1   2
ATOM      2  N   UNL     1      12.741 -58.094 -24.994  1.00  0.00    -0.380 N 
ATOM      3  H   UNL     1      13.670 -57.879 -24.607  1.00  0.00     0.160 HD
BRANCH   2   4
ATOM      4  C   UNL     1      12.041 -58.864 -24.065  1.00  0.00     0.087 C 
ATOM      5  C   UNL     1      11.046 -59.391 -21.859  1.00  0.00     0.188 C 
ATOM      6  C   UNL     1      11.806 -58.537 -22.788  1.00  0.00     0.082 C 
ATOM      7  C   UNL     1      10.500 -60.658 -22.373  1.00  0.00     0.033 A 
ATOM      8  C   UNL     1       9.754 -61.488 -21.524  1.00  0.00     0.013 A 
ATOM      9  C   UNL     1      10.723 -61.033 -23.694  1.00  0.00     0.035 A 
ATOM     10  C   UNL     1      11.510 -60.170 -24.595  1.00  0.00     0.209 C 
ATOM     11  C   UNL     1       9.236 -62.690 -22.004  1.00  0.00     0.001 A 
ATOM     12  C   UNL     1      10.202 -62.242 -24.174  1.00  0.00     0.013 A 
ATOM     13  C   UNL     1       9.459 -63.067 -23.329  1.00  0.00     0.001 A 
ATOM     14  O   UNL     1      10.880 -59.043 -20.697  1.00  0.00    -0.289 OA
ATOM     15  O   UNL     1      11.744 -60.505 -25.754  1.00  0.00    -0.287 OA
ENDBRANCH   2   4
ENDBRANCH   1   2
BRANCH   1  16
ATOM     16  C   UNL     1      12.919 -55.652 -25.344  1.00  0.00     0.134 C 
BRANCH  16  17
ATOM     17  N   UNL     1      12.146 -54.472 -25.789  1.00  0.00    -0.382 N 
ATOM     18  H   UNL     1      11.174 -54.745 -25.926  1.00  0.00     0.160 HD
BRANCH  17  19
ATOM     19  C   UNL     1      12.199 -53.423 -24.821  1.00  0.00     0.049 A 
ATOM     20  C   UNL     1      11.530 -53.608 -23.596  1.00  0.00    -0.003 A 
ATOM     21  C   UNL     1      12.837 -52.181 -25.101  1.00  0.00     0.024 A 
ATOM     22  C   UNL     1      11.561 -52.561 -22.675  1.00  0.00     0.046 A 
ATOM     23  C   UNL     1      10.899 -54.936 -23.242  1.00  0.00     0.039 C 
ATOM     24  C   UNL     1      13.522 -51.880 -26.307  1.00  0.00     0.014 A 
ATOM     25  C   UNL     1      12.780 -51.189 -24.099  1.00  0.00     0.074 A 
ATOM     26  N   UNL     1      12.159 -51.373 -22.927  1.00  0.00    -0.252 NA
ATOM     27  C   UNL     1      10.874 -52.662 -21.337  1.00  0.00     0.056 C 
ATOM     28  C   UNL     1       9.973 -54.879 -22.028  1.00  0.00     0.005 C 
ATOM     29  C   UNL     1      14.125 -50.639 -26.507  1.00  0.00     0.021 A 
ATOM     30  C   UNL     1      13.386 -49.961 -24.317  1.00  0.00     0.049 A 
ATOM     31  C   UNL     1      10.623 -54.099 -20.897  1.00  0.00     0.007 C 
ATOM     32  C   UNL     1      14.052 -49.682 -25.505  1.00  0.00     0.043 A 
ATOM     33  Cl  UNL     1      14.789 -48.145 -25.737  1.00  0.00    -0.084 Cl
ENDBRANCH  17  19
ENDBRANCH  16  17
ENDBRANCH   1  16
TORSDOF 5
ENDMDL
MODEL 4
REMARK VINA RESULT:   -11.099      5.288     10.943
REMARK INTER + INTRA:         -14.923
REMARK INTER:                 -14.433
REMARK INTRA:                  -0.491
REMARK UNBOUND:                -0.580
REMARK SMILES O=C1C=C(NCCNc2c3c(nc4cc(Cl)ccc24)CCCC3)C(=O)c2ccccc21
REMARK SMILES IDX 6 1 5 2 4 4 2 5 3 6 31 7 30 8 26 9 24 10 29 11 27 12 28 13
REMARK SMILES IDX 1 14 25 15 7 16 8 17 9 19 10 20 19 21 11 22 23 23 18 24
REMARK SMILES IDX 13 25 12 26 20 27 22 28 17 29 14 30 21 31 15 32 16 33
REMARK H PARENT 5 3 8 18
ROOT
ATOM      1  C   UNL     1       9.544 -51.446 -22.003  1.00  0.00     0.134 C 
ENDROOT
BRANCH   1   2
ATOM      2  N   UNL     1      10.765 -52.231 -21.816  1.00  0.00    -0.380 N 
ATOM      3  H   UNL     1      11.038 -52.273 -20.825  1.00  0.00     0.160 HD
BRANCH   2   4
ATOM      4  C   UNL     1      11.016 -53.473 -22.397  1.00  0.00     0.087 C 
ATOM      5  C   UNL     1      11.616 -55.035 -24.224  1.00  0.00     0.188 C 
ATOM      6  C   UNL     1      11.350 -53.694 -23.675  1.00  0.00     0.082 C 
ATOM      7  C   UNL     1      11.529 -56.186 -23.311  1.00  0.00     0.033 A 
ATOM      8  C   UNL     1      11.795 -57.475 -23.792  1.00  0.00     0.013 A 
ATOM      9  C   UNL     1      11.185 -55.998 -21.976  1.00  0.00     0.035 A 
ATOM     10  C   UNL     1      10.899 -54.647 -21.459  1.00  0.00     0.209 C 
ATOM     11  C   UNL     1      11.714 -58.571 -22.933  1.00  0.00     0.001 A 
ATOM     12  C   UNL     1      11.104 -57.100 -21.114  1.00  0.00     0.013 A 
ATOM     13  C   UNL     1      11.369 -58.384 -21.594  1.00  0.00     0.001 A 
ATOM     14  O   UNL     1      11.900 -55.171 -25.407  1.00  0.00    -0.289 OA
ATOM     15  O   UNL     1      10.560 -54.470 -20.291  1.00  0.00    -0.287 OA
ENDBRANCH   2   4
ENDBRANCH   1   2
BRANCH   1  16
ATOM     16  C   UNL     1       9.882 -49.980 -22.336  1.00  0.00     0.134 C 
BRANCH  16  17
ATOM     17  N   UNL     1      11.328 -49.726 -22.153  1.00  0.00    -0.382 N 
ATOM     18  H   UNL     1      11.828 -50.613 -22.193  1.00  0.00     0.160 HD
BRANCH  17  19
ATOM     19  C   UNL     1      11.835 -48.863 -23.172  1.00  0.00     0.049 A 
ATOM     20  C   UNL     1      12.706 -49.406 -24.136  1.00  0.00    -0.003 A 
ATOM     21  C   UNL     1      11.546 -47.468 -23.180  1.00  0.00     0.024 A 
ATOM     22  C   UNL     1      13.221 -48.543 -25.104  1.00  0.00     0.046 A 
ATOM     23  C   UNL     1      12.981 -50.891 -24.193  1.00  0.00     0.039 C 
ATOM     24  C   UNL     1      10.700 -46.814 -22.247  1.00  0.00     0.014 A 
ATOM     25  C   UNL     1      12.146 -46.695 -24.197  1.00  0.00     0.074 A 
ATOM     26  N   UNL     1      12.960 -47.215 -25.124  1.00  0.00    -0.252 NA
ATOM     27  C   UNL     1      14.161 -49.028 -26.178  1.00  0.00     0.056 C 
ATOM     28  C   UNL     1      14.158 -51.270 -25.092  1.00  0.00     0.005 C 
ATOM     29  C   UNL     1      10.464 -45.442 -22.324  1.00  0.00     0.021 A 
ATOM     30  C   UNL     1      11.898 -45.332 -24.255  1.00  0.00     0.049 A 
ATOM     31  C   UNL     1      14.077 -50.530 -26.418  1.00  0.00     0.007 C 
ATOM     32  C   UNL     1      11.068 -44.706 -23.331  1.00  0.00     0.043 A 
ATOM     33  Cl  UNL     1      10.787 -43.012 -23.437  1.00  0.00    -0.084 Cl
ENDBRANCH  17  19
ENDBRANCH  16  17
ENDBRANCH   1  16
TORSDOF 5
ENDMDL
MODEL 5
REMARK VINA RESULT:   -10.824      2.242      4.395
REMARK INTER + INTRA:         -14.569
REMARK INTER:                 -14.397
REMARK INTRA:                  -0.172
REMARK UNBOUND:                -0.580
REMARK SMILES O=C1C=C(NCCNc2c3c(nc4cc(Cl)ccc24)CCCC3)C(=O)c2ccccc21
REMARK SMILES IDX 6 1 5 2 4 4 2 5 3 6 31 7 30 8 26 9 24 10 29 11 27 12 28 13
REMARK SMILES IDX 1 14 25 15 7 16 8 17 9 19 10 20 19 21 11 22 23 23 18 24
REMARK SMILES IDX 13 25 12 26 20 27 22 28 17 29 14 30 21 31 15 32 16 33
REMARK H PARENT 5 3 8 18
ROOT
ATOM      1  C   UNL     1      11.493 -56.818 -24.130  1.00  0.00     0.134 C 
ENDROOT
BRANCH   1   2
ATOM      2  N   UNL     1      11.173 -55.605 -23.376  1.00  0.00    -0.380 N 
ATOM      3  H   UNL     1      11.281 -55.751 -22.363  1.00  0.00     0.160 HD
BRANCH   2   4
ATOM      4  C   UNL     1      11.629 -54.324 -23.689  1.00  0.00     0.087 C 
ATOM      5  C   UNL     1      12.785 -52.605 -25.047  1.00  0.00     0.188 C 
ATOM      6  C   UNL     1      12.345 -53.984 -24.767  1.00  0.00     0.082 C 
ATOM      7  C   UNL     1      12.394 -51.549 -24.099  1.00  0.00     0.033 A 
ATOM      8  C   UNL     1      12.776 -50.222 -24.342  1.00  0.00     0.013 A 
ATOM      9  C   UNL     1      11.649 -51.863 -22.967  1.00  0.00     0.035 A 
ATOM     10  C   UNL     1      11.245 -53.256 -22.698  1.00  0.00     0.209 C 
ATOM     11  C   UNL     1      12.410 -49.216 -23.448  1.00  0.00     0.001 A 
ATOM     12  C   UNL     1      11.283 -50.851 -22.069  1.00  0.00     0.013 A 
ATOM     13  C   UNL     1      11.664 -49.530 -22.312  1.00  0.00     0.001 A 
ATOM     14  O   UNL     1      13.453 -52.362 -26.043  1.00  0.00    -0.289 OA
ATOM     15  O   UNL     1      10.617 -53.552 -21.685  1.00  0.00    -0.287 OA
ENDBRANCH   2   4
ENDBRANCH   1   2
BRANCH   1  16
ATOM     16  C   UNL     1      11.417 -58.061 -23.222  1.00  0.00     0.134 C 
BRANCH  16  17
ATOM     17  N   UNL     1      12.228 -59.164 -23.781  1.00  0.00    -0.382 N 
ATOM     18  H   UNL     1      12.631 -59.702 -23.014  1.00  0.00     0.160 HD
BRANCH  17  19
ATOM     19  C   UNL     1      11.434 -60.034 -24.588  1.00  0.00     0.049 A 
ATOM     20  C   UNL     1      11.446 -59.849 -25.984  1.00  0.00    -0.003 A 
ATOM     21  C   UNL     1      10.580 -61.016 -24.009  1.00  0.00     0.024 A 
ATOM     22  C   UNL     1      10.638 -60.683 -26.756  1.00  0.00     0.046 A 
ATOM     23  C   UNL     1      12.388 -58.860 -26.634  1.00  0.00     0.039 C 
ATOM     24  C   UNL     1      10.474 -61.274 -22.618  1.00  0.00     0.014 A 
ATOM     25  C   UNL     1       9.792 -61.784 -24.894  1.00  0.00     0.074 A 
ATOM     26  N   UNL     1       9.818 -61.618 -26.222  1.00  0.00    -0.252 NA
ATOM     27  C   UNL     1      10.581 -60.563 -28.258  1.00  0.00     0.056 C 
ATOM     28  C   UNL     1      12.069 -58.571 -28.100  1.00  0.00     0.005 C 
ATOM     29  C   UNL     1       9.615 -62.256 -22.128  1.00  0.00     0.021 A 
ATOM     30  C   UNL     1       8.944 -62.755 -24.386  1.00  0.00     0.049 A 
ATOM     31  C   UNL     1      11.798 -59.865 -28.852  1.00  0.00     0.007 C 
ATOM     32  C   UNL     1       8.851 -62.994 -23.019  1.00  0.00     0.043 A 
ATOM     33  Cl  UNL     1       7.785 -64.208 -22.429  1.00  0.00    -0.084 Cl
ENDBRANCH  17  19
ENDBRANCH  16  17
ENDBRANCH   1  16
TORSDOF 5
ENDMDL
MODEL 6
REMARK VINA RESULT:   -10.562      5.863     10.147
REMARK INTER + INTRA:         -14.230
REMARK INTER:                 -13.617
REMARK INTRA:                  -0.613
REMARK UNBOUND:                -0.580
REMARK SMILES O=C1C=C(NCCNc2c3c(nc4cc(Cl)ccc24)CCCC3)C(=O)c2ccccc21
REMARK SMILES IDX 6 1 5 2 4 4 2 5 3 6 31 7 30 8 26 9 24 10 29 11 27 12 28 13
REMARK SMILES IDX 1 14 25 15 7 16 8 17 9 19 10 20 19 21 11 22 23 23 18 24
REMARK SMILES IDX 13 25 12 26 20 27 22 28 17 29 14 30 21 31 15 32 16 33
REMARK H PARENT 5 3 8 18
ROOT
ATOM      1  C   UNL     1      10.268 -48.397 -22.962  1.00  0.00     0.134 C 
ENDROOT
BRANCH   1   2
ATOM      2  N   UNL     1      10.247 -47.322 -21.968  1.00  0.00    -0.380 N 
ATOM      3  H   UNL     1      10.300 -47.694 -21.010  1.00  0.00     0.160 HD
BRANCH   2   4
ATOM      4  C   UNL     1      11.010 -46.157 -22.033  1.00  0.00     0.087 C 
ATOM      5  C   UNL     1      11.432 -43.751 -22.446  1.00  0.00     0.188 C 
ATOM      6  C   UNL     1      10.575 -44.949 -22.413  1.00  0.00     0.082 C 
ATOM      7  C   UNL     1      12.834 -43.891 -22.016  1.00  0.00     0.033 A 
ATOM      8  C   UNL     1      13.674 -42.770 -22.015  1.00  0.00     0.013 A 
ATOM      9  C   UNL     1      13.323 -45.130 -21.614  1.00  0.00     0.035 A 
ATOM     10  C   UNL     1      12.450 -46.317 -21.615  1.00  0.00     0.209 C 
ATOM     11  C   UNL     1      15.003 -42.895 -21.610  1.00  0.00     0.001 A 
ATOM     12  C   UNL     1      14.659 -45.254 -21.208  1.00  0.00     0.013 A 
ATOM     13  C   UNL     1      15.496 -44.136 -21.206  1.00  0.00     0.001 A 
ATOM     14  O   UNL     1      10.977 -42.679 -22.821  1.00  0.00    -0.289 OA
ATOM     15  O   UNL     1      12.878 -47.424 -21.296  1.00  0.00    -0.287 OA
ENDBRANCH   2   4
ENDBRANCH   1   2
BRANCH   1  16
ATOM     16  C   UNL     1      10.174 -49.775 -22.278  1.00  0.00     0.134 C 
BRANCH  16  17
ATOM     17  N   UNL     1      11.525 -50.310 -22.000  1.00  0.00    -0.382 N 
ATOM     18  H   UNL     1      11.532 -50.726 -21.069  1.00  0.00     0.160 HD
BRANCH  17  19
ATOM     19  C   UNL     1      11.894 -51.306 -22.954  1.00  0.00     0.049 A 
ATOM     20  C   UNL     1      12.653 -50.913 -24.073  1.00  0.00    -0.003 A 
ATOM     21  C   UNL     1      11.445 -52.653 -22.838  1.00  0.00     0.024 A 
ATOM     22  C   UNL     1      12.976 -51.891 -25.014  1.00  0.00     0.046 A 
ATOM     23  C   UNL     1      13.199 -49.509 -24.193  1.00  0.00     0.039 C 
ATOM     24  C   UNL     1      10.660 -53.153 -21.766  1.00  0.00     0.014 A 
ATOM     25  C   UNL     1      11.817 -53.545 -23.867  1.00  0.00     0.074 A 
ATOM     26  N   UNL     1      12.554 -53.174 -24.921  1.00  0.00    -0.252 NA
ATOM     27  C   UNL     1      13.784 -51.569 -26.246  1.00  0.00     0.056 C 
ATOM     28  C   UNL     1      13.737 -49.168 -25.582  1.00  0.00     0.005 C 
ATOM     29  C   UNL     1      10.262 -54.488 -21.722  1.00  0.00     0.021 A 
ATOM     30  C   UNL     1      11.409 -54.869 -23.805  1.00  0.00     0.049 A 
ATOM     31  C   UNL     1      14.610 -50.297 -26.107  1.00  0.00     0.007 C 
ATOM     32  C   UNL     1      10.640 -55.342 -22.747  1.00  0.00     0.043 A 
ATOM     33  Cl  UNL     1      10.153 -56.991 -22.708  1.00  0.00    -0.084 Cl
ENDBRANCH  17  19
ENDBRANCH  16  17
ENDBRANCH   1  16
TORSDOF 5
ENDMDL
MODEL 7
REMARK VINA RESULT:   -10.538      2.933      7.661
REMARK INTER + INTRA:         -14.199
REMARK INTER:                 -13.612
REMARK INTRA:                  -0.587
REMARK UNBOUND:                -0.580
REMARK SMILES O=C1C=C(NCCNc2c3c(nc4cc(Cl)ccc24)CCCC3)C(=O)c2ccccc21
REMARK SMILES IDX 6 1 5 2 4 4 2 5 3 6 31 7 30 8 26 9 24 10 29 11 27 12 28 13
REMARK SMILES IDX 1 14 25 15 7 16 8 17 9 19 10 20 19 21 11 22 23 23 18 24
REMARK SMILES IDX 13 25 12 26 20 27 22 28 17 29 14 30 21 31 15 32 16 33
REMARK H PARENT 5 3 8 18
ROOT
ATOM      1  C   UNL     1      12.013 -59.707 -27.658  1.00  0.00     0.134 C 
ENDROOT
BRANCH   1   2
ATOM      2  N   UNL     1      10.610 -59.871 -28.043  1.00  0.00    -0.380 N 
ATOM      3  H   UNL     1      10.485 -59.775 -29.060  1.00  0.00     0.160 HD
BRANCH   2   4
ATOM      4  C   UNL     1       9.767 -60.883 -27.588  1.00  0.00     0.087 C 
ATOM      5  C   UNL     1       8.617 -63.076 -27.671  1.00  0.00     0.188 C 
ATOM      6  C   UNL     1       9.510 -62.038 -28.215  1.00  0.00     0.082 C 
ATOM      7  C   UNL     1       7.995 -62.834 -26.358  1.00  0.00     0.033 A 
ATOM      8  C   UNL     1       7.156 -63.808 -25.799  1.00  0.00     0.013 A 
ATOM      9  C   UNL     1       8.237 -61.647 -25.675  1.00  0.00     0.035 A 
ATOM     10  C   UNL     1       9.115 -60.614 -26.256  1.00  0.00     0.209 C 
ATOM     11  C   UNL     1       6.562 -63.586 -24.556  1.00  0.00     0.001 A 
ATOM     12  C   UNL     1       7.639 -61.425 -24.427  1.00  0.00     0.013 A 
ATOM     13  C   UNL     1       6.804 -62.395 -23.870  1.00  0.00     0.001 A 
ATOM     14  O   UNL     1       8.410 -64.103 -28.303  1.00  0.00    -0.289 OA
ATOM     15  O   UNL     1       9.310 -59.547 -25.679  1.00  0.00    -0.287 OA
ENDBRANCH   2   4
ENDBRANCH   1   2
BRANCH   1  16
ATOM     16  C   UNL     1      12.167 -58.574 -26.625  1.00  0.00     0.134 C 
BRANCH  16  17
ATOM     17  N   UNL     1      12.730 -59.095 -25.361  1.00  0.00    -0.382 N 
ATOM     18  H   UNL     1      13.656 -58.692 -25.219  1.00  0.00     0.160 HD
BRANCH  17  19
ATOM     19  C   UNL     1      11.904 -58.759 -24.247  1.00  0.00     0.049 A 
ATOM     20  C   UNL     1      11.280 -59.803 -23.536  1.00  0.00    -0.003 A 
ATOM     21  C   UNL     1      11.636 -57.404 -23.898  1.00  0.00     0.024 A 
ATOM     22  C   UNL     1      10.447 -59.456 -22.472  1.00  0.00     0.046 A 
ATOM     23  C   UNL     1      11.593 -61.250 -23.839  1.00  0.00     0.039 C 
ATOM     24  C   UNL     1      12.192 -56.277 -24.557  1.00  0.00     0.014 A 
ATOM     25  C   UNL     1      10.757 -57.180 -22.817  1.00  0.00     0.074 A 
ATOM     26  N   UNL     1      10.179 -58.174 -22.130  1.00  0.00    -0.252 NA
ATOM     27  C   UNL     1       9.735 -60.501 -21.651  1.00  0.00     0.056 C 
ATOM     28  C   UNL     1      10.627 -62.243 -23.193  1.00  0.00     0.005 C 
ATOM     29  C   UNL     1      11.883 -54.978 -24.155  1.00  0.00     0.021 A 
ATOM     30  C   UNL     1      10.462 -55.881 -22.433  1.00  0.00     0.049 A 
ATOM     31  C   UNL     1      10.382 -61.878 -21.737  1.00  0.00     0.007 C 
ATOM     32  C   UNL     1      11.015 -54.788 -23.090  1.00  0.00     0.043 A 
ATOM     33  Cl  UNL     1      10.622 -53.191 -22.584  1.00  0.00    -0.084 Cl
ENDBRANCH  17  19
ENDBRANCH  16  17
ENDBRANCH   1  16
TORSDOF 5
ENDMDL
MODEL 8
REMARK VINA RESULT:   -10.474      5.978      9.759
REMARK INTER + INTRA:         -14.116
REMARK INTER:                 -13.639
REMARK INTRA:                  -0.477
REMARK UNBOUND:                -0.580
REMARK SMILES O=C1C=C(NCCNc2c3c(nc4cc(Cl)ccc24)CCCC3)C(=O)c2ccccc21
REMARK SMILES IDX 6 1 5 2 4 4 2 5 3 6 31 7 30 8 26 9 24 10 29 11 27 12 28 13
REMARK SMILES IDX 1 14 25 15 7 16 8 17 9 19 10 20 19 21 11 22 23 23 18 24
REMARK SMILES IDX 13 25 12 26 20 27 22 28 17 29 14 30 21 31 15 32 16 33
REMARK H PARENT 5 3 8 18
ROOT
ATOM      1  C   UNL     1      10.177 -48.412 -22.639  1.00  0.00     0.134 C 
ENDROOT
BRANCH   1   2
ATOM      2  N   UNL     1      11.251 -47.706 -21.938  1.00  0.00    -0.380 N 
ATOM      3  H   UNL     1      12.142 -48.217 -22.002  1.00  0.00     0.160 HD
BRANCH   2   4
ATOM      4  C   UNL     1      11.514 -46.341 -22.043  1.00  0.00     0.087 C 
ATOM      5  C   UNL     1      11.011 -43.977 -22.586  1.00  0.00     0.188 C 
ATOM      6  C   UNL     1      10.675 -45.410 -22.514  1.00  0.00     0.082 C 
ATOM      7  C   UNL     1      12.331 -43.551 -22.093  1.00  0.00     0.033 A 
ATOM      8  C   UNL     1      12.679 -42.193 -22.127  1.00  0.00     0.013 A 
ATOM      9  C   UNL     1      13.231 -44.488 -21.596  1.00  0.00     0.035 A 
ATOM     10  C   UNL     1      12.877 -45.919 -21.560  1.00  0.00     0.209 C 
ATOM     11  C   UNL     1      13.928 -41.782 -21.662  1.00  0.00     0.001 A 
ATOM     12  C   UNL     1      14.486 -44.073 -21.130  1.00  0.00     0.013 A 
ATOM     13  C   UNL     1      14.831 -42.721 -21.164  1.00  0.00     0.001 A 
ATOM     14  O   UNL     1      10.205 -43.178 -23.044  1.00  0.00    -0.289 OA
ATOM     15  O   UNL     1      13.675 -46.762 -21.155  1.00  0.00    -0.287 OA
ENDBRANCH   2   4
ENDBRANCH   1   2
BRANCH   1  16
ATOM     16  C   UNL     1      10.086 -49.876 -22.167  1.00  0.00     0.134 C 
BRANCH  16  17
ATOM     17  N   UNL     1      11.438 -50.435 -21.944  1.00  0.00    -0.382 N 
ATOM     18  H   UNL     1      11.443 -50.949 -21.063  1.00  0.00     0.160 HD
BRANCH  17  19
ATOM     19  C   UNL     1      11.813 -51.321 -22.999  1.00  0.00     0.049 A 
ATOM     20  C   UNL     1      11.472 -52.683 -22.882  1.00  0.00    -0.003 A 
ATOM     21  C   UNL     1      12.585 -50.875 -24.110  1.00  0.00     0.024 A 
ATOM     22  C   UNL     1      11.876 -53.543 -23.903  1.00  0.00     0.046 A 
ATOM     23  C   UNL     1      10.600 -53.176 -21.750  1.00  0.00     0.039 C 
ATOM     24  C   UNL     1      13.000 -49.534 -24.317  1.00  0.00     0.014 A 
ATOM     25  C   UNL     1      12.954 -51.845 -25.066  1.00  0.00     0.074 A 
ATOM     26  N   UNL     1      12.614 -53.136 -24.963  1.00  0.00    -0.252 NA
ATOM     27  C   UNL     1      11.560 -55.017 -23.870  1.00  0.00     0.056 C 
ATOM     28  C   UNL     1      10.572 -54.697 -21.605  1.00  0.00     0.005 C 
ATOM     29  C   UNL     1      13.754 -49.175 -25.433  1.00  0.00     0.021 A 
ATOM     30  C   UNL     1      13.704 -51.467 -26.169  1.00  0.00     0.049 A 
ATOM     31  C   UNL     1      10.386 -55.359 -22.961  1.00  0.00     0.007 C 
ATOM     32  C   UNL     1      14.103 -50.148 -26.356  1.00  0.00     0.043 A 
ATOM     33  Cl  UNL     1      15.035 -49.720 -27.738  1.00  0.00    -0.084 Cl
ENDBRANCH  17  19
ENDBRANCH  16  17
ENDBRANCH   1  16
TORSDOF 5
ENDMDL
MODEL 9
REMARK VINA RESULT:   -10.300      5.863     10.079
REMARK INTER + INTRA:         -13.891
REMARK INTER:                 -13.618
REMARK INTRA:                  -0.273
REMARK UNBOUND:                -0.580
REMARK SMILES O=C1C=C(NCCNc2c3c(nc4cc(Cl)ccc24)CCCC3)C(=O)c2ccccc21
REMARK SMILES IDX 6 1 5 2 4 4 2 5 3 6 31 7 30 8 26 9 24 10 29 11 27 12 28 13
REMARK SMILES IDX 1 14 25 15 7 16 8 17 9 19 10 20 19 21 11 22 23 23 18 24
REMARK SMILES IDX 13 25 12 26 20 27 22 28 17 29 14 30 21 31 15 32 16 33
REMARK H PARENT 5 3 8 18
ROOT
ATOM      1  C   UNL     1      10.218 -48.564 -22.590  1.00  0.00     0.134 C 
ENDROOT
BRANCH   1   2
ATOM      2  N   UNL     1      11.358 -47.884 -21.973  1.00  0.00    -0.380 N 
ATOM      3  H   UNL     1      12.134 -48.536 -21.794  1.00  0.00     0.160 HD
BRANCH   2   4
ATOM      4  C   UNL     1      11.891 -46.668 -22.398  1.00  0.00     0.087 C 
ATOM      5  C   UNL     1      13.638 -45.151 -23.284  1.00  0.00     0.188 C 
ATOM      6  C   UNL     1      13.140 -46.463 -22.834  1.00  0.00     0.082 C 
ATOM      7  C   UNL     1      12.702 -44.015 -23.271  1.00  0.00     0.033 A 
ATOM      8  C   UNL     1      13.134 -42.756 -23.711  1.00  0.00     0.013 A 
ATOM      9  C   UNL     1      11.396 -44.187 -22.826  1.00  0.00     0.035 A 
ATOM     10  C   UNL     1      10.932 -45.506 -22.357  1.00  0.00     0.209 C 
ATOM     11  C   UNL     1      12.253 -41.675 -23.702  1.00  0.00     0.001 A 
ATOM     12  C   UNL     1      10.512 -43.099 -22.816  1.00  0.00     0.013 A 
ATOM     13  C   UNL     1      10.943 -41.846 -23.254  1.00  0.00     0.001 A 
ATOM     14  O   UNL     1      14.798 -45.027 -23.655  1.00  0.00    -0.289 OA
ATOM     15  O   UNL     1       9.791 -45.664 -21.928  1.00  0.00    -0.287 OA
ENDBRANCH   2   4
ENDBRANCH   1   2
BRANCH   1  16
ATOM     16  C   UNL     1      10.151 -50.036 -22.139  1.00  0.00     0.134 C 
BRANCH  16  17
ATOM     17  N   UNL     1      11.510 -50.570 -21.903  1.00  0.00    -0.382 N 
ATOM     18  H   UNL     1      11.547 -50.987 -20.973  1.00  0.00     0.160 HD
BRANCH  17  19
ATOM     19  C   UNL     1      11.851 -51.565 -22.869  1.00  0.00     0.049 A 
ATOM     20  C   UNL     1      12.582 -51.171 -24.007  1.00  0.00    -0.003 A 
ATOM     21  C   UNL     1      11.400 -52.911 -22.745  1.00  0.00     0.024 A 
ATOM     22  C   UNL     1      12.876 -52.148 -24.959  1.00  0.00     0.046 A 
ATOM     23  C   UNL     1      13.129 -49.769 -24.137  1.00  0.00     0.039 C 
ATOM     24  C   UNL     1      10.641 -53.410 -21.655  1.00  0.00     0.014 A 
ATOM     25  C   UNL     1      11.741 -53.801 -23.786  1.00  0.00     0.074 A 
ATOM     26  N   UNL     1      12.452 -53.429 -24.859  1.00  0.00    -0.252 NA
ATOM     27  C   UNL     1      13.653 -51.826 -26.210  1.00  0.00     0.056 C 
ATOM     28  C   UNL     1      13.632 -49.426 -25.539  1.00  0.00     0.005 C 
ATOM     29  C   UNL     1      10.239 -54.744 -21.604  1.00  0.00     0.021 A 
ATOM     30  C   UNL     1      11.330 -55.123 -23.717  1.00  0.00     0.049 A 
ATOM     31  C   UNL     1      14.488 -50.557 -26.090  1.00  0.00     0.007 C 
ATOM     32  C   UNL     1      10.587 -55.596 -22.641  1.00  0.00     0.043 A 
ATOM     33  Cl  UNL     1      10.095 -57.244 -22.594  1.00  0.00    -0.084 Cl
ENDBRANCH  17  19
ENDBRANCH  16  17
ENDBRANCH   1  16
TORSDOF 5
ENDMDL
