MODEL 1
REMARK VINA RESULT:    -9.141      0.000      0.000
REMARK INTER + INTRA:         -11.297
REMARK INTER:                 -11.012
REMARK INTRA:                  -0.285
REMARK UNBOUND:                -0.285
REMARK SMILES COc1ccc(-c2oc3cc(OC)c(I)cc3c(=O)c2O)cc1
REMARK SMILES IDX 7 1 8 2 9 3 10 4 11 5 14 6 15 7 16 8 17 9 18 10 19 11 20 12
REMARK SMILES IDX 6 13 3 14 4 15 23 16 5 17 22 18 2 19 1 20 21 21 12 23 13 24
REMARK H PARENT 21 22
ROOT
ATOM      1  C   UNL     1      10.775 -54.846 -22.962  1.00  0.00     0.180 A 
ATOM      2  O   UNL     1      11.775 -54.580 -23.890  1.00  0.00    -0.452 OA
ATOM      3  C   UNL     1      12.165 -53.281 -24.094  1.00  0.00     0.142 A 
ATOM      4  C   UNL     1      13.162 -53.060 -25.047  1.00  0.00     0.095 A 
ATOM      5  C   UNL     1      13.615 -51.762 -25.311  1.00  0.00     0.135 A 
ATOM      6  C   UNL     1      13.048 -50.689 -24.597  1.00  0.00     0.056 A 
ATOM      7  I   UNL     1      13.654 -48.702 -24.913  1.00  0.00    -0.040 I 
ATOM      8  C   UNL     1      12.049 -50.909 -23.643  1.00  0.00     0.034 A 
ATOM      9  C   UNL     1      11.614 -52.212 -23.399  1.00  0.00     0.070 A 
ATOM     10  C   UNL     1      10.569 -52.483 -22.407  1.00  0.00     0.235 A 
ATOM     11  O   UNL     1      10.031 -51.605 -21.742  1.00  0.00    -0.285 OA
ATOM     12  C   UNL     1      10.166 -53.899 -22.223  1.00  0.00     0.208 A 
ENDROOT
BRANCH   1  13
ATOM     13  C   UNL     1      10.460 -56.286 -22.853  1.00  0.00     0.021 A 
ATOM     14  C   UNL     1       9.923 -59.055 -22.677  1.00  0.00     0.118 A 
ATOM     15  C   UNL     1       8.995 -58.195 -23.259  1.00  0.00     0.047 A 
ATOM     16  C   UNL     1      11.122 -58.532 -22.189  1.00  0.00     0.047 A 
ATOM     17  C   UNL     1       9.264 -56.822 -23.349  1.00  0.00     0.016 A 
ATOM     18  C   UNL     1      11.391 -57.163 -22.278  1.00  0.00     0.016 A 
BRANCH  14  19
ATOM     19  O   UNL     1       9.786 -60.408 -22.527  1.00  0.00    -0.497 OA
ATOM     20  C   UNL     1      10.838 -61.219 -23.033  1.00  0.00     0.278 C 
ENDBRANCH  14  19
ENDBRANCH   1  13
BRANCH  12  21
ATOM     21  O   UNL     1       9.190 -54.152 -21.278  1.00  0.00    -0.502 OA
ATOM     22  H   UNL     1       9.678 -54.276 -20.436  1.00  0.00     0.293 HD
ENDBRANCH  12  21
BRANCH   5  23
ATOM     23  O   UNL     1      14.587 -51.458 -26.227  1.00  0.00    -0.496 OA
ATOM     24  C   UNL     1      15.945 -51.604 -25.833  1.00  0.00     0.278 C 
ENDBRANCH   5  23
TORSDOF 4
ENDMDL
MODEL 2
REMARK VINA RESULT:    -9.107      2.374      3.209
REMARK INTER + INTRA:         -11.256
REMARK INTER:                 -10.989
REMARK INTRA:                  -0.267
REMARK UNBOUND:                -0.285
REMARK SMILES COc1ccc(-c2oc3cc(OC)c(I)cc3c(=O)c2O)cc1
REMARK SMILES IDX 7 1 8 2 9 3 10 4 11 5 14 6 15 7 16 8 17 9 18 10 19 11 20 12
REMARK SMILES IDX 6 13 3 14 4 15 23 16 5 17 22 18 2 19 1 20 21 21 12 23 13 24
REMARK H PARENT 21 22
ROOT
ATOM      1  C   UNL     1      11.046 -52.252 -22.674  1.00  0.00     0.180 A 
ATOM      2  O   UNL     1      12.253 -51.640 -22.990  1.00  0.00    -0.452 OA
ATOM      3  C   UNL     1      12.335 -50.271 -22.950  1.00  0.00     0.142 A 
ATOM      4  C   UNL     1      13.564 -49.700 -23.290  1.00  0.00     0.095 A 
ATOM      5  C   UNL     1      13.728 -48.309 -23.272  1.00  0.00     0.135 A 
ATOM      6  C   UNL     1      12.634 -47.503 -22.903  1.00  0.00     0.056 A 
ATOM      7  I   UNL     1      12.770 -45.408 -22.841  1.00  0.00    -0.040 I 
ATOM      8  C   UNL     1      11.403 -48.075 -22.563  1.00  0.00     0.034 A 
ATOM      9  C   UNL     1      11.265 -49.463 -22.590  1.00  0.00     0.070 A 
ATOM     10  C   UNL     1       9.991 -50.100 -22.240  1.00  0.00     0.235 A 
ATOM     11  O   UNL     1       8.996 -49.468 -21.903  1.00  0.00    -0.285 OA
ATOM     12  C   UNL     1       9.938 -51.580 -22.306  1.00  0.00     0.208 A 
ENDROOT
BRANCH   1  13
ATOM     13  C   UNL     1      11.108 -53.726 -22.763  1.00  0.00     0.021 A 
ATOM     14  C   UNL     1      11.275 -56.545 -22.878  1.00  0.00     0.118 A 
ATOM     15  C   UNL     1      11.486 -55.781 -24.024  1.00  0.00     0.047 A 
ATOM     16  C   UNL     1      10.987 -55.899 -21.675  1.00  0.00     0.047 A 
ATOM     17  C   UNL     1      11.406 -54.383 -23.965  1.00  0.00     0.016 A 
ATOM     18  C   UNL     1      10.907 -54.504 -21.614  1.00  0.00     0.016 A 
BRANCH  14  19
ATOM     19  O   UNL     1      11.323 -57.909 -22.799  1.00  0.00    -0.497 OA
ATOM     20  C   UNL     1      11.375 -58.475 -21.495  1.00  0.00     0.278 C 
ENDBRANCH  14  19
ENDBRANCH   1  13
BRANCH  12  21
ATOM     21  O   UNL     1       8.739 -52.177 -21.963  1.00  0.00    -0.502 OA
ATOM     22  H   UNL     1       8.114 -51.918 -22.674  1.00  0.00     0.293 HD
ENDBRANCH  12  21
BRANCH   5  23
ATOM     23  O   UNL     1      14.896 -47.669 -23.590  1.00  0.00    -0.496 OA
ATOM     24  C   UNL     1      15.316 -47.681 -24.948  1.00  0.00     0.278 C 
ENDBRANCH   5  23
TORSDOF 4
ENDMDL
MODEL 3
REMARK VINA RESULT:    -8.731      3.977      8.403
REMARK INTER + INTRA:         -10.803
REMARK INTER:                 -10.585
REMARK INTRA:                  -0.218
REMARK UNBOUND:                -0.285
REMARK SMILES COc1ccc(-c2oc3cc(OC)c(I)cc3c(=O)c2O)cc1
REMARK SMILES IDX 7 1 8 2 9 3 10 4 11 5 14 6 15 7 16 8 17 9 18 10 19 11 20 12
REMARK SMILES IDX 6 13 3 14 4 15 23 16 5 17 22 18 2 19 1 20 21 21 12 23 13 24
REMARK H PARENT 21 22
ROOT
ATOM      1  C   UNL     1      10.630 -56.732 -23.518  1.00  0.00     0.180 A 
ATOM      2  O   UNL     1       9.302 -57.044 -23.248  1.00  0.00    -0.452 OA
ATOM      3  C   UNL     1       8.864 -58.326 -23.465  1.00  0.00     0.142 A 
ATOM      4  C   UNL     1       7.518 -58.590 -23.195  1.00  0.00     0.095 A 
ATOM      5  C   UNL     1       6.995 -59.874 -23.390  1.00  0.00     0.135 A 
ATOM      6  C   UNL     1       7.850 -60.888 -23.861  1.00  0.00     0.056 A 
ATOM      7  I   UNL     1       7.170 -62.849 -24.188  1.00  0.00    -0.040 I 
ATOM      8  C   UNL     1       9.197 -60.625 -24.133  1.00  0.00     0.034 A 
ATOM      9  C   UNL     1       9.694 -59.337 -23.931  1.00  0.00     0.070 A 
ATOM     10  C   UNL     1      11.099 -59.021 -24.204  1.00  0.00     0.235 A 
ATOM     11  O   UNL     1      11.906 -59.850 -24.610  1.00  0.00    -0.285 OA
ATOM     12  C   UNL     1      11.533 -57.622 -23.968  1.00  0.00     0.208 A 
ENDROOT
BRANCH   1  13
ATOM     13  C   UNL     1      10.955 -55.317 -23.238  1.00  0.00     0.021 A 
ATOM     14  C   UNL     1      11.508 -52.602 -22.680  1.00  0.00     0.118 A 
ATOM     15  C   UNL     1      11.791 -53.133 -23.937  1.00  0.00     0.047 A 
ATOM     16  C   UNL     1      10.943 -53.427 -21.706  1.00  0.00     0.047 A 
ATOM     17  C   UNL     1      11.513 -54.479 -24.213  1.00  0.00     0.016 A 
ATOM     18  C   UNL     1      10.665 -54.769 -21.980  1.00  0.00     0.016 A 
BRANCH  14  19
ATOM     19  O   UNL     1      11.728 -51.313 -22.282  1.00  0.00    -0.497 OA
ATOM     20  C   UNL     1      10.582 -50.487 -22.116  1.00  0.00     0.278 C 
ENDBRANCH  14  19
ENDBRANCH   1  13
BRANCH  12  21
ATOM     21  O   UNL     1      12.862 -57.331 -24.215  1.00  0.00    -0.502 OA
ATOM     22  H   UNL     1      13.047 -57.720 -25.096  1.00  0.00     0.293 HD
ENDBRANCH  12  21
BRANCH   5  23
ATOM     23  O   UNL     1       5.692 -60.217 -23.150  1.00  0.00    -0.496 OA
ATOM     24  C   UNL     1       4.800 -59.196 -22.721  1.00  0.00     0.278 C 
ENDBRANCH   5  23
TORSDOF 4
ENDMDL
MODEL 4
REMARK VINA RESULT:    -8.559      1.613      3.462
REMARK INTER + INTRA:         -10.595
REMARK INTER:                 -10.226
REMARK INTRA:                  -0.369
REMARK UNBOUND:                -0.285
REMARK SMILES COc1ccc(-c2oc3cc(OC)c(I)cc3c(=O)c2O)cc1
REMARK SMILES IDX 7 1 8 2 9 3 10 4 11 5 14 6 15 7 16 8 17 9 18 10 19 11 20 12
REMARK SMILES IDX 6 13 3 14 4 15 23 16 5 17 22 18 2 19 1 20 21 21 12 23 13 24
REMARK H PARENT 21 22
ROOT
ATOM      1  C   UNL     1      11.358 -56.303 -23.513  1.00  0.00     0.180 A 
ATOM      2  O   UNL     1      10.975 -55.205 -22.751  1.00  0.00    -0.452 OA
ATOM      3  C   UNL     1      11.407 -53.956 -23.122  1.00  0.00     0.142 A 
ATOM      4  C   UNL     1      11.010 -52.884 -22.318  1.00  0.00     0.095 A 
ATOM      5  C   UNL     1      11.408 -51.579 -22.631  1.00  0.00     0.135 A 
ATOM      6  C   UNL     1      12.211 -51.371 -23.769  1.00  0.00     0.056 A 
ATOM      7  I   UNL     1      12.863 -49.455 -24.331  1.00  0.00    -0.040 I 
ATOM      8  C   UNL     1      12.609 -52.444 -24.574  1.00  0.00     0.034 A 
ATOM      9  C   UNL     1      12.200 -53.735 -24.240  1.00  0.00     0.070 A 
ATOM     10  C   UNL     1      12.596 -54.886 -25.058  1.00  0.00     0.235 A 
ATOM     11  O   UNL     1      13.288 -54.785 -26.066  1.00  0.00    -0.285 OA
ATOM     12  C   UNL     1      12.121 -56.220 -24.619  1.00  0.00     0.208 A 
ENDROOT
BRANCH   1  13
ATOM     13  C   UNL     1      10.822 -57.578 -22.991  1.00  0.00     0.021 A 
ATOM     14  C   UNL     1       9.730 -59.985 -21.990  1.00  0.00     0.118 A 
ATOM     15  C   UNL     1      10.861 -59.426 -21.398  1.00  0.00     0.047 A 
ATOM     16  C   UNL     1       9.142 -59.336 -23.077  1.00  0.00     0.047 A 
ATOM     17  C   UNL     1      11.399 -58.231 -21.894  1.00  0.00     0.016 A 
ATOM     18  C   UNL     1       9.678 -58.144 -23.573  1.00  0.00     0.016 A 
BRANCH  14  19
ATOM     19  O   UNL     1       9.106 -61.140 -21.606  1.00  0.00    -0.497 OA
ATOM     20  C   UNL     1       9.499 -62.333 -22.272  1.00  0.00     0.278 C 
ENDBRANCH  14  19
ENDBRANCH   1  13
BRANCH  12  21
ATOM     21  O   UNL     1      12.486 -57.301 -25.401  1.00  0.00    -0.502 OA
ATOM     22  H   UNL     1      12.029 -57.159 -26.257  1.00  0.00     0.293 HD
ENDBRANCH  12  21
BRANCH   5  23
ATOM     23  O   UNL     1      11.064 -50.474 -21.899  1.00  0.00    -0.496 OA
ATOM     24  C   UNL     1       9.720 -50.017 -21.971  1.00  0.00     0.278 C 
ENDBRANCH   5  23
TORSDOF 4
ENDMDL
MODEL 5
REMARK VINA RESULT:    -8.239      2.748      4.273
REMARK INTER + INTRA:         -10.210
REMARK INTER:                 -10.216
REMARK INTRA:                   0.006
REMARK UNBOUND:                -0.285
REMARK SMILES COc1ccc(-c2oc3cc(OC)c(I)cc3c(=O)c2O)cc1
REMARK SMILES IDX 7 1 8 2 9 3 10 4 11 5 14 6 15 7 16 8 17 9 18 10 19 11 20 12
REMARK SMILES IDX 6 13 3 14 4 15 23 16 5 17 22 18 2 19 1 20 21 21 12 23 13 24
REMARK H PARENT 21 22
ROOT
ATOM      1  C   UNL     1      11.334 -50.716 -22.949  1.00  0.00     0.180 A 
ATOM      2  O   UNL     1      12.402 -50.429 -23.792  1.00  0.00    -0.452 OA
ATOM      3  C   UNL     1      12.629 -49.126 -24.156  1.00  0.00     0.142 A 
ATOM      4  C   UNL     1      13.704 -48.887 -25.017  1.00  0.00     0.095 A 
ATOM      5  C   UNL     1      14.001 -47.583 -25.434  1.00  0.00     0.135 A 
ATOM      6  C   UNL     1      13.198 -46.524 -24.968  1.00  0.00     0.056 A 
ATOM      7  I   UNL     1      13.556 -44.532 -25.530  1.00  0.00    -0.040 I 
ATOM      8  C   UNL     1      12.122 -46.763 -24.108  1.00  0.00     0.034 A 
ATOM      9  C   UNL     1      11.846 -48.070 -23.707  1.00  0.00     0.070 A 
ATOM     10  C   UNL     1      10.726 -48.362 -22.806  1.00  0.00     0.235 A 
ATOM     11  O   UNL     1       9.986 -47.495 -22.354  1.00  0.00    -0.285 OA
ATOM     12  C   UNL     1      10.505 -49.783 -22.444  1.00  0.00     0.208 A 
ENDROOT
BRANCH   1  13
ATOM     13  C   UNL     1      11.214 -52.158 -22.647  1.00  0.00     0.021 A 
ATOM     14  C   UNL     1      10.941 -54.922 -22.127  1.00  0.00     0.118 A 
ATOM     15  C   UNL     1      10.672 -53.990 -21.128  1.00  0.00     0.047 A 
ATOM     16  C   UNL     1      11.340 -54.472 -23.386  1.00  0.00     0.047 A 
ATOM     17  C   UNL     1      10.804 -52.618 -21.388  1.00  0.00     0.016 A 
ATOM     18  C   UNL     1      11.473 -53.105 -23.647  1.00  0.00     0.016 A 
BRANCH  14  19
ATOM     19  O   UNL     1      10.851 -56.282 -22.006  1.00  0.00    -0.497 OA
ATOM     20  C   UNL     1      11.342 -57.057 -23.092  1.00  0.00     0.278 C 
ENDBRANCH  14  19
ENDBRANCH   1  13
BRANCH  12  21
ATOM     21  O   UNL     1       9.457 -50.052 -21.583  1.00  0.00    -0.502 OA
ATOM     22  H   UNL     1       9.348 -51.026 -21.614  1.00  0.00     0.293 HD
ENDBRANCH  12  21
BRANCH   5  23
ATOM     23  O   UNL     1      15.034 -47.262 -26.273  1.00  0.00    -0.496 OA
ATOM     24  C   UNL     1      16.357 -47.320 -25.757  1.00  0.00     0.278 C 
ENDBRANCH   5  23
TORSDOF 4
ENDMDL
MODEL 6
REMARK VINA RESULT:    -7.905      1.621      3.237
REMARK INTER + INTRA:          -9.808
REMARK INTER:                  -9.759
REMARK INTRA:                  -0.049
REMARK UNBOUND:                -0.285
REMARK SMILES COc1ccc(-c2oc3cc(OC)c(I)cc3c(=O)c2O)cc1
REMARK SMILES IDX 7 1 8 2 9 3 10 4 11 5 14 6 15 7 16 8 17 9 18 10 19 11 20 12
REMARK SMILES IDX 6 13 3 14 4 15 23 16 5 17 22 18 2 19 1 20 21 21 12 23 13 24
REMARK H PARENT 21 22
ROOT
ATOM      1  C   UNL     1      11.655 -54.575 -24.058  1.00  0.00     0.180 A 
ATOM      2  O   UNL     1      11.343 -53.471 -23.273  1.00  0.00    -0.452 OA
ATOM      3  C   UNL     1      11.888 -52.253 -23.594  1.00  0.00     0.142 A 
ATOM      4  C   UNL     1      11.559 -51.175 -22.768  1.00  0.00     0.095 A 
ATOM      5  C   UNL     1      12.073 -49.899 -23.030  1.00  0.00     0.135 A 
ATOM      6  C   UNL     1      12.924 -49.727 -24.139  1.00  0.00     0.056 A 
ATOM      7  I   UNL     1      13.749 -47.857 -24.624  1.00  0.00    -0.040 I 
ATOM      8  C   UNL     1      13.253 -50.806 -24.966  1.00  0.00     0.034 A 
ATOM      9  C   UNL     1      12.729 -52.067 -24.683  1.00  0.00     0.070 A 
ATOM     10  C   UNL     1      13.051 -53.223 -25.526  1.00  0.00     0.235 A 
ATOM     11  O   UNL     1      13.778 -53.153 -26.511  1.00  0.00    -0.285 OA
ATOM     12  C   UNL     1      12.453 -54.525 -25.141  1.00  0.00     0.208 A 
ENDROOT
BRANCH   1  13
ATOM     13  C   UNL     1      10.999 -55.815 -23.591  1.00  0.00     0.021 A 
ATOM     14  C   UNL     1       9.774 -58.221 -22.754  1.00  0.00     0.118 A 
ATOM     15  C   UNL     1       9.014 -57.065 -22.917  1.00  0.00     0.047 A 
ATOM     16  C   UNL     1      11.145 -58.175 -23.015  1.00  0.00     0.047 A 
ATOM     17  C   UNL     1       9.622 -55.873 -23.336  1.00  0.00     0.016 A 
ATOM     18  C   UNL     1      11.753 -56.987 -23.432  1.00  0.00     0.016 A 
BRANCH  14  19
ATOM     19  O   UNL     1       9.308 -59.442 -22.353  1.00  0.00    -0.497 OA
ATOM     20  C   UNL     1       8.172 -59.953 -23.040  1.00  0.00     0.278 C 
ENDBRANCH  14  19
ENDBRANCH   1  13
BRANCH  12  21
ATOM     21  O   UNL     1      12.749 -55.610 -25.946  1.00  0.00    -0.502 OA
ATOM     22  H   UNL     1      12.679 -55.271 -26.863  1.00  0.00     0.293 HD
ENDBRANCH  12  21
BRANCH   5  23
ATOM     23  O   UNL     1      11.802 -48.791 -22.273  1.00  0.00    -0.496 OA
ATOM     24  C   UNL     1      10.575 -48.109 -22.502  1.00  0.00     0.278 C 
ENDBRANCH   5  23
TORSDOF 4
ENDMDL
MODEL 7
REMARK VINA RESULT:    -7.831      2.691      4.869
REMARK INTER + INTRA:          -9.718
REMARK INTER:                  -9.943
REMARK INTRA:                   0.224
REMARK UNBOUND:                -0.285
REMARK SMILES COc1ccc(-c2oc3cc(OC)c(I)cc3c(=O)c2O)cc1
REMARK SMILES IDX 7 1 8 2 9 3 10 4 11 5 14 6 15 7 16 8 17 9 18 10 19 11 20 12
REMARK SMILES IDX 6 13 3 14 4 15 23 16 5 17 22 18 2 19 1 20 21 21 12 23 13 24
REMARK H PARENT 21 22
ROOT
ATOM      1  C   UNL     1      12.253 -51.680 -23.927  1.00  0.00     0.180 A 
ATOM      2  O   UNL     1      11.798 -50.599 -23.180  1.00  0.00    -0.452 OA
ATOM      3  C   UNL     1      12.183 -49.333 -23.542  1.00  0.00     0.142 A 
ATOM      4  C   UNL     1      11.714 -48.279 -22.754  1.00  0.00     0.095 A 
ATOM      5  C   UNL     1      12.061 -46.957 -23.060  1.00  0.00     0.135 A 
ATOM      6  C   UNL     1      12.887 -46.714 -24.174  1.00  0.00     0.056 A 
ATOM      7  I   UNL     1      13.467 -44.772 -24.723  1.00  0.00    -0.040 I 
ATOM      8  C   UNL     1      13.357 -47.769 -24.963  1.00  0.00     0.034 A 
ATOM      9  C   UNL     1      12.997 -49.077 -24.638  1.00  0.00     0.070 A 
ATOM     10  C   UNL     1      13.470 -50.210 -25.440  1.00  0.00     0.235 A 
ATOM     11  O   UNL     1      14.185 -50.080 -26.427  1.00  0.00    -0.285 OA
ATOM     12  C   UNL     1      13.043 -51.564 -25.011  1.00  0.00     0.208 A 
ENDROOT
BRANCH   1  13
ATOM     13  C   UNL     1      11.760 -52.977 -23.417  1.00  0.00     0.021 A 
ATOM     14  C   UNL     1      10.775 -55.463 -22.503  1.00  0.00     0.118 A 
ATOM     15  C   UNL     1      10.742 -54.346 -21.672  1.00  0.00     0.047 A 
ATOM     16  C   UNL     1      11.294 -55.336 -23.792  1.00  0.00     0.047 A 
ATOM     17  C   UNL     1      11.227 -53.112 -22.128  1.00  0.00     0.016 A 
ATOM     18  C   UNL     1      11.779 -54.107 -24.248  1.00  0.00     0.016 A 
BRANCH  14  19
ATOM     19  O   UNL     1      10.335 -56.718 -22.184  1.00  0.00    -0.497 OA
ATOM     20  C   UNL     1      11.110 -57.811 -22.661  1.00  0.00     0.278 C 
ENDBRANCH  14  19
ENDBRANCH   1  13
BRANCH  12  21
ATOM     21  O   UNL     1      13.480 -52.629 -25.778  1.00  0.00    -0.502 OA
ATOM     22  H   UNL     1      14.452 -52.647 -25.654  1.00  0.00     0.293 HD
ENDBRANCH  12  21
BRANCH   5  23
ATOM     23  O   UNL     1      11.646 -45.868 -22.341  1.00  0.00    -0.496 OA
ATOM     24  C   UNL     1      10.267 -45.523 -22.387  1.00  0.00     0.278 C 
ENDBRANCH   5  23
TORSDOF 4
ENDMDL
MODEL 8
REMARK VINA RESULT:    -7.698      3.702      5.847
REMARK INTER + INTRA:          -9.558
REMARK INTER:                  -9.242
REMARK INTRA:                  -0.316
REMARK UNBOUND:                -0.285
REMARK SMILES COc1ccc(-c2oc3cc(OC)c(I)cc3c(=O)c2O)cc1
REMARK SMILES IDX 7 1 8 2 9 3 10 4 11 5 14 6 15 7 16 8 17 9 18 10 19 11 20 12
REMARK SMILES IDX 6 13 3 14 4 15 23 16 5 17 22 18 2 19 1 20 21 21 12 23 13 24
REMARK H PARENT 21 22
ROOT
ATOM      1  C   UNL     1      13.035 -50.418 -23.422  1.00  0.00     0.180 A 
ATOM      2  O   UNL     1      12.170 -49.380 -23.749  1.00  0.00    -0.452 OA
ATOM      3  C   UNL     1      12.622 -48.087 -23.662  1.00  0.00     0.142 A 
ATOM      4  C   UNL     1      11.713 -47.076 -23.985  1.00  0.00     0.095 A 
ATOM      5  C   UNL     1      12.098 -45.731 -23.923  1.00  0.00     0.135 A 
ATOM      6  C   UNL     1      13.415 -45.422 -23.532  1.00  0.00     0.056 A 
ATOM      7  I   UNL     1      14.098 -43.439 -23.407  1.00  0.00    -0.040 I 
ATOM      8  C   UNL     1      14.325 -46.434 -23.208  1.00  0.00     0.034 A 
ATOM      9  C   UNL     1      13.917 -47.766 -23.277  1.00  0.00     0.070 A 
ATOM     10  C   UNL     1      14.841 -48.855 -22.946  1.00  0.00     0.235 A 
ATOM     11  O   UNL     1      16.003 -48.667 -22.603  1.00  0.00    -0.285 OA
ATOM     12  C   UNL     1      14.313 -50.238 -23.039  1.00  0.00     0.208 A 
ENDROOT
BRANCH   1  13
ATOM     13  C   UNL     1      12.410 -51.751 -23.560  1.00  0.00     0.021 A 
ATOM     14  C   UNL     1      11.236 -54.314 -23.755  1.00  0.00     0.118 A 
ATOM     15  C   UNL     1      12.123 -53.871 -24.734  1.00  0.00     0.047 A 
ATOM     16  C   UNL     1      10.942 -53.479 -22.676  1.00  0.00     0.047 A 
ATOM     17  C   UNL     1      12.707 -52.600 -24.634  1.00  0.00     0.016 A 
ATOM     18  C   UNL     1      11.524 -52.211 -22.576  1.00  0.00     0.016 A 
BRANCH  14  19
ATOM     19  O   UNL     1      10.600 -55.525 -23.732  1.00  0.00    -0.497 OA
ATOM     20  C   UNL     1      11.275 -56.592 -23.077  1.00  0.00     0.278 C 
ENDBRANCH  14  19
ENDBRANCH   1  13
BRANCH  12  21
ATOM     21  O   UNL     1      15.192 -51.262 -22.738  1.00  0.00    -0.502 OA
ATOM     22  H   UNL     1      15.275 -51.245 -21.761  1.00  0.00     0.293 HD
ENDBRANCH  12  21
BRANCH   5  23
ATOM     23  O   UNL     1      11.272 -44.681 -24.223  1.00  0.00    -0.496 OA
ATOM     24  C   UNL     1      10.315 -44.285 -23.249  1.00  0.00     0.278 C 
ENDBRANCH   5  23
TORSDOF 4
ENDMDL
MODEL 9
REMARK VINA RESULT:    -7.654      3.671      5.288
REMARK INTER + INTRA:          -9.505
REMARK INTER:                  -9.344
REMARK INTRA:                  -0.161
REMARK UNBOUND:                -0.285
REMARK SMILES COc1ccc(-c2oc3cc(OC)c(I)cc3c(=O)c2O)cc1
REMARK SMILES IDX 7 1 8 2 9 3 10 4 11 5 14 6 15 7 16 8 17 9 18 10 19 11 20 12
REMARK SMILES IDX 6 13 3 14 4 15 23 16 5 17 22 18 2 19 1 20 21 21 12 23 13 24
REMARK H PARENT 21 22
ROOT
ATOM      1  C   UNL     1      11.606 -50.080 -22.519  1.00  0.00     0.180 A 
ATOM      2  O   UNL     1      12.945 -49.709 -22.537  1.00  0.00    -0.452 OA
ATOM      3  C   UNL     1      13.270 -48.384 -22.386  1.00  0.00     0.142 A 
ATOM      4  C   UNL     1      14.628 -48.057 -22.426  1.00  0.00     0.095 A 
ATOM      5  C   UNL     1      15.040 -46.726 -22.278  1.00  0.00     0.135 A 
ATOM      6  C   UNL     1      14.061 -45.732 -22.088  1.00  0.00     0.056 A 
ATOM      7  I   UNL     1      14.569 -43.707 -21.854  1.00  0.00    -0.040 I 
ATOM      8  C   UNL     1      12.702 -46.060 -22.048  1.00  0.00     0.034 A 
ATOM      9  C   UNL     1      12.317 -47.392 -22.199  1.00  0.00     0.070 A 
ATOM     10  C   UNL     1      10.902 -47.776 -22.163  1.00  0.00     0.235 A 
ATOM     11  O   UNL     1       9.993 -46.970 -21.995  1.00  0.00    -0.285 OA
ATOM     12  C   UNL     1      10.590 -49.214 -22.341  1.00  0.00     0.208 A 
ENDROOT
BRANCH   1  13
ATOM     13  C   UNL     1      11.411 -51.535 -22.695  1.00  0.00     0.021 A 
ATOM     14  C   UNL     1      11.017 -54.304 -23.101  1.00  0.00     0.118 A 
ATOM     15  C   UNL     1      10.427 -53.662 -22.015  1.00  0.00     0.047 A 
ATOM     16  C   UNL     1      11.798 -53.560 -23.987  1.00  0.00     0.047 A 
ATOM     17  C   UNL     1      10.620 -52.288 -21.817  1.00  0.00     0.016 A 
ATOM     18  C   UNL     1      11.992 -52.189 -23.791  1.00  0.00     0.016 A 
BRANCH  14  19
ATOM     19  O   UNL     1      10.909 -55.632 -23.409  1.00  0.00    -0.497 OA
ATOM     20  C   UNL     1      11.022 -56.552 -22.331  1.00  0.00     0.278 C 
ENDBRANCH  14  19
ENDBRANCH   1  13
BRANCH  12  21
ATOM     21  O   UNL     1       9.255 -49.574 -22.294  1.00  0.00    -0.502 OA
ATOM     22  H   UNL     1       8.783 -48.858 -22.771  1.00  0.00     0.293 HD
ENDBRANCH  12  21
BRANCH   5  23
ATOM     23  O   UNL     1      16.347 -46.320 -22.305  1.00  0.00    -0.496 OA
ATOM     24  C   UNL     1      17.259 -46.944 -21.410  1.00  0.00     0.278 C 
ENDBRANCH   5  23
TORSDOF 4
ENDMDL
