MODEL 1
REMARK VINA RESULT:   -10.492      0.000      0.000
REMARK INTER + INTRA:         -17.041
REMARK INTER:                 -16.319
REMARK INTRA:                  -0.722
REMARK UNBOUND:                -0.722
REMARK SMILES COc1cc2c(cc1OC)S[C@@H](C(O)=CCc1cc[n+](Cc3coc([N+](=O)[O-])c3)cc1)C2
REMARK SMILES IDX 16 1 15 2 13 3 14 4 12 6 32 7 11 8 5 9 6 10 4 11 7 12 3 13
REMARK SMILES IDX 8 14 2 15 1 16 9 17 10 18 17 19 18 20 31 21 19 22 30 23
REMARK SMILES IDX 20 24 21 25 22 26 23 27 29 28 24 29 25 30 26 31 27 32 28 33
REMARK H PARENT 14 5
ROOT
ATOM      1  C   UNL     1      11.155 -58.218 -21.556  1.00  0.00     0.067 C 
ENDROOT
BRANCH   1   2
ATOM      2  C   UNL     1      11.376 -57.039 -22.459  1.00  0.00     0.020 C 
BRANCH   2   3
ATOM      3  C   UNL     1      11.021 -55.746 -22.382  1.00  0.00     0.102 C 
BRANCH   3   4
ATOM      4  O   UNL     1      11.013 -55.240 -21.075  1.00  0.00    -0.511 OA
ATOM      5  H   UNL     1      10.324 -54.561 -20.972  1.00  0.00     0.293 HD
ENDBRANCH   3   4
BRANCH   3   6
ATOM      6  C   UNL     1      10.645 -54.717 -23.445  1.00  0.00     0.121 C 
ATOM      7  C   UNL     1      10.217 -53.369 -22.818  1.00  0.00     0.059 C 
ATOM      8  S   UNL     1      11.897 -54.356 -24.711  1.00  0.00    -0.114 SA
ATOM      9  C   UNL     1      11.299 -52.364 -23.090  1.00  0.00    -0.029 A 
ATOM     10  C   UNL     1      12.184 -52.722 -24.105  1.00  0.00     0.015 A 
ATOM     11  C   UNL     1      11.439 -51.148 -22.432  1.00  0.00     0.055 A 
ATOM     12  C   UNL     1      13.216 -51.879 -24.498  1.00  0.00     0.065 A 
ATOM     13  C   UNL     1      12.491 -50.305 -22.798  1.00  0.00     0.161 A 
ATOM     14  C   UNL     1      13.385 -50.663 -23.828  1.00  0.00     0.161 A 
BRANCH  13  15
ATOM     15  O   UNL     1      12.651 -49.174 -22.035  1.00  0.00    -0.493 OA
ATOM     16  C   UNL     1      11.913 -48.070 -22.572  1.00  0.00     0.278 C 
ENDBRANCH  13  15
BRANCH  14  17
ATOM     17  O   UNL     1      14.463 -49.841 -24.038  1.00  0.00    -0.493 OA
ATOM     18  C   UNL     1      15.726 -50.390 -23.657  1.00  0.00     0.278 C 
ENDBRANCH  14  17
ENDBRANCH   3   6
ENDBRANCH   2   3
ENDBRANCH   1   2
BRANCH   1  19
ATOM     19  C   UNL     1      10.258 -59.313 -22.097  1.00  0.00    -0.032 A 
ATOM     20  C   UNL     1      10.657 -60.646 -21.965  1.00  0.00     0.075 A 
ATOM     21  C   UNL     1       9.055 -59.053 -22.754  1.00  0.00     0.075 A 
ATOM     22  C   UNL     1       9.824 -61.669 -22.405  1.00  0.00     0.308 A 
ATOM     23  C   UNL     1       8.250 -60.107 -23.173  1.00  0.00     0.308 A 
ATOM     24  N   UNL     1       8.632 -61.390 -22.976  1.00  0.00    -0.201 N 
BRANCH  24  25
ATOM     25  C   UNL     1       7.714 -62.499 -23.328  1.00  0.00     0.397 C 
BRANCH  25  26
ATOM     26  C   UNL     1       7.793 -62.790 -24.788  1.00  0.00     0.063 A 
ATOM     27  C   UNL     1       7.072 -63.740 -25.492  1.00  0.00     0.213 A 
ATOM     28  C   UNL     1       8.646 -62.167 -25.753  1.00  0.00     0.143 A 
ATOM     29  O   UNL     1       7.411 -63.732 -26.809  1.00  0.00    -0.409 OA
ATOM     30  C   UNL     1       8.367 -62.779 -26.954  1.00  0.00     0.433 A 
BRANCH  30  31
ATOM     31  N   UNL     1       8.894 -62.581 -28.269  1.00  0.00     0.102 N 
ATOM     32  O   UNL     1       9.416 -61.491 -28.524  1.00  0.00    -0.256 OA
ATOM     33  O   UNL     1       8.779 -63.540 -29.043  1.00  0.00    -0.256 OA
ENDBRANCH  30  31
ENDBRANCH  25  26
ENDBRANCH  24  25
ENDBRANCH   1  19
TORSDOF 10
ENDMDL
MODEL 2
REMARK VINA RESULT:   -10.366      2.327      3.762
REMARK INTER + INTRA:         -16.845
REMARK INTER:                 -15.904
REMARK INTRA:                  -0.941
REMARK UNBOUND:                -0.722
REMARK SMILES COc1cc2c(cc1OC)S[C@@H](C(O)=CCc1cc[n+](Cc3coc([N+](=O)[O-])c3)cc1)C2
REMARK SMILES IDX 16 1 15 2 13 3 14 4 12 6 32 7 11 8 5 9 6 10 4 11 7 12 3 13
REMARK SMILES IDX 8 14 2 15 1 16 9 17 10 18 17 19 18 20 31 21 19 22 30 23
REMARK SMILES IDX 20 24 21 25 22 26 23 27 29 28 24 29 25 30 26 31 27 32 28 33
REMARK H PARENT 14 5
ROOT
ATOM      1  C   UNL     1      10.718 -55.517 -22.203  1.00  0.00     0.067 C 
ENDROOT
BRANCH   1   2
ATOM      2  C   UNL     1      10.790 -54.423 -23.228  1.00  0.00     0.020 C 
BRANCH   2   3
ATOM      3  C   UNL     1      11.593 -53.355 -23.374  1.00  0.00     0.102 C 
BRANCH   3   4
ATOM      4  O   UNL     1      12.121 -53.219 -24.665  1.00  0.00    -0.511 OA
ATOM      5  H   UNL     1      13.093 -53.255 -24.646  1.00  0.00     0.293 HD
ENDBRANCH   3   4
BRANCH   3   6
ATOM      6  C   UNL     1      12.023 -52.251 -22.411  1.00  0.00     0.121 C 
ATOM      7  C   UNL     1      13.147 -51.371 -23.006  1.00  0.00     0.059 C 
ATOM      8  S   UNL     1      10.719 -51.138 -21.811  1.00  0.00    -0.114 SA
ATOM      9  C   UNL     1      12.564 -50.028 -23.334  1.00  0.00    -0.029 A 
ATOM     10  C   UNL     1      11.347 -49.754 -22.712  1.00  0.00     0.015 A 
ATOM     11  C   UNL     1      13.156 -49.083 -24.163  1.00  0.00     0.055 A 
ATOM     12  C   UNL     1      10.701 -48.537 -22.887  1.00  0.00     0.065 A 
ATOM     13  C   UNL     1      12.501 -47.867 -24.370  1.00  0.00     0.161 A 
ATOM     14  C   UNL     1      11.272 -47.586 -23.738  1.00  0.00     0.161 A 
BRANCH  13  15
ATOM     15  O   UNL     1      13.074 -47.023 -25.290  1.00  0.00    -0.493 OA
ATOM     16  C   UNL     1      14.408 -47.428 -25.616  1.00  0.00     0.278 C 
ENDBRANCH  13  15
BRANCH  14  17
ATOM     17  O   UNL     1      10.634 -46.425 -24.094  1.00  0.00    -0.493 OA
ATOM     18  C   UNL     1      10.560 -45.436 -23.065  1.00  0.00     0.278 C 
ENDBRANCH  14  17
ENDBRANCH   3   6
ENDBRANCH   2   3
ENDBRANCH   1   2
BRANCH   1  19
ATOM     19  C   UNL     1      11.165 -56.890 -22.661  1.00  0.00    -0.032 A 
ATOM     20  C   UNL     1      11.068 -57.968 -21.776  1.00  0.00     0.075 A 
ATOM     21  C   UNL     1      11.704 -57.130 -23.925  1.00  0.00     0.075 A 
ATOM     22  C   UNL     1      11.421 -59.246 -22.193  1.00  0.00     0.308 A 
ATOM     23  C   UNL     1      12.039 -58.426 -24.304  1.00  0.00     0.308 A 
ATOM     24  N   UNL     1      11.875 -59.461 -23.448  1.00  0.00    -0.201 N 
BRANCH  24  25
ATOM     25  C   UNL     1      12.133 -60.847 -23.904  1.00  0.00     0.397 C 
BRANCH  25  26
ATOM     26  C   UNL     1      10.855 -61.610 -23.985  1.00  0.00     0.063 A 
ATOM     27  C   UNL     1      10.421 -62.610 -23.131  1.00  0.00     0.213 A 
ATOM     28  C   UNL     1       9.830 -61.484 -24.977  1.00  0.00     0.143 A 
ATOM     29  O   UNL     1       9.208 -63.089 -23.518  1.00  0.00    -0.409 OA
ATOM     30  C   UNL     1       8.864 -62.403 -24.637  1.00  0.00     0.433 A 
BRANCH  30  31
ATOM     31  N   UNL     1       7.611 -62.736 -25.243  1.00  0.00     0.102 N 
ATOM     32  O   UNL     1       7.623 -63.127 -26.415  1.00  0.00    -0.256 OA
ATOM     33  O   UNL     1       6.614 -62.604 -24.523  1.00  0.00    -0.256 OA
ENDBRANCH  30  31
ENDBRANCH  25  26
ENDBRANCH  24  25
ENDBRANCH   1  19
TORSDOF 10
ENDMDL
MODEL 3
REMARK VINA RESULT:   -10.141      3.743     11.499
REMARK INTER + INTRA:         -16.494
REMARK INTER:                 -16.385
REMARK INTRA:                  -0.110
REMARK UNBOUND:                -0.722
REMARK SMILES COc1cc2c(cc1OC)S[C@@H](C(O)=CCc1cc[n+](Cc3coc([N+](=O)[O-])c3)cc1)C2
REMARK SMILES IDX 16 1 15 2 13 3 14 4 12 6 32 7 11 8 5 9 6 10 4 11 7 12 3 13
REMARK SMILES IDX 8 14 2 15 1 16 9 17 10 18 17 19 18 20 31 21 19 22 30 23
REMARK SMILES IDX 20 24 21 25 22 26 23 27 29 28 24 29 25 30 26 31 27 32 28 33
REMARK H PARENT 14 5
ROOT
ATOM      1  C   UNL     1       9.818 -56.200 -22.375  1.00  0.00     0.067 C 
ENDROOT
BRANCH   1   2
ATOM      2  C   UNL     1      10.478 -57.349 -23.079  1.00  0.00     0.020 C 
BRANCH   2   3
ATOM      3  C   UNL     1      11.255 -58.360 -22.655  1.00  0.00     0.102 C 
BRANCH   3   4
ATOM      4  O   UNL     1      11.518 -58.330 -21.279  1.00  0.00    -0.511 OA
ATOM      5  H   UNL     1      11.339 -57.446 -20.912  1.00  0.00     0.293 HD
ENDBRANCH   3   4
BRANCH   3   6
ATOM      6  C   UNL     1      11.888 -59.546 -23.379  1.00  0.00     0.121 C 
ATOM      7  C   UNL     1      11.074 -60.845 -23.180  1.00  0.00     0.059 C 
ATOM      8  S   UNL     1      12.179 -59.353 -25.162  1.00  0.00    -0.114 SA
ATOM      9  C   UNL     1      10.404 -61.181 -24.481  1.00  0.00    -0.029 A 
ATOM     10  C   UNL     1      10.939 -60.534 -25.594  1.00  0.00     0.015 A 
ATOM     11  C   UNL     1       9.351 -62.075 -24.627  1.00  0.00     0.055 A 
ATOM     12  C   UNL     1      10.451 -60.771 -26.873  1.00  0.00     0.065 A 
ATOM     13  C   UNL     1       8.832 -62.298 -25.905  1.00  0.00     0.161 A 
ATOM     14  C   UNL     1       9.375 -61.648 -27.033  1.00  0.00     0.161 A 
BRANCH  13  15
ATOM     15  O   UNL     1       7.718 -63.098 -25.972  1.00  0.00    -0.493 OA
ATOM     16  C   UNL     1       7.026 -63.142 -24.718  1.00  0.00     0.278 C 
ENDBRANCH  13  15
BRANCH  14  17
ATOM     17  O   UNL     1       8.727 -61.823 -28.230  1.00  0.00    -0.493 OA
ATOM     18  C   UNL     1       8.869 -63.121 -28.810  1.00  0.00     0.278 C 
ENDBRANCH  14  17
ENDBRANCH   3   6
ENDBRANCH   2   3
ENDBRANCH   1   2
BRANCH   1  19
ATOM     19  C   UNL     1      10.477 -54.846 -22.544  1.00  0.00    -0.032 A 
ATOM     20  C   UNL     1      10.449 -53.937 -21.482  1.00  0.00     0.075 A 
ATOM     21  C   UNL     1      11.092 -54.445 -23.731  1.00  0.00     0.075 A 
ATOM     22  C   UNL     1      11.095 -52.711 -21.597  1.00  0.00     0.308 A 
ATOM     23  C   UNL     1      11.732 -53.212 -23.800  1.00  0.00     0.308 A 
ATOM     24  N   UNL     1      11.743 -52.378 -22.735  1.00  0.00    -0.201 N 
BRANCH  24  25
ATOM     25  C   UNL     1      12.521 -51.117 -22.789  1.00  0.00     0.397 C 
BRANCH  25  26
ATOM     26  C   UNL     1      11.612 -49.943 -22.660  1.00  0.00     0.063 A 
ATOM     27  C   UNL     1      10.265 -49.958 -22.337  1.00  0.00     0.213 A 
ATOM     28  C   UNL     1      11.938 -48.565 -22.871  1.00  0.00     0.143 A 
ATOM     29  O   UNL     1       9.754 -48.698 -22.320  1.00  0.00    -0.409 OA
ATOM     30  C   UNL     1      10.775 -47.865 -22.648  1.00  0.00     0.433 A 
BRANCH  30  31
ATOM     31  N   UNL     1      10.480 -46.466 -22.703  1.00  0.00     0.102 N 
ATOM     32  O   UNL     1      10.762 -45.857 -23.739  1.00  0.00    -0.256 OA
ATOM     33  O   UNL     1       9.956 -45.988 -21.689  1.00  0.00    -0.256 OA
ENDBRANCH  30  31
ENDBRANCH  25  26
ENDBRANCH  24  25
ENDBRANCH   1  19
TORSDOF 10
ENDMDL
MODEL 4
REMARK VINA RESULT:   -10.120      3.503     10.685
REMARK INTER + INTRA:         -16.462
REMARK INTER:                 -15.984
REMARK INTRA:                  -0.478
REMARK UNBOUND:                -0.722
REMARK SMILES COc1cc2c(cc1OC)S[C@@H](C(O)=CCc1cc[n+](Cc3coc([N+](=O)[O-])c3)cc1)C2
REMARK SMILES IDX 16 1 15 2 13 3 14 4 12 6 32 7 11 8 5 9 6 10 4 11 7 12 3 13
REMARK SMILES IDX 8 14 2 15 1 16 9 17 10 18 17 19 18 20 31 21 19 22 30 23
REMARK SMILES IDX 20 24 21 25 22 26 23 27 29 28 24 29 25 30 26 31 27 32 28 33
REMARK H PARENT 14 5
ROOT
ATOM      1  C   UNL     1      10.175 -56.637 -22.680  1.00  0.00     0.067 C 
ENDROOT
BRANCH   1   2
ATOM      2  C   UNL     1      11.139 -57.584 -22.027  1.00  0.00     0.020 C 
BRANCH   2   3
ATOM      3  C   UNL     1      11.245 -58.923 -22.018  1.00  0.00     0.102 C 
BRANCH   3   4
ATOM      4  O   UNL     1      10.607 -59.532 -20.930  1.00  0.00    -0.511 OA
ATOM      5  H   UNL     1      10.068 -60.288 -21.224  1.00  0.00     0.293 HD
ENDBRANCH   3   4
BRANCH   3   6
ATOM      6  C   UNL     1      11.908 -59.909 -22.977  1.00  0.00     0.121 C 
ATOM      7  C   UNL     1      11.163 -61.264 -23.017  1.00  0.00     0.059 C 
ATOM      8  S   UNL     1      12.126 -59.357 -24.694  1.00  0.00    -0.114 SA
ATOM      9  C   UNL     1      10.465 -61.375 -24.341  1.00  0.00    -0.029 A 
ATOM     10  C   UNL     1      10.930 -60.496 -25.319  1.00  0.00     0.015 A 
ATOM     11  C   UNL     1       9.451 -62.278 -24.635  1.00  0.00     0.055 A 
ATOM     12  C   UNL     1      10.409 -60.503 -26.607  1.00  0.00     0.065 A 
ATOM     13  C   UNL     1       8.899 -62.274 -25.918  1.00  0.00     0.161 A 
ATOM     14  C   UNL     1       9.371 -61.389 -26.909  1.00  0.00     0.161 A 
BRANCH  13  15
ATOM     15  O   UNL     1       7.823 -63.104 -26.113  1.00  0.00    -0.493 OA
ATOM     16  C   UNL     1       7.139 -63.377 -24.884  1.00  0.00     0.278 C 
ENDBRANCH  13  15
BRANCH  14  17
ATOM     17  O   UNL     1       8.690 -61.361 -28.100  1.00  0.00    -0.493 OA
ATOM     18  C   UNL     1       9.074 -62.368 -29.039  1.00  0.00     0.278 C 
ENDBRANCH  14  17
ENDBRANCH   3   6
ENDBRANCH   2   3
ENDBRANCH   1   2
BRANCH   1  19
ATOM     19  C   UNL     1      10.695 -55.240 -22.954  1.00  0.00    -0.032 A 
ATOM     20  C   UNL     1      10.447 -54.227 -22.024  1.00  0.00     0.075 A 
ATOM     21  C   UNL     1      11.390 -54.904 -24.117  1.00  0.00     0.075 A 
ATOM     22  C   UNL     1      10.962 -52.952 -22.229  1.00  0.00     0.308 A 
ATOM     23  C   UNL     1      11.892 -53.617 -24.279  1.00  0.00     0.308 A 
ATOM     24  N   UNL     1      11.691 -52.672 -23.331  1.00  0.00    -0.201 N 
BRANCH  24  25
ATOM     25  C   UNL     1      12.325 -51.340 -23.468  1.00  0.00     0.397 C 
BRANCH  25  26
ATOM     26  C   UNL     1      13.520 -51.425 -24.355  1.00  0.00     0.063 A 
ATOM     27  C   UNL     1      13.537 -51.427 -25.740  1.00  0.00     0.213 A 
ATOM     28  C   UNL     1      14.890 -51.547 -23.958  1.00  0.00     0.143 A 
ATOM     29  O   UNL     1      14.808 -51.527 -26.212  1.00  0.00    -0.409 OA
ATOM     30  C   UNL     1      15.617 -51.603 -25.125  1.00  0.00     0.433 A 
BRANCH  30  31
ATOM     31  N   UNL     1      17.023 -51.720 -25.367  1.00  0.00     0.102 N 
ATOM     32  O   UNL     1      17.784 -51.014 -24.698  1.00  0.00    -0.256 OA
ATOM     33  O   UNL     1      17.350 -52.535 -26.237  1.00  0.00    -0.256 OA
ENDBRANCH  30  31
ENDBRANCH  25  26
ENDBRANCH  24  25
ENDBRANCH   1  19
TORSDOF 10
ENDMDL
MODEL 5
REMARK VINA RESULT:   -10.100      2.150      3.515
REMARK INTER + INTRA:         -16.431
REMARK INTER:                 -15.561
REMARK INTRA:                  -0.870
REMARK UNBOUND:                -0.722
REMARK SMILES COc1cc2c(cc1OC)S[C@@H](C(O)=CCc1cc[n+](Cc3coc([N+](=O)[O-])c3)cc1)C2
REMARK SMILES IDX 16 1 15 2 13 3 14 4 12 6 32 7 11 8 5 9 6 10 4 11 7 12 3 13
REMARK SMILES IDX 8 14 2 15 1 16 9 17 10 18 17 19 18 20 31 21 19 22 30 23
REMARK SMILES IDX 20 24 21 25 22 26 23 27 29 28 24 29 25 30 26 31 27 32 28 33
REMARK H PARENT 14 5
ROOT
ATOM      1  C   UNL     1      11.065 -55.774 -22.065  1.00  0.00     0.067 C 
ENDROOT
BRANCH   1   2
ATOM      2  C   UNL     1      11.132 -54.718 -23.129  1.00  0.00     0.020 C 
BRANCH   2   3
ATOM      3  C   UNL     1      11.481 -53.420 -23.112  1.00  0.00     0.102 C 
BRANCH   3   4
ATOM      4  O   UNL     1      11.354 -52.819 -21.853  1.00  0.00    -0.511 OA
ATOM      5  H   UNL     1      10.520 -53.082 -21.426  1.00  0.00     0.293 HD
ENDBRANCH   3   4
BRANCH   3   6
ATOM      6  C   UNL     1      12.008 -52.482 -24.195  1.00  0.00     0.121 C 
ATOM      7  C   UNL     1      12.727 -51.252 -23.592  1.00  0.00     0.059 C 
ATOM      8  S   UNL     1      13.118 -53.208 -25.435  1.00  0.00    -0.114 SA
ATOM      9  C   UNL     1      14.199 -51.399 -23.849  1.00  0.00    -0.029 A 
ATOM     10  C   UNL     1      14.526 -52.323 -24.840  1.00  0.00     0.015 A 
ATOM     11  C   UNL     1      15.196 -50.681 -23.202  1.00  0.00     0.055 A 
ATOM     12  C   UNL     1      15.845 -52.544 -25.218  1.00  0.00     0.065 A 
ATOM     13  C   UNL     1      16.528 -50.916 -23.552  1.00  0.00     0.161 A 
ATOM     14  C   UNL     1      16.861 -51.847 -24.558  1.00  0.00     0.161 A 
BRANCH  13  15
ATOM     15  O   UNL     1      17.473 -50.266 -22.798  1.00  0.00    -0.493 OA
ATOM     16  C   UNL     1      17.704 -50.935 -21.553  1.00  0.00     0.278 C 
ENDBRANCH  13  15
BRANCH  14  17
ATOM     17  O   UNL     1      18.193 -52.111 -24.751  1.00  0.00    -0.493 OA
ATOM     18  C   UNL     1      18.600 -52.197 -26.119  1.00  0.00     0.278 C 
ENDBRANCH  14  17
ENDBRANCH   3   6
ENDBRANCH   2   3
ENDBRANCH   1   2
BRANCH   1  19
ATOM     19  C   UNL     1      11.165 -57.209 -22.543  1.00  0.00    -0.032 A 
ATOM     20  C   UNL     1      11.776 -57.475 -23.772  1.00  0.00     0.075 A 
ATOM     21  C   UNL     1      10.646 -58.286 -21.824  1.00  0.00     0.075 A 
ATOM     22  C   UNL     1      11.928 -58.788 -24.204  1.00  0.00     0.308 A 
ATOM     23  C   UNL     1      10.826 -59.584 -22.290  1.00  0.00     0.308 A 
ATOM     24  N   UNL     1      11.477 -59.817 -23.454  1.00  0.00    -0.201 N 
BRANCH  24  25
ATOM     25  C   UNL     1      11.755 -61.209 -23.880  1.00  0.00     0.397 C 
BRANCH  25  26
ATOM     26  C   UNL     1      10.488 -61.988 -23.961  1.00  0.00     0.063 A 
ATOM     27  C   UNL     1      10.031 -62.940 -23.066  1.00  0.00     0.213 A 
ATOM     28  C   UNL     1       9.497 -61.930 -24.993  1.00  0.00     0.143 A 
ATOM     29  O   UNL     1       8.837 -63.453 -23.465  1.00  0.00    -0.409 OA
ATOM     30  C   UNL     1       8.526 -62.837 -24.634  1.00  0.00     0.433 A 
BRANCH  30  31
ATOM     31  N   UNL     1       7.298 -63.217 -25.263  1.00  0.00     0.102 N 
ATOM     32  O   UNL     1       7.364 -63.853 -26.320  1.00  0.00    -0.256 OA
ATOM     33  O   UNL     1       6.266 -62.870 -24.676  1.00  0.00    -0.256 OA
ENDBRANCH  30  31
ENDBRANCH  25  26
ENDBRANCH  24  25
ENDBRANCH   1  19
TORSDOF 10
ENDMDL
MODEL 6
REMARK VINA RESULT:   -10.035      3.744     10.982
REMARK INTER + INTRA:         -16.329
REMARK INTER:                 -15.414
REMARK INTRA:                  -0.915
REMARK UNBOUND:                -0.722
REMARK SMILES COc1cc2c(cc1OC)S[C@@H](C(O)=CCc1cc[n+](Cc3coc([N+](=O)[O-])c3)cc1)C2
REMARK SMILES IDX 16 1 15 2 13 3 14 4 12 6 32 7 11 8 5 9 6 10 4 11 7 12 3 13
REMARK SMILES IDX 8 14 2 15 1 16 9 17 10 18 17 19 18 20 31 21 19 22 30 23
REMARK SMILES IDX 20 24 21 25 22 26 23 27 29 28 24 29 25 30 26 31 27 32 28 33
REMARK H PARENT 14 5
ROOT
ATOM      1  C   UNL     1      10.412 -54.436 -21.955  1.00  0.00     0.067 C 
ENDROOT
BRANCH   1   2
ATOM      2  C   UNL     1      11.016 -55.810 -21.919  1.00  0.00     0.020 C 
BRANCH   2   3
ATOM      3  C   UNL     1      10.731 -56.953 -22.566  1.00  0.00     0.102 C 
BRANCH   3   4
ATOM      4  O   UNL     1       9.624 -56.858 -23.419  1.00  0.00    -0.511 OA
ATOM      5  H   UNL     1       8.887 -57.402 -23.091  1.00  0.00     0.293 HD
ENDBRANCH   3   4
BRANCH   3   6
ATOM      6  C   UNL     1      11.394 -58.329 -22.565  1.00  0.00     0.121 C 
ATOM      7  C   UNL     1      10.475 -59.412 -21.953  1.00  0.00     0.059 C 
ATOM      8  S   UNL     1      11.981 -58.953 -24.166  1.00  0.00    -0.114 SA
ATOM      9  C   UNL     1      10.004 -60.306 -23.063  1.00  0.00    -0.029 A 
ATOM     10  C   UNL     1      10.753 -60.221 -24.236  1.00  0.00     0.015 A 
ATOM     11  C   UNL     1       8.932 -61.186 -22.977  1.00  0.00     0.055 A 
ATOM     12  C   UNL     1      10.464 -61.014 -25.339  1.00  0.00     0.065 A 
ATOM     13  C   UNL     1       8.614 -61.966 -24.091  1.00  0.00     0.161 A 
ATOM     14  C   UNL     1       9.373 -61.885 -25.277  1.00  0.00     0.161 A 
BRANCH  13  15
ATOM     15  O   UNL     1       7.476 -62.727 -23.987  1.00  0.00    -0.493 OA
ATOM     16  C   UNL     1       7.677 -63.862 -23.136  1.00  0.00     0.278 C 
ENDBRANCH  13  15
BRANCH  14  17
ATOM     17  O   UNL     1       8.917 -62.588 -26.363  1.00  0.00    -0.493 OA
ATOM     18  C   UNL     1       9.117 -61.948 -27.625  1.00  0.00     0.278 C 
ENDBRANCH  14  17
ENDBRANCH   3   6
ENDBRANCH   2   3
ENDBRANCH   1   2
BRANCH   1  19
ATOM     19  C   UNL     1      11.199 -53.382 -22.707  1.00  0.00    -0.032 A 
ATOM     20  C   UNL     1      11.348 -52.112 -22.143  1.00  0.00     0.075 A 
ATOM     21  C   UNL     1      11.763 -53.609 -23.963  1.00  0.00     0.075 A 
ATOM     22  C   UNL     1      12.112 -51.147 -22.790  1.00  0.00     0.308 A 
ATOM     23  C   UNL     1      12.525 -52.617 -24.573  1.00  0.00     0.308 A 
ATOM     24  N   UNL     1      12.705 -51.417 -23.973  1.00  0.00    -0.201 N 
BRANCH  24  25
ATOM     25  C   UNL     1      13.608 -50.413 -24.584  1.00  0.00     0.397 C 
BRANCH  25  26
ATOM     26  C   UNL     1      15.007 -50.925 -24.611  1.00  0.00     0.063 A 
ATOM     27  C   UNL     1      15.958 -50.818 -23.610  1.00  0.00     0.213 A 
ATOM     28  C   UNL     1      15.661 -51.607 -25.686  1.00  0.00     0.143 A 
ATOM     29  O   UNL     1      17.131 -51.394 -23.987  1.00  0.00    -0.409 OA
ATOM     30  C   UNL     1      16.940 -51.864 -25.246  1.00  0.00     0.433 A 
BRANCH  30  31
ATOM     31  N   UNL     1      18.049 -52.518 -25.871  1.00  0.00     0.102 N 
ATOM     32  O   UNL     1      19.180 -52.270 -25.442  1.00  0.00    -0.256 OA
ATOM     33  O   UNL     1      17.766 -53.287 -26.798  1.00  0.00    -0.256 OA
ENDBRANCH  30  31
ENDBRANCH  25  26
ENDBRANCH  24  25
ENDBRANCH   1  19
TORSDOF 10
ENDMDL
MODEL 7
REMARK VINA RESULT:    -9.682      2.957      4.040
REMARK INTER + INTRA:         -15.781
REMARK INTER:                 -14.734
REMARK INTRA:                  -1.047
REMARK UNBOUND:                -0.722
REMARK SMILES COc1cc2c(cc1OC)S[C@@H](C(O)=CCc1cc[n+](Cc3coc([N+](=O)[O-])c3)cc1)C2
REMARK SMILES IDX 16 1 15 2 13 3 14 4 12 6 32 7 11 8 5 9 6 10 4 11 7 12 3 13
REMARK SMILES IDX 8 14 2 15 1 16 9 17 10 18 17 19 18 20 31 21 19 22 30 23
REMARK SMILES IDX 20 24 21 25 22 26 23 27 29 28 24 29 25 30 26 31 27 32 28 33
REMARK H PARENT 14 5
ROOT
ATOM      1  C   UNL     1       9.658 -54.969 -22.001  1.00  0.00     0.067 C 
ENDROOT
BRANCH   1   2
ATOM      2  C   UNL     1       9.905 -53.679 -22.728  1.00  0.00     0.020 C 
BRANCH   2   3
ATOM      3  C   UNL     1       9.963 -52.398 -22.327  1.00  0.00     0.102 C 
BRANCH   3   4
ATOM      4  O   UNL     1       8.715 -51.762 -22.290  1.00  0.00    -0.511 OA
ATOM      5  H   UNL     1       7.999 -52.412 -22.181  1.00  0.00     0.293 HD
ENDBRANCH   3   4
BRANCH   3   6
ATOM      6  C   UNL     1      11.123 -51.510 -21.883  1.00  0.00     0.121 C 
ATOM      7  C   UNL     1      12.488 -52.069 -22.347  1.00  0.00     0.059 C 
ATOM      8  S   UNL     1      11.052 -49.765 -22.381  1.00  0.00    -0.114 SA
ATOM      9  C   UNL     1      13.012 -51.179 -23.435  1.00  0.00    -0.029 A 
ATOM     10  C   UNL     1      12.405 -49.925 -23.504  1.00  0.00     0.015 A 
ATOM     11  C   UNL     1      14.035 -51.512 -24.315  1.00  0.00     0.055 A 
ATOM     12  C   UNL     1      12.807 -48.975 -24.435  1.00  0.00     0.065 A 
ATOM     13  C   UNL     1      14.427 -50.576 -25.274  1.00  0.00     0.161 A 
ATOM     14  C   UNL     1      13.818 -49.306 -25.342  1.00  0.00     0.161 A 
BRANCH  13  15
ATOM     15  O   UNL     1      15.357 -51.004 -26.189  1.00  0.00    -0.493 OA
ATOM     16  C   UNL     1      16.688 -50.916 -25.667  1.00  0.00     0.278 C 
ENDBRANCH  13  15
BRANCH  14  17
ATOM     17  O   UNL     1      14.171 -48.496 -26.392  1.00  0.00    -0.493 OA
ATOM     18  C   UNL     1      14.214 -47.100 -26.090  1.00  0.00     0.278 C 
ENDBRANCH  14  17
ENDBRANCH   3   6
ENDBRANCH   2   3
ENDBRANCH   1   2
BRANCH   1  19
ATOM     19  C   UNL     1      10.064 -56.234 -22.731  1.00  0.00    -0.032 A 
ATOM     20  C   UNL     1      11.398 -56.397 -23.117  1.00  0.00     0.075 A 
ATOM     21  C   UNL     1       9.159 -57.240 -23.066  1.00  0.00     0.075 A 
ATOM     22  C   UNL     1      11.803 -57.573 -23.739  1.00  0.00     0.308 A 
ATOM     23  C   UNL     1       9.608 -58.403 -23.683  1.00  0.00     0.308 A 
ATOM     24  N   UNL     1      10.917 -58.561 -23.990  1.00  0.00    -0.201 N 
BRANCH  24  25
ATOM     25  C   UNL     1      11.397 -59.848 -24.546  1.00  0.00     0.397 C 
BRANCH  25  26
ATOM     26  C   UNL     1      11.246 -59.859 -26.028  1.00  0.00     0.063 A 
ATOM     27  C   UNL     1      10.258 -60.490 -26.765  1.00  0.00     0.213 A 
ATOM     28  C   UNL     1      12.105 -59.242 -26.993  1.00  0.00     0.143 A 
ATOM     29  O   UNL     1      10.441 -60.293 -28.098  1.00  0.00    -0.409 OA
ATOM     30  C   UNL     1      11.564 -59.540 -28.223  1.00  0.00     0.433 A 
BRANCH  30  31
ATOM     31  N   UNL     1      11.972 -59.199 -29.551  1.00  0.00     0.102 N 
ATOM     32  O   UNL     1      12.491 -58.092 -29.729  1.00  0.00    -0.256 OA
ATOM     33  O   UNL     1      11.768 -60.062 -30.414  1.00  0.00    -0.256 OA
ENDBRANCH  30  31
ENDBRANCH  25  26
ENDBRANCH  24  25
ENDBRANCH   1  19
TORSDOF 10
ENDMDL
MODEL 8
REMARK VINA RESULT:    -9.426      3.523      6.089
REMARK INTER + INTRA:         -15.383
REMARK INTER:                 -14.471
REMARK INTRA:                  -0.911
REMARK UNBOUND:                -0.722
REMARK SMILES COc1cc2c(cc1OC)S[C@@H](C(O)=CCc1cc[n+](Cc3coc([N+](=O)[O-])c3)cc1)C2
REMARK SMILES IDX 16 1 15 2 13 3 14 4 12 6 32 7 11 8 5 9 6 10 4 11 7 12 3 13
REMARK SMILES IDX 8 14 2 15 1 16 9 17 10 18 17 19 18 20 31 21 19 22 30 23
REMARK SMILES IDX 20 24 21 25 22 26 23 27 29 28 24 29 25 30 26 31 27 32 28 33
REMARK H PARENT 14 5
ROOT
ATOM      1  C   UNL     1      10.490 -52.436 -22.502  1.00  0.00     0.067 C 
ENDROOT
BRANCH   1   2
ATOM      2  C   UNL     1      11.584 -51.448 -22.781  1.00  0.00     0.020 C 
BRANCH   2   3
ATOM      3  C   UNL     1      11.659 -50.110 -22.678  1.00  0.00     0.102 C 
BRANCH   3   4
ATOM      4  O   UNL     1      10.569 -49.534 -22.013  1.00  0.00    -0.511 OA
ATOM      5  H   UNL     1      10.036 -48.996 -22.624  1.00  0.00     0.293 HD
ENDBRANCH   3   4
BRANCH   3   6
ATOM      6  C   UNL     1      12.713 -49.101 -23.127  1.00  0.00     0.121 C 
ATOM      7  C   UNL     1      12.176 -48.157 -24.229  1.00  0.00     0.059 C 
ATOM      8  S   UNL     1      13.453 -48.062 -21.834  1.00  0.00    -0.114 SA
ATOM      9  C   UNL     1      11.995 -46.794 -23.628  1.00  0.00    -0.029 A 
ATOM     10  C   UNL     1      12.674 -46.593 -22.427  1.00  0.00     0.015 A 
ATOM     11  C   UNL     1      11.246 -45.767 -24.191  1.00  0.00     0.055 A 
ATOM     12  C   UNL     1      12.636 -45.370 -21.768  1.00  0.00     0.065 A 
ATOM     13  C   UNL     1      11.176 -44.543 -23.522  1.00  0.00     0.161 A 
ATOM     14  C   UNL     1      11.866 -44.336 -22.310  1.00  0.00     0.161 A 
BRANCH  13  15
ATOM     15  O   UNL     1      10.328 -43.609 -24.064  1.00  0.00    -0.493 OA
ATOM     16  C   UNL     1      11.021 -42.716 -24.944  1.00  0.00     0.278 C 
ENDBRANCH  13  15
BRANCH  14  17
ATOM     17  O   UNL     1      11.641 -43.152 -21.654  1.00  0.00    -0.493 OA
ATOM     18  C   UNL     1      12.763 -42.269 -21.600  1.00  0.00     0.278 C 
ENDBRANCH  14  17
ENDBRANCH   3   6
ENDBRANCH   2   3
ENDBRANCH   1   2
BRANCH   1  19
ATOM     19  C   UNL     1      10.841 -53.896 -22.707  1.00  0.00    -0.032 A 
ATOM     20  C   UNL     1      10.769 -54.772 -21.621  1.00  0.00     0.075 A 
ATOM     21  C   UNL     1      11.268 -54.408 -23.933  1.00  0.00     0.075 A 
ATOM     22  C   UNL     1      11.035 -56.126 -21.799  1.00  0.00     0.308 A 
ATOM     23  C   UNL     1      11.517 -55.770 -24.068  1.00  0.00     0.308 A 
ATOM     24  N   UNL     1      11.378 -56.607 -23.014  1.00  0.00    -0.201 N 
BRANCH  24  25
ATOM     25  C   UNL     1      11.541 -58.068 -23.201  1.00  0.00     0.397 C 
BRANCH  25  26
ATOM     26  C   UNL     1      10.233 -58.760 -23.029  1.00  0.00     0.063 A 
ATOM     27  C   UNL     1       9.943 -59.802 -22.164  1.00  0.00     0.213 A 
ATOM     28  C   UNL     1       9.017 -58.507 -23.741  1.00  0.00     0.143 A 
ATOM     29  O   UNL     1       8.646 -60.190 -22.285  1.00  0.00    -0.409 OA
ATOM     30  C   UNL     1       8.097 -59.402 -23.244  1.00  0.00     0.433 A 
BRANCH  30  31
ATOM     31  N   UNL     1       6.719 -59.626 -23.559  1.00  0.00     0.102 N 
ATOM     32  O   UNL     1       6.378 -60.770 -23.875  1.00  0.00    -0.256 OA
ATOM     33  O   UNL     1       5.983 -58.635 -23.481  1.00  0.00    -0.256 OA
ENDBRANCH  30  31
ENDBRANCH  25  26
ENDBRANCH  24  25
ENDBRANCH   1  19
TORSDOF 10
ENDMDL
MODEL 9
REMARK VINA RESULT:    -9.388      3.293      5.515
REMARK INTER + INTRA:         -15.323
REMARK INTER:                 -14.181
REMARK INTRA:                  -1.142
REMARK UNBOUND:                -0.722
REMARK SMILES COc1cc2c(cc1OC)S[C@@H](C(O)=CCc1cc[n+](Cc3coc([N+](=O)[O-])c3)cc1)C2
REMARK SMILES IDX 16 1 15 2 13 3 14 4 12 6 32 7 11 8 5 9 6 10 4 11 7 12 3 13
REMARK SMILES IDX 8 14 2 15 1 16 9 17 10 18 17 19 18 20 31 21 19 22 30 23
REMARK SMILES IDX 20 24 21 25 22 26 23 27 29 28 24 29 25 30 26 31 27 32 28 33
REMARK H PARENT 14 5
ROOT
ATOM      1  C   UNL     1      10.481 -52.440 -22.013  1.00  0.00     0.067 C 
ENDROOT
BRANCH   1   2
ATOM      2  C   UNL     1      11.325 -51.382 -22.663  1.00  0.00     0.020 C 
BRANCH   2   3
ATOM      3  C   UNL     1      11.419 -50.053 -22.493  1.00  0.00     0.102 C 
BRANCH   3   4
ATOM      4  O   UNL     1      10.264 -49.469 -21.958  1.00  0.00    -0.511 OA
ATOM      5  H   UNL     1      10.493 -48.754 -21.339  1.00  0.00     0.293 HD
ENDBRANCH   3   4
BRANCH   3   6
ATOM      6  C   UNL     1      12.550 -49.060 -22.752  1.00  0.00     0.121 C 
ATOM      7  C   UNL     1      13.938 -49.742 -22.711  1.00  0.00     0.059 C 
ATOM      8  S   UNL     1      12.460 -48.101 -24.292  1.00  0.00    -0.114 SA
ATOM      9  C   UNL     1      14.474 -49.794 -24.112  1.00  0.00    -0.029 A 
ATOM     10  C   UNL     1      13.845 -48.930 -25.007  1.00  0.00     0.015 A 
ATOM     11  C   UNL     1      15.526 -50.598 -24.533  1.00  0.00     0.055 A 
ATOM     12  C   UNL     1      14.254 -48.836 -26.332  1.00  0.00     0.065 A 
ATOM     13  C   UNL     1      15.926 -50.534 -25.870  1.00  0.00     0.161 A 
ATOM     14  C   UNL     1      15.294 -49.658 -26.776  1.00  0.00     0.161 A 
BRANCH  13  15
ATOM     15  O   UNL     1      16.888 -51.435 -26.255  1.00  0.00    -0.493 OA
ATOM     16  C   UNL     1      17.424 -52.144 -25.131  1.00  0.00     0.278 C 
ENDBRANCH  13  15
BRANCH  14  17
ATOM     17  O   UNL     1      15.660 -49.749 -28.095  1.00  0.00    -0.493 OA
ATOM     18  C   UNL     1      16.589 -48.755 -28.535  1.00  0.00     0.278 C 
ENDBRANCH  14  17
ENDBRANCH   3   6
ENDBRANCH   2   3
ENDBRANCH   1   2
BRANCH   1  19
ATOM     19  C   UNL     1      10.808 -53.873 -22.380  1.00  0.00    -0.032 A 
ATOM     20  C   UNL     1      10.797 -54.851 -21.381  1.00  0.00     0.075 A 
ATOM     21  C   UNL     1      11.154 -54.265 -23.673  1.00  0.00     0.075 A 
ATOM     22  C   UNL     1      11.041 -56.181 -21.705  1.00  0.00     0.308 A 
ATOM     23  C   UNL     1      11.385 -55.607 -23.955  1.00  0.00     0.308 A 
ATOM     24  N   UNL     1      11.305 -56.542 -22.980  1.00  0.00    -0.201 N 
BRANCH  24  25
ATOM     25  C   UNL     1      11.445 -57.978 -23.318  1.00  0.00     0.397 C 
BRANCH  25  26
ATOM     26  C   UNL     1      10.153 -58.689 -23.100  1.00  0.00     0.063 A 
ATOM     27  C   UNL     1       9.914 -59.746 -22.239  1.00  0.00     0.213 A 
ATOM     28  C   UNL     1       8.905 -58.441 -23.755  1.00  0.00     0.143 A 
ATOM     29  O   UNL     1       8.617 -60.149 -22.309  1.00  0.00    -0.409 OA
ATOM     30  C   UNL     1       8.018 -59.354 -23.233  1.00  0.00     0.433 A 
BRANCH  30  31
ATOM     31  N   UNL     1       6.631 -59.590 -23.492  1.00  0.00     0.102 N 
ATOM     32  O   UNL     1       6.297 -60.720 -23.862  1.00  0.00    -0.256 OA
ATOM     33  O   UNL     1       5.880 -58.623 -23.314  1.00  0.00    -0.256 OA
ENDBRANCH  30  31
ENDBRANCH  25  26
ENDBRANCH  24  25
ENDBRANCH   1  19
TORSDOF 10
ENDMDL
