MODEL 1
REMARK VINA RESULT:   -12.595      0.000      0.000
REMARK INTER + INTRA:         -16.799
REMARK INTER:                 -16.277
REMARK INTRA:                  -0.522
REMARK UNBOUND:                -0.522
REMARK SMILES O=C1CC(=NCCNc2c3c(nc4cc(Cl)ccc24)CCCC3)C(=O)c2ccccc21
REMARK SMILES IDX 6 1 5 2 4 3 3 4 2 5 31 6 24 7 30 8 26 9 29 10 27 11 28 12
REMARK SMILES IDX 1 13 25 14 7 15 8 16 9 18 10 19 19 20 11 21 23 22 18 23
REMARK SMILES IDX 13 24 12 25 20 26 22 27 17 28 14 29 21 30 15 31 16 32
REMARK H PARENT 8 17
ROOT
ATOM      1  C   UNL     1      11.666 -57.953 -22.826  1.00  0.00     0.163 C 
ENDROOT
BRANCH   1   2
ATOM      2  N   UNL     1      11.754 -56.928 -23.865  1.00  0.00    -0.283 NA
BRANCH   2   3
ATOM      3  C   UNL     1      11.269 -55.754 -23.642  1.00  0.00     0.091 C 
ATOM      4  C   UNL     1      10.260 -55.373 -22.603  1.00  0.00     0.141 C 
ATOM      5  C   UNL     1      10.497 -54.036 -21.957  1.00  0.00     0.169 C 
ATOM      6  C   UNL     1      11.333 -53.032 -22.655  1.00  0.00     0.029 A 
ATOM      7  C   UNL     1      11.735 -54.619 -24.528  1.00  0.00     0.207 C 
ATOM      8  C   UNL     1      11.521 -51.773 -22.068  1.00  0.00     0.012 A 
ATOM      9  C   UNL     1      11.902 -53.301 -23.900  1.00  0.00     0.035 A 
ATOM     10  C   UNL     1      12.267 -50.794 -22.728  1.00  0.00     0.001 A 
ATOM     11  C   UNL     1      12.641 -52.315 -24.567  1.00  0.00     0.013 A 
ATOM     12  C   UNL     1      12.823 -51.064 -23.977  1.00  0.00     0.001 A 
ATOM     13  O   UNL     1       9.967 -53.749 -20.885  1.00  0.00    -0.294 OA
ATOM     14  O   UNL     1      11.962 -54.807 -25.712  1.00  0.00    -0.287 OA
ENDBRANCH   2   3
ENDBRANCH   1   2
BRANCH   1  15
ATOM     15  C   UNL     1      10.539 -58.938 -23.179  1.00  0.00     0.136 C 
BRANCH  15  16
ATOM     16  N   UNL     1      11.123 -60.240 -23.556  1.00  0.00    -0.382 N 
ATOM     17  H   UNL     1      11.059 -60.886 -22.773  1.00  0.00     0.160 HD
BRANCH  16  18
ATOM     18  C   UNL     1      10.460 -60.803 -24.687  1.00  0.00     0.049 A 
ATOM     19  C   UNL     1       9.451 -61.761 -24.463  1.00  0.00    -0.003 A 
ATOM     20  C   UNL     1      10.844 -60.478 -26.019  1.00  0.00     0.024 A 
ATOM     21  C   UNL     1       8.825 -62.318 -25.578  1.00  0.00     0.046 A 
ATOM     22  C   UNL     1       8.983 -62.091 -23.065  1.00  0.00     0.039 C 
ATOM     23  C   UNL     1      11.866 -59.554 -26.359  1.00  0.00     0.014 A 
ATOM     24  C   UNL     1      10.152 -61.123 -27.064  1.00  0.00     0.074 A 
ATOM     25  N   UNL     1       9.176 -62.015 -26.850  1.00  0.00    -0.252 NA
ATOM     26  C   UNL     1       7.737 -63.351 -25.443  1.00  0.00     0.056 C 
ATOM     27  C   UNL     1       8.110 -63.343 -22.980  1.00  0.00     0.005 C 
ATOM     28  C   UNL     1      12.184 -59.284 -27.688  1.00  0.00     0.021 A 
ATOM     29  C   UNL     1      10.482 -60.841 -28.381  1.00  0.00     0.049 A 
ATOM     30  C   UNL     1       7.058 -63.335 -24.078  1.00  0.00     0.007 C 
ATOM     31  C   UNL     1      11.486 -59.931 -28.696  1.00  0.00     0.043 A 
ATOM     32  Cl  UNL     1      11.866 -59.608 -30.343  1.00  0.00    -0.084 Cl
ENDBRANCH  16  18
ENDBRANCH  15  16
ENDBRANCH   1  15
TORSDOF 5
ENDMDL
MODEL 2
REMARK VINA RESULT:   -12.017      1.995      3.855
REMARK INTER + INTRA:         -16.052
REMARK INTER:                 -15.687
REMARK INTRA:                  -0.365
REMARK UNBOUND:                -0.522
REMARK SMILES O=C1CC(=NCCNc2c3c(nc4cc(Cl)ccc24)CCCC3)C(=O)c2ccccc21
REMARK SMILES IDX 6 1 5 2 4 3 3 4 2 5 31 6 24 7 30 8 26 9 29 10 27 11 28 12
REMARK SMILES IDX 1 13 25 14 7 15 8 16 9 18 10 19 19 20 11 21 23 22 18 23
REMARK SMILES IDX 13 24 12 25 20 26 22 27 17 28 14 29 21 30 15 31 16 32
REMARK H PARENT 8 17
ROOT
ATOM      1  C   UNL     1      11.395 -57.181 -22.198  1.00  0.00     0.163 C 
ENDROOT
BRANCH   1   2
ATOM      2  N   UNL     1      11.395 -56.503 -23.493  1.00  0.00    -0.283 NA
BRANCH   2   3
ATOM      3  C   UNL     1      11.131 -55.242 -23.550  1.00  0.00     0.091 C 
ATOM      4  C   UNL     1      10.209 -54.469 -22.657  1.00  0.00     0.141 C 
ATOM      5  C   UNL     1      10.685 -53.085 -22.310  1.00  0.00     0.169 C 
ATOM      6  C   UNL     1      11.687 -52.424 -23.178  1.00  0.00     0.029 A 
ATOM      7  C   UNL     1      11.792 -54.431 -24.643  1.00  0.00     0.207 C 
ATOM      8  C   UNL     1      12.101 -51.120 -22.873  1.00  0.00     0.012 A 
ATOM      9  C   UNL     1      12.196 -53.058 -24.312  1.00  0.00     0.035 A 
ATOM     10  C   UNL     1      13.010 -50.458 -23.701  1.00  0.00     0.001 A 
ATOM     11  C   UNL     1      13.099 -52.390 -25.149  1.00  0.00     0.013 A 
ATOM     12  C   UNL     1      13.506 -51.091 -24.839  1.00  0.00     0.001 A 
ATOM     13  O   UNL     1      10.218 -52.479 -21.348  1.00  0.00    -0.294 OA
ATOM     14  O   UNL     1      11.980 -54.913 -25.749  1.00  0.00    -0.287 OA
ENDBRANCH   2   3
ENDBRANCH   1   2
BRANCH   1  15
ATOM     15  C   UNL     1      10.953 -58.642 -22.390  1.00  0.00     0.136 C 
BRANCH  15  16
ATOM     16  N   UNL     1      11.915 -59.336 -23.268  1.00  0.00    -0.382 N 
ATOM     17  H   UNL     1      12.524 -59.930 -22.710  1.00  0.00     0.160 HD
BRANCH  16  18
ATOM     18  C   UNL     1      11.250 -60.130 -24.248  1.00  0.00     0.049 A 
ATOM     19  C   UNL     1      11.391 -59.778 -25.605  1.00  0.00    -0.003 A 
ATOM     20  C   UNL     1      10.397 -61.211 -23.883  1.00  0.00     0.024 A 
ATOM     21  C   UNL     1      10.718 -60.552 -26.551  1.00  0.00     0.046 A 
ATOM     22  C   UNL     1      12.327 -58.671 -26.032  1.00  0.00     0.039 C 
ATOM     23  C   UNL     1      10.157 -61.631 -22.549  1.00  0.00     0.014 A 
ATOM     24  C   UNL     1       9.754 -61.905 -24.929  1.00  0.00     0.074 A 
ATOM     25  N   UNL     1       9.908 -61.585 -26.219  1.00  0.00    -0.252 NA
ATOM     26  C   UNL     1      10.804 -60.253 -28.025  1.00  0.00     0.056 C 
ATOM     27  C   UNL     1      12.142 -58.223 -27.481  1.00  0.00     0.005 C 
ATOM     28  C   UNL     1       9.310 -62.702 -22.269  1.00  0.00     0.021 A 
ATOM     29  C   UNL     1       8.916 -62.969 -24.630  1.00  0.00     0.049 A 
ATOM     30  C   UNL     1      12.030 -59.429 -28.402  1.00  0.00     0.007 C 
ATOM     31  C   UNL     1       8.693 -63.369 -23.316  1.00  0.00     0.043 A 
ATOM     32  Cl  UNL     1       7.645 -64.693 -22.988  1.00  0.00    -0.084 Cl
ENDBRANCH  16  18
ENDBRANCH  15  16
ENDBRANCH   1  15
TORSDOF 5
ENDMDL
MODEL 3
REMARK VINA RESULT:   -11.151      0.963      2.063
REMARK INTER + INTRA:         -14.932
REMARK INTER:                 -15.218
REMARK INTRA:                   0.285
REMARK UNBOUND:                -0.522
REMARK SMILES O=C1CC(=NCCNc2c3c(nc4cc(Cl)ccc24)CCCC3)C(=O)c2ccccc21
REMARK SMILES IDX 6 1 5 2 4 3 3 4 2 5 31 6 24 7 30 8 26 9 29 10 27 11 28 12
REMARK SMILES IDX 1 13 25 14 7 15 8 16 9 18 10 19 19 20 11 21 23 22 18 23
REMARK SMILES IDX 13 24 12 25 20 26 22 27 17 28 14 29 21 30 15 31 16 32
REMARK H PARENT 8 17
ROOT
ATOM      1  C   UNL     1      10.285 -57.507 -22.996  1.00  0.00     0.163 C 
ENDROOT
BRANCH   1   2
ATOM      2  N   UNL     1      10.000 -56.155 -23.472  1.00  0.00    -0.283 NA
BRANCH   2   3
ATOM      3  C   UNL     1      10.942 -55.274 -23.484  1.00  0.00     0.091 C 
ATOM      4  C   UNL     1      12.013 -55.107 -24.518  1.00  0.00     0.141 C 
ATOM      5  C   UNL     1      12.373 -53.680 -24.827  1.00  0.00     0.169 C 
ATOM      6  C   UNL     1      12.052 -52.623 -23.839  1.00  0.00     0.029 A 
ATOM      7  C   UNL     1      11.014 -54.302 -22.326  1.00  0.00     0.207 C 
ATOM      8  C   UNL     1      12.423 -51.299 -24.113  1.00  0.00     0.012 A 
ATOM      9  C   UNL     1      11.428 -52.925 -22.629  1.00  0.00     0.035 A 
ATOM     10  C   UNL     1      12.173 -50.292 -23.178  1.00  0.00     0.001 A 
ATOM     11  C   UNL     1      11.188 -51.916 -21.687  1.00  0.00     0.013 A 
ATOM     12  C   UNL     1      11.560 -50.600 -21.965  1.00  0.00     0.001 A 
ATOM     13  O   UNL     1      12.970 -53.388 -25.860  1.00  0.00    -0.294 OA
ATOM     14  O   UNL     1      10.733 -54.661 -21.194  1.00  0.00    -0.287 OA
ENDBRANCH   2   3
ENDBRANCH   1   2
BRANCH   1  15
ATOM     15  C   UNL     1      11.636 -57.972 -23.566  1.00  0.00     0.136 C 
BRANCH  15  16
ATOM     16  N   UNL     1      11.804 -59.416 -23.318  1.00  0.00    -0.382 N 
ATOM     17  H   UNL     1      11.473 -59.647 -22.385  1.00  0.00     0.160 HD
BRANCH  16  18
ATOM     18  C   UNL     1      11.092 -60.197 -24.277  1.00  0.00     0.049 A 
ATOM     19  C   UNL     1      10.246 -61.223 -23.810  1.00  0.00    -0.003 A 
ATOM     20  C   UNL     1      11.275 -60.013 -25.677  1.00  0.00     0.024 A 
ATOM     21  C   UNL     1       9.572 -61.991 -24.760  1.00  0.00     0.046 A 
ATOM     22  C   UNL     1       9.988 -61.412 -22.334  1.00  0.00     0.039 C 
ATOM     23  C   UNL     1      12.125 -59.035 -26.256  1.00  0.00     0.014 A 
ATOM     24  C   UNL     1      10.555 -60.867 -26.538  1.00  0.00     0.074 A 
ATOM     25  N   UNL     1       9.732 -61.824 -26.094  1.00  0.00    -0.252 NA
ATOM     26  C   UNL     1       8.647 -63.112 -24.361  1.00  0.00     0.056 C 
ATOM     27  C   UNL     1       9.298 -62.731 -21.987  1.00  0.00     0.005 C 
ATOM     28  C   UNL     1      12.250 -58.912 -27.639  1.00  0.00     0.021 A 
ATOM     29  C   UNL     1      10.691 -60.729 -27.912  1.00  0.00     0.049 A 
ATOM     30  C   UNL     1       8.134 -62.988 -22.931  1.00  0.00     0.007 C 
ATOM     31  C   UNL     1      11.528 -59.763 -28.462  1.00  0.00     0.043 A 
ATOM     32  Cl  UNL     1      11.671 -59.624 -30.171  1.00  0.00    -0.084 Cl
ENDBRANCH  16  18
ENDBRANCH  15  16
ENDBRANCH   1  15
TORSDOF 5
ENDMDL
MODEL 4
REMARK VINA RESULT:   -10.687      3.337      8.916
REMARK INTER + INTRA:         -14.333
REMARK INTER:                 -14.154
REMARK INTRA:                  -0.179
REMARK UNBOUND:                -0.522
REMARK SMILES O=C1CC(=NCCNc2c3c(nc4cc(Cl)ccc24)CCCC3)C(=O)c2ccccc21
REMARK SMILES IDX 6 1 5 2 4 3 3 4 2 5 31 6 24 7 30 8 26 9 29 10 27 11 28 12
REMARK SMILES IDX 1 13 25 14 7 15 8 16 9 18 10 19 19 20 11 21 23 22 18 23
REMARK SMILES IDX 13 24 12 25 20 26 22 27 17 28 14 29 21 30 15 31 16 32
REMARK H PARENT 8 17
ROOT
ATOM      1  C   UNL     1      12.409 -56.913 -25.116  1.00  0.00     0.163 C 
ENDROOT
BRANCH   1   2
ATOM      2  N   UNL     1      12.261 -57.863 -26.217  1.00  0.00    -0.283 NA
BRANCH   2   3
ATOM      3  C   UNL     1      12.045 -59.108 -25.958  1.00  0.00     0.091 C 
ATOM      4  C   UNL     1      12.581 -59.898 -24.804  1.00  0.00     0.141 C 
ATOM      5  C   UNL     1      11.617 -60.896 -24.224  1.00  0.00     0.169 C 
ATOM      6  C   UNL     1      10.479 -61.367 -25.047  1.00  0.00     0.029 A 
ATOM      7  C   UNL     1      11.179 -59.889 -26.922  1.00  0.00     0.207 C 
ATOM      8  C   UNL     1       9.603 -62.325 -24.518  1.00  0.00     0.012 A 
ATOM      9  C   UNL     1      10.286 -60.906 -26.350  1.00  0.00     0.035 A 
ATOM     10  C   UNL     1       8.550 -62.819 -25.291  1.00  0.00     0.001 A 
ATOM     11  C   UNL     1       9.236 -61.410 -27.129  1.00  0.00     0.013 A 
ATOM     12  C   UNL     1       8.369 -62.364 -26.596  1.00  0.00     0.001 A 
ATOM     13  O   UNL     1      11.788 -61.360 -23.099  1.00  0.00    -0.294 OA
ATOM     14  O   UNL     1      11.229 -59.670 -28.122  1.00  0.00    -0.287 OA
ENDBRANCH   2   3
ENDBRANCH   1   2
BRANCH   1  15
ATOM     15  C   UNL     1      12.993 -55.597 -25.656  1.00  0.00     0.136 C 
BRANCH  15  16
ATOM     16  N   UNL     1      11.920 -54.589 -25.760  1.00  0.00    -0.382 N 
ATOM     17  H   UNL     1      11.015 -55.034 -25.627  1.00  0.00     0.160 HD
BRANCH  16  18
ATOM     18  C   UNL     1      12.081 -53.552 -24.794  1.00  0.00     0.049 A 
ATOM     19  C   UNL     1      11.421 -53.681 -23.556  1.00  0.00    -0.003 A 
ATOM     20  C   UNL     1      12.824 -52.371 -25.080  1.00  0.00     0.024 A 
ATOM     21  C   UNL     1      11.571 -52.649 -22.629  1.00  0.00     0.046 A 
ATOM     22  C   UNL     1      10.668 -54.941 -23.199  1.00  0.00     0.039 C 
ATOM     23  C   UNL     1      13.500 -52.122 -26.303  1.00  0.00     0.014 A 
ATOM     24  C   UNL     1      12.885 -51.389 -24.070  1.00  0.00     0.074 A 
ATOM     25  N   UNL     1      12.278 -51.523 -22.885  1.00  0.00    -0.252 NA
ATOM     26  C   UNL     1      10.904 -52.693 -21.279  1.00  0.00     0.056 C 
ATOM     27  C   UNL     1       9.776 -54.805 -21.966  1.00  0.00     0.005 C 
ATOM     28  C   UNL     1      14.211 -50.941 -26.509  1.00  0.00     0.021 A 
ATOM     29  C   UNL     1      13.598 -50.220 -24.294  1.00  0.00     0.049 A 
ATOM     30  C   UNL     1      10.521 -54.103 -20.842  1.00  0.00     0.007 C 
ATOM     31  C   UNL     1      14.257 -49.994 -25.498  1.00  0.00     0.043 A 
ATOM     32  Cl  UNL     1      15.131 -48.531 -25.737  1.00  0.00    -0.084 Cl
ENDBRANCH  16  18
ENDBRANCH  15  16
ENDBRANCH   1  15
TORSDOF 5
ENDMDL
MODEL 5
REMARK VINA RESULT:   -10.632      6.012      9.713
REMARK INTER + INTRA:         -14.261
REMARK INTER:                 -12.833
REMARK INTRA:                  -1.428
REMARK UNBOUND:                -0.522
REMARK SMILES O=C1CC(=NCCNc2c3c(nc4cc(Cl)ccc24)CCCC3)C(=O)c2ccccc21
REMARK SMILES IDX 6 1 5 2 4 3 3 4 2 5 31 6 24 7 30 8 26 9 29 10 27 11 28 12
REMARK SMILES IDX 1 13 25 14 7 15 8 16 9 18 10 19 19 20 11 21 23 22 18 23
REMARK SMILES IDX 13 24 12 25 20 26 22 27 17 28 14 29 21 30 15 31 16 32
REMARK H PARENT 8 17
ROOT
ATOM      1  C   UNL     1      10.144 -48.503 -22.879  1.00  0.00     0.163 C 
ENDROOT
BRANCH   1   2
ATOM      2  N   UNL     1      10.385 -47.354 -22.008  1.00  0.00    -0.283 NA
BRANCH   2   3
ATOM      3  C   UNL     1      11.433 -46.624 -22.192  1.00  0.00     0.091 C 
ATOM      4  C   UNL     1      12.612 -46.485 -21.279  1.00  0.00     0.141 C 
ATOM      5  C   UNL     1      13.938 -46.375 -21.978  1.00  0.00     0.169 C 
ATOM      6  C   UNL     1      13.977 -45.941 -23.394  1.00  0.00     0.029 A 
ATOM      7  C   UNL     1      11.495 -45.785 -23.450  1.00  0.00     0.207 C 
ATOM      8  C   UNL     1      15.217 -45.802 -24.032  1.00  0.00     0.012 A 
ATOM      9  C   UNL     1      12.809 -45.631 -24.090  1.00  0.00     0.035 A 
ATOM     10  C   UNL     1      15.283 -45.350 -25.352  1.00  0.00     0.001 A 
ATOM     11  C   UNL     1      12.875 -45.167 -25.411  1.00  0.00     0.013 A 
ATOM     12  C   UNL     1      14.113 -45.030 -26.039  1.00  0.00     0.001 A 
ATOM     13  O   UNL     1      14.989 -46.590 -21.378  1.00  0.00    -0.294 OA
ATOM     14  O   UNL     1      10.487 -45.268 -23.904  1.00  0.00    -0.287 OA
ENDBRANCH   2   3
ENDBRANCH   1   2
BRANCH   1  15
ATOM     15  C   UNL     1      10.132 -49.787 -22.033  1.00  0.00     0.136 C 
BRANCH  15  16
ATOM     16  N   UNL     1      11.514 -50.274 -21.858  1.00  0.00    -0.382 N 
ATOM     17  H   UNL     1      11.618 -50.693 -20.936  1.00  0.00     0.160 HD
BRANCH  16  18
ATOM     18  C   UNL     1      11.860 -51.235 -22.854  1.00  0.00     0.049 A 
ATOM     19  C   UNL     1      12.602 -50.803 -23.971  1.00  0.00    -0.003 A 
ATOM     20  C   UNL     1      11.413 -52.584 -22.780  1.00  0.00     0.024 A 
ATOM     21  C   UNL     1      12.916 -51.749 -24.947  1.00  0.00     0.046 A 
ATOM     22  C   UNL     1      13.137 -49.393 -24.058  1.00  0.00     0.039 C 
ATOM     23  C   UNL     1      10.635 -53.117 -21.719  1.00  0.00     0.014 A 
ATOM     24  C   UNL     1      11.776 -53.442 -23.839  1.00  0.00     0.074 A 
ATOM     25  N   UNL     1      12.502 -53.037 -24.888  1.00  0.00    -0.252 NA
ATOM     26  C   UNL     1      13.704 -51.386 -26.180  1.00  0.00     0.056 C 
ATOM     27  C   UNL     1      13.654 -49.007 -25.443  1.00  0.00     0.005 C 
ATOM     28  C   UNL     1      10.237 -54.453 -21.714  1.00  0.00     0.021 A 
ATOM     29  C   UNL     1      11.371 -54.768 -23.816  1.00  0.00     0.049 A 
ATOM     30  C   UNL     1      14.527 -50.113 -26.014  1.00  0.00     0.007 C 
ATOM     31  C   UNL     1      10.610 -55.274 -22.767  1.00  0.00     0.043 A 
ATOM     32  Cl  UNL     1      10.127 -56.925 -22.776  1.00  0.00    -0.084 Cl
ENDBRANCH  16  18
ENDBRANCH  15  16
ENDBRANCH   1  15
TORSDOF 5
ENDMDL
MODEL 6
REMARK VINA RESULT:   -10.612      6.130      9.262
REMARK INTER + INTRA:         -14.235
REMARK INTER:                 -12.858
REMARK INTRA:                  -1.377
REMARK UNBOUND:                -0.522
REMARK SMILES O=C1CC(=NCCNc2c3c(nc4cc(Cl)ccc24)CCCC3)C(=O)c2ccccc21
REMARK SMILES IDX 6 1 5 2 4 3 3 4 2 5 31 6 24 7 30 8 26 9 29 10 27 11 28 12
REMARK SMILES IDX 1 13 25 14 7 15 8 16 9 18 10 19 19 20 11 21 23 22 18 23
REMARK SMILES IDX 13 24 12 25 20 26 22 27 17 28 14 29 21 30 15 31 16 32
REMARK H PARENT 8 17
ROOT
ATOM      1  C   UNL     1      10.206 -48.541 -22.846  1.00  0.00     0.163 C 
ENDROOT
BRANCH   1   2
ATOM      2  N   UNL     1      10.408 -47.359 -22.010  1.00  0.00    -0.283 NA
BRANCH   2   3
ATOM      3  C   UNL     1      11.456 -46.628 -22.186  1.00  0.00     0.091 C 
ATOM      4  C   UNL     1      12.649 -46.525 -21.285  1.00  0.00     0.141 C 
ATOM      5  C   UNL     1      13.966 -46.396 -21.998  1.00  0.00     0.169 C 
ATOM      6  C   UNL     1      13.987 -45.916 -23.400  1.00  0.00     0.029 A 
ATOM      7  C   UNL     1      11.506 -45.749 -23.416  1.00  0.00     0.207 C 
ATOM      8  C   UNL     1      15.219 -45.762 -24.050  1.00  0.00     0.012 A 
ATOM      9  C   UNL     1      12.810 -45.579 -24.069  1.00  0.00     0.035 A 
ATOM     10  C   UNL     1      15.268 -45.268 -25.355  1.00  0.00     0.001 A 
ATOM     11  C   UNL     1      12.861 -45.072 -25.375  1.00  0.00     0.013 A 
ATOM     12  C   UNL     1      14.091 -44.920 -26.016  1.00  0.00     0.001 A 
ATOM     13  O   UNL     1      15.024 -46.636 -21.420  1.00  0.00    -0.294 OA
ATOM     14  O   UNL     1      10.493 -45.213 -23.839  1.00  0.00    -0.287 OA
ENDBRANCH   2   3
ENDBRANCH   1   2
BRANCH   1  15
ATOM     15  C   UNL     1      10.204 -49.797 -21.958  1.00  0.00     0.136 C 
BRANCH  15  16
ATOM     16  N   UNL     1      11.579 -50.319 -21.842  1.00  0.00    -0.382 N 
ATOM     17  H   UNL     1      11.685 -50.819 -20.963  1.00  0.00     0.160 HD
BRANCH  16  18
ATOM     18  C   UNL     1      11.899 -51.194 -22.923  1.00  0.00     0.049 A 
ATOM     19  C   UNL     1      11.516 -52.547 -22.825  1.00  0.00    -0.003 A 
ATOM     20  C   UNL     1      12.652 -50.752 -24.048  1.00  0.00     0.024 A 
ATOM     21  C   UNL     1      11.853 -53.395 -23.880  1.00  0.00     0.046 A 
ATOM     22  C   UNL     1      10.672 -53.039 -21.672  1.00  0.00     0.039 C 
ATOM     23  C   UNL     1      13.115 -49.423 -24.233  1.00  0.00     0.014 A 
ATOM     24  C   UNL     1      12.949 -51.708 -25.040  1.00  0.00     0.074 A 
ATOM     25  N   UNL     1      12.564 -52.988 -24.958  1.00  0.00    -0.252 NA
ATOM     26  C   UNL     1      11.490 -54.858 -23.868  1.00  0.00     0.056 C 
ATOM     27  C   UNL     1      10.598 -54.562 -21.561  1.00  0.00     0.005 C 
ATOM     28  C   UNL     1      13.846 -49.063 -25.364  1.00  0.00     0.021 A 
ATOM     29  C   UNL     1      13.677 -51.331 -26.159  1.00  0.00     0.049 A 
ATOM     30  C   UNL     1      10.339 -55.185 -22.924  1.00  0.00     0.007 C 
ATOM     31  C   UNL     1      14.122 -50.023 -26.325  1.00  0.00     0.043 A 
ATOM     32  Cl  UNL     1      15.022 -49.595 -27.728  1.00  0.00    -0.084 Cl
ENDBRANCH  16  18
ENDBRANCH  15  16
ENDBRANCH   1  15
TORSDOF 5
ENDMDL
MODEL 7
REMARK VINA RESULT:   -10.496      2.394      4.634
REMARK INTER + INTRA:         -14.086
REMARK INTER:                 -13.920
REMARK INTRA:                  -0.165
REMARK UNBOUND:                -0.522
REMARK SMILES O=C1CC(=NCCNc2c3c(nc4cc(Cl)ccc24)CCCC3)C(=O)c2ccccc21
REMARK SMILES IDX 6 1 5 2 4 3 3 4 2 5 31 6 24 7 30 8 26 9 29 10 27 11 28 12
REMARK SMILES IDX 1 13 25 14 7 15 8 16 9 18 10 19 19 20 11 21 23 22 18 23
REMARK SMILES IDX 13 24 12 25 20 26 22 27 17 28 14 29 21 30 15 31 16 32
REMARK H PARENT 8 17
ROOT
ATOM      1  C   UNL     1      12.526 -56.004 -25.243  1.00  0.00     0.163 C 
ENDROOT
BRANCH   1   2
ATOM      2  N   UNL     1      11.811 -54.745 -25.043  1.00  0.00    -0.283 NA
BRANCH   2   3
ATOM      3  C   UNL     1      12.477 -53.669 -24.794  1.00  0.00     0.091 C 
ATOM      4  C   UNL     1      13.662 -53.143 -25.545  1.00  0.00     0.141 C 
ATOM      5  C   UNL     1      13.701 -51.647 -25.691  1.00  0.00     0.169 C 
ATOM      6  C   UNL     1      12.921 -50.808 -24.751  1.00  0.00     0.029 A 
ATOM      7  C   UNL     1      12.054 -52.836 -23.603  1.00  0.00     0.207 C 
ATOM      8  C   UNL     1      12.989 -49.412 -24.866  1.00  0.00     0.012 A 
ATOM      9  C   UNL     1      12.156 -51.377 -23.733  1.00  0.00     0.035 A 
ATOM     10  C   UNL     1      12.300 -48.598 -23.964  1.00  0.00     0.001 A 
ATOM     11  C   UNL     1      11.474 -50.560 -22.822  1.00  0.00     0.013 A 
ATOM     12  C   UNL     1      11.546 -49.172 -22.941  1.00  0.00     0.001 A 
ATOM     13  O   UNL     1      14.406 -51.113 -26.544  1.00  0.00    -0.294 OA
ATOM     14  O   UNL     1      11.643 -53.370 -22.585  1.00  0.00    -0.287 OA
ENDBRANCH   2   3
ENDBRANCH   1   2
BRANCH   1  15
ATOM     15  C   UNL     1      11.799 -57.127 -24.485  1.00  0.00     0.136 C 
BRANCH  15  16
ATOM     16  N   UNL     1      12.557 -58.385 -24.622  1.00  0.00    -0.382 N 
ATOM     17  H   UNL     1      12.877 -58.697 -23.708  1.00  0.00     0.160 HD
BRANCH  16  18
ATOM     18  C   UNL     1      11.765 -59.411 -25.219  1.00  0.00     0.049 A 
ATOM     19  C   UNL     1      11.635 -59.427 -26.622  1.00  0.00    -0.003 A 
ATOM     20  C   UNL     1      11.053 -60.360 -24.431  1.00  0.00     0.024 A 
ATOM     21  C   UNL     1      10.840 -60.423 -27.189  1.00  0.00     0.046 A 
ATOM     22  C   UNL     1      12.416 -58.469 -27.490  1.00  0.00     0.039 C 
ATOM     23  C   UNL     1      11.086 -60.416 -23.013  1.00  0.00     0.014 A 
ATOM     24  C   UNL     1      10.265 -61.306 -25.119  1.00  0.00     0.074 A 
ATOM     25  N   UNL     1      10.162 -61.335 -26.454  1.00  0.00    -0.252 NA
ATOM     26  C   UNL     1      10.637 -60.523 -28.679  1.00  0.00     0.056 C 
ATOM     27  C   UNL     1      11.943 -58.417 -28.942  1.00  0.00     0.005 C 
ATOM     28  C   UNL     1      10.363 -61.378 -22.310  1.00  0.00     0.021 A 
ATOM     29  C   UNL     1       9.554 -62.257 -24.402  1.00  0.00     0.049 A 
ATOM     30  C   UNL     1      11.727 -59.823 -29.483  1.00  0.00     0.007 C 
ATOM     31  C   UNL     1       9.599 -62.298 -23.012  1.00  0.00     0.043 A 
ATOM     32  Cl  UNL     1       8.701 -63.492 -22.160  1.00  0.00    -0.084 Cl
ENDBRANCH  16  18
ENDBRANCH  15  16
ENDBRANCH   1  15
TORSDOF 5
ENDMDL
MODEL 8
REMARK VINA RESULT:   -10.382      6.046      9.669
REMARK INTER + INTRA:         -13.939
REMARK INTER:                 -13.331
REMARK INTRA:                  -0.607
REMARK UNBOUND:                -0.522
REMARK SMILES O=C1CC(=NCCNc2c3c(nc4cc(Cl)ccc24)CCCC3)C(=O)c2ccccc21
REMARK SMILES IDX 6 1 5 2 4 3 3 4 2 5 31 6 24 7 30 8 26 9 29 10 27 11 28 12
REMARK SMILES IDX 1 13 25 14 7 15 8 16 9 18 10 19 19 20 11 21 23 22 18 23
REMARK SMILES IDX 13 24 12 25 20 26 22 27 17 28 14 29 21 30 15 31 16 32
REMARK H PARENT 8 17
ROOT
ATOM      1  C   UNL     1      10.010 -48.501 -22.850  1.00  0.00     0.163 C 
ENDROOT
BRANCH   1   2
ATOM      2  N   UNL     1      10.301 -47.355 -21.991  1.00  0.00    -0.283 NA
BRANCH   2   3
ATOM      3  C   UNL     1      11.010 -46.380 -22.450  1.00  0.00     0.091 C 
ATOM      4  C   UNL     1      10.567 -45.306 -23.396  1.00  0.00     0.141 C 
ATOM      5  C   UNL     1      11.135 -43.944 -23.111  1.00  0.00     0.169 C 
ATOM      6  C   UNL     1      12.373 -43.829 -22.304  1.00  0.00     0.029 A 
ATOM      7  C   UNL     1      12.459 -46.299 -22.024  1.00  0.00     0.207 C 
ATOM      8  C   UNL     1      12.922 -42.561 -22.072  1.00  0.00     0.012 A 
ATOM      9  C   UNL     1      13.023 -44.960 -21.809  1.00  0.00     0.035 A 
ATOM     10  C   UNL     1      14.112 -42.430 -21.354  1.00  0.00     0.001 A 
ATOM     11  C   UNL     1      14.224 -44.829 -21.098  1.00  0.00     0.013 A 
ATOM     12  C   UNL     1      14.764 -43.563 -20.870  1.00  0.00     0.001 A 
ATOM     13  O   UNL     1      10.616 -42.932 -23.577  1.00  0.00    -0.294 OA
ATOM     14  O   UNL     1      13.119 -47.314 -21.865  1.00  0.00    -0.287 OA
ENDBRANCH   2   3
ENDBRANCH   1   2
BRANCH   1  15
ATOM     15  C   UNL     1      10.093 -49.792 -22.019  1.00  0.00     0.136 C 
BRANCH  15  16
ATOM     16  N   UNL     1      11.501 -50.220 -21.912  1.00  0.00    -0.382 N 
ATOM     17  H   UNL     1      11.656 -50.675 -21.015  1.00  0.00     0.160 HD
BRANCH  16  18
ATOM     18  C   UNL     1      11.856 -51.116 -22.963  1.00  0.00     0.049 A 
ATOM     19  C   UNL     1      11.509 -52.476 -22.830  1.00  0.00    -0.003 A 
ATOM     20  C   UNL     1      12.610 -50.686 -24.091  1.00  0.00     0.024 A 
ATOM     21  C   UNL     1      11.881 -53.344 -23.856  1.00  0.00     0.046 A 
ATOM     22  C   UNL     1      10.665 -52.957 -21.673  1.00  0.00     0.039 C 
ATOM     23  C   UNL     1      13.040 -49.351 -24.310  1.00  0.00     0.014 A 
ATOM     24  C   UNL     1      12.945 -51.662 -25.052  1.00  0.00     0.074 A 
ATOM     25  N   UNL     1      12.593 -52.948 -24.937  1.00  0.00    -0.252 NA
ATOM     26  C   UNL     1      11.558 -54.815 -23.806  1.00  0.00     0.056 C 
ATOM     27  C   UNL     1      10.631 -54.477 -21.518  1.00  0.00     0.005 C 
ATOM     28  C   UNL     1      13.774 -49.004 -25.443  1.00  0.00     0.021 A 
ATOM     29  C   UNL     1      13.675 -51.297 -26.174  1.00  0.00     0.049 A 
ATOM     30  C   UNL     1      10.404 -55.146 -22.865  1.00  0.00     0.007 C 
ATOM     31  C   UNL     1      14.087 -49.983 -26.373  1.00  0.00     0.043 A 
ATOM     32  Cl  UNL     1      14.991 -49.571 -27.777  1.00  0.00    -0.084 Cl
ENDBRANCH  16  18
ENDBRANCH  15  16
ENDBRANCH   1  15
TORSDOF 5
ENDMDL
MODEL 9
REMARK VINA RESULT:   -10.090      6.698     10.994
REMARK INTER + INTRA:         -13.562
REMARK INTER:                 -13.015
REMARK INTRA:                  -0.547
REMARK UNBOUND:                -0.522
REMARK SMILES O=C1CC(=NCCNc2c3c(nc4cc(Cl)ccc24)CCCC3)C(=O)c2ccccc21
REMARK SMILES IDX 6 1 5 2 4 3 3 4 2 5 31 6 24 7 30 8 26 9 29 10 27 11 28 12
REMARK SMILES IDX 1 13 25 14 7 15 8 16 9 18 10 19 19 20 11 21 23 22 18 23
REMARK SMILES IDX 13 24 12 25 20 26 22 27 17 28 14 29 21 30 15 31 16 32
REMARK H PARENT 8 17
ROOT
ATOM      1  C   UNL     1      10.712 -47.030 -22.356  1.00  0.00     0.163 C 
ENDROOT
BRANCH   1   2
ATOM      2  N   UNL     1      10.942 -46.253 -23.573  1.00  0.00    -0.283 NA
BRANCH   2   3
ATOM      3  C   UNL     1      11.384 -45.045 -23.481  1.00  0.00     0.091 C 
ATOM      4  C   UNL     1      10.594 -43.780 -23.618  1.00  0.00     0.141 C 
ATOM      5  C   UNL     1      11.006 -42.677 -22.683  1.00  0.00     0.169 C 
ATOM      6  C   UNL     1      12.359 -42.705 -22.081  1.00  0.00     0.029 A 
ATOM      7  C   UNL     1      12.864 -44.851 -23.233  1.00  0.00     0.207 C 
ATOM      8  C   UNL     1      12.755 -41.657 -21.239  1.00  0.00     0.012 A 
ATOM      9  C   UNL     1      13.260 -43.732 -22.368  1.00  0.00     0.035 A 
ATOM     10  C   UNL     1      14.041 -41.637 -20.696  1.00  0.00     0.001 A 
ATOM     11  C   UNL     1      14.554 -43.706 -21.832  1.00  0.00     0.013 A 
ATOM     12  C   UNL     1      14.941 -42.659 -20.995  1.00  0.00     0.001 A 
ATOM     13  O   UNL     1      10.255 -41.732 -22.450  1.00  0.00    -0.294 OA
ATOM     14  O   UNL     1      13.683 -45.605 -23.735  1.00  0.00    -0.287 OA
ENDBRANCH   2   3
ENDBRANCH   1   2
BRANCH   1  15
ATOM     15  C   UNL     1      10.640 -48.524 -22.714  1.00  0.00     0.136 C 
BRANCH  15  16
ATOM     16  N   UNL     1      11.893 -49.188 -22.306  1.00  0.00    -0.382 N 
ATOM     17  H   UNL     1      11.811 -49.523 -21.349  1.00  0.00     0.160 HD
BRANCH  16  18
ATOM     18  C   UNL     1      12.207 -50.285 -23.164  1.00  0.00     0.049 A 
ATOM     19  C   UNL     1      12.946 -50.029 -24.335  1.00  0.00    -0.003 A 
ATOM     20  C   UNL     1      11.729 -51.600 -22.901  1.00  0.00     0.024 A 
ATOM     21  C   UNL     1      13.227 -51.107 -25.175  1.00  0.00     0.046 A 
ATOM     22  C   UNL     1      13.512 -48.657 -24.619  1.00  0.00     0.039 C 
ATOM     23  C   UNL     1      10.951 -51.964 -21.771  1.00  0.00     0.014 A 
ATOM     24  C   UNL     1      12.061 -52.603 -23.835  1.00  0.00     0.074 A 
ATOM     25  N   UNL     1      12.785 -52.364 -24.935  1.00  0.00    -0.252 NA
ATOM     26  C   UNL     1      14.009 -50.936 -26.451  1.00  0.00     0.056 C 
ATOM     27  C   UNL     1      14.023 -48.477 -26.048  1.00  0.00     0.005 C 
ATOM     28  C   UNL     1      10.522 -53.276 -21.580  1.00  0.00     0.021 A 
ATOM     29  C   UNL     1      11.626 -53.904 -23.627  1.00  0.00     0.049 A 
ATOM     30  C   UNL     1      14.863 -49.673 -26.469  1.00  0.00     0.007 C 
ATOM     31  C   UNL     1      10.864 -54.242 -22.512  1.00  0.00     0.043 A 
ATOM     32  Cl  UNL     1      10.344 -55.867 -22.291  1.00  0.00    -0.084 Cl
ENDBRANCH  16  18
ENDBRANCH  15  16
ENDBRANCH   1  15
TORSDOF 5
ENDMDL
