MODEL 1
REMARK VINA RESULT:   -12.495      0.000      0.000
REMARK INTER + INTRA:         -17.005
REMARK INTER:                 -16.513
REMARK INTRA:                  -0.492
REMARK UNBOUND:                -0.492
REMARK SMILES O=C1C(=NCCNc2c3c(nc4cc(Cl)ccc24)CCCC3)C=C(O)c2ccccc21
REMARK SMILES IDX 5 1 4 2 3 3 24 4 23 5 26 6 27 7 31 8 2 9 28 10 30 11 29 12
REMARK SMILES IDX 1 13 25 14 6 16 7 17 8 19 9 20 18 21 10 22 22 23 17 24 12 25
REMARK SMILES IDX 11 26 19 27 21 28 16 29 13 30 20 31 14 32 15 33
REMARK H PARENT 25 15 7 18
ROOT
ATOM      1  C   UNL     1      10.809 -58.575 -22.576  1.00  0.00     0.164 C 
ENDROOT
BRANCH   1   2
ATOM      2  N   UNL     1      10.414 -57.453 -23.427  1.00  0.00    -0.279 NA
BRANCH   2   3
ATOM      3  C   UNL     1      10.747 -56.235 -23.185  1.00  0.00     0.109 C 
ATOM      4  C   UNL     1      10.649 -54.107 -21.947  1.00  0.00     0.125 C 
ATOM      5  C   UNL     1      10.332 -55.406 -22.025  1.00  0.00     0.078 C 
ATOM      6  C   UNL     1      11.423 -53.416 -22.990  1.00  0.00     0.028 A 
ATOM      7  C   UNL     1      11.683 -52.038 -22.914  1.00  0.00     0.013 A 
ATOM      8  C   UNL     1      11.933 -54.122 -24.085  1.00  0.00     0.035 A 
ATOM      9  C   UNL     1      11.681 -55.571 -24.198  1.00  0.00     0.211 C 
ATOM     10  C   UNL     1      12.431 -51.391 -23.903  1.00  0.00     0.001 A 
ATOM     11  C   UNL     1      12.686 -53.477 -25.077  1.00  0.00     0.013 A 
ATOM     12  C   UNL     1      12.933 -52.110 -24.983  1.00  0.00     0.001 A 
ATOM     13  O   UNL     1      12.209 -56.236 -25.081  1.00  0.00    -0.287 OA
BRANCH   4  14
ATOM     14  O   UNL     1      10.263 -53.326 -20.876  1.00  0.00    -0.507 OA
ATOM     15  H   UNL     1      10.504 -53.765 -20.043  1.00  0.00     0.293 HD
ENDBRANCH   4  14
ENDBRANCH   2   3
ENDBRANCH   1   2
BRANCH   1  16
ATOM     16  C   UNL     1      12.129 -59.192 -23.067  1.00  0.00     0.136 C 
BRANCH  16  17
ATOM     17  N   UNL     1      11.997 -60.640 -23.312  1.00  0.00    -0.382 N 
ATOM     18  H   UNL     1      12.915 -61.007 -23.573  1.00  0.00     0.160 HD
BRANCH  17  19
ATOM     19  C   UNL     1      11.004 -60.969 -24.272  1.00  0.00     0.049 A 
ATOM     20  C   UNL     1       9.852 -61.690 -23.917  1.00  0.00    -0.003 A 
ATOM     21  C   UNL     1      11.200 -60.622 -25.641  1.00  0.00     0.024 A 
ATOM     22  C   UNL     1       8.967 -62.050 -24.939  1.00  0.00     0.046 A 
ATOM     23  C   UNL     1       9.440 -62.060 -22.515  1.00  0.00     0.039 C 
ATOM     24  C   UNL     1      12.290 -59.843 -26.101  1.00  0.00     0.014 A 
ATOM     25  C   UNL     1      10.241 -61.054 -26.584  1.00  0.00     0.074 A 
ATOM     26  N   UNL     1       9.155 -61.757 -26.244  1.00  0.00    -0.252 NA
ATOM     27  C   UNL     1       7.705 -62.789 -24.573  1.00  0.00     0.056 C 
ATOM     28  C   UNL     1       8.928 -63.502 -22.436  1.00  0.00     0.005 C 
ATOM     29  C   UNL     1      12.443 -59.531 -27.450  1.00  0.00     0.021 A 
ATOM     30  C   UNL     1      10.411 -60.739 -27.924  1.00  0.00     0.049 A 
ATOM     31  C   UNL     1       8.013 -63.918 -23.595  1.00  0.00     0.007 C 
ATOM     32  C   UNL     1      11.501 -59.989 -28.358  1.00  0.00     0.043 A 
ATOM     33  Cl  UNL     1      11.675 -59.617 -30.030  1.00  0.00    -0.084 Cl
ENDBRANCH  17  19
ENDBRANCH  16  17
ENDBRANCH   1  16
TORSDOF 6
ENDMDL
MODEL 2
REMARK VINA RESULT:   -11.788      0.996      2.059
REMARK INTER + INTRA:         -16.071
REMARK INTER:                 -15.509
REMARK INTRA:                  -0.562
REMARK UNBOUND:                -0.492
REMARK SMILES O=C1C(=NCCNc2c3c(nc4cc(Cl)ccc24)CCCC3)C=C(O)c2ccccc21
REMARK SMILES IDX 5 1 4 2 3 3 24 4 23 5 26 6 27 7 31 8 2 9 28 10 30 11 29 12
REMARK SMILES IDX 1 13 25 14 6 16 7 17 8 19 9 20 18 21 10 22 22 23 17 24 12 25
REMARK SMILES IDX 11 26 19 27 21 28 16 29 13 30 20 31 14 32 15 33
REMARK H PARENT 25 15 7 18
ROOT
ATOM      1  C   UNL     1      11.388 -57.506 -22.793  1.00  0.00     0.164 C 
ENDROOT
BRANCH   1   2
ATOM      2  N   UNL     1      10.581 -56.464 -23.428  1.00  0.00    -0.279 NA
BRANCH   2   3
ATOM      3  C   UNL     1      11.014 -55.274 -23.647  1.00  0.00     0.109 C 
ATOM      4  C   UNL     1      12.379 -53.583 -24.807  1.00  0.00     0.125 C 
ATOM      5  C   UNL     1      11.898 -54.831 -24.755  1.00  0.00     0.078 C 
ATOM      6  C   UNL     1      12.071 -52.571 -23.784  1.00  0.00     0.028 A 
ATOM      7  C   UNL     1      12.644 -51.289 -23.828  1.00  0.00     0.013 A 
ATOM      8  C   UNL     1      11.184 -52.859 -22.741  1.00  0.00     0.035 A 
ATOM      9  C   UNL     1      10.561 -54.194 -22.663  1.00  0.00     0.211 C 
ATOM     10  C   UNL     1      12.336 -50.329 -22.859  1.00  0.00     0.001 A 
ATOM     11  C   UNL     1      10.869 -51.897 -21.770  1.00  0.00     0.013 A 
ATOM     12  C   UNL     1      11.448 -50.632 -21.831  1.00  0.00     0.001 A 
ATOM     13  O   UNL     1       9.696 -54.438 -21.832  1.00  0.00    -0.287 OA
BRANCH   4  14
ATOM     14  O   UNL     1      13.206 -53.162 -25.830  1.00  0.00    -0.507 OA
ATOM     15  H   UNL     1      13.767 -53.898 -26.125  1.00  0.00     0.293 HD
ENDBRANCH   4  14
ENDBRANCH   2   3
ENDBRANCH   1   2
BRANCH   1  16
ATOM     16  C   UNL     1      10.575 -58.801 -22.633  1.00  0.00     0.136 C 
BRANCH  16  17
ATOM     17  N   UNL     1      11.262 -59.956 -23.242  1.00  0.00    -0.382 N 
ATOM     18  H   UNL     1      12.179 -59.647 -23.572  1.00  0.00     0.160 HD
BRANCH  17  19
ATOM     19  C   UNL     1      10.515 -60.588 -24.271  1.00  0.00     0.049 A 
ATOM     20  C   UNL     1       9.495 -61.507 -23.976  1.00  0.00    -0.003 A 
ATOM     21  C   UNL     1      10.842 -60.343 -25.637  1.00  0.00     0.024 A 
ATOM     22  C   UNL     1       8.868 -62.152 -25.048  1.00  0.00     0.046 A 
ATOM     23  C   UNL     1       8.958 -61.820 -22.602  1.00  0.00     0.039 C 
ATOM     24  C   UNL     1      11.807 -59.391 -26.049  1.00  0.00     0.014 A 
ATOM     25  C   UNL     1      10.147 -61.066 -26.631  1.00  0.00     0.074 A 
ATOM     26  N   UNL     1       9.189 -61.955 -26.345  1.00  0.00    -0.252 NA
ATOM     27  C   UNL     1       7.743 -63.112 -24.754  1.00  0.00     0.056 C 
ATOM     28  C   UNL     1       8.745 -63.324 -22.404  1.00  0.00     0.005 C 
ATOM     29  C   UNL     1      12.097 -59.188 -27.397  1.00  0.00     0.021 A 
ATOM     30  C   UNL     1      10.452 -60.855 -27.967  1.00  0.00     0.049 A 
ATOM     31  C   UNL     1       8.123 -64.044 -23.607  1.00  0.00     0.007 C 
ATOM     32  C   UNL     1      11.418 -59.929 -28.352  1.00  0.00     0.043 A 
ATOM     33  Cl  UNL     1      11.765 -59.694 -30.021  1.00  0.00    -0.084 Cl
ENDBRANCH  17  19
ENDBRANCH  16  17
ENDBRANCH   1  16
TORSDOF 6
ENDMDL
MODEL 3
REMARK VINA RESULT:   -11.773      1.879      3.745
REMARK INTER + INTRA:         -16.050
REMARK INTER:                 -15.475
REMARK INTRA:                  -0.575
REMARK UNBOUND:                -0.492
REMARK SMILES O=C1C(=NCCNc2c3c(nc4cc(Cl)ccc24)CCCC3)C=C(O)c2ccccc21
REMARK SMILES IDX 5 1 4 2 3 3 24 4 23 5 26 6 27 7 31 8 2 9 28 10 30 11 29 12
REMARK SMILES IDX 1 13 25 14 6 16 7 17 8 19 9 20 18 21 10 22 22 23 17 24 12 25
REMARK SMILES IDX 11 26 19 27 21 28 16 29 13 30 20 31 14 32 15 33
REMARK H PARENT 25 15 7 18
ROOT
ATOM      1  C   UNL     1      10.730 -57.614 -22.895  1.00  0.00     0.164 C 
ENDROOT
BRANCH   1   2
ATOM      2  N   UNL     1      10.220 -56.401 -23.534  1.00  0.00    -0.279 NA
BRANCH   2   3
ATOM      3  C   UNL     1      10.707 -55.232 -23.315  1.00  0.00     0.109 C 
ATOM      4  C   UNL     1      10.916 -53.104 -22.090  1.00  0.00     0.125 C 
ATOM      5  C   UNL     1      10.442 -54.355 -22.145  1.00  0.00     0.078 C 
ATOM      6  C   UNL     1      11.726 -52.515 -23.167  1.00  0.00     0.028 A 
ATOM      7  C   UNL     1      12.154 -51.178 -23.112  1.00  0.00     0.013 A 
ATOM      8  C   UNL     1      12.103 -53.280 -24.276  1.00  0.00     0.035 A 
ATOM      9  C   UNL     1      11.673 -54.689 -24.369  1.00  0.00     0.211 C 
ATOM     10  C   UNL     1      12.934 -50.629 -24.135  1.00  0.00     0.001 A 
ATOM     11  C   UNL     1      12.889 -52.735 -25.301  1.00  0.00     0.013 A 
ATOM     12  C   UNL     1      13.303 -51.407 -25.228  1.00  0.00     0.001 A 
ATOM     13  O   UNL     1      12.082 -55.415 -25.266  1.00  0.00    -0.287 OA
BRANCH   4  14
ATOM     14  O   UNL     1      10.671 -52.279 -21.010  1.00  0.00    -0.507 OA
ATOM     15  H   UNL     1      10.853 -51.356 -21.252  1.00  0.00     0.293 HD
ENDBRANCH   4  14
ENDBRANCH   2   3
ENDBRANCH   1   2
BRANCH   1  16
ATOM     16  C   UNL     1       9.889 -58.836 -23.299  1.00  0.00     0.136 C 
BRANCH  16  17
ATOM     17  N   UNL     1      10.737 -59.991 -23.649  1.00  0.00    -0.382 N 
ATOM     18  H   UNL     1      11.717 -59.705 -23.574  1.00  0.00     0.160 HD
BRANCH  17  19
ATOM     19  C   UNL     1      10.446 -60.548 -24.922  1.00  0.00     0.049 A 
ATOM     20  C   UNL     1      11.109 -60.114 -26.081  1.00  0.00    -0.003 A 
ATOM     21  C   UNL     1       9.412 -61.523 -25.049  1.00  0.00     0.024 A 
ATOM     22  C   UNL     1      10.700 -60.651 -27.307  1.00  0.00     0.046 A 
ATOM     23  C   UNL     1      12.279 -59.164 -26.125  1.00  0.00     0.039 C 
ATOM     24  C   UNL     1       8.723 -62.078 -23.943  1.00  0.00     0.014 A 
ATOM     25  C   UNL     1       9.080 -61.981 -26.343  1.00  0.00     0.074 A 
ATOM     26  N   UNL     1       9.702 -61.550 -27.447  1.00  0.00    -0.252 NA
ATOM     27  C   UNL     1      11.427 -60.228 -28.558  1.00  0.00     0.056 C 
ATOM     28  C   UNL     1      12.135 -58.137 -27.253  1.00  0.00     0.005 C 
ATOM     29  C   UNL     1       7.717 -63.027 -24.114  1.00  0.00     0.021 A 
ATOM     30  C   UNL     1       8.073 -62.921 -26.497  1.00  0.00     0.049 A 
ATOM     31  C   UNL     1      11.618 -58.714 -28.578  1.00  0.00     0.007 C 
ATOM     32  C   UNL     1       7.393 -63.440 -25.398  1.00  0.00     0.043 A 
ATOM     33  Cl  UNL     1       6.151 -64.608 -25.631  1.00  0.00    -0.084 Cl
ENDBRANCH  17  19
ENDBRANCH  16  17
ENDBRANCH   1  16
TORSDOF 6
ENDMDL
MODEL 4
REMARK VINA RESULT:   -11.444      1.904      4.218
REMARK INTER + INTRA:         -15.616
REMARK INTER:                 -15.048
REMARK INTRA:                  -0.568
REMARK UNBOUND:                -0.492
REMARK SMILES O=C1C(=NCCNc2c3c(nc4cc(Cl)ccc24)CCCC3)C=C(O)c2ccccc21
REMARK SMILES IDX 5 1 4 2 3 3 24 4 23 5 26 6 27 7 31 8 2 9 28 10 30 11 29 12
REMARK SMILES IDX 1 13 25 14 6 16 7 17 8 19 9 20 18 21 10 22 22 23 17 24 12 25
REMARK SMILES IDX 11 26 19 27 21 28 16 29 13 30 20 31 14 32 15 33
REMARK H PARENT 25 15 7 18
ROOT
ATOM      1  C   UNL     1      11.035 -57.683 -22.586  1.00  0.00     0.164 C 
ENDROOT
BRANCH   1   2
ATOM      2  N   UNL     1      10.388 -56.380 -22.432  1.00  0.00    -0.279 NA
BRANCH   2   3
ATOM      3  C   UNL     1      10.841 -55.302 -22.964  1.00  0.00     0.109 C 
ATOM      4  C   UNL     1      12.097 -54.008 -24.644  1.00  0.00     0.125 C 
ATOM      5  C   UNL     1      11.568 -55.174 -24.253  1.00  0.00     0.078 C 
ATOM      6  C   UNL     1      11.995 -52.781 -23.836  1.00  0.00     0.028 A 
ATOM      7  C   UNL     1      12.616 -51.588 -24.239  1.00  0.00     0.013 A 
ATOM      8  C   UNL     1      11.262 -52.771 -22.645  1.00  0.00     0.035 A 
ATOM      9  C   UNL     1      10.594 -54.005 -22.190  1.00  0.00     0.211 C 
ATOM     10  C   UNL     1      12.505 -50.423 -23.473  1.00  0.00     0.001 A 
ATOM     11  C   UNL     1      11.144 -51.604 -21.876  1.00  0.00     0.013 A 
ATOM     12  C   UNL     1      11.768 -50.431 -22.292  1.00  0.00     0.001 A 
ATOM     13  O   UNL     1       9.853 -53.999 -21.216  1.00  0.00    -0.287 OA
BRANCH   4  14
ATOM     14  O   UNL     1      12.779 -53.880 -25.837  1.00  0.00    -0.507 OA
ATOM     15  H   UNL     1      13.657 -54.288 -25.761  1.00  0.00     0.293 HD
ENDBRANCH   4  14
ENDBRANCH   2   3
ENDBRANCH   1   2
BRANCH   1  16
ATOM     16  C   UNL     1      10.354 -58.500 -23.696  1.00  0.00     0.136 C 
BRANCH  16  17
ATOM     17  N   UNL     1      11.122 -59.715 -24.028  1.00  0.00    -0.382 N 
ATOM     18  H   UNL     1      12.118 -59.484 -23.997  1.00  0.00     0.160 HD
BRANCH  17  19
ATOM     19  C   UNL     1      10.754 -60.302 -25.268  1.00  0.00     0.049 A 
ATOM     20  C   UNL     1      11.344 -59.896 -26.475  1.00  0.00    -0.003 A 
ATOM     21  C   UNL     1       9.716 -61.280 -25.307  1.00  0.00     0.024 A 
ATOM     22  C   UNL     1      10.861 -60.461 -27.660  1.00  0.00     0.046 A 
ATOM     23  C   UNL     1      12.508 -58.946 -26.613  1.00  0.00     0.039 C 
ATOM     24  C   UNL     1       9.097 -61.809 -24.148  1.00  0.00     0.014 A 
ATOM     25  C   UNL     1       9.306 -61.768 -26.568  1.00  0.00     0.074 A 
ATOM     26  N   UNL     1       9.858 -61.363 -27.717  1.00  0.00    -0.252 NA
ATOM     27  C   UNL     1      11.510 -60.068 -28.963  1.00  0.00     0.056 C 
ATOM     28  C   UNL     1      12.293 -57.947 -27.754  1.00  0.00     0.005 C 
ATOM     29  C   UNL     1       8.084 -62.761 -24.235  1.00  0.00     0.021 A 
ATOM     30  C   UNL     1       8.293 -62.713 -26.637  1.00  0.00     0.049 A 
ATOM     31  C   UNL     1      11.697 -58.555 -29.030  1.00  0.00     0.007 C 
ATOM     32  C   UNL     1       7.682 -63.205 -25.486  1.00  0.00     0.043 A 
ATOM     33  Cl  UNL     1       6.430 -64.379 -25.615  1.00  0.00    -0.084 Cl
ENDBRANCH  17  19
ENDBRANCH  16  17
ENDBRANCH   1  16
TORSDOF 6
ENDMDL
MODEL 5
REMARK VINA RESULT:   -10.761      3.012      4.162
REMARK INTER + INTRA:         -14.713
REMARK INTER:                 -14.395
REMARK INTRA:                  -0.318
REMARK UNBOUND:                -0.492
REMARK SMILES O=C1C(=NCCNc2c3c(nc4cc(Cl)ccc24)CCCC3)C=C(O)c2ccccc21
REMARK SMILES IDX 5 1 4 2 3 3 24 4 23 5 26 6 27 7 31 8 2 9 28 10 30 11 29 12
REMARK SMILES IDX 1 13 25 14 6 16 7 17 8 19 9 20 18 21 10 22 22 23 17 24 12 25
REMARK SMILES IDX 11 26 19 27 21 28 16 29 13 30 20 31 14 32 15 33
REMARK H PARENT 25 15 7 18
ROOT
ATOM      1  C   UNL     1      11.337 -57.100 -22.687  1.00  0.00     0.164 C 
ENDROOT
BRANCH   1   2
ATOM      2  N   UNL     1      10.747 -55.991 -23.437  1.00  0.00    -0.279 NA
BRANCH   2   3
ATOM      3  C   UNL     1      11.239 -54.804 -23.442  1.00  0.00     0.109 C 
ATOM      4  C   UNL     1      11.514 -52.507 -22.593  1.00  0.00     0.125 C 
ATOM      5  C   UNL     1      11.045 -53.748 -22.415  1.00  0.00     0.078 C 
ATOM      6  C   UNL     1      12.249 -52.102 -23.802  1.00  0.00     0.028 A 
ATOM      7  C   UNL     1      12.671 -50.777 -23.992  1.00  0.00     0.013 A 
ATOM      8  C   UNL     1      12.558 -53.039 -24.795  1.00  0.00     0.035 A 
ATOM      9  C   UNL     1      12.132 -54.442 -24.630  1.00  0.00     0.211 C 
ATOM     10  C   UNL     1      13.379 -50.403 -25.138  1.00  0.00     0.001 A 
ATOM     11  C   UNL     1      13.272 -52.669 -25.943  1.00  0.00     0.013 A 
ATOM     12  C   UNL     1      13.681 -51.349 -26.113  1.00  0.00     0.001 A 
ATOM     13  O   UNL     1      12.486 -55.305 -25.423  1.00  0.00    -0.287 OA
BRANCH   4  14
ATOM     14  O   UNL     1      11.334 -51.517 -21.647  1.00  0.00    -0.507 OA
ATOM     15  H   UNL     1      10.384 -51.368 -21.502  1.00  0.00     0.293 HD
ENDBRANCH   4  14
ENDBRANCH   2   3
ENDBRANCH   1   2
BRANCH   1  16
ATOM     16  C   UNL     1      10.476 -58.367 -22.823  1.00  0.00     0.136 C 
BRANCH  16  17
ATOM     17  N   UNL     1       9.840 -58.454 -24.152  1.00  0.00    -0.382 N 
ATOM     18  H   UNL     1       9.472 -57.531 -24.393  1.00  0.00     0.160 HD
BRANCH  17  19
ATOM     19  C   UNL     1       8.844 -59.462 -24.243  1.00  0.00     0.049 A 
ATOM     20  C   UNL     1       9.064 -60.645 -24.965  1.00  0.00    -0.003 A 
ATOM     21  C   UNL     1       7.566 -59.250 -23.647  1.00  0.00     0.024 A 
ATOM     22  C   UNL     1       8.000 -61.547 -25.080  1.00  0.00     0.046 A 
ATOM     23  C   UNL     1      10.372 -61.074 -25.581  1.00  0.00     0.039 C 
ATOM     24  C   UNL     1       7.256 -58.125 -22.844  1.00  0.00     0.014 A 
ATOM     25  C   UNL     1       6.566 -60.228 -23.844  1.00  0.00     0.074 A 
ATOM     26  N   UNL     1       6.774 -61.346 -24.550  1.00  0.00    -0.252 NA
ATOM     27  C   UNL     1       8.228 -62.842 -25.818  1.00  0.00     0.056 C 
ATOM     28  C   UNL     1      10.176 -61.653 -26.986  1.00  0.00     0.005 C 
ATOM     29  C   UNL     1       5.991 -57.958 -22.285  1.00  0.00     0.021 A 
ATOM     30  C   UNL     1       5.311 -60.044 -23.284  1.00  0.00     0.049 A 
ATOM     31  C   UNL     1       8.967 -62.586 -27.128  1.00  0.00     0.007 C 
ATOM     32  C   UNL     1       5.019 -58.920 -22.515  1.00  0.00     0.043 A 
ATOM     33  Cl  UNL     1       3.450 -58.730 -21.835  1.00  0.00    -0.084 Cl
ENDBRANCH  17  19
ENDBRANCH  16  17
ENDBRANCH   1  16
TORSDOF 6
ENDMDL
MODEL 6
REMARK VINA RESULT:   -10.691      5.960     10.390
REMARK INTER + INTRA:         -14.621
REMARK INTER:                 -14.103
REMARK INTRA:                  -0.517
REMARK UNBOUND:                -0.492
REMARK SMILES O=C1C(=NCCNc2c3c(nc4cc(Cl)ccc24)CCCC3)C=C(O)c2ccccc21
REMARK SMILES IDX 5 1 4 2 3 3 24 4 23 5 26 6 27 7 31 8 2 9 28 10 30 11 29 12
REMARK SMILES IDX 1 13 25 14 6 16 7 17 8 19 9 20 18 21 10 22 22 23 17 24 12 25
REMARK SMILES IDX 11 26 19 27 21 28 16 29 13 30 20 31 14 32 15 33
REMARK H PARENT 25 15 7 18
ROOT
ATOM      1  C   UNL     1      10.560 -48.340 -22.994  1.00  0.00     0.164 C 
ENDROOT
BRANCH   1   2
ATOM      2  N   UNL     1      10.465 -47.208 -22.073  1.00  0.00    -0.279 NA
BRANCH   2   3
ATOM      3  C   UNL     1      10.837 -46.017 -22.381  1.00  0.00     0.109 C 
ATOM      4  C   UNL     1      10.763 -43.934 -23.695  1.00  0.00     0.125 C 
ATOM      5  C   UNL     1      10.209 -45.110 -23.376  1.00  0.00     0.078 C 
ATOM      6  C   UNL     1      12.017 -43.457 -23.090  1.00  0.00     0.028 A 
ATOM      7  C   UNL     1      12.610 -42.250 -23.492  1.00  0.00     0.013 A 
ATOM      8  C   UNL     1      12.647 -44.196 -22.082  1.00  0.00     0.035 A 
ATOM      9  C   UNL     1      12.053 -45.469 -21.632  1.00  0.00     0.211 C 
ATOM     10  C   UNL     1      13.795 -41.798 -22.904  1.00  0.00     0.001 A 
ATOM     11  C   UNL     1      13.833 -43.744 -21.486  1.00  0.00     0.013 A 
ATOM     12  C   UNL     1      14.406 -42.544 -21.900  1.00  0.00     0.001 A 
ATOM     13  O   UNL     1      12.517 -46.078 -20.677  1.00  0.00    -0.287 OA
BRANCH   4  14
ATOM     14  O   UNL     1      10.190 -43.086 -24.622  1.00  0.00    -0.507 OA
ATOM     15  H   UNL     1      10.616 -42.214 -24.581  1.00  0.00     0.293 HD
ENDBRANCH   4  14
ENDBRANCH   2   3
ENDBRANCH   1   2
BRANCH   1  16
ATOM     16  C   UNL     1      10.278 -49.662 -22.262  1.00  0.00     0.136 C 
BRANCH  16  17
ATOM     17  N   UNL     1      11.524 -50.363 -21.901  1.00  0.00    -0.382 N 
ATOM     18  H   UNL     1      12.255 -49.663 -21.753  1.00  0.00     0.160 HD
BRANCH  17  19
ATOM     19  C   UNL     1      11.919 -51.350 -22.843  1.00  0.00     0.049 A 
ATOM     20  C   UNL     1      12.855 -51.067 -23.851  1.00  0.00    -0.003 A 
ATOM     21  C   UNL     1      11.309 -52.639 -22.817  1.00  0.00     0.024 A 
ATOM     22  C   UNL     1      13.122 -52.066 -24.792  1.00  0.00     0.046 A 
ATOM     23  C   UNL     1      13.659 -49.797 -23.977  1.00  0.00     0.039 C 
ATOM     24  C   UNL     1      10.402 -53.053 -21.811  1.00  0.00     0.014 A 
ATOM     25  C   UNL     1      11.651 -53.560 -23.831  1.00  0.00     0.074 A 
ATOM     26  N   UNL     1      12.529 -53.279 -24.800  1.00  0.00    -0.252 NA
ATOM     27  C   UNL     1      14.154 -51.796 -25.858  1.00  0.00     0.056 C 
ATOM     28  C   UNL     1      13.721 -49.306 -25.427  1.00  0.00     0.005 C 
ATOM     29  C   UNL     1       9.828 -54.322 -21.827  1.00  0.00     0.021 A 
ATOM     30  C   UNL     1      11.066 -54.818 -23.835  1.00  0.00     0.049 A 
ATOM     31  C   UNL     1      13.943 -50.413 -26.466  1.00  0.00     0.007 C 
ATOM     32  C   UNL     1      10.161 -55.199 -22.849  1.00  0.00     0.043 A 
ATOM     33  Cl  UNL     1       9.459 -56.770 -22.889  1.00  0.00    -0.084 Cl
ENDBRANCH  17  19
ENDBRANCH  16  17
ENDBRANCH   1  16
TORSDOF 6
ENDMDL
MODEL 7
REMARK VINA RESULT:   -10.377      3.550      9.157
REMARK INTER + INTRA:         -14.205
REMARK INTER:                 -13.583
REMARK INTRA:                  -0.622
REMARK UNBOUND:                -0.492
REMARK SMILES O=C1C(=NCCNc2c3c(nc4cc(Cl)ccc24)CCCC3)C=C(O)c2ccccc21
REMARK SMILES IDX 5 1 4 2 3 3 24 4 23 5 26 6 27 7 31 8 2 9 28 10 30 11 29 12
REMARK SMILES IDX 1 13 25 14 6 16 7 17 8 19 9 20 18 21 10 22 22 23 17 24 12 25
REMARK SMILES IDX 11 26 19 27 21 28 16 29 13 30 20 31 14 32 15 33
REMARK H PARENT 25 15 7 18
ROOT
ATOM      1  C   UNL     1      12.584 -55.604 -25.922  1.00  0.00     0.164 C 
ENDROOT
BRANCH   1   2
ATOM      2  N   UNL     1      12.152 -56.114 -24.621  1.00  0.00    -0.279 NA
BRANCH   2   3
ATOM      3  C   UNL     1      11.999 -57.366 -24.372  1.00  0.00     0.109 C 
ATOM      4  C   UNL     1      12.036 -59.766 -24.930  1.00  0.00     0.125 C 
ATOM      5  C   UNL     1      12.356 -58.507 -25.254  1.00  0.00     0.078 C 
ATOM      6  C   UNL     1      11.317 -60.108 -23.692  1.00  0.00     0.028 A 
ATOM      7  C   UNL     1      10.935 -61.429 -23.411  1.00  0.00     0.013 A 
ATOM      8  C   UNL     1      11.005 -59.118 -22.753  1.00  0.00     0.035 A 
ATOM      9  C   UNL     1      11.392 -57.719 -23.013  1.00  0.00     0.211 C 
ATOM     10  C   UNL     1      10.263 -61.748 -22.226  1.00  0.00     0.001 A 
ATOM     11  C   UNL     1      10.336 -59.435 -21.562  1.00  0.00     0.013 A 
ATOM     12  C   UNL     1       9.964 -60.752 -21.301  1.00  0.00     0.001 A 
ATOM     13  O   UNL     1      11.236 -56.853 -22.161  1.00  0.00    -0.287 OA
BRANCH   4  14
ATOM     14  O   UNL     1      12.358 -60.832 -25.745  1.00  0.00    -0.507 OA
ATOM     15  H   UNL     1      12.881 -61.483 -25.247  1.00  0.00     0.293 HD
ENDBRANCH   4  14
ENDBRANCH   2   3
ENDBRANCH   1   2
BRANCH   1  16
ATOM     16  C   UNL     1      12.478 -54.070 -25.967  1.00  0.00     0.136 C 
BRANCH  16  17
ATOM     17  N   UNL     1      13.439 -53.430 -25.050  1.00  0.00    -0.382 N 
ATOM     18  H   UNL     1      13.677 -54.100 -24.314  1.00  0.00     0.160 HD
BRANCH  17  19
ATOM     19  C   UNL     1      12.984 -52.196 -24.515  1.00  0.00     0.049 A 
ATOM     20  C   UNL     1      12.045 -52.152 -23.472  1.00  0.00    -0.003 A 
ATOM     21  C   UNL     1      13.433 -50.968 -25.085  1.00  0.00     0.024 A 
ATOM     22  C   UNL     1      11.582 -50.897 -23.064  1.00  0.00     0.046 A 
ATOM     23  C   UNL     1      11.531 -53.339 -22.696  1.00  0.00     0.039 C 
ATOM     24  C   UNL     1      14.423 -50.892 -26.095  1.00  0.00     0.014 A 
ATOM     25  C   UNL     1      12.881 -49.763 -24.596  1.00  0.00     0.074 A 
ATOM     26  N   UNL     1      11.972 -49.727 -23.615  1.00  0.00    -0.252 NA
ATOM     27  C   UNL     1      10.604 -50.826 -21.919  1.00  0.00     0.056 C 
ATOM     28  C   UNL     1      10.017 -53.260 -22.473  1.00  0.00     0.005 C 
ATOM     29  C   UNL     1      14.828 -49.670 -26.625  1.00  0.00     0.021 A 
ATOM     30  C   UNL     1      13.292 -48.555 -25.139  1.00  0.00     0.049 A 
ATOM     31  C   UNL     1       9.501 -51.866 -22.094  1.00  0.00     0.007 C 
ATOM     32  C   UNL     1      14.252 -48.503 -26.145  1.00  0.00     0.043 A 
ATOM     33  Cl  UNL     1      14.737 -46.983 -26.790  1.00  0.00    -0.084 Cl
ENDBRANCH  17  19
ENDBRANCH  16  17
ENDBRANCH   1  16
TORSDOF 6
ENDMDL
MODEL 8
REMARK VINA RESULT:    -9.989      4.639     10.856
REMARK INTER + INTRA:         -13.693
REMARK INTER:                 -13.182
REMARK INTRA:                  -0.512
REMARK UNBOUND:                -0.492
REMARK SMILES O=C1C(=NCCNc2c3c(nc4cc(Cl)ccc24)CCCC3)C=C(O)c2ccccc21
REMARK SMILES IDX 5 1 4 2 3 3 24 4 23 5 26 6 27 7 31 8 2 9 28 10 30 11 29 12
REMARK SMILES IDX 1 13 25 14 6 16 7 17 8 19 9 20 18 21 10 22 22 23 17 24 12 25
REMARK SMILES IDX 11 26 19 27 21 28 16 29 13 30 20 31 14 32 15 33
REMARK H PARENT 25 15 7 18
ROOT
ATOM      1  C   UNL     1      11.316 -51.254 -21.373  1.00  0.00     0.164 C 
ENDROOT
BRANCH   1   2
ATOM      2  N   UNL     1      10.492 -52.135 -22.199  1.00  0.00    -0.279 NA
BRANCH   2   3
ATOM      3  C   UNL     1      10.896 -53.275 -22.633  1.00  0.00     0.109 C 
ATOM      4  C   UNL     1      11.662 -54.850 -24.366  1.00  0.00     0.125 C 
ATOM      5  C   UNL     1      11.381 -53.594 -24.000  1.00  0.00     0.078 C 
ATOM      6  C   UNL     1      11.516 -55.994 -23.451  1.00  0.00     0.028 A 
ATOM      7  C   UNL     1      11.754 -57.309 -23.881  1.00  0.00     0.013 A 
ATOM      8  C   UNL     1      11.144 -55.796 -22.116  1.00  0.00     0.035 A 
ATOM      9  C   UNL     1      10.887 -54.428 -21.627  1.00  0.00     0.211 C 
ATOM     10  C   UNL     1      11.624 -58.389 -23.002  1.00  0.00     0.001 A 
ATOM     11  C   UNL     1      11.017 -56.876 -21.231  1.00  0.00     0.013 A 
ATOM     12  C   UNL     1      11.257 -58.173 -21.677  1.00  0.00     0.001 A 
ATOM     13  O   UNL     1      10.673 -54.212 -20.441  1.00  0.00    -0.287 OA
BRANCH   4  14
ATOM     14  O   UNL     1      12.108 -55.158 -25.635  1.00  0.00    -0.507 OA
ATOM     15  H   UNL     1      11.731 -54.534 -26.278  1.00  0.00     0.293 HD
ENDBRANCH   4  14
ENDBRANCH   2   3
ENDBRANCH   1   2
BRANCH   1  16
ATOM     16  C   UNL     1      12.277 -50.430 -22.247  1.00  0.00     0.136 C 
BRANCH  16  17
ATOM     17  N   UNL     1      11.575 -49.793 -23.377  1.00  0.00    -0.382 N 
ATOM     18  H   UNL     1      11.387 -50.510 -24.083  1.00  0.00     0.160 HD
BRANCH  17  19
ATOM     19  C   UNL     1      12.266 -48.680 -23.925  1.00  0.00     0.049 A 
ATOM     20  C   UNL     1      12.046 -47.377 -23.452  1.00  0.00    -0.003 A 
ATOM     21  C   UNL     1      13.157 -48.870 -25.022  1.00  0.00     0.024 A 
ATOM     22  C   UNL     1      12.700 -46.327 -24.105  1.00  0.00     0.046 A 
ATOM     23  C   UNL     1      11.214 -47.002 -22.251  1.00  0.00     0.039 C 
ATOM     24  C   UNL     1      13.501 -50.143 -25.537  1.00  0.00     0.014 A 
ATOM     25  C   UNL     1      13.749 -47.728 -25.607  1.00  0.00     0.074 A 
ATOM     26  N   UNL     1      13.520 -46.486 -25.166  1.00  0.00    -0.252 NA
ATOM     27  C   UNL     1      12.508 -44.924 -23.587  1.00  0.00     0.056 C 
ATOM     28  C   UNL     1      10.335 -45.778 -22.529  1.00  0.00     0.005 C 
ATOM     29  C   UNL     1      14.374 -50.281 -26.615  1.00  0.00     0.021 A 
ATOM     30  C   UNL     1      14.611 -47.882 -26.682  1.00  0.00     0.049 A 
ATOM     31  C   UNL     1      11.033 -44.656 -23.308  1.00  0.00     0.007 C 
ATOM     32  C   UNL     1      14.921 -49.142 -27.187  1.00  0.00     0.043 A 
ATOM     33  Cl  UNL     1      15.998 -49.290 -28.521  1.00  0.00    -0.084 Cl
ENDBRANCH  17  19
ENDBRANCH  16  17
ENDBRANCH   1  16
TORSDOF 6
ENDMDL
MODEL 9
REMARK VINA RESULT:    -9.799      6.286     11.159
REMARK INTER + INTRA:         -13.442
REMARK INTER:                 -12.188
REMARK INTRA:                  -1.254
REMARK UNBOUND:                -0.492
REMARK SMILES O=C1C(=NCCNc2c3c(nc4cc(Cl)ccc24)CCCC3)C=C(O)c2ccccc21
REMARK SMILES IDX 5 1 4 2 3 3 24 4 23 5 26 6 27 7 31 8 2 9 28 10 30 11 29 12
REMARK SMILES IDX 1 13 25 14 6 16 7 17 8 19 9 20 18 21 10 22 22 23 17 24 12 25
REMARK SMILES IDX 11 26 19 27 21 28 16 29 13 30 20 31 14 32 15 33
REMARK H PARENT 25 15 7 18
ROOT
ATOM      1  C   UNL     1      14.030 -50.484 -26.421  1.00  0.00     0.164 C 
ENDROOT
BRANCH   1   2
ATOM      2  N   UNL     1      14.206 -51.526 -25.410  1.00  0.00    -0.279 NA
BRANCH   2   3
ATOM      3  C   UNL     1      13.316 -51.805 -24.525  1.00  0.00     0.109 C 
ATOM      4  C   UNL     1      12.087 -51.453 -22.419  1.00  0.00     0.125 C 
ATOM      5  C   UNL     1      12.949 -50.996 -23.335  1.00  0.00     0.078 C 
ATOM      6  C   UNL     1      11.445 -52.774 -22.523  1.00  0.00     0.028 A 
ATOM      7  C   UNL     1      10.596 -53.255 -21.514  1.00  0.00     0.013 A 
ATOM      8  C   UNL     1      11.658 -53.582 -23.645  1.00  0.00     0.035 A 
ATOM      9  C   UNL     1      12.542 -53.109 -24.727  1.00  0.00     0.211 C 
ATOM     10  C   UNL     1       9.980 -54.506 -21.626  1.00  0.00     0.001 A 
ATOM     11  C   UNL     1      11.038 -54.835 -23.764  1.00  0.00     0.013 A 
ATOM     12  C   UNL     1      10.200 -55.295 -22.751  1.00  0.00     0.001 A 
ATOM     13  O   UNL     1      12.656 -53.741 -25.770  1.00  0.00    -0.287 OA
BRANCH   4  14
ATOM     14  O   UNL     1      11.744 -50.711 -21.306  1.00  0.00    -0.507 OA
ATOM     15  H   UNL     1      12.182 -49.845 -21.339  1.00  0.00     0.293 HD
ENDBRANCH   4  14
ENDBRANCH   2   3
ENDBRANCH   1   2
BRANCH   1  16
ATOM     16  C   UNL     1      15.353 -49.740 -26.671  1.00  0.00     0.136 C 
BRANCH  16  17
ATOM     17  N   UNL     1      15.295 -48.348 -26.188  1.00  0.00    -0.382 N 
ATOM     18  H   UNL     1      16.126 -47.856 -26.525  1.00  0.00     0.160 HD
BRANCH  17  19
ATOM     19  C   UNL     1      15.149 -48.237 -24.780  1.00  0.00     0.049 A 
ATOM     20  C   UNL     1      16.120 -48.743 -23.901  1.00  0.00    -0.003 A 
ATOM     21  C   UNL     1      13.964 -47.660 -24.234  1.00  0.00     0.024 A 
ATOM     22  C   UNL     1      15.858 -48.672 -22.528  1.00  0.00     0.046 A 
ATOM     23  C   UNL     1      17.464 -49.300 -24.297  1.00  0.00     0.039 C 
ATOM     24  C   UNL     1      12.951 -47.063 -25.023  1.00  0.00     0.014 A 
ATOM     25  C   UNL     1      13.808 -47.659 -22.830  1.00  0.00     0.074 A 
ATOM     26  N   UNL     1      14.727 -48.160 -21.997  1.00  0.00    -0.252 NA
ATOM     27  C   UNL     1      16.906 -49.173 -21.568  1.00  0.00     0.056 C 
ATOM     28  C   UNL     1      17.801 -50.576 -23.518  1.00  0.00     0.005 C 
ATOM     29  C   UNL     1      11.808 -46.515 -24.446  1.00  0.00     0.021 A 
ATOM     30  C   UNL     1      12.661 -47.113 -22.272  1.00  0.00     0.049 A 
ATOM     31  C   UNL     1      17.448 -50.524 -22.026  1.00  0.00     0.007 C 
ATOM     32  C   UNL     1      11.667 -46.550 -23.066  1.00  0.00     0.043 A 
ATOM     33  Cl  UNL     1      10.261 -45.881 -22.334  1.00  0.00    -0.084 Cl
ENDBRANCH  17  19
ENDBRANCH  16  17
ENDBRANCH   1  16
TORSDOF 6
ENDMDL
