MODEL 1
REMARK VINA RESULT:   -10.897      0.000      0.000
REMARK INTER + INTRA:         -16.680
REMARK INTER:                 -15.675
REMARK INTRA:                  -1.005
REMARK UNBOUND:                -1.005
REMARK SMILES COc1cc(C=Cc2nnc(-c3ccc(OC(F)(F)F)cc3)o2)ccc1O
REMARK SMILES IDX 8 1 9 2 10 3 11 4 23 5 7 6 6 7 5 8 26 9 25 10 3 11 24 12
REMARK SMILES IDX 4 13 27 14 2 16 1 17 12 18 13 19 22 20 14 21 21 22 15 23
REMARK SMILES IDX 16 24 17 25 18 26 19 27 20 28
REMARK H PARENT 27 15
ROOT
ATOM      1  C   UNL     1      11.652 -59.102 -23.662  1.00  0.00     0.241 A 
ATOM      2  N   UNL     1      11.751 -59.367 -22.366  1.00  0.00    -0.108 NA
ATOM      3  N   UNL     1      11.451 -58.216 -21.672  1.00  0.00    -0.107 NA
ATOM      4  C   UNL     1      11.184 -57.299 -22.575  1.00  0.00     0.248 A 
ATOM      5  O   UNL     1      11.290 -57.778 -23.851  1.00  0.00    -0.417 OA
ENDROOT
BRANCH   1   6
ATOM      6  C   UNL     1      11.871 -59.984 -24.753  1.00  0.00     0.071 C 
BRANCH   6   7
ATOM      7  C   UNL     1      10.845 -60.550 -25.408  1.00  0.00     0.014 C 
BRANCH   7   8
ATOM      8  C   UNL     1       9.699 -61.177 -24.735  1.00  0.00    -0.022 A 
ATOM      9  C   UNL     1       7.551 -62.453 -23.487  1.00  0.00     0.157 A 
ATOM     10  C   UNL     1       8.771 -63.115 -23.609  1.00  0.00     0.051 A 
ATOM     11  C   UNL     1       7.376 -61.158 -23.994  1.00  0.00     0.161 A 
ATOM     12  C   UNL     1       9.841 -62.477 -24.238  1.00  0.00     0.012 A 
ATOM     13  C   UNL     1       8.458 -60.529 -24.621  1.00  0.00     0.058 A 
BRANCH   9  14
ATOM     14  O   UNL     1       6.500 -63.077 -22.869  1.00  0.00    -0.504 OA
ATOM     15  H   UNL     1       6.786 -63.949 -22.554  1.00  0.00     0.293 HD
ENDBRANCH   9  14
BRANCH  11  16
ATOM     16  O   UNL     1       6.132 -60.608 -23.828  1.00  0.00    -0.493 OA
ATOM     17  C   UNL     1       6.044 -59.386 -23.112  1.00  0.00     0.278 C 
ENDBRANCH  11  16
ENDBRANCH   7   8
ENDBRANCH   6   7
ENDBRANCH   1   6
BRANCH   4  18
ATOM     18  C   UNL     1      10.808 -55.902 -22.408  1.00  0.00     0.039 A 
ATOM     19  C   UNL     1      10.237 -55.201 -23.480  1.00  0.00     0.017 A 
ATOM     20  C   UNL     1      10.996 -55.221 -21.198  1.00  0.00     0.017 A 
ATOM     21  C   UNL     1       9.865 -53.856 -23.354  1.00  0.00     0.047 A 
ATOM     22  C   UNL     1      10.623 -53.878 -21.073  1.00  0.00     0.047 A 
ATOM     23  C   UNL     1      10.055 -53.186 -22.146  1.00  0.00     0.129 A 
BRANCH  23  24
ATOM     24  O   UNL     1       9.743 -51.886 -21.878  1.00  0.00    -0.406 OA
BRANCH  24  25
ATOM     25  C   UNL     1      10.742 -50.905 -22.099  1.00  0.00     0.573 C 
ATOM     26  F   UNL     1      11.587 -50.826 -21.048  1.00  0.00    -0.132 F 
ATOM     27  F   UNL     1      10.195 -49.694 -22.330  1.00  0.00    -0.132 F 
ATOM     28  F   UNL     1      11.461 -51.257 -23.188  1.00  0.00    -0.132 F 
ENDBRANCH  24  25
ENDBRANCH  23  24
ENDBRANCH   4  18
TORSDOF 8
ENDMDL
MODEL 2
REMARK VINA RESULT:   -10.628      1.872      2.392
REMARK INTER + INTRA:         -16.292
REMARK INTER:                 -15.749
REMARK INTRA:                  -0.543
REMARK UNBOUND:                -1.005
REMARK SMILES COc1cc(C=Cc2nnc(-c3ccc(OC(F)(F)F)cc3)o2)ccc1O
REMARK SMILES IDX 8 1 9 2 10 3 11 4 23 5 7 6 6 7 5 8 26 9 25 10 3 11 24 12
REMARK SMILES IDX 4 13 27 14 2 16 1 17 12 18 13 19 22 20 14 21 21 22 15 23
REMARK SMILES IDX 16 24 17 25 18 26 19 27 20 28
REMARK H PARENT 27 15
ROOT
ATOM      1  C   UNL     1      10.765 -57.547 -22.543  1.00  0.00     0.241 A 
ATOM      2  N   UNL     1       9.768 -57.296 -23.380  1.00  0.00    -0.108 NA
ATOM      3  N   UNL     1       9.710 -55.933 -23.576  1.00  0.00    -0.107 NA
ATOM      4  C   UNL     1      10.674 -55.415 -22.848  1.00  0.00     0.248 A 
ATOM      5  O   UNL     1      11.382 -56.366 -22.167  1.00  0.00    -0.417 OA
ENDROOT
BRANCH   1   6
ATOM      6  C   UNL     1      11.196 -58.809 -22.054  1.00  0.00     0.071 C 
BRANCH   6   7
ATOM      7  C   UNL     1      10.328 -59.687 -21.527  1.00  0.00     0.014 C 
BRANCH   7   8
ATOM      8  C   UNL     1       9.339 -60.426 -22.324  1.00  0.00    -0.022 A 
ATOM      9  C   UNL     1       7.531 -61.869 -23.891  1.00  0.00     0.157 A 
ATOM     10  C   UNL     1       8.800 -62.390 -23.643  1.00  0.00     0.051 A 
ATOM     11  C   UNL     1       7.149 -60.621 -23.378  1.00  0.00     0.161 A 
ATOM     12  C   UNL     1       9.702 -61.665 -22.864  1.00  0.00     0.012 A 
ATOM     13  C   UNL     1       8.063 -59.904 -22.597  1.00  0.00     0.058 A 
BRANCH   9  14
ATOM     14  O   UNL     1       6.643 -62.580 -24.653  1.00  0.00    -0.504 OA
ATOM     15  H   UNL     1       7.090 -63.357 -25.022  1.00  0.00     0.293 HD
ENDBRANCH   9  14
BRANCH  11  16
ATOM     16  O   UNL     1       5.883 -60.201 -23.693  1.00  0.00    -0.493 OA
ATOM     17  C   UNL     1       5.347 -59.114 -22.955  1.00  0.00     0.278 C 
ENDBRANCH  11  16
ENDBRANCH   7   8
ENDBRANCH   6   7
ENDBRANCH   1   6
BRANCH   4  18
ATOM     18  C   UNL     1      11.073 -54.024 -22.675  1.00  0.00     0.039 A 
ATOM     19  C   UNL     1      11.842 -53.392 -23.662  1.00  0.00     0.017 A 
ATOM     20  C   UNL     1      10.710 -53.283 -21.544  1.00  0.00     0.017 A 
ATOM     21  C   UNL     1      12.244 -52.056 -23.527  1.00  0.00     0.047 A 
ATOM     22  C   UNL     1      11.111 -51.948 -21.410  1.00  0.00     0.047 A 
ATOM     23  C   UNL     1      11.878 -51.326 -22.398  1.00  0.00     0.129 A 
BRANCH  23  24
ATOM     24  O   UNL     1      12.193 -50.025 -22.132  1.00  0.00    -0.406 OA
BRANCH  24  25
ATOM     25  C   UNL     1      11.499 -49.016 -22.845  1.00  0.00     0.573 C 
ATOM     26  F   UNL     1      10.182 -49.304 -22.938  1.00  0.00    -0.132 F 
ATOM     27  F   UNL     1      12.013 -48.852 -24.082  1.00  0.00    -0.132 F 
ATOM     28  F   UNL     1      11.626 -47.848 -22.178  1.00  0.00    -0.132 F 
ENDBRANCH  24  25
ENDBRANCH  23  24
ENDBRANCH   4  18
TORSDOF 8
ENDMDL
MODEL 3
REMARK VINA RESULT:   -10.586      1.871      2.203
REMARK INTER + INTRA:         -16.231
REMARK INTER:                 -15.377
REMARK INTRA:                  -0.854
REMARK UNBOUND:                -1.005
REMARK SMILES COc1cc(C=Cc2nnc(-c3ccc(OC(F)(F)F)cc3)o2)ccc1O
REMARK SMILES IDX 8 1 9 2 10 3 11 4 23 5 7 6 6 7 5 8 26 9 25 10 3 11 24 12
REMARK SMILES IDX 4 13 27 14 2 16 1 17 12 18 13 19 22 20 14 21 21 22 15 23
REMARK SMILES IDX 16 24 17 25 18 26 19 27 20 28
REMARK H PARENT 27 15
ROOT
ATOM      1  C   UNL     1      11.143 -59.490 -22.848  1.00  0.00     0.241 A 
ATOM      2  N   UNL     1      11.179 -59.440 -21.523  1.00  0.00    -0.108 NA
ATOM      3  N   UNL     1      11.175 -58.115 -21.147  1.00  0.00    -0.107 NA
ATOM      4  C   UNL     1      11.136 -57.416 -22.260  1.00  0.00     0.248 A 
ATOM      5  O   UNL     1      11.116 -58.209 -23.373  1.00  0.00    -0.417 OA
ENDROOT
BRANCH   1   6
ATOM      6  C   UNL     1      11.134 -60.643 -23.677  1.00  0.00     0.071 C 
BRANCH   6   7
ATOM      7  C   UNL     1      10.646 -61.814 -23.239  1.00  0.00     0.014 C 
BRANCH   7   8
ATOM      8  C   UNL     1       9.492 -62.491 -23.847  1.00  0.00    -0.022 A 
ATOM      9  C   UNL     1       7.316 -63.854 -24.946  1.00  0.00     0.157 A 
ATOM     10  C   UNL     1       7.652 -64.054 -23.608  1.00  0.00     0.051 A 
ATOM     11  C   UNL     1       8.062 -62.988 -25.758  1.00  0.00     0.161 A 
ATOM     12  C   UNL     1       8.743 -63.376 -23.064  1.00  0.00     0.012 A 
ATOM     13  C   UNL     1       9.153 -62.313 -25.199  1.00  0.00     0.058 A 
BRANCH   9  14
ATOM     14  O   UNL     1       6.244 -64.517 -25.482  1.00  0.00    -0.504 OA
ATOM     15  H   UNL     1       6.501 -64.904 -26.333  1.00  0.00     0.293 HD
ENDBRANCH   9  14
BRANCH  11  16
ATOM     16  O   UNL     1       7.648 -62.876 -27.059  1.00  0.00    -0.493 OA
ATOM     17  C   UNL     1       8.647 -62.864 -28.068  1.00  0.00     0.278 C 
ENDBRANCH  11  16
ENDBRANCH   7   8
ENDBRANCH   6   7
ENDBRANCH   1   6
BRANCH   4  18
ATOM     18  C   UNL     1      11.115 -55.973 -22.459  1.00  0.00     0.039 A 
ATOM     19  C   UNL     1      11.385 -55.441 -23.728  1.00  0.00     0.017 A 
ATOM     20  C   UNL     1      10.830 -55.083 -21.415  1.00  0.00     0.017 A 
ATOM     21  C   UNL     1      11.374 -54.058 -23.954  1.00  0.00     0.047 A 
ATOM     22  C   UNL     1      10.819 -53.702 -21.642  1.00  0.00     0.047 A 
ATOM     23  C   UNL     1      11.089 -53.180 -22.910  1.00  0.00     0.129 A 
BRANCH  23  24
ATOM     24  O   UNL     1      11.042 -51.818 -22.981  1.00  0.00    -0.406 OA
BRANCH  24  25
ATOM     25  C   UNL     1      12.261 -51.123 -23.179  1.00  0.00     0.573 C 
ATOM     26  F   UNL     1      13.295 -51.782 -22.611  1.00  0.00    -0.132 F 
ATOM     27  F   UNL     1      12.196 -49.871 -22.679  1.00  0.00    -0.132 F 
ATOM     28  F   UNL     1      12.500 -51.034 -24.506  1.00  0.00    -0.132 F 
ENDBRANCH  24  25
ENDBRANCH  23  24
ENDBRANCH   4  18
TORSDOF 8
ENDMDL
MODEL 4
REMARK VINA RESULT:   -10.096      2.075      3.329
REMARK INTER + INTRA:         -15.527
REMARK INTER:                 -15.066
REMARK INTRA:                  -0.461
REMARK UNBOUND:                -1.005
REMARK SMILES COc1cc(C=Cc2nnc(-c3ccc(OC(F)(F)F)cc3)o2)ccc1O
REMARK SMILES IDX 8 1 9 2 10 3 11 4 23 5 7 6 6 7 5 8 26 9 25 10 3 11 24 12
REMARK SMILES IDX 4 13 27 14 2 16 1 17 12 18 13 19 22 20 14 21 21 22 15 23
REMARK SMILES IDX 16 24 17 25 18 26 19 27 20 28
REMARK H PARENT 27 15
ROOT
ATOM      1  C   UNL     1      11.207 -56.619 -22.572  1.00  0.00     0.241 A 
ATOM      2  N   UNL     1      11.321 -56.565 -23.892  1.00  0.00    -0.108 NA
ATOM      3  N   UNL     1      11.462 -55.243 -24.254  1.00  0.00    -0.107 NA
ATOM      4  C   UNL     1      11.427 -54.550 -23.138  1.00  0.00     0.248 A 
ATOM      5  O   UNL     1      11.267 -55.344 -22.036  1.00  0.00    -0.417 OA
ENDROOT
BRANCH   1   6
ATOM      6  C   UNL     1      11.042 -57.770 -21.757  1.00  0.00     0.071 C 
BRANCH   6   7
ATOM      7  C   UNL     1      10.778 -58.972 -22.293  1.00  0.00     0.014 C 
BRANCH   7   8
ATOM      8  C   UNL     1       9.443 -59.379 -22.754  1.00  0.00    -0.022 A 
ATOM      9  C   UNL     1       6.871 -60.072 -23.593  1.00  0.00     0.157 A 
ATOM     10  C   UNL     1       7.234 -58.728 -23.516  1.00  0.00     0.051 A 
ATOM     11  C   UNL     1       7.772 -61.086 -23.241  1.00  0.00     0.161 A 
ATOM     12  C   UNL     1       8.517 -58.385 -23.092  1.00  0.00     0.012 A 
ATOM     13  C   UNL     1       9.058 -60.728 -22.819  1.00  0.00     0.058 A 
BRANCH   9  14
ATOM     14  O   UNL     1       5.611 -60.411 -24.010  1.00  0.00    -0.504 OA
ATOM     15  H   UNL     1       5.664 -61.193 -24.582  1.00  0.00     0.293 HD
ENDBRANCH   9  14
BRANCH  11  16
ATOM     16  O   UNL     1       7.306 -62.370 -23.344  1.00  0.00    -0.493 OA
ATOM     17  C   UNL     1       8.134 -63.412 -22.853  1.00  0.00     0.278 C 
ENDBRANCH  11  16
ENDBRANCH   7   8
ENDBRANCH   6   7
ENDBRANCH   1   6
BRANCH   4  18
ATOM     18  C   UNL     1      11.529 -53.112 -22.924  1.00  0.00     0.039 A 
ATOM     19  C   UNL     1      10.902 -52.526 -21.816  1.00  0.00     0.017 A 
ATOM     20  C   UNL     1      12.242 -52.281 -23.797  1.00  0.00     0.017 A 
ATOM     21  C   UNL     1      10.979 -51.147 -21.581  1.00  0.00     0.047 A 
ATOM     22  C   UNL     1      12.319 -50.903 -23.562  1.00  0.00     0.047 A 
ATOM     23  C   UNL     1      11.691 -50.327 -22.455  1.00  0.00     0.129 A 
BRANCH  23  24
ATOM     24  O   UNL     1      11.852 -48.976 -22.355  1.00  0.00    -0.406 OA
BRANCH  24  25
ATOM     25  C   UNL     1      10.776 -48.148 -22.763  1.00  0.00     0.573 C 
ATOM     26  F   UNL     1      10.666 -47.063 -21.966  1.00  0.00    -0.132 F 
ATOM     27  F   UNL     1       9.610 -48.828 -22.762  1.00  0.00    -0.132 F 
ATOM     28  F   UNL     1      11.012 -47.720 -24.023  1.00  0.00    -0.132 F 
ENDBRANCH  24  25
ENDBRANCH  23  24
ENDBRANCH   4  18
TORSDOF 8
ENDMDL
MODEL 5
REMARK VINA RESULT:   -10.084      4.850      9.983
REMARK INTER + INTRA:         -15.510
REMARK INTER:                 -14.802
REMARK INTRA:                  -0.709
REMARK UNBOUND:                -1.005
REMARK SMILES COc1cc(C=Cc2nnc(-c3ccc(OC(F)(F)F)cc3)o2)ccc1O
REMARK SMILES IDX 8 1 9 2 10 3 11 4 23 5 7 6 6 7 5 8 26 9 25 10 3 11 24 12
REMARK SMILES IDX 4 13 27 14 2 16 1 17 12 18 13 19 22 20 14 21 21 22 15 23
REMARK SMILES IDX 16 24 17 25 18 26 19 27 20 28
REMARK H PARENT 27 15
ROOT
ATOM      1  C   UNL     1      10.485 -55.771 -22.965  1.00  0.00     0.241 A 
ATOM      2  N   UNL     1      11.378 -56.384 -22.200  1.00  0.00    -0.108 NA
ATOM      3  N   UNL     1      11.016 -57.710 -22.103  1.00  0.00    -0.107 NA
ATOM      4  C   UNL     1       9.918 -57.846 -22.813  1.00  0.00     0.248 A 
ATOM      5  O   UNL     1       9.520 -56.670 -23.386  1.00  0.00    -0.417 OA
ENDROOT
BRANCH   1   6
ATOM      6  C   UNL     1      10.452 -54.402 -23.341  1.00  0.00     0.071 C 
BRANCH   6   7
ATOM      7  C   UNL     1      11.380 -53.536 -22.904  1.00  0.00     0.014 C 
BRANCH   7   8
ATOM      8  C   UNL     1      11.122 -52.103 -22.705  1.00  0.00    -0.022 A 
ATOM      9  C   UNL     1      10.538 -49.396 -22.342  1.00  0.00     0.157 A 
ATOM     10  C   UNL     1       9.599 -50.360 -21.976  1.00  0.00     0.051 A 
ATOM     11  C   UNL     1      11.769 -49.761 -22.904  1.00  0.00     0.161 A 
ATOM     12  C   UNL     1       9.892 -51.710 -22.164  1.00  0.00     0.012 A 
ATOM     13  C   UNL     1      12.050 -51.119 -23.085  1.00  0.00     0.058 A 
BRANCH   9  14
ATOM     14  O   UNL     1      10.254 -48.069 -22.157  1.00  0.00    -0.504 OA
ATOM     15  H   UNL     1       9.455 -47.840 -22.657  1.00  0.00     0.293 HD
ENDBRANCH   9  14
BRANCH  11  16
ATOM     16  O   UNL     1      12.610 -48.731 -23.235  1.00  0.00    -0.493 OA
ATOM     17  C   UNL     1      13.951 -48.802 -22.774  1.00  0.00     0.278 C 
ENDBRANCH  11  16
ENDBRANCH   7   8
ENDBRANCH   6   7
ENDBRANCH   1   6
BRANCH   4  18
ATOM     18  C   UNL     1       9.103 -59.027 -23.061  1.00  0.00     0.039 A 
ATOM     19  C   UNL     1       9.517 -60.274 -22.570  1.00  0.00     0.017 A 
ATOM     20  C   UNL     1       7.903 -58.965 -23.780  1.00  0.00     0.017 A 
ATOM     21  C   UNL     1       8.757 -61.431 -22.790  1.00  0.00     0.047 A 
ATOM     22  C   UNL     1       7.144 -60.121 -23.999  1.00  0.00     0.047 A 
ATOM     23  C   UNL     1       7.564 -61.359 -23.507  1.00  0.00     0.129 A 
BRANCH  23  24
ATOM     24  O   UNL     1       6.725 -62.395 -23.798  1.00  0.00    -0.406 OA
BRANCH  24  25
ATOM     25  C   UNL     1       7.248 -63.483 -24.540  1.00  0.00     0.573 C 
ATOM     26  F   UNL     1       6.345 -63.944 -25.432  1.00  0.00    -0.132 F 
ATOM     27  F   UNL     1       7.632 -64.489 -23.727  1.00  0.00    -0.132 F 
ATOM     28  F   UNL     1       8.334 -63.059 -25.225  1.00  0.00    -0.132 F 
ENDBRANCH  24  25
ENDBRANCH  23  24
ENDBRANCH   4  18
TORSDOF 8
ENDMDL
MODEL 6
REMARK VINA RESULT:    -9.957      5.202      9.696
REMARK INTER + INTRA:         -15.328
REMARK INTER:                 -14.447
REMARK INTRA:                  -0.881
REMARK UNBOUND:                -1.005
REMARK SMILES COc1cc(C=Cc2nnc(-c3ccc(OC(F)(F)F)cc3)o2)ccc1O
REMARK SMILES IDX 8 1 9 2 10 3 11 4 23 5 7 6 6 7 5 8 26 9 25 10 3 11 24 12
REMARK SMILES IDX 4 13 27 14 2 16 1 17 12 18 13 19 22 20 14 21 21 22 15 23
REMARK SMILES IDX 16 24 17 25 18 26 19 27 20 28
REMARK H PARENT 27 15
ROOT
ATOM      1  C   UNL     1      10.588 -55.840 -22.776  1.00  0.00     0.241 A 
ATOM      2  N   UNL     1      11.338 -56.083 -21.709  1.00  0.00    -0.108 NA
ATOM      3  N   UNL     1      11.339 -57.443 -21.491  1.00  0.00    -0.107 NA
ATOM      4  C   UNL     1      10.589 -57.968 -22.434  1.00  0.00     0.248 A 
ATOM      5  O   UNL     1      10.079 -57.024 -23.281  1.00  0.00    -0.417 OA
ENDROOT
BRANCH   1   6
ATOM      6  C   UNL     1      10.299 -54.583 -23.371  1.00  0.00     0.071 C 
BRANCH   6   7
ATOM      7  C   UNL     1      10.987 -53.479 -23.039  1.00  0.00     0.014 C 
BRANCH   7   8
ATOM      8  C   UNL     1      11.953 -52.826 -23.933  1.00  0.00    -0.022 A 
ATOM      9  C   UNL     1      13.833 -51.669 -25.644  1.00  0.00     0.157 A 
ATOM     10  C   UNL     1      13.431 -52.988 -25.850  1.00  0.00     0.051 A 
ATOM     11  C   UNL     1      13.320 -50.914 -24.581  1.00  0.00     0.161 A 
ATOM     12  C   UNL     1      12.496 -53.565 -24.990  1.00  0.00     0.012 A 
ATOM     13  C   UNL     1      12.381 -51.504 -23.727  1.00  0.00     0.058 A 
BRANCH   9  14
ATOM     14  O   UNL     1      14.750 -51.100 -26.488  1.00  0.00    -0.504 OA
ATOM     15  H   UNL     1      15.028 -50.244 -26.127  1.00  0.00     0.293 HD
ENDBRANCH   9  14
BRANCH  11  16
ATOM     16  O   UNL     1      13.793 -49.633 -24.467  1.00  0.00    -0.493 OA
ATOM     17  C   UNL     1      12.863 -48.572 -24.622  1.00  0.00     0.278 C 
ENDBRANCH  11  16
ENDBRANCH   7   8
ENDBRANCH   6   7
ENDBRANCH   1   6
BRANCH   4  18
ATOM     18  C   UNL     1      10.242 -59.361 -22.687  1.00  0.00     0.039 A 
ATOM     19  C   UNL     1      10.166 -60.265 -21.619  1.00  0.00     0.017 A 
ATOM     20  C   UNL     1       9.976 -59.837 -23.977  1.00  0.00     0.017 A 
ATOM     21  C   UNL     1       9.836 -61.611 -21.827  1.00  0.00     0.047 A 
ATOM     22  C   UNL     1       9.645 -61.181 -24.184  1.00  0.00     0.047 A 
ATOM     23  C   UNL     1       9.572 -62.076 -23.114  1.00  0.00     0.129 A 
BRANCH  23  24
ATOM     24  O   UNL     1       9.239 -63.352 -23.466  1.00  0.00    -0.406 OA
BRANCH  24  25
ATOM     25  C   UNL     1       7.880 -63.624 -23.762  1.00  0.00     0.573 C 
ATOM     26  F   UNL     1       7.643 -63.533 -25.089  1.00  0.00    -0.132 F 
ATOM     27  F   UNL     1       7.059 -62.783 -23.099  1.00  0.00    -0.132 F 
ATOM     28  F   UNL     1       7.595 -64.886 -23.371  1.00  0.00    -0.132 F 
ENDBRANCH  24  25
ENDBRANCH  23  24
ENDBRANCH   4  18
TORSDOF 8
ENDMDL
MODEL 7
REMARK VINA RESULT:    -9.935      5.073      9.758
REMARK INTER + INTRA:         -15.296
REMARK INTER:                 -14.520
REMARK INTRA:                  -0.776
REMARK UNBOUND:                -1.005
REMARK SMILES COc1cc(C=Cc2nnc(-c3ccc(OC(F)(F)F)cc3)o2)ccc1O
REMARK SMILES IDX 8 1 9 2 10 3 11 4 23 5 7 6 6 7 5 8 26 9 25 10 3 11 24 12
REMARK SMILES IDX 4 13 27 14 2 16 1 17 12 18 13 19 22 20 14 21 21 22 15 23
REMARK SMILES IDX 16 24 17 25 18 26 19 27 20 28
REMARK H PARENT 27 15
ROOT
ATOM      1  C   UNL     1      11.121 -56.441 -22.594  1.00  0.00     0.241 A 
ATOM      2  N   UNL     1      11.752 -56.551 -23.756  1.00  0.00    -0.108 NA
ATOM      3  N   UNL     1      11.603 -57.847 -24.200  1.00  0.00    -0.107 NA
ATOM      4  C   UNL     1      10.889 -58.469 -23.289  1.00  0.00     0.248 A 
ATOM      5  O   UNL     1      10.548 -57.652 -22.247  1.00  0.00    -0.417 OA
ENDROOT
BRANCH   1   6
ATOM      6  C   UNL     1      11.007 -55.291 -21.769  1.00  0.00     0.071 C 
BRANCH   6   7
ATOM      7  C   UNL     1      10.407 -54.174 -22.208  1.00  0.00     0.014 C 
BRANCH   7   8
ATOM      8  C   UNL     1      11.140 -52.970 -22.625  1.00  0.00    -0.022 A 
ATOM      9  C   UNL     1      12.464 -50.628 -23.376  1.00  0.00     0.157 A 
ATOM     10  C   UNL     1      11.735 -50.659 -22.189  1.00  0.00     0.051 A 
ATOM     11  C   UNL     1      12.534 -51.751 -24.212  1.00  0.00     0.161 A 
ATOM     12  C   UNL     1      11.070 -51.828 -21.819  1.00  0.00     0.012 A 
ATOM     13  C   UNL     1      11.863 -52.919 -23.829  1.00  0.00     0.058 A 
BRANCH   9  14
ATOM     14  O   UNL     1      13.119 -49.482 -23.740  1.00  0.00    -0.504 OA
ATOM     15  H   UNL     1      12.571 -48.987 -24.369  1.00  0.00     0.293 HD
ENDBRANCH   9  14
BRANCH  11  16
ATOM     16  O   UNL     1      13.269 -51.606 -25.359  1.00  0.00    -0.493 OA
ATOM     17  C   UNL     1      14.601 -52.097 -25.354  1.00  0.00     0.278 C 
ENDBRANCH  11  16
ENDBRANCH   7   8
ENDBRANCH   6   7
ENDBRANCH   1   6
BRANCH   4  18
ATOM     18  C   UNL     1      10.432 -59.852 -23.240  1.00  0.00     0.039 A 
ATOM     19  C   UNL     1      10.083 -60.427 -22.011  1.00  0.00     0.017 A 
ATOM     20  C   UNL     1      10.324 -60.639 -24.394  1.00  0.00     0.017 A 
ATOM     21  C   UNL     1       9.641 -61.754 -21.928  1.00  0.00     0.047 A 
ATOM     22  C   UNL     1       9.882 -61.965 -24.310  1.00  0.00     0.047 A 
ATOM     23  C   UNL     1       9.537 -62.531 -23.081  1.00  0.00     0.129 A 
BRANCH  23  24
ATOM     24  O   UNL     1       9.124 -63.829 -23.153  1.00  0.00    -0.406 OA
BRANCH  24  25
ATOM     25  C   UNL     1       7.771 -64.075 -23.498  1.00  0.00     0.573 C 
ATOM     26  F   UNL     1       6.942 -63.224 -22.855  1.00  0.00    -0.132 F 
ATOM     27  F   UNL     1       7.419 -65.347 -23.215  1.00  0.00    -0.132 F 
ATOM     28  F   UNL     1       7.620 -63.882 -24.827  1.00  0.00    -0.132 F 
ENDBRANCH  24  25
ENDBRANCH  23  24
ENDBRANCH   4  18
TORSDOF 8
ENDMDL
MODEL 8
REMARK VINA RESULT:    -9.892      1.895      2.476
REMARK INTER + INTRA:         -15.234
REMARK INTER:                 -14.485
REMARK INTRA:                  -0.749
REMARK UNBOUND:                -1.005
REMARK SMILES COc1cc(C=Cc2nnc(-c3ccc(OC(F)(F)F)cc3)o2)ccc1O
REMARK SMILES IDX 8 1 9 2 10 3 11 4 23 5 7 6 6 7 5 8 26 9 25 10 3 11 24 12
REMARK SMILES IDX 4 13 27 14 2 16 1 17 12 18 13 19 22 20 14 21 21 22 15 23
REMARK SMILES IDX 16 24 17 25 18 26 19 27 20 28
REMARK H PARENT 27 15
ROOT
ATOM      1  C   UNL     1      11.045 -58.182 -23.073  1.00  0.00     0.241 A 
ATOM      2  N   UNL     1       9.790 -57.987 -23.452  1.00  0.00    -0.108 NA
ATOM      3  N   UNL     1       9.526 -56.637 -23.372  1.00  0.00    -0.107 NA
ATOM      4  C   UNL     1      10.633 -56.070 -22.946  1.00  0.00     0.248 A 
ATOM      5  O   UNL     1      11.634 -56.976 -22.734  1.00  0.00    -0.417 OA
ENDROOT
BRANCH   1   6
ATOM      6  C   UNL     1      11.752 -59.412 -22.996  1.00  0.00     0.071 C 
BRANCH   6   7
ATOM      7  C   UNL     1      11.911 -60.194 -24.075  1.00  0.00     0.014 C 
BRANCH   7   8
ATOM      8  C   UNL     1      10.819 -60.964 -24.687  1.00  0.00    -0.022 A 
ATOM      9  C   UNL     1       8.724 -62.353 -25.904  1.00  0.00     0.157 A 
ATOM     10  C   UNL     1       9.450 -61.416 -26.638  1.00  0.00     0.051 A 
ATOM     11  C   UNL     1       9.017 -62.602 -24.557  1.00  0.00     0.161 A 
ATOM     12  C   UNL     1      10.492 -60.720 -26.025  1.00  0.00     0.012 A 
ATOM     13  C   UNL     1      10.066 -61.898 -23.954  1.00  0.00     0.058 A 
BRANCH   9  14
ATOM     14  O   UNL     1       7.701 -63.038 -26.504  1.00  0.00    -0.504 OA
ATOM     15  H   UNL     1       7.341 -62.504 -27.229  1.00  0.00     0.293 HD
ENDBRANCH   9  14
BRANCH  11  16
ATOM     16  O   UNL     1       8.233 -63.534 -23.930  1.00  0.00    -0.493 OA
ATOM     17  C   UNL     1       8.505 -63.813 -22.566  1.00  0.00     0.278 C 
ENDBRANCH  11  16
ENDBRANCH   7   8
ENDBRANCH   6   7
ENDBRANCH   1   6
BRANCH   4  18
ATOM     18  C   UNL     1      10.924 -54.667 -22.680  1.00  0.00     0.039 A 
ATOM     19  C   UNL     1      11.516 -53.878 -23.677  1.00  0.00     0.017 A 
ATOM     20  C   UNL     1      10.630 -54.068 -21.449  1.00  0.00     0.017 A 
ATOM     21  C   UNL     1      11.810 -52.526 -23.454  1.00  0.00     0.047 A 
ATOM     22  C   UNL     1      10.925 -52.717 -21.228  1.00  0.00     0.047 A 
ATOM     23  C   UNL     1      11.514 -51.938 -22.225  1.00  0.00     0.129 A 
BRANCH  23  24
ATOM     24  O   UNL     1      11.742 -50.641 -21.868  1.00  0.00    -0.406 OA
BRANCH  24  25
ATOM     25  C   UNL     1      11.147 -49.623 -22.654  1.00  0.00     0.573 C 
ATOM     26  F   UNL     1       9.817 -49.824 -22.784  1.00  0.00    -0.132 F 
ATOM     27  F   UNL     1      11.714 -49.555 -23.876  1.00  0.00    -0.132 F 
ATOM     28  F   UNL     1      11.332 -48.434 -22.037  1.00  0.00    -0.132 F 
ENDBRANCH  24  25
ENDBRANCH  23  24
ENDBRANCH   4  18
TORSDOF 8
ENDMDL
MODEL 9
REMARK VINA RESULT:    -9.855      4.778     10.100
REMARK INTER + INTRA:         -15.180
REMARK INTER:                 -14.450
REMARK INTRA:                  -0.730
REMARK UNBOUND:                -1.005
REMARK SMILES COc1cc(C=Cc2nnc(-c3ccc(OC(F)(F)F)cc3)o2)ccc1O
REMARK SMILES IDX 8 1 9 2 10 3 11 4 23 5 7 6 6 7 5 8 26 9 25 10 3 11 24 12
REMARK SMILES IDX 4 13 27 14 2 16 1 17 12 18 13 19 22 20 14 21 21 22 15 23
REMARK SMILES IDX 16 24 17 25 18 26 19 27 20 28
REMARK H PARENT 27 15
ROOT
ATOM      1  C   UNL     1      10.315 -54.043 -22.825  1.00  0.00     0.241 A 
ATOM      2  N   UNL     1      11.246 -54.262 -23.744  1.00  0.00    -0.108 NA
ATOM      3  N   UNL     1      11.416 -55.625 -23.861  1.00  0.00    -0.107 NA
ATOM      4  C   UNL     1      10.581 -56.175 -23.007  1.00  0.00     0.248 A 
ATOM      5  O   UNL     1       9.854 -55.245 -22.317  1.00  0.00    -0.417 OA
ENDROOT
BRANCH   1   6
ATOM      6  C   UNL     1       9.814 -52.794 -22.372  1.00  0.00     0.071 C 
BRANCH   6   7
ATOM      7  C   UNL     1      10.623 -51.877 -21.819  1.00  0.00     0.014 C 
BRANCH   7   8
ATOM      8  C   UNL     1      11.191 -50.743 -22.561  1.00  0.00    -0.022 A 
ATOM      9  C   UNL     1      12.360 -48.626 -23.959  1.00  0.00     0.157 A 
ATOM     10  C   UNL     1      12.931 -49.896 -24.024  1.00  0.00     0.051 A 
ATOM     11  C   UNL     1      11.213 -48.388 -23.190  1.00  0.00     0.161 A 
ATOM     12  C   UNL     1      12.349 -50.950 -23.320  1.00  0.00     0.012 A 
ATOM     13  C   UNL     1      10.637 -49.454 -22.490  1.00  0.00     0.058 A 
BRANCH   9  14
ATOM     14  O   UNL     1      12.929 -47.590 -24.651  1.00  0.00    -0.504 OA
ATOM     15  H   UNL     1      13.199 -47.902 -25.529  1.00  0.00     0.293 HD
ENDBRANCH   9  14
BRANCH  11  16
ATOM     16  O   UNL     1      10.743 -47.100 -23.190  1.00  0.00    -0.493 OA
ATOM     17  C   UNL     1      11.094 -46.272 -22.092  1.00  0.00     0.278 C 
ENDBRANCH  11  16
ENDBRANCH   7   8
ENDBRANCH   6   7
ENDBRANCH   1   6
BRANCH   4  18
ATOM     18  C   UNL     1      10.337 -57.580 -22.710  1.00  0.00     0.039 A 
ATOM     19  C   UNL     1      11.239 -58.288 -21.903  1.00  0.00     0.017 A 
ATOM     20  C   UNL     1       9.218 -58.261 -23.205  1.00  0.00     0.017 A 
ATOM     21  C   UNL     1      11.035 -59.640 -21.597  1.00  0.00     0.047 A 
ATOM     22  C   UNL     1       9.014 -59.612 -22.899  1.00  0.00     0.047 A 
ATOM     23  C   UNL     1       9.918 -60.310 -22.095  1.00  0.00     0.129 A 
BRANCH  23  24
ATOM     24  O   UNL     1       9.591 -61.617 -21.882  1.00  0.00    -0.406 OA
BRANCH  24  25
ATOM     25  C   UNL     1      10.023 -62.572 -22.837  1.00  0.00     0.573 C 
ATOM     26  F   UNL     1       9.226 -62.563 -23.928  1.00  0.00    -0.132 F 
ATOM     27  F   UNL     1      10.050 -63.813 -22.308  1.00  0.00    -0.132 F 
ATOM     28  F   UNL     1      11.276 -62.255 -23.231  1.00  0.00    -0.132 F 
ENDBRANCH  24  25
ENDBRANCH  23  24
ENDBRANCH   4  18
TORSDOF 8
ENDMDL
