MODEL 1
REMARK VINA RESULT:   -11.511      0.000      0.000
REMARK INTER + INTRA:         -16.727
REMARK INTER:                 -16.221
REMARK INTRA:                  -0.506
REMARK UNBOUND:                -0.506
REMARK SMILES O=C(NCCCCNc1c2c(nc3ccccc13)CCCC2)c1ccc(F)cc1
REMARK SMILES IDX 5 1 4 2 3 3 2 4 1 5 23 7 24 8 29 9 25 10 28 11 26 12 27 13
REMARK SMILES IDX 6 14 7 15 8 16 9 18 10 19 18 20 11 21 22 22 17 23 13 24
REMARK SMILES IDX 12 25 19 26 21 27 16 28 14 29 20 30 15 31
REMARK H PARENT 3 6 8 17
ROOT
ATOM      1  C   UNL     1      11.266 -58.135 -21.421  1.00  0.00     0.023 C 
ENDROOT
BRANCH   1   2
ATOM      2  C   UNL     1      10.837 -57.299 -22.607  1.00  0.00     0.116 C 
BRANCH   2   3
ATOM      3  N   UNL     1      11.365 -55.961 -22.387  1.00  0.00    -0.352 N 
ATOM      4  C   UNL     1      10.779 -54.884 -23.100  1.00  0.00     0.251 C 
ATOM      5  O   UNL     1       9.835 -55.275 -23.858  1.00  0.00    -0.269 OA
ATOM      6  H   UNL     1      12.163 -55.754 -21.723  1.00  0.00     0.163 HD
BRANCH   4   7
ATOM      7  C   UNL     1      11.219 -53.484 -22.969  1.00  0.00     0.040 A 
ATOM      8  C   UNL     1      12.072 -52.859 -23.862  1.00  0.00     0.017 A 
ATOM      9  C   UNL     1      10.716 -52.817 -21.877  1.00  0.00     0.017 A 
ATOM     10  C   UNL     1      12.398 -51.529 -23.605  1.00  0.00     0.040 A 
ATOM     11  C   UNL     1      11.029 -51.499 -21.609  1.00  0.00     0.040 A 
ATOM     12  C   UNL     1      11.871 -50.884 -22.492  1.00  0.00     0.123 A 
ATOM     13  F   UNL     1      12.217 -49.583 -22.278  1.00  0.00    -0.207 F 
ENDBRANCH   4   7
ENDBRANCH   2   3
ENDBRANCH   1   2
BRANCH   1  14
ATOM     14  C   UNL     1      10.652 -59.533 -21.492  1.00  0.00     0.023 C 
BRANCH  14  15
ATOM     15  C   UNL     1      11.396 -60.277 -22.540  1.00  0.00     0.113 C 
BRANCH  15  16
ATOM     16  N   UNL     1      10.622 -61.182 -23.350  1.00  0.00    -0.384 N 
ATOM     17  H   UNL     1      10.182 -62.027 -22.873  1.00  0.00     0.160 HD
BRANCH  16  18
ATOM     18  C   UNL     1      10.170 -61.425 -24.646  1.00  0.00     0.049 A 
ATOM     19  C   UNL     1      10.813 -60.840 -25.706  1.00  0.00    -0.003 A 
ATOM     20  C   UNL     1       9.097 -62.259 -24.853  1.00  0.00     0.024 A 
ATOM     21  C   UNL     1      10.346 -61.107 -26.958  1.00  0.00     0.046 A 
ATOM     22  C   UNL     1      11.873 -59.913 -25.724  1.00  0.00     0.039 C 
ATOM     23  C   UNL     1       8.492 -62.820 -23.749  1.00  0.00     0.012 A 
ATOM     24  C   UNL     1       8.633 -62.534 -26.120  1.00  0.00     0.073 A 
ATOM     25  N   UNL     1       9.277 -61.943 -27.172  1.00  0.00    -0.252 NA
ATOM     26  C   UNL     1      10.651 -60.432 -28.193  1.00  0.00     0.056 C 
ATOM     27  C   UNL     1      12.550 -59.515 -27.046  1.00  0.00     0.005 C 
ATOM     28  C   UNL     1       7.411 -63.670 -23.857  1.00  0.00     0.001 A 
ATOM     29  C   UNL     1       7.553 -63.382 -26.236  1.00  0.00     0.029 A 
ATOM     30  C   UNL     1      11.450 -59.132 -27.992  1.00  0.00     0.007 C 
ATOM     31  C   UNL     1       6.952 -63.941 -25.129  1.00  0.00     0.002 A 
ENDBRANCH  16  18
ENDBRANCH  15  16
ENDBRANCH  14  15
ENDBRANCH   1  14
TORSDOF 7
ENDMDL
MODEL 2
REMARK VINA RESULT:   -11.475      3.143      7.283
REMARK INTER + INTRA:         -16.677
REMARK INTER:                 -14.195
REMARK INTRA:                  -2.482
REMARK UNBOUND:                -0.506
REMARK SMILES O=C(NCCCCNc1c2c(nc3ccccc13)CCCC2)c1ccc(F)cc1
REMARK SMILES IDX 5 1 4 2 3 3 2 4 1 5 23 7 24 8 29 9 25 10 28 11 26 12 27 13
REMARK SMILES IDX 6 14 7 15 8 16 9 18 10 19 18 20 11 21 22 22 17 23 13 24
REMARK SMILES IDX 12 25 19 26 21 27 16 28 14 29 20 30 15 31
REMARK H PARENT 3 6 8 17
ROOT
ATOM      1  C   UNL     1      11.258 -60.265 -28.473  1.00  0.00     0.023 C 
ENDROOT
BRANCH   1   2
ATOM      2  C   UNL     1      10.189 -61.175 -27.909  1.00  0.00     0.116 C 
BRANCH   2   3
ATOM      3  N   UNL     1       9.417 -60.378 -26.968  1.00  0.00    -0.352 N 
ATOM      4  C   UNL     1       8.800 -61.042 -25.876  1.00  0.00     0.251 C 
ATOM      5  O   UNL     1       9.031 -62.294 -25.890  1.00  0.00    -0.269 OA
ATOM      6  H   UNL     1       9.294 -59.331 -27.058  1.00  0.00     0.163 HD
BRANCH   4   7
ATOM      7  C   UNL     1       7.993 -60.354 -24.854  1.00  0.00     0.040 A 
ATOM      8  C   UNL     1       7.080 -60.996 -24.034  1.00  0.00     0.017 A 
ATOM      9  C   UNL     1       8.206 -58.999 -24.759  1.00  0.00     0.017 A 
ATOM     10  C   UNL     1       6.390 -60.209 -23.114  1.00  0.00     0.040 A 
ATOM     11  C   UNL     1       7.531 -58.207 -23.852  1.00  0.00     0.040 A 
ATOM     12  C   UNL     1       6.631 -58.843 -23.045  1.00  0.00     0.123 A 
ATOM     13  F   UNL     1       5.934 -58.112 -22.130  1.00  0.00    -0.207 F 
ENDBRANCH   4   7
ENDBRANCH   2   3
ENDBRANCH   1   2
BRANCH   1  14
ATOM     14  C   UNL     1      11.339 -58.963 -27.676  1.00  0.00     0.023 C 
BRANCH  14  15
ATOM     15  C   UNL     1      12.506 -59.089 -26.765  1.00  0.00     0.113 C 
BRANCH  15  16
ATOM     16  N   UNL     1      12.435 -58.346 -25.534  1.00  0.00    -0.384 N 
ATOM     17  H   UNL     1      13.051 -57.481 -25.436  1.00  0.00     0.160 HD
BRANCH  16  18
ATOM     18  C   UNL     1      11.823 -58.299 -24.282  1.00  0.00     0.049 A 
ATOM     19  C   UNL     1      11.520 -59.468 -23.635  1.00  0.00    -0.003 A 
ATOM     20  C   UNL     1      11.541 -57.085 -23.702  1.00  0.00     0.024 A 
ATOM     21  C   UNL     1      10.928 -59.381 -22.410  1.00  0.00     0.046 A 
ATOM     22  C   UNL     1      11.654 -60.803 -24.063  1.00  0.00     0.039 C 
ATOM     23  C   UNL     1      11.870 -55.943 -24.401  1.00  0.00     0.012 A 
ATOM     24  C   UNL     1      10.951 -57.000 -22.462  1.00  0.00     0.073 A 
ATOM     25  N   UNL     1      10.649 -58.171 -21.823  1.00  0.00    -0.252 NA
ATOM     26  C   UNL     1      10.275 -60.417 -21.653  1.00  0.00     0.056 C 
ATOM     27  C   UNL     1      11.401 -61.971 -23.094  1.00  0.00     0.005 C 
ATOM     28  C   UNL     1      11.628 -54.681 -23.899  1.00  0.00     0.001 A 
ATOM     29  C   UNL     1      10.706 -55.742 -21.953  1.00  0.00     0.029 A 
ATOM     30  C   UNL     1      10.070 -61.715 -22.454  1.00  0.00     0.007 C 
ATOM     31  C   UNL     1      11.037 -54.603 -22.655  1.00  0.00     0.002 A 
ENDBRANCH  16  18
ENDBRANCH  15  16
ENDBRANCH  14  15
ENDBRANCH   1  14
TORSDOF 7
ENDMDL
MODEL 3
REMARK VINA RESULT:   -11.419      0.816      3.411
REMARK INTER + INTRA:         -16.598
REMARK INTER:                 -15.995
REMARK INTRA:                  -0.603
REMARK UNBOUND:                -0.506
REMARK SMILES O=C(NCCCCNc1c2c(nc3ccccc13)CCCC2)c1ccc(F)cc1
REMARK SMILES IDX 5 1 4 2 3 3 2 4 1 5 23 7 24 8 29 9 25 10 28 11 26 12 27 13
REMARK SMILES IDX 6 14 7 15 8 16 9 18 10 19 18 20 11 21 22 22 17 23 13 24
REMARK SMILES IDX 12 25 19 26 21 27 16 28 14 29 20 30 15 31
REMARK H PARENT 3 6 8 17
ROOT
ATOM      1  C   UNL     1      11.382 -57.688 -21.596  1.00  0.00     0.023 C 
ENDROOT
BRANCH   1   2
ATOM      2  C   UNL     1      10.927 -56.890 -22.800  1.00  0.00     0.116 C 
BRANCH   2   3
ATOM      3  N   UNL     1      10.925 -55.492 -22.396  1.00  0.00    -0.352 N 
ATOM      4  C   UNL     1      11.138 -54.507 -23.394  1.00  0.00     0.251 C 
ATOM      5  O   UNL     1      11.306 -55.025 -24.545  1.00  0.00    -0.269 OA
ATOM      6  H   UNL     1      10.773 -55.176 -21.398  1.00  0.00     0.163 HD
BRANCH   4   7
ATOM      7  C   UNL     1      11.161 -53.060 -23.121  1.00  0.00     0.040 A 
ATOM      8  C   UNL     1      12.194 -52.220 -23.501  1.00  0.00     0.017 A 
ATOM      9  C   UNL     1      10.063 -52.579 -22.446  1.00  0.00     0.017 A 
ATOM     10  C   UNL     1      12.072 -50.872 -23.170  1.00  0.00     0.040 A 
ATOM     11  C   UNL     1       9.928 -51.247 -22.112  1.00  0.00     0.040 A 
ATOM     12  C   UNL     1      10.949 -50.420 -22.489  1.00  0.00     0.123 A 
ATOM     13  F   UNL     1      10.871 -49.094 -22.186  1.00  0.00    -0.207 F 
ENDBRANCH   4   7
ENDBRANCH   2   3
ENDBRANCH   1   2
BRANCH   1  14
ATOM     14  C   UNL     1      10.999 -59.160 -21.744  1.00  0.00     0.023 C 
BRANCH  14  15
ATOM     15  C   UNL     1      11.951 -59.757 -22.715  1.00  0.00     0.113 C 
BRANCH  15  16
ATOM     16  N   UNL     1      11.466 -60.881 -23.474  1.00  0.00    -0.384 N 
ATOM     17  H   UNL     1      11.875 -61.842 -23.259  1.00  0.00     0.160 HD
BRANCH  16  18
ATOM     18  C   UNL     1      10.586 -61.259 -24.486  1.00  0.00     0.049 A 
ATOM     19  C   UNL     1       9.488 -62.018 -24.176  1.00  0.00    -0.003 A 
ATOM     20  C   UNL     1      10.816 -60.858 -25.781  1.00  0.00     0.024 A 
ATOM     21  C   UNL     1       8.646 -62.363 -25.192  1.00  0.00     0.046 A 
ATOM     22  C   UNL     1       9.097 -62.590 -22.950  1.00  0.00     0.039 C 
ATOM     23  C   UNL     1      11.936 -60.095 -26.032  1.00  0.00     0.012 A 
ATOM     24  C   UNL     1       9.960 -61.200 -26.803  1.00  0.00     0.073 A 
ATOM     25  N   UNL     1       8.868 -61.961 -26.487  1.00  0.00    -0.252 NA
ATOM     26  C   UNL     1       7.599 -63.351 -25.194  1.00  0.00     0.056 C 
ATOM     27  C   UNL     1       7.726 -63.272 -22.799  1.00  0.00     0.005 C 
ATOM     28  C   UNL     1      12.248 -59.644 -27.297  1.00  0.00     0.001 A 
ATOM     29  C   UNL     1      10.265 -60.754 -28.071  1.00  0.00     0.029 A 
ATOM     30  C   UNL     1       7.602 -64.239 -23.938  1.00  0.00     0.007 C 
ATOM     31  C   UNL     1      11.386 -59.990 -28.317  1.00  0.00     0.002 A 
ENDBRANCH  16  18
ENDBRANCH  15  16
ENDBRANCH  14  15
ENDBRANCH   1  14
TORSDOF 7
ENDMDL
MODEL 4
REMARK VINA RESULT:   -10.938      3.112      6.854
REMARK INTER + INTRA:         -15.919
REMARK INTER:                 -13.420
REMARK INTRA:                  -2.500
REMARK UNBOUND:                -0.506
REMARK SMILES O=C(NCCCCNc1c2c(nc3ccccc13)CCCC2)c1ccc(F)cc1
REMARK SMILES IDX 5 1 4 2 3 3 2 4 1 5 23 7 24 8 29 9 25 10 28 11 26 12 27 13
REMARK SMILES IDX 6 14 7 15 8 16 9 18 10 19 18 20 11 21 22 22 17 23 13 24
REMARK SMILES IDX 12 25 19 26 21 27 16 28 14 29 20 30 15 31
REMARK H PARENT 3 6 8 17
ROOT
ATOM      1  C   UNL     1      11.374 -60.349 -28.206  1.00  0.00     0.023 C 
ENDROOT
BRANCH   1   2
ATOM      2  C   UNL     1      10.157 -61.175 -27.846  1.00  0.00     0.116 C 
BRANCH   2   3
ATOM      3  N   UNL     1       9.378 -60.382 -26.907  1.00  0.00    -0.352 N 
ATOM      4  C   UNL     1       8.797 -61.043 -25.794  1.00  0.00     0.251 C 
ATOM      5  O   UNL     1       9.061 -62.288 -25.791  1.00  0.00    -0.269 OA
ATOM      6  H   UNL     1       9.226 -59.341 -27.014  1.00  0.00     0.163 HD
BRANCH   4   7
ATOM      7  C   UNL     1       7.987 -60.359 -24.771  1.00  0.00     0.040 A 
ATOM      8  C   UNL     1       7.204 -61.021 -23.840  1.00  0.00     0.017 A 
ATOM      9  C   UNL     1       8.057 -58.986 -24.797  1.00  0.00     0.017 A 
ATOM     10  C   UNL     1       6.494 -60.236 -22.935  1.00  0.00     0.040 A 
ATOM     11  C   UNL     1       7.359 -58.195 -23.906  1.00  0.00     0.040 A 
ATOM     12  C   UNL     1       6.588 -58.850 -22.989  1.00  0.00     0.123 A 
ATOM     13  F   UNL     1       5.876 -58.122 -22.084  1.00  0.00    -0.207 F 
ENDBRANCH   4   7
ENDBRANCH   2   3
ENDBRANCH   1   2
BRANCH   1  14
ATOM     14  C   UNL     1      11.361 -59.012 -27.465  1.00  0.00     0.023 C 
BRANCH  14  15
ATOM     15  C   UNL     1      12.541 -59.010 -26.562  1.00  0.00     0.113 C 
BRANCH  15  16
ATOM     16  N   UNL     1      12.453 -58.162 -25.402  1.00  0.00    -0.384 N 
ATOM     17  H   UNL     1      13.180 -57.389 -25.292  1.00  0.00     0.160 HD
BRANCH  16  18
ATOM     18  C   UNL     1      11.726 -57.920 -24.238  1.00  0.00     0.049 A 
ATOM     19  C   UNL     1      11.432 -56.629 -23.883  1.00  0.00    -0.003 A 
ATOM     20  C   UNL     1      11.298 -58.972 -23.465  1.00  0.00     0.024 A 
ATOM     21  C   UNL     1      10.713 -56.433 -22.741  1.00  0.00     0.046 A 
ATOM     22  C   UNL     1      11.820 -55.414 -24.478  1.00  0.00     0.039 C 
ATOM     23  C   UNL     1      11.623 -60.249 -23.873  1.00  0.00     0.012 A 
ATOM     24  C   UNL     1      10.565 -58.772 -22.317  1.00  0.00     0.073 A 
ATOM     25  N   UNL     1      10.278 -57.481 -21.967  1.00  0.00    -0.252 NA
ATOM     26  C   UNL     1      10.505 -55.209 -22.011  1.00  0.00     0.056 C 
ATOM     27  C   UNL     1      11.230 -54.077 -23.999  1.00  0.00     0.005 C 
ATOM     28  C   UNL     1      11.235 -61.366 -23.165  1.00  0.00     0.001 A 
ATOM     29  C   UNL     1      10.175 -59.884 -21.603  1.00  0.00     0.029 A 
ATOM     30  C   UNL     1      11.386 -54.049 -22.508  1.00  0.00     0.007 C 
ATOM     31  C   UNL     1      10.501 -61.158 -22.016  1.00  0.00     0.002 A 
ENDBRANCH  16  18
ENDBRANCH  15  16
ENDBRANCH  14  15
ENDBRANCH   1  14
TORSDOF 7
ENDMDL
MODEL 5
REMARK VINA RESULT:   -10.864      3.997     10.494
REMARK INTER + INTRA:         -15.816
REMARK INTER:                 -14.989
REMARK INTRA:                  -0.827
REMARK UNBOUND:                -0.506
REMARK SMILES O=C(NCCCCNc1c2c(nc3ccccc13)CCCC2)c1ccc(F)cc1
REMARK SMILES IDX 5 1 4 2 3 3 2 4 1 5 23 7 24 8 29 9 25 10 28 11 26 12 27 13
REMARK SMILES IDX 6 14 7 15 8 16 9 18 10 19 18 20 11 21 22 22 17 23 13 24
REMARK SMILES IDX 12 25 19 26 21 27 16 28 14 29 20 30 15 31
REMARK H PARENT 3 6 8 17
ROOT
ATOM      1  C   UNL     1       9.866 -54.201 -21.784  1.00  0.00     0.023 C 
ENDROOT
BRANCH   1   2
ATOM      2  C   UNL     1      11.201 -54.846 -22.088  1.00  0.00     0.116 C 
BRANCH   2   3
ATOM      3  N   UNL     1      11.019 -56.280 -21.917  1.00  0.00    -0.352 N 
ATOM      4  C   UNL     1      11.304 -57.127 -23.018  1.00  0.00     0.251 C 
ATOM      5  O   UNL     1      11.694 -56.468 -24.035  1.00  0.00    -0.269 OA
ATOM      6  H   UNL     1      10.686 -56.718 -21.013  1.00  0.00     0.163 HD
BRANCH   4   7
ATOM      7  C   UNL     1      11.162 -58.593 -22.978  1.00  0.00     0.040 A 
ATOM      8  C   UNL     1      10.275 -59.258 -22.150  1.00  0.00     0.017 A 
ATOM      9  C   UNL     1      11.988 -59.280 -23.837  1.00  0.00     0.017 A 
ATOM     10  C   UNL     1      10.256 -60.649 -22.225  1.00  0.00     0.040 A 
ATOM     11  C   UNL     1      11.981 -60.657 -23.923  1.00  0.00     0.040 A 
ATOM     12  C   UNL     1      11.103 -61.312 -23.105  1.00  0.00     0.123 A 
ATOM     13  F   UNL     1      11.052 -62.673 -23.146  1.00  0.00    -0.207 F 
ENDBRANCH   4   7
ENDBRANCH   2   3
ENDBRANCH   1   2
BRANCH   1  14
ATOM     14  C   UNL     1       9.594 -53.041 -22.741  1.00  0.00     0.023 C 
BRANCH  14  15
ATOM     15  C   UNL     1       9.878 -51.790 -21.992  1.00  0.00     0.113 C 
BRANCH  15  16
ATOM     16  N   UNL     1      11.125 -51.136 -22.293  1.00  0.00    -0.384 N 
ATOM     17  H   UNL     1      11.920 -51.228 -21.589  1.00  0.00     0.160 HD
BRANCH  16  18
ATOM     18  C   UNL     1      11.781 -50.344 -23.234  1.00  0.00     0.049 A 
ATOM     19  C   UNL     1      11.636 -48.982 -23.188  1.00  0.00    -0.003 A 
ATOM     20  C   UNL     1      12.577 -50.930 -24.189  1.00  0.00     0.024 A 
ATOM     21  C   UNL     1      12.299 -48.241 -24.120  1.00  0.00     0.046 A 
ATOM     22  C   UNL     1      10.831 -48.183 -22.353  1.00  0.00     0.039 C 
ATOM     23  C   UNL     1      12.685 -52.305 -24.186  1.00  0.00     0.012 A 
ATOM     24  C   UNL     1      13.251 -50.179 -25.125  1.00  0.00     0.073 A 
ATOM     25  N   UNL     1      13.099 -48.820 -25.074  1.00  0.00    -0.252 NA
ATOM     26  C   UNL     1      12.114 -46.854 -24.462  1.00  0.00     0.056 C 
ATOM     27  C   UNL     1      10.955 -46.650 -22.370  1.00  0.00     0.005 C 
ATOM     28  C   UNL     1      13.461 -52.982 -25.102  1.00  0.00     0.001 A 
ATOM     29  C   UNL     1      14.029 -50.848 -26.045  1.00  0.00     0.029 A 
ATOM     30  C   UNL     1      10.869 -46.229 -23.807  1.00  0.00     0.007 C 
ATOM     31  C   UNL     1      14.135 -52.223 -26.036  1.00  0.00     0.002 A 
ENDBRANCH  16  18
ENDBRANCH  15  16
ENDBRANCH  14  15
ENDBRANCH   1  14
TORSDOF 7
ENDMDL
MODEL 6
REMARK VINA RESULT:   -10.843      1.036      3.661
REMARK INTER + INTRA:         -15.786
REMARK INTER:                 -15.010
REMARK INTRA:                  -0.776
REMARK UNBOUND:                -0.506
REMARK SMILES O=C(NCCCCNc1c2c(nc3ccccc13)CCCC2)c1ccc(F)cc1
REMARK SMILES IDX 5 1 4 2 3 3 2 4 1 5 23 7 24 8 29 9 25 10 28 11 26 12 27 13
REMARK SMILES IDX 6 14 7 15 8 16 9 18 10 19 18 20 11 21 22 22 17 23 13 24
REMARK SMILES IDX 12 25 19 26 21 27 16 28 14 29 20 30 15 31
REMARK H PARENT 3 6 8 17
ROOT
ATOM      1  C   UNL     1      11.363 -57.555 -21.628  1.00  0.00     0.023 C 
ENDROOT
BRANCH   1   2
ATOM      2  C   UNL     1      10.534 -57.115 -22.816  1.00  0.00     0.116 C 
BRANCH   2   3
ATOM      3  N   UNL     1      11.255 -56.019 -23.445  1.00  0.00    -0.352 N 
ATOM      4  C   UNL     1      10.954 -54.695 -23.033  1.00  0.00     0.251 C 
ATOM      5  O   UNL     1      10.055 -54.671 -22.131  1.00  0.00    -0.269 OA
ATOM      6  H   UNL     1      11.990 -56.161 -24.192  1.00  0.00     0.163 HD
BRANCH   4   7
ATOM      7  C   UNL     1      11.609 -53.499 -23.588  1.00  0.00     0.040 A 
ATOM      8  C   UNL     1      11.546 -52.245 -23.004  1.00  0.00     0.017 A 
ATOM      9  C   UNL     1      12.308 -53.707 -24.755  1.00  0.00     0.017 A 
ATOM     10  C   UNL     1      12.219 -51.209 -23.649  1.00  0.00     0.040 A 
ATOM     11  C   UNL     1      12.979 -52.691 -25.405  1.00  0.00     0.040 A 
ATOM     12  C   UNL     1      12.915 -51.455 -24.826  1.00  0.00     0.123 A 
ATOM     13  F   UNL     1      13.558 -50.413 -25.423  1.00  0.00    -0.207 F 
ENDBRANCH   4   7
ENDBRANCH   2   3
ENDBRANCH   1   2
BRANCH   1  14
ATOM     14  C   UNL     1      11.571 -59.068 -21.642  1.00  0.00     0.023 C 
BRANCH  14  15
ATOM     15  C   UNL     1      10.309 -59.671 -22.144  1.00  0.00     0.113 C 
BRANCH  15  16
ATOM     16  N   UNL     1      10.446 -60.670 -23.172  1.00  0.00    -0.384 N 
ATOM     17  H   UNL     1      11.149 -61.456 -23.014  1.00  0.00     0.160 HD
BRANCH  16  18
ATOM     18  C   UNL     1       9.982 -61.065 -24.426  1.00  0.00     0.049 A 
ATOM     19  C   UNL     1       8.914 -61.920 -24.511  1.00  0.00    -0.003 A 
ATOM     20  C   UNL     1      10.585 -60.585 -25.563  1.00  0.00     0.024 A 
ATOM     21  C   UNL     1       8.485 -62.278 -25.754  1.00  0.00     0.046 A 
ATOM     22  C   UNL     1       8.197 -62.580 -23.495  1.00  0.00     0.039 C 
ATOM     23  C   UNL     1      11.654 -59.726 -25.414  1.00  0.00     0.012 A 
ATOM     24  C   UNL     1      10.145 -60.941 -26.818  1.00  0.00     0.073 A 
ATOM     25  N   UNL     1       9.081 -61.798 -26.895  1.00  0.00    -0.252 NA
ATOM     26  C   UNL     1       7.588 -63.343 -26.123  1.00  0.00     0.056 C 
ATOM     27  C   UNL     1       6.918 -63.371 -23.818  1.00  0.00     0.005 C 
ATOM     28  C   UNL     1      12.321 -59.191 -26.496  1.00  0.00     0.001 A 
ATOM     29  C   UNL     1      10.807 -60.411 -27.904  1.00  0.00     0.029 A 
ATOM     30  C   UNL     1       7.258 -64.289 -24.954  1.00  0.00     0.007 C 
ATOM     31  C   UNL     1      11.874 -59.552 -27.750  1.00  0.00     0.002 A 
ENDBRANCH  16  18
ENDBRANCH  15  16
ENDBRANCH  14  15
ENDBRANCH   1  14
TORSDOF 7
ENDMDL
MODEL 7
REMARK VINA RESULT:   -10.658      4.361     10.862
REMARK INTER + INTRA:         -15.525
REMARK INTER:                 -14.618
REMARK INTRA:                  -0.907
REMARK UNBOUND:                -0.506
REMARK SMILES O=C(NCCCCNc1c2c(nc3ccccc13)CCCC2)c1ccc(F)cc1
REMARK SMILES IDX 5 1 4 2 3 3 2 4 1 5 23 7 24 8 29 9 25 10 28 11 26 12 27 13
REMARK SMILES IDX 6 14 7 15 8 16 9 18 10 19 18 20 11 21 22 22 17 23 13 24
REMARK SMILES IDX 12 25 19 26 21 27 16 28 14 29 20 30 15 31
REMARK H PARENT 3 6 8 17
ROOT
ATOM      1  C   UNL     1       9.579 -52.941 -22.436  1.00  0.00     0.023 C 
ENDROOT
BRANCH   1   2
ATOM      2  C   UNL     1      10.888 -53.698 -22.351  1.00  0.00     0.116 C 
BRANCH   2   3
ATOM      3  N   UNL     1      10.564 -55.039 -21.888  1.00  0.00    -0.352 N 
ATOM      4  C   UNL     1      10.899 -56.135 -22.723  1.00  0.00     0.251 C 
ATOM      5  O   UNL     1      11.460 -55.756 -23.802  1.00  0.00    -0.269 OA
ATOM      6  H   UNL     1      10.092 -55.234 -20.962  1.00  0.00     0.163 HD
BRANCH   4   7
ATOM      7  C   UNL     1      10.627 -57.540 -22.375  1.00  0.00     0.040 A 
ATOM      8  C   UNL     1      11.316 -58.238 -21.397  1.00  0.00     0.017 A 
ATOM      9  C   UNL     1       9.620 -58.134 -23.099  1.00  0.00     0.017 A 
ATOM     10  C   UNL     1      10.944 -59.563 -21.181  1.00  0.00     0.040 A 
ATOM     11  C   UNL     1       9.240 -59.445 -22.896  1.00  0.00     0.040 A 
ATOM     12  C   UNL     1       9.921 -60.132 -21.930  1.00  0.00     0.123 A 
ATOM     13  F   UNL     1       9.591 -61.431 -21.686  1.00  0.00    -0.207 F 
ENDBRANCH   4   7
ENDBRANCH   2   3
ENDBRANCH   1   2
BRANCH   1  14
ATOM     14  C   UNL     1       9.782 -51.467 -22.087  1.00  0.00     0.023 C 
BRANCH  14  15
ATOM     15  C   UNL     1      11.153 -51.341 -21.530  1.00  0.00     0.113 C 
BRANCH  15  16
ATOM     16  N   UNL     1      11.937 -50.233 -22.011  1.00  0.00    -0.384 N 
ATOM     17  H   UNL     1      12.425 -49.616 -21.291  1.00  0.00     0.160 HD
BRANCH  16  18
ATOM     18  C   UNL     1      12.357 -49.568 -23.162  1.00  0.00     0.049 A 
ATOM     19  C   UNL     1      13.151 -50.223 -24.067  1.00  0.00    -0.003 A 
ATOM     20  C   UNL     1      11.963 -48.271 -23.388  1.00  0.00     0.024 A 
ATOM     21  C   UNL     1      13.537 -49.542 -25.183  1.00  0.00     0.046 A 
ATOM     22  C   UNL     1      13.723 -51.508 -24.009  1.00  0.00     0.039 C 
ATOM     23  C   UNL     1      11.163 -47.665 -22.442  1.00  0.00     0.012 A 
ATOM     24  C   UNL     1      12.347 -47.588 -24.520  1.00  0.00     0.073 A 
ATOM     25  N   UNL     1      13.142 -48.247 -25.417  1.00  0.00    -0.252 NA
ATOM     26  C   UNL     1      14.562 -49.884 -26.135  1.00  0.00     0.056 C 
ATOM     27  C   UNL     1      14.451 -52.103 -25.227  1.00  0.00     0.005 C 
ATOM     28  C   UNL     1      10.716 -46.368 -22.583  1.00  0.00     0.001 A 
ATOM     29  C   UNL     1      11.904 -46.291 -24.667  1.00  0.00     0.029 A 
ATOM     30  C   UNL     1      15.435 -51.069 -25.685  1.00  0.00     0.007 C 
ATOM     31  C   UNL     1      11.104 -45.690 -23.720  1.00  0.00     0.002 A 
ENDBRANCH  16  18
ENDBRANCH  15  16
ENDBRANCH  14  15
ENDBRANCH   1  14
TORSDOF 7
ENDMDL
MODEL 8
REMARK VINA RESULT:   -10.277      3.611      8.782
REMARK INTER + INTRA:         -14.988
REMARK INTER:                 -14.105
REMARK INTRA:                  -0.883
REMARK UNBOUND:                -0.506
REMARK SMILES O=C(NCCCCNc1c2c(nc3ccccc13)CCCC2)c1ccc(F)cc1
REMARK SMILES IDX 5 1 4 2 3 3 2 4 1 5 23 7 24 8 29 9 25 10 28 11 26 12 27 13
REMARK SMILES IDX 6 14 7 15 8 16 9 18 10 19 18 20 11 21 22 22 17 23 13 24
REMARK SMILES IDX 12 25 19 26 21 27 16 28 14 29 20 30 15 31
REMARK H PARENT 3 6 8 17
ROOT
ATOM      1  C   UNL     1      11.984 -59.706 -29.006  1.00  0.00     0.023 C 
ENDROOT
BRANCH   1   2
ATOM      2  C   UNL     1      10.707 -60.471 -29.283  1.00  0.00     0.116 C 
BRANCH   2   3
ATOM      3  N   UNL     1      10.220 -60.948 -27.998  1.00  0.00    -0.352 N 
ATOM      4  C   UNL     1       9.223 -61.958 -27.993  1.00  0.00     0.251 C 
ATOM      5  O   UNL     1       8.894 -62.306 -29.173  1.00  0.00    -0.269 OA
ATOM      6  H   UNL     1      10.572 -60.580 -27.071  1.00  0.00     0.163 HD
BRANCH   4   7
ATOM      7  C   UNL     1       8.645 -62.528 -26.764  1.00  0.00     0.040 A 
ATOM      8  C   UNL     1       7.575 -63.407 -26.752  1.00  0.00     0.017 A 
ATOM      9  C   UNL     1       9.248 -62.123 -25.596  1.00  0.00     0.017 A 
ATOM     10  C   UNL     1       7.140 -63.860 -25.509  1.00  0.00     0.040 A 
ATOM     11  C   UNL     1       8.828 -62.564 -24.358  1.00  0.00     0.040 A 
ATOM     12  C   UNL     1       7.773 -63.432 -24.349  1.00  0.00     0.123 A 
ATOM     13  F   UNL     1       7.314 -63.901 -23.154  1.00  0.00    -0.207 F 
ENDBRANCH   4   7
ENDBRANCH   2   3
ENDBRANCH   1   2
BRANCH   1  14
ATOM     14  C   UNL     1      11.740 -58.596 -27.984  1.00  0.00     0.023 C 
BRANCH  14  15
ATOM     15  C   UNL     1      12.330 -59.055 -26.701  1.00  0.00     0.113 C 
BRANCH  15  16
ATOM     16  N   UNL     1      12.434 -58.068 -25.657  1.00  0.00    -0.384 N 
ATOM     17  H   UNL     1      13.146 -57.284 -25.780  1.00  0.00     0.160 HD
BRANCH  16  18
ATOM     18  C   UNL     1      11.925 -57.685 -24.417  1.00  0.00     0.049 A 
ATOM     19  C   UNL     1      11.582 -58.646 -23.503  1.00  0.00    -0.003 A 
ATOM     20  C   UNL     1      11.785 -56.351 -24.115  1.00  0.00     0.024 A 
ATOM     21  C   UNL     1      11.095 -58.232 -22.299  1.00  0.00     0.046 A 
ATOM     22  C   UNL     1      11.577 -60.049 -23.620  1.00  0.00     0.039 C 
ATOM     23  C   UNL     1      12.148 -55.430 -25.075  1.00  0.00     0.012 A 
ATOM     24  C   UNL     1      11.301 -55.936 -22.896  1.00  0.00     0.073 A 
ATOM     25  N   UNL     1      10.957 -56.901 -21.990  1.00  0.00    -0.252 NA
ATOM     26  C   UNL     1      10.422 -59.007 -21.289  1.00  0.00     0.056 C 
ATOM     27  C   UNL     1      11.309 -60.942 -22.397  1.00  0.00     0.005 C 
ATOM     28  C   UNL     1      12.046 -54.071 -24.863  1.00  0.00     0.001 A 
ATOM     29  C   UNL     1      11.195 -54.579 -22.677  1.00  0.00     0.029 A 
ATOM     30  C   UNL     1      10.054 -60.426 -21.757  1.00  0.00     0.007 C 
ATOM     31  C   UNL     1      11.560 -53.662 -23.639  1.00  0.00     0.002 A 
ENDBRANCH  16  18
ENDBRANCH  15  16
ENDBRANCH  14  15
ENDBRANCH   1  14
TORSDOF 7
ENDMDL
MODEL 9
REMARK VINA RESULT:   -10.115      1.675      2.149
REMARK INTER + INTRA:         -14.760
REMARK INTER:                 -13.919
REMARK INTRA:                  -0.842
REMARK UNBOUND:                -0.506
REMARK SMILES O=C(NCCCCNc1c2c(nc3ccccc13)CCCC2)c1ccc(F)cc1
REMARK SMILES IDX 5 1 4 2 3 3 2 4 1 5 23 7 24 8 29 9 25 10 28 11 26 12 27 13
REMARK SMILES IDX 6 14 7 15 8 16 9 18 10 19 18 20 11 21 22 22 17 23 13 24
REMARK SMILES IDX 12 25 19 26 21 27 16 28 14 29 20 30 15 31
REMARK H PARENT 3 6 8 17
ROOT
ATOM      1  C   UNL     1      10.978 -57.850 -21.935  1.00  0.00     0.023 C 
ENDROOT
BRANCH   1   2
ATOM      2  C   UNL     1      10.615 -56.382 -21.877  1.00  0.00     0.116 C 
BRANCH   2   3
ATOM      3  N   UNL     1      11.396 -55.719 -22.910  1.00  0.00    -0.352 N 
ATOM      4  C   UNL     1      11.280 -54.311 -23.037  1.00  0.00     0.251 C 
ATOM      5  O   UNL     1      10.472 -53.822 -22.184  1.00  0.00    -0.269 OA
ATOM      6  H   UNL     1      12.043 -56.235 -23.569  1.00  0.00     0.163 HD
BRANCH   4   7
ATOM      7  C   UNL     1      12.014 -53.519 -24.039  1.00  0.00     0.040 A 
ATOM      8  C   UNL     1      12.503 -54.040 -25.225  1.00  0.00     0.017 A 
ATOM      9  C   UNL     1      12.189 -52.193 -23.717  1.00  0.00     0.017 A 
ATOM     10  C   UNL     1      13.177 -53.165 -26.073  1.00  0.00     0.040 A 
ATOM     11  C   UNL     1      12.854 -51.314 -24.548  1.00  0.00     0.040 A 
ATOM     12  C   UNL     1      13.336 -51.831 -25.717  1.00  0.00     0.123 A 
ATOM     13  F   UNL     1      14.002 -51.010 -26.577  1.00  0.00    -0.207 F 
ENDBRANCH   4   7
ENDBRANCH   2   3
ENDBRANCH   1   2
BRANCH   1  14
ATOM     14  C   UNL     1      11.343 -58.264 -23.359  1.00  0.00     0.023 C 
BRANCH  14  15
ATOM     15  C   UNL     1      10.211 -59.077 -23.875  1.00  0.00     0.113 C 
BRANCH  15  16
ATOM     16  N   UNL     1      10.547 -60.104 -24.826  1.00  0.00    -0.384 N 
ATOM     17  H   UNL     1      11.199 -60.885 -24.509  1.00  0.00     0.160 HD
BRANCH  16  18
ATOM     18  C   UNL     1      10.342 -60.533 -26.137  1.00  0.00     0.049 A 
ATOM     19  C   UNL     1      11.071 -59.971 -27.152  1.00  0.00    -0.003 A 
ATOM     20  C   UNL     1       9.426 -61.523 -26.400  1.00  0.00     0.024 A 
ATOM     21  C   UNL     1      10.848 -60.421 -28.419  1.00  0.00     0.046 A 
ATOM     22  C   UNL     1      12.000 -58.912 -27.124  1.00  0.00     0.039 C 
ATOM     23  C   UNL     1       8.724 -62.052 -25.338  1.00  0.00     0.012 A 
ATOM     24  C   UNL     1       9.208 -61.982 -27.679  1.00  0.00     0.073 A 
ATOM     25  N   UNL     1       9.937 -61.414 -28.687  1.00  0.00    -0.252 NA
ATOM     26  C   UNL     1      11.264 -59.834 -29.667  1.00  0.00     0.056 C 
ATOM     27  C   UNL     1      12.827 -58.555 -28.370  1.00  0.00     0.005 C 
ATOM     28  C   UNL     1       7.786 -63.050 -25.503  1.00  0.00     0.001 A 
ATOM     29  C   UNL     1       8.273 -62.979 -27.852  1.00  0.00     0.029 A 
ATOM     30  C   UNL     1      11.856 -58.423 -29.505  1.00  0.00     0.007 C 
ATOM     31  C   UNL     1       7.574 -63.506 -26.787  1.00  0.00     0.002 A 
ENDBRANCH  16  18
ENDBRANCH  15  16
ENDBRANCH  14  15
ENDBRANCH   1  14
TORSDOF 7
ENDMDL
