MODEL 1
REMARK VINA RESULT:   -11.459      0.000      0.000
REMARK INTER + INTRA:         -16.479
REMARK INTER:                 -16.149
REMARK INTRA:                  -0.330
REMARK UNBOUND:                -0.330
REMARK SMILES COc1cc2c(cc1O)C(O)=C(Cc1cc[n+](Cc3cccc(Cl)c3)cc1C(C)=O)C2
REMARK SMILES IDX 14 1 15 2 16 3 17 4 26 5 27 6 13 7 12 8 10 9 6 10 31 11 7 12
REMARK SMILES IDX 5 13 8 14 4 15 3 16 11 17 9 19 2 21 1 22 28 23 29 24 30 25
REMARK SMILES IDX 18 26 19 27 20 28 25 29 21 30 23 31 22 32 24 33
REMARK H PARENT 11 18 9 20
ROOT
ATOM      1  C   UNL     1       9.806 -56.944 -22.773  1.00  0.00    -0.021 A 
ATOM      2  C   UNL     1      11.164 -57.228 -22.550  1.00  0.00     0.075 A 
ATOM      3  C   UNL     1      11.680 -58.496 -22.793  1.00  0.00     0.308 A 
ATOM      4  N   UNL     1      10.882 -59.478 -23.269  1.00  0.00    -0.200 N 
ATOM      5  C   UNL     1       9.569 -59.245 -23.489  1.00  0.00     0.320 A 
ATOM      6  C   UNL     1       9.001 -57.991 -23.234  1.00  0.00     0.085 A 
ENDROOT
BRANCH   1   7
ATOM      7  C   UNL     1       9.347 -55.509 -22.606  1.00  0.00     0.072 C 
BRANCH   7   8
ATOM      8  C   UNL     1      10.360 -54.505 -23.053  1.00  0.00    -0.019 C 
ATOM      9  C   UNL     1      10.773 -53.423 -22.374  1.00  0.00     0.123 C 
ATOM     10  C   UNL     1      11.797 -52.723 -23.137  1.00  0.00     0.024 A 
ATOM     11  C   UNL     1      11.107 -54.644 -24.363  1.00  0.00     0.071 C 
ATOM     12  C   UNL     1      12.509 -51.563 -22.886  1.00  0.00     0.062 A 
ATOM     13  C   UNL     1      12.001 -53.440 -24.322  1.00  0.00    -0.029 A 
ATOM     14  C   UNL     1      13.439 -51.126 -23.843  1.00  0.00     0.158 A 
ATOM     15  C   UNL     1      12.916 -53.017 -25.271  1.00  0.00     0.055 A 
ATOM     16  C   UNL     1      13.652 -51.847 -25.037  1.00  0.00     0.160 A 
BRANCH   9  17
ATOM     17  O   UNL     1      10.322 -53.009 -21.162  1.00  0.00    -0.507 OA
ATOM     18  H   UNL     1      11.022 -52.478 -20.742  1.00  0.00     0.293 HD
ENDBRANCH   9  17
BRANCH  14  19
ATOM     19  O   UNL     1      14.125 -49.970 -23.591  1.00  0.00    -0.504 OA
ATOM     20  H   UNL     1      13.855 -49.277 -24.215  1.00  0.00     0.293 HD
ENDBRANCH  14  19
BRANCH  16  21
ATOM     21  O   UNL     1      14.509 -51.556 -26.065  1.00  0.00    -0.493 OA
ATOM     22  C   UNL     1      14.323 -50.342 -26.779  1.00  0.00     0.278 C 
ENDBRANCH  16  21
ENDBRANCH   7   8
ENDBRANCH   1   7
BRANCH   6  23
ATOM     23  C   UNL     1       7.564 -57.905 -23.572  1.00  0.00     0.166 C 
ATOM     24  C   UNL     1       6.526 -58.427 -22.619  1.00  0.00     0.094 C 
ATOM     25  O   UNL     1       7.281 -57.470 -24.685  1.00  0.00    -0.294 OA
ENDBRANCH   6  23
BRANCH   4  26
ATOM     26  C   UNL     1      11.456 -60.818 -23.558  1.00  0.00     0.393 C 
BRANCH  26  27
ATOM     27  C   UNL     1      10.380 -61.873 -23.592  1.00  0.00     0.018 A 
ATOM     28  C   UNL     1      10.133 -62.674 -22.466  1.00  0.00     0.010 A 
ATOM     29  C   UNL     1       9.600 -62.070 -24.745  1.00  0.00     0.030 A 
ATOM     30  C   UNL     1       9.141 -63.657 -22.497  1.00  0.00     0.002 A 
ATOM     31  C   UNL     1       8.612 -63.056 -24.767  1.00  0.00     0.041 A 
ATOM     32  C   UNL     1       8.382 -63.851 -23.650  1.00  0.00     0.020 A 
ATOM     33  Cl  UNL     1       7.680 -63.287 -26.192  1.00  0.00    -0.084 Cl
ENDBRANCH  26  27
ENDBRANCH   4  26
TORSDOF 8
ENDMDL
MODEL 2
REMARK VINA RESULT:   -11.152      4.084      8.963
REMARK INTER + INTRA:         -16.047
REMARK INTER:                 -15.282
REMARK INTRA:                  -0.765
REMARK UNBOUND:                -0.330
REMARK SMILES COc1cc2c(cc1O)C(O)=C(Cc1cc[n+](Cc3cccc(Cl)c3)cc1C(C)=O)C2
REMARK SMILES IDX 14 1 15 2 16 3 17 4 26 5 27 6 13 7 12 8 10 9 6 10 31 11 7 12
REMARK SMILES IDX 5 13 8 14 4 15 3 16 11 17 9 19 2 21 1 22 28 23 29 24 30 25
REMARK SMILES IDX 18 26 19 27 20 28 25 29 21 30 23 31 22 32 24 33
REMARK H PARENT 11 18 9 20
ROOT
ATOM      1  C   UNL     1      10.095 -58.737 -22.611  1.00  0.00    -0.021 A 
ATOM      2  C   UNL     1      11.234 -58.116 -22.071  1.00  0.00     0.075 A 
ATOM      3  C   UNL     1      11.313 -56.731 -21.966  1.00  0.00     0.308 A 
ATOM      4  N   UNL     1      10.281 -55.956 -22.368  1.00  0.00    -0.200 N 
ATOM      5  C   UNL     1       9.171 -56.517 -22.899  1.00  0.00     0.320 A 
ATOM      6  C   UNL     1       9.058 -57.904 -23.047  1.00  0.00     0.085 A 
ENDROOT
BRANCH   1   7
ATOM      7  C   UNL     1      10.031 -60.251 -22.573  1.00  0.00     0.072 C 
BRANCH   7   8
ATOM      8  C   UNL     1       9.676 -60.863 -23.890  1.00  0.00    -0.019 C 
ATOM      9  C   UNL     1       8.772 -61.832 -24.107  1.00  0.00     0.123 C 
ATOM     10  C   UNL     1       8.695 -62.124 -25.531  1.00  0.00     0.024 A 
ATOM     11  C   UNL     1      10.290 -60.390 -25.190  1.00  0.00     0.071 C 
ATOM     12  C   UNL     1       7.946 -63.039 -26.251  1.00  0.00     0.062 A 
ATOM     13  C   UNL     1       9.596 -61.273 -26.184  1.00  0.00    -0.029 A 
ATOM     14  C   UNL     1       8.108 -63.090 -27.645  1.00  0.00     0.158 A 
ATOM     15  C   UNL     1       9.762 -61.317 -27.557  1.00  0.00     0.055 A 
ATOM     16  C   UNL     1       9.011 -62.232 -28.308  1.00  0.00     0.160 A 
BRANCH   9  17
ATOM     17  O   UNL     1       8.030 -62.471 -23.166  1.00  0.00    -0.507 OA
ATOM     18  H   UNL     1       7.118 -62.546 -23.497  1.00  0.00     0.293 HD
ENDBRANCH   9  17
BRANCH  14  19
ATOM     19  O   UNL     1       7.373 -64.009 -28.344  1.00  0.00    -0.504 OA
ATOM     20  H   UNL     1       7.551 -63.928 -29.295  1.00  0.00     0.293 HD
ENDBRANCH  14  19
BRANCH  16  21
ATOM     21  O   UNL     1       9.288 -62.160 -29.647  1.00  0.00    -0.493 OA
ATOM     22  C   UNL     1      10.215 -61.181 -30.094  1.00  0.00     0.278 C 
ENDBRANCH  16  21
ENDBRANCH   7   8
ENDBRANCH   1   7
BRANCH   6  23
ATOM     23  C   UNL     1       7.761 -58.343 -23.605  1.00  0.00     0.166 C 
ATOM     24  C   UNL     1       6.713 -58.944 -22.711  1.00  0.00     0.094 C 
ATOM     25  O   UNL     1       7.628 -58.267 -24.823  1.00  0.00    -0.294 OA
ENDBRANCH   6  23
BRANCH   4  26
ATOM     26  C   UNL     1      10.366 -54.480 -22.217  1.00  0.00     0.393 C 
BRANCH  26  27
ATOM     27  C   UNL     1      11.271 -53.880 -23.263  1.00  0.00     0.018 A 
ATOM     28  C   UNL     1      11.698 -54.645 -24.359  1.00  0.00     0.010 A 
ATOM     29  C   UNL     1      11.698 -52.544 -23.164  1.00  0.00     0.030 A 
ATOM     30  C   UNL     1      12.542 -54.093 -25.326  1.00  0.00     0.002 A 
ATOM     31  C   UNL     1      12.543 -52.001 -24.134  1.00  0.00     0.041 A 
ATOM     32  C   UNL     1      12.968 -52.771 -25.211  1.00  0.00     0.020 A 
ATOM     33  Cl  UNL     1      13.062 -50.370 -23.986  1.00  0.00    -0.084 Cl
ENDBRANCH  26  27
ENDBRANCH   4  26
TORSDOF 8
ENDMDL
MODEL 3
REMARK VINA RESULT:   -10.976      3.971      9.341
REMARK INTER + INTRA:         -15.798
REMARK INTER:                 -16.078
REMARK INTRA:                   0.279
REMARK UNBOUND:                -0.330
REMARK SMILES COc1cc2c(cc1O)C(O)=C(Cc1cc[n+](Cc3cccc(Cl)c3)cc1C(C)=O)C2
REMARK SMILES IDX 14 1 15 2 16 3 17 4 26 5 27 6 13 7 12 8 10 9 6 10 31 11 7 12
REMARK SMILES IDX 5 13 8 14 4 15 3 16 11 17 9 19 2 21 1 22 28 23 29 24 30 25
REMARK SMILES IDX 18 26 19 27 20 28 25 29 21 30 23 31 22 32 24 33
REMARK H PARENT 11 18 9 20
ROOT
ATOM      1  C   UNL     1      11.776 -57.797 -23.343  1.00  0.00    -0.021 A 
ATOM      2  C   UNL     1      11.786 -56.716 -24.242  1.00  0.00     0.075 A 
ATOM      3  C   UNL     1      11.333 -55.459 -23.856  1.00  0.00     0.308 A 
ATOM      4  N   UNL     1      10.890 -55.251 -22.595  1.00  0.00    -0.200 N 
ATOM      5  C   UNL     1      10.860 -56.268 -21.705  1.00  0.00     0.320 A 
ATOM      6  C   UNL     1      11.282 -57.555 -22.057  1.00  0.00     0.085 A 
ENDROOT
BRANCH   1   7
ATOM      7  C   UNL     1      12.403 -59.100 -23.799  1.00  0.00     0.072 C 
BRANCH   7   8
ATOM      8  C   UNL     1      11.534 -59.885 -24.728  1.00  0.00    -0.019 C 
ATOM      9  C   UNL     1      11.573 -59.869 -26.070  1.00  0.00     0.123 C 
ATOM     10  C   UNL     1      10.590 -60.801 -26.602  1.00  0.00     0.024 A 
ATOM     11  C   UNL     1      10.504 -60.873 -24.224  1.00  0.00     0.071 C 
ATOM     12  C   UNL     1      10.230 -61.129 -27.898  1.00  0.00     0.062 A 
ATOM     13  C   UNL     1       9.947 -61.402 -25.513  1.00  0.00    -0.029 A 
ATOM     14  C   UNL     1       9.212 -62.077 -28.093  1.00  0.00     0.158 A 
ATOM     15  C   UNL     1       8.943 -62.337 -25.695  1.00  0.00     0.055 A 
ATOM     16  C   UNL     1       8.565 -62.689 -26.998  1.00  0.00     0.160 A 
BRANCH   9  17
ATOM     17  O   UNL     1      12.386 -59.107 -26.846  1.00  0.00    -0.507 OA
ATOM     18  H   UNL     1      12.114 -59.218 -27.773  1.00  0.00     0.293 HD
ENDBRANCH   9  17
BRANCH  14  19
ATOM     19  O   UNL     1       8.855 -62.382 -29.378  1.00  0.00    -0.504 OA
ATOM     20  H   UNL     1       7.891 -62.325 -29.480  1.00  0.00     0.293 HD
ENDBRANCH  14  19
BRANCH  16  21
ATOM     21  O   UNL     1       7.560 -63.618 -27.017  1.00  0.00    -0.493 OA
ATOM     22  C   UNL     1       6.921 -63.949 -25.792  1.00  0.00     0.278 C 
ENDBRANCH  16  21
ENDBRANCH   7   8
ENDBRANCH   1   7
BRANCH   6  23
ATOM     23  C   UNL     1      11.219 -58.530 -20.947  1.00  0.00     0.166 C 
ATOM     24  C   UNL     1      10.453 -59.813 -21.105  1.00  0.00     0.094 C 
ATOM     25  O   UNL     1      11.747 -58.200 -19.889  1.00  0.00    -0.294 OA
ENDBRANCH   6  23
BRANCH   4  26
ATOM     26  C   UNL     1      10.443 -53.894 -22.187  1.00  0.00     0.393 C 
BRANCH  26  27
ATOM     27  C   UNL     1      11.330 -52.829 -22.779  1.00  0.00     0.018 A 
ATOM     28  C   UNL     1      11.541 -51.619 -22.099  1.00  0.00     0.010 A 
ATOM     29  C   UNL     1      11.968 -53.028 -24.016  1.00  0.00     0.030 A 
ATOM     30  C   UNL     1      12.358 -50.628 -22.648  1.00  0.00     0.002 A 
ATOM     31  C   UNL     1      12.781 -52.031 -24.558  1.00  0.00     0.041 A 
ATOM     32  C   UNL     1      12.975 -50.833 -23.881  1.00  0.00     0.020 A 
ATOM     33  Cl  UNL     1      13.540 -52.292 -26.078  1.00  0.00    -0.084 Cl
ENDBRANCH  26  27
ENDBRANCH   4  26
TORSDOF 8
ENDMDL
MODEL 4
REMARK VINA RESULT:   -10.968      4.106      9.887
REMARK INTER + INTRA:         -15.786
REMARK INTER:                 -15.897
REMARK INTRA:                   0.111
REMARK UNBOUND:                -0.330
REMARK SMILES COc1cc2c(cc1O)C(O)=C(Cc1cc[n+](Cc3cccc(Cl)c3)cc1C(C)=O)C2
REMARK SMILES IDX 14 1 15 2 16 3 17 4 26 5 27 6 13 7 12 8 10 9 6 10 31 11 7 12
REMARK SMILES IDX 5 13 8 14 4 15 3 16 11 17 9 19 2 21 1 22 28 23 29 24 30 25
REMARK SMILES IDX 18 26 19 27 20 28 25 29 21 30 23 31 22 32 24 33
REMARK H PARENT 11 18 9 20
ROOT
ATOM      1  C   UNL     1      11.314 -55.357 -22.791  1.00  0.00    -0.021 A 
ATOM      2  C   UNL     1      10.634 -55.075 -21.594  1.00  0.00     0.075 A 
ATOM      3  C   UNL     1      10.216 -53.783 -21.294  1.00  0.00     0.308 A 
ATOM      4  N   UNL     1      10.440 -52.774 -22.165  1.00  0.00    -0.200 N 
ATOM      5  C   UNL     1      11.097 -53.005 -23.324  1.00  0.00     0.320 A 
ATOM      6  C   UNL     1      11.559 -54.284 -23.656  1.00  0.00     0.085 A 
ENDROOT
BRANCH   1   7
ATOM      7  C   UNL     1      11.624 -56.808 -23.104  1.00  0.00     0.072 C 
BRANCH   7   8
ATOM      8  C   UNL     1      10.408 -57.673 -23.178  1.00  0.00    -0.019 C 
ATOM      9  C   UNL     1      10.370 -59.013 -23.107  1.00  0.00     0.123 C 
ATOM     10  C   UNL     1       8.990 -59.472 -23.183  1.00  0.00     0.024 A 
ATOM     11  C   UNL     1       9.014 -57.094 -23.292  1.00  0.00     0.071 C 
ATOM     12  C   UNL     1       8.433 -60.739 -23.176  1.00  0.00     0.062 A 
ATOM     13  C   UNL     1       8.176 -58.338 -23.295  1.00  0.00    -0.029 A 
ATOM     14  C   UNL     1       7.037 -60.859 -23.279  1.00  0.00     0.158 A 
ATOM     15  C   UNL     1       6.800 -58.447 -23.398  1.00  0.00     0.055 A 
ATOM     16  C   UNL     1       6.212 -59.720 -23.388  1.00  0.00     0.160 A 
BRANCH   9  17
ATOM     17  O   UNL     1      11.436 -59.847 -22.990  1.00  0.00    -0.507 OA
ATOM     18  H   UNL     1      11.101 -60.753 -22.871  1.00  0.00     0.293 HD
ENDBRANCH   9  17
BRANCH  14  19
ATOM     19  O   UNL     1       6.500 -62.117 -23.287  1.00  0.00    -0.504 OA
ATOM     20  H   UNL     1       5.647 -62.115 -23.749  1.00  0.00     0.293 HD
ENDBRANCH  14  19
BRANCH  16  21
ATOM     21  O   UNL     1       4.849 -59.666 -23.502  1.00  0.00    -0.493 OA
ATOM     22  C   UNL     1       4.132 -58.799 -22.634  1.00  0.00     0.278 C 
ENDBRANCH  16  21
ENDBRANCH   7   8
ENDBRANCH   1   7
BRANCH   6  23
ATOM     23  C   UNL     1      12.216 -54.360 -24.978  1.00  0.00     0.166 C 
ATOM     24  C   UNL     1      12.971 -53.179 -25.520  1.00  0.00     0.094 C 
ATOM     25  O   UNL     1      12.041 -55.388 -25.625  1.00  0.00    -0.294 OA
ENDBRANCH   6  23
BRANCH   4  26
ATOM     26  C   UNL     1       9.955 -51.406 -21.847  1.00  0.00     0.393 C 
BRANCH  26  27
ATOM     27  C   UNL     1      10.932 -50.360 -22.322  1.00  0.00     0.018 A 
ATOM     28  C   UNL     1      12.312 -50.619 -22.314  1.00  0.00     0.010 A 
ATOM     29  C   UNL     1      10.481 -49.113 -22.788  1.00  0.00     0.030 A 
ATOM     30  C   UNL     1      13.219 -49.650 -22.748  1.00  0.00     0.002 A 
ATOM     31  C   UNL     1      11.395 -48.150 -23.218  1.00  0.00     0.041 A 
ATOM     32  C   UNL     1      12.761 -48.412 -23.197  1.00  0.00     0.020 A 
ATOM     33  Cl  UNL     1      10.822 -46.627 -23.772  1.00  0.00    -0.084 Cl
ENDBRANCH  26  27
ENDBRANCH   4  26
TORSDOF 8
ENDMDL
MODEL 5
REMARK VINA RESULT:   -10.624      3.594      8.811
REMARK INTER + INTRA:         -15.302
REMARK INTER:                 -14.590
REMARK INTRA:                  -0.711
REMARK UNBOUND:                -0.330
REMARK SMILES COc1cc2c(cc1O)C(O)=C(Cc1cc[n+](Cc3cccc(Cl)c3)cc1C(C)=O)C2
REMARK SMILES IDX 14 1 15 2 16 3 17 4 26 5 27 6 13 7 12 8 10 9 6 10 31 11 7 12
REMARK SMILES IDX 5 13 8 14 4 15 3 16 11 17 9 19 2 21 1 22 28 23 29 24 30 25
REMARK SMILES IDX 18 26 19 27 20 28 25 29 21 30 23 31 22 32 24 33
REMARK H PARENT 11 18 9 20
ROOT
ATOM      1  C   UNL     1      10.341 -58.348 -22.829  1.00  0.00    -0.021 A 
ATOM      2  C   UNL     1      11.370 -57.581 -22.256  1.00  0.00     0.075 A 
ATOM      3  C   UNL     1      11.179 -56.236 -21.958  1.00  0.00     0.308 A 
ATOM      4  N   UNL     1       9.987 -55.645 -22.200  1.00  0.00    -0.200 N 
ATOM      5  C   UNL     1       8.976 -56.349 -22.757  1.00  0.00     0.320 A 
ATOM      6  C   UNL     1       9.131 -57.698 -23.096  1.00  0.00     0.085 A 
ENDROOT
BRANCH   1   7
ATOM      7  C   UNL     1      10.583 -59.834 -23.006  1.00  0.00     0.072 C 
BRANCH   7   8
ATOM      8  C   UNL     1      10.303 -60.321 -24.391  1.00  0.00    -0.019 C 
ATOM      9  C   UNL     1      10.796 -59.818 -25.535  1.00  0.00     0.123 C 
ATOM     10  C   UNL     1      10.311 -60.597 -26.665  1.00  0.00     0.024 A 
ATOM     11  C   UNL     1       9.433 -61.531 -24.659  1.00  0.00     0.071 C 
ATOM     12  C   UNL     1      10.508 -60.473 -28.029  1.00  0.00     0.062 A 
ATOM     13  C   UNL     1       9.498 -61.616 -26.155  1.00  0.00    -0.029 A 
ATOM     14  C   UNL     1       9.880 -61.392 -28.885  1.00  0.00     0.158 A 
ATOM     15  C   UNL     1       8.874 -62.527 -26.991  1.00  0.00     0.055 A 
ATOM     16  C   UNL     1       9.064 -62.423 -28.376  1.00  0.00     0.160 A 
BRANCH   9  17
ATOM     17  O   UNL     1      11.617 -58.744 -25.657  1.00  0.00    -0.507 OA
ATOM     18  H   UNL     1      11.316 -58.215 -26.417  1.00  0.00     0.293 HD
ENDBRANCH   9  17
BRANCH  14  19
ATOM     19  O   UNL     1      10.071 -61.249 -30.233  1.00  0.00    -0.504 OA
ATOM     20  H   UNL     1      10.642 -60.485 -30.411  1.00  0.00     0.293 HD
ENDBRANCH  14  19
BRANCH  16  21
ATOM     21  O   UNL     1       8.382 -63.388 -29.069  1.00  0.00    -0.493 OA
ATOM     22  C   UNL     1       7.406 -64.155 -28.378  1.00  0.00     0.278 C 
ENDBRANCH  16  21
ENDBRANCH   7   8
ENDBRANCH   1   7
BRANCH   6  23
ATOM     23  C   UNL     1       7.911 -58.319 -23.654  1.00  0.00     0.166 C 
ATOM     24  C   UNL     1       6.992 -59.117 -22.772  1.00  0.00     0.094 C 
ATOM     25  O   UNL     1       7.742 -58.218 -24.866  1.00  0.00    -0.294 OA
ENDBRANCH   6  23
BRANCH   4  26
ATOM     26  C   UNL     1       9.788 -54.217 -21.843  1.00  0.00     0.393 C 
BRANCH  26  27
ATOM     27  C   UNL     1      10.818 -53.342 -22.510  1.00  0.00     0.018 A 
ATOM     28  C   UNL     1      11.213 -52.130 -21.920  1.00  0.00     0.010 A 
ATOM     29  C   UNL     1      11.408 -53.724 -23.728  1.00  0.00     0.030 A 
ATOM     30  C   UNL     1      12.163 -51.315 -22.539  1.00  0.00     0.002 A 
ATOM     31  C   UNL     1      12.355 -52.901 -24.341  1.00  0.00     0.041 A 
ATOM     32  C   UNL     1      12.732 -51.699 -23.753  1.00  0.00     0.020 A 
ATOM     33  Cl  UNL     1      13.053 -53.382 -25.835  1.00  0.00    -0.084 Cl
ENDBRANCH  26  27
ENDBRANCH   4  26
TORSDOF 8
ENDMDL
MODEL 6
REMARK VINA RESULT:   -10.483      3.913      9.406
REMARK INTER + INTRA:         -15.103
REMARK INTER:                 -14.419
REMARK INTRA:                  -0.684
REMARK UNBOUND:                -0.330
REMARK SMILES COc1cc2c(cc1O)C(O)=C(Cc1cc[n+](Cc3cccc(Cl)c3)cc1C(C)=O)C2
REMARK SMILES IDX 14 1 15 2 16 3 17 4 26 5 27 6 13 7 12 8 10 9 6 10 31 11 7 12
REMARK SMILES IDX 5 13 8 14 4 15 3 16 11 17 9 19 2 21 1 22 28 23 29 24 30 25
REMARK SMILES IDX 18 26 19 27 20 28 25 29 21 30 23 31 22 32 24 33
REMARK H PARENT 11 18 9 20
ROOT
ATOM      1  C   UNL     1      10.773 -54.509 -23.208  1.00  0.00    -0.021 A 
ATOM      2  C   UNL     1      11.480 -55.194 -24.211  1.00  0.00     0.075 A 
ATOM      3  C   UNL     1      12.347 -54.521 -25.065  1.00  0.00     0.308 A 
ATOM      4  N   UNL     1      12.540 -53.189 -24.930  1.00  0.00    -0.200 N 
ATOM      5  C   UNL     1      11.873 -52.495 -23.981  1.00  0.00     0.320 A 
ATOM      6  C   UNL     1      10.971 -53.127 -23.117  1.00  0.00     0.085 A 
ENDROOT
BRANCH   1   7
ATOM      7  C   UNL     1       9.947 -55.331 -22.239  1.00  0.00     0.072 C 
BRANCH   7   8
ATOM      8  C   UNL     1       9.846 -56.773 -22.618  1.00  0.00    -0.019 C 
ATOM      9  C   UNL     1      10.633 -57.773 -22.190  1.00  0.00     0.123 C 
ATOM     10  C   UNL     1      10.183 -59.034 -22.763  1.00  0.00     0.024 A 
ATOM     11  C   UNL     1       8.753 -57.291 -23.527  1.00  0.00     0.071 C 
ATOM     12  C   UNL     1      10.665 -60.327 -22.652  1.00  0.00     0.062 A 
ATOM     13  C   UNL     1       9.067 -58.758 -23.562  1.00  0.00    -0.029 A 
ATOM     14  C   UNL     1      10.007 -61.351 -23.352  1.00  0.00     0.158 A 
ATOM     15  C   UNL     1       8.413 -59.761 -24.256  1.00  0.00     0.055 A 
ATOM     16  C   UNL     1       8.879 -61.079 -24.155  1.00  0.00     0.160 A 
BRANCH   9  17
ATOM     17  O   UNL     1      11.700 -57.662 -21.357  1.00  0.00    -0.507 OA
ATOM     18  H   UNL     1      11.376 -57.702 -20.440  1.00  0.00     0.293 HD
ENDBRANCH   9  17
BRANCH  14  19
ATOM     19  O   UNL     1      10.502 -62.622 -23.246  1.00  0.00    -0.504 OA
ATOM     20  H   UNL     1      10.063 -63.207 -23.884  1.00  0.00     0.293 HD
ENDBRANCH  14  19
BRANCH  16  21
ATOM     21  O   UNL     1       8.135 -61.954 -24.899  1.00  0.00    -0.493 OA
ATOM     22  C   UNL     1       7.123 -62.707 -24.247  1.00  0.00     0.278 C 
ENDBRANCH  16  21
ENDBRANCH   7   8
ENDBRANCH   1   7
BRANCH   6  23
ATOM     23  C   UNL     1      10.366 -52.222 -22.117  1.00  0.00     0.166 C 
ATOM     24  C   UNL     1      11.236 -51.373 -21.233  1.00  0.00     0.094 C 
ATOM     25  O   UNL     1       9.144 -52.267 -21.997  1.00  0.00    -0.294 OA
ENDBRANCH   6  23
BRANCH   4  26
ATOM     26  C   UNL     1      13.497 -52.490 -25.826  1.00  0.00     0.393 C 
BRANCH  26  27
ATOM     27  C   UNL     1      14.779 -52.166 -25.104  1.00  0.00     0.018 A 
ATOM     28  C   UNL     1      15.925 -52.953 -25.300  1.00  0.00     0.010 A 
ATOM     29  C   UNL     1      14.856 -51.068 -24.228  1.00  0.00     0.030 A 
ATOM     30  C   UNL     1      17.113 -52.659 -24.627  1.00  0.00     0.002 A 
ATOM     31  C   UNL     1      16.047 -50.783 -23.559  1.00  0.00     0.041 A 
ATOM     32  C   UNL     1      17.173 -51.575 -23.752  1.00  0.00     0.020 A 
ATOM     33  Cl  UNL     1      16.113 -49.444 -22.484  1.00  0.00    -0.084 Cl
ENDBRANCH  26  27
ENDBRANCH   4  26
TORSDOF 8
ENDMDL
MODEL 7
REMARK VINA RESULT:   -10.188      2.043      3.253
REMARK INTER + INTRA:         -14.687
REMARK INTER:                 -13.511
REMARK INTRA:                  -1.176
REMARK UNBOUND:                -0.330
REMARK SMILES COc1cc2c(cc1O)C(O)=C(Cc1cc[n+](Cc3cccc(Cl)c3)cc1C(C)=O)C2
REMARK SMILES IDX 14 1 15 2 16 3 17 4 26 5 27 6 13 7 12 8 10 9 6 10 31 11 7 12
REMARK SMILES IDX 5 13 8 14 4 15 3 16 11 17 9 19 2 21 1 22 28 23 29 24 30 25
REMARK SMILES IDX 18 26 19 27 20 28 25 29 21 30 23 31 22 32 24 33
REMARK H PARENT 11 18 9 20
ROOT
ATOM      1  C   UNL     1      11.334 -55.177 -23.703  1.00  0.00    -0.021 A 
ATOM      2  C   UNL     1      11.767 -56.352 -24.341  1.00  0.00     0.075 A 
ATOM      3  C   UNL     1      11.807 -57.565 -23.661  1.00  0.00     0.308 A 
ATOM      4  N   UNL     1      11.410 -57.637 -22.371  1.00  0.00    -0.200 N 
ATOM      5  C   UNL     1      10.994 -56.527 -21.721  1.00  0.00     0.320 A 
ATOM      6  C   UNL     1      10.961 -55.281 -22.358  1.00  0.00     0.085 A 
ENDROOT
BRANCH   1   7
ATOM      7  C   UNL     1      11.198 -53.924 -24.544  1.00  0.00     0.072 C 
BRANCH   7   8
ATOM      8  C   UNL     1      12.416 -53.058 -24.521  1.00  0.00    -0.019 C 
ATOM      9  C   UNL     1      12.637 -52.004 -23.719  1.00  0.00     0.123 C 
ATOM     10  C   UNL     1      13.958 -51.452 -23.983  1.00  0.00     0.024 A 
ATOM     11  C   UNL     1      13.613 -53.328 -25.408  1.00  0.00     0.071 C 
ATOM     12  C   UNL     1      14.635 -50.370 -23.448  1.00  0.00     0.062 A 
ATOM     13  C   UNL     1      14.545 -52.231 -24.988  1.00  0.00    -0.029 A 
ATOM     14  C   UNL     1      15.921 -50.076 -23.930  1.00  0.00     0.158 A 
ATOM     15  C   UNL     1      15.812 -51.949 -25.469  1.00  0.00     0.055 A 
ATOM     16  C   UNL     1      16.519 -50.860 -24.939  1.00  0.00     0.160 A 
BRANCH   9  17
ATOM     17  O   UNL     1      11.779 -51.496 -22.797  1.00  0.00    -0.507 OA
ATOM     18  H   UNL     1      11.087 -50.998 -23.265  1.00  0.00     0.293 HD
ENDBRANCH   9  17
BRANCH  14  19
ATOM     19  O   UNL     1      16.573 -48.995 -23.404  1.00  0.00    -0.504 OA
ATOM     20  H   UNL     1      16.137 -48.173 -23.681  1.00  0.00     0.293 HD
ENDBRANCH  14  19
BRANCH  16  21
ATOM     21  O   UNL     1      17.750 -50.706 -25.517  1.00  0.00    -0.493 OA
ATOM     22  C   UNL     1      18.459 -51.870 -25.920  1.00  0.00     0.278 C 
ENDBRANCH  16  21
ENDBRANCH   7   8
ENDBRANCH   1   7
BRANCH   6  23
ATOM     23  C   UNL     1      10.440 -54.188 -21.509  1.00  0.00     0.166 C 
ATOM     24  C   UNL     1      10.965 -53.991 -20.115  1.00  0.00     0.094 C 
ATOM     25  O   UNL     1       9.516 -53.522 -21.969  1.00  0.00    -0.294 OA
ENDBRANCH   6  23
BRANCH   4  26
ATOM     26  C   UNL     1      11.425 -58.946 -21.669  1.00  0.00     0.393 C 
BRANCH  26  27
ATOM     27  C   UNL     1      10.665 -59.989 -22.449  1.00  0.00     0.018 A 
ATOM     28  C   UNL     1      11.347 -61.039 -23.085  1.00  0.00     0.010 A 
ATOM     29  C   UNL     1       9.264 -59.936 -22.547  1.00  0.00     0.030 A 
ATOM     30  C   UNL     1      10.645 -62.002 -23.813  1.00  0.00     0.002 A 
ATOM     31  C   UNL     1       8.572 -60.902 -23.279  1.00  0.00     0.041 A 
ATOM     32  C   UNL     1       9.257 -61.932 -23.914  1.00  0.00     0.020 A 
ATOM     33  Cl  UNL     1       6.860 -60.809 -23.396  1.00  0.00    -0.084 Cl
ENDBRANCH  26  27
ENDBRANCH   4  26
TORSDOF 8
ENDMDL
MODEL 8
REMARK VINA RESULT:    -9.974      2.109      3.743
REMARK INTER + INTRA:         -14.386
REMARK INTER:                 -13.508
REMARK INTRA:                  -0.877
REMARK UNBOUND:                -0.330
REMARK SMILES COc1cc2c(cc1O)C(O)=C(Cc1cc[n+](Cc3cccc(Cl)c3)cc1C(C)=O)C2
REMARK SMILES IDX 14 1 15 2 16 3 17 4 26 5 27 6 13 7 12 8 10 9 6 10 31 11 7 12
REMARK SMILES IDX 5 13 8 14 4 15 3 16 11 17 9 19 2 21 1 22 28 23 29 24 30 25
REMARK SMILES IDX 18 26 19 27 20 28 25 29 21 30 23 31 22 32 24 33
REMARK H PARENT 11 18 9 20
ROOT
ATOM      1  C   UNL     1      11.353 -55.106 -23.726  1.00  0.00    -0.021 A 
ATOM      2  C   UNL     1      11.809 -56.317 -24.274  1.00  0.00     0.075 A 
ATOM      3  C   UNL     1      11.777 -57.495 -23.536  1.00  0.00     0.308 A 
ATOM      4  N   UNL     1      11.286 -57.498 -22.276  1.00  0.00    -0.200 N 
ATOM      5  C   UNL     1      10.844 -56.351 -21.712  1.00  0.00     0.320 A 
ATOM      6  C   UNL     1      10.881 -55.138 -22.409  1.00  0.00     0.085 A 
ENDROOT
BRANCH   1   7
ATOM      7  C   UNL     1      11.302 -53.893 -24.634  1.00  0.00     0.072 C 
BRANCH   7   8
ATOM      8  C   UNL     1      12.522 -53.034 -24.548  1.00  0.00    -0.019 C 
ATOM      9  C   UNL     1      13.666 -53.193 -25.233  1.00  0.00     0.123 C 
ATOM     10  C   UNL     1      14.596 -52.126 -24.893  1.00  0.00     0.024 A 
ATOM     11  C   UNL     1      12.576 -51.798 -23.676  1.00  0.00     0.071 C 
ATOM     12  C   UNL     1      15.891 -51.859 -25.303  1.00  0.00     0.062 A 
ATOM     13  C   UNL     1      13.959 -51.293 -23.966  1.00  0.00    -0.029 A 
ATOM     14  C   UNL     1      16.545 -50.735 -24.773  1.00  0.00     0.158 A 
ATOM     15  C   UNL     1      14.595 -50.183 -23.438  1.00  0.00     0.055 A 
ATOM     16  C   UNL     1      15.905 -49.889 -23.842  1.00  0.00     0.160 A 
BRANCH   9  17
ATOM     17  O   UNL     1      13.951 -54.189 -26.111  1.00  0.00    -0.507 OA
ATOM     18  H   UNL     1      14.304 -54.945 -25.610  1.00  0.00     0.293 HD
ENDBRANCH   9  17
BRANCH  14  19
ATOM     19  O   UNL     1      17.830 -50.491 -25.175  1.00  0.00    -0.504 OA
ATOM     20  H   UNL     1      18.334 -51.320 -25.209  1.00  0.00     0.293 HD
ENDBRANCH  14  19
BRANCH  16  21
ATOM     21  O   UNL     1      16.401 -48.768 -23.232  1.00  0.00    -0.493 OA
ATOM     22  C   UNL     1      15.656 -48.192 -22.169  1.00  0.00     0.278 C 
ENDBRANCH  16  21
ENDBRANCH   7   8
ENDBRANCH   1   7
BRANCH   6  23
ATOM     23  C   UNL     1      10.320 -53.997 -21.654  1.00  0.00     0.166 C 
ATOM     24  C   UNL     1       9.434 -52.994 -22.339  1.00  0.00     0.094 C 
ATOM     25  O   UNL     1      10.679 -53.874 -20.486  1.00  0.00    -0.294 OA
ENDBRANCH   6  23
BRANCH   4  26
ATOM     26  C   UNL     1      11.225 -58.771 -21.513  1.00  0.00     0.393 C 
BRANCH  26  27
ATOM     27  C   UNL     1      10.536 -59.849 -22.310  1.00  0.00     0.018 A 
ATOM     28  C   UNL     1      11.280 -60.886 -22.896  1.00  0.00     0.010 A 
ATOM     29  C   UNL     1       9.140 -59.842 -22.475  1.00  0.00     0.030 A 
ATOM     30  C   UNL     1      10.645 -61.883 -23.640  1.00  0.00     0.002 A 
ATOM     31  C   UNL     1       8.515 -60.842 -23.222  1.00  0.00     0.041 A 
ATOM     32  C   UNL     1       9.261 -61.859 -23.807  1.00  0.00     0.020 A 
ATOM     33  Cl  UNL     1       6.808 -60.806 -23.422  1.00  0.00    -0.084 Cl
ENDBRANCH  26  27
ENDBRANCH   4  26
TORSDOF 8
ENDMDL
MODEL 9
REMARK VINA RESULT:    -9.928      3.335      6.060
REMARK INTER + INTRA:         -14.322
REMARK INTER:                 -13.886
REMARK INTRA:                  -0.436
REMARK UNBOUND:                -0.330
REMARK SMILES COc1cc2c(cc1O)C(O)=C(Cc1cc[n+](Cc3cccc(Cl)c3)cc1C(C)=O)C2
REMARK SMILES IDX 14 1 15 2 16 3 17 4 26 5 27 6 13 7 12 8 10 9 6 10 31 11 7 12
REMARK SMILES IDX 5 13 8 14 4 15 3 16 11 17 9 19 2 21 1 22 28 23 29 24 30 25
REMARK SMILES IDX 18 26 19 27 20 28 25 29 21 30 23 31 22 32 24 33
REMARK H PARENT 11 18 9 20
ROOT
ATOM      1  C   UNL     1      12.315 -52.425 -23.317  1.00  0.00    -0.021 A 
ATOM      2  C   UNL     1      11.406 -52.535 -22.251  1.00  0.00     0.075 A 
ATOM      3  C   UNL     1      10.424 -53.520 -22.246  1.00  0.00     0.308 A 
ATOM      4  N   UNL     1      10.339 -54.405 -23.265  1.00  0.00    -0.200 N 
ATOM      5  C   UNL     1      11.192 -54.326 -24.311  1.00  0.00     0.320 A 
ATOM      6  C   UNL     1      12.180 -53.336 -24.371  1.00  0.00     0.085 A 
ENDROOT
BRANCH   1   7
ATOM      7  C   UNL     1      13.433 -51.409 -23.190  1.00  0.00     0.072 C 
BRANCH   7   8
ATOM      8  C   UNL     1      13.003 -50.010 -23.493  1.00  0.00    -0.019 C 
ATOM      9  C   UNL     1      13.538 -49.186 -24.407  1.00  0.00     0.123 C 
ATOM     10  C   UNL     1      12.811 -47.925 -24.419  1.00  0.00     0.024 A 
ATOM     11  C   UNL     1      11.821 -49.364 -22.802  1.00  0.00     0.071 C 
ATOM     12  C   UNL     1      12.981 -46.763 -25.152  1.00  0.00     0.062 A 
ATOM     13  C   UNL     1      11.790 -48.020 -23.466  1.00  0.00    -0.029 A 
ATOM     14  C   UNL     1      12.106 -45.689 -24.921  1.00  0.00     0.158 A 
ATOM     15  C   UNL     1      10.922 -46.967 -23.232  1.00  0.00     0.055 A 
ATOM     16  C   UNL     1      11.073 -45.781 -23.966  1.00  0.00     0.160 A 
BRANCH   9  17
ATOM     17  O   UNL     1      14.601 -49.450 -25.211  1.00  0.00    -0.507 OA
ATOM     18  H   UNL     1      15.207 -48.690 -25.174  1.00  0.00     0.293 HD
ENDBRANCH   9  17
BRANCH  14  19
ATOM     19  O   UNL     1      12.295 -44.541 -25.641  1.00  0.00    -0.504 OA
ATOM     20  H   UNL     1      11.531 -44.377 -26.217  1.00  0.00     0.293 HD
ENDBRANCH  14  19
BRANCH  16  21
ATOM     21  O   UNL     1      10.148 -44.833 -23.620  1.00  0.00    -0.493 OA
ATOM     22  C   UNL     1      10.575 -43.722 -22.845  1.00  0.00     0.278 C 
ENDBRANCH  16  21
ENDBRANCH   7   8
ENDBRANCH   1   7
BRANCH   6  23
ATOM     23  C   UNL     1      13.048 -53.427 -25.564  1.00  0.00     0.166 C 
ATOM     24  C   UNL     1      13.404 -54.766 -26.145  1.00  0.00     0.094 C 
ATOM     25  O   UNL     1      13.517 -52.375 -25.990  1.00  0.00    -0.294 OA
ENDBRANCH   6  23
BRANCH   4  26
ATOM     26  C   UNL     1       9.308 -55.473 -23.228  1.00  0.00     0.393 C 
BRANCH  26  27
ATOM     27  C   UNL     1       9.890 -56.774 -22.737  1.00  0.00     0.018 A 
ATOM     28  C   UNL     1      11.050 -56.780 -21.945  1.00  0.00     0.010 A 
ATOM     29  C   UNL     1       9.283 -58.001 -23.054  1.00  0.00     0.030 A 
ATOM     30  C   UNL     1      11.596 -57.983 -21.493  1.00  0.00     0.002 A 
ATOM     31  C   UNL     1       9.837 -59.199 -22.600  1.00  0.00     0.041 A 
ATOM     32  C   UNL     1      10.991 -59.195 -21.824  1.00  0.00     0.020 A 
ATOM     33  Cl  UNL     1       9.084 -60.689 -23.011  1.00  0.00    -0.084 Cl
ENDBRANCH  26  27
ENDBRANCH   4  26
TORSDOF 8
ENDMDL
