MODEL 1
REMARK VINA RESULT:   -10.159      0.000      0.000
REMARK INTER + INTRA:         -16.495
REMARK INTER:                 -15.505
REMARK INTRA:                  -0.990
REMARK UNBOUND:                -0.990
REMARK SMILES C#CCOc1cccc(-c2cc(-c3ccc(OCC[NH+]4CCOCC4)cc3)nc(C)n2)c1
REMARK SMILES IDX 16 1 15 2 26 3 14 4 27 5 13 6 17 7 18 8 19 9 20 10 21 11
REMARK SMILES IDX 25 12 22 13 24 14 23 15 12 17 11 18 28 19 10 20 29 21 31 22
REMARK SMILES IDX 30 23 9 24 8 25 32 26 7 27 5 28 6 29 4 30 3 31 2 32 1 33
REMARK H PARENT 20 16
ROOT
ATOM      1  C   UNL     1      11.128 -54.557 -22.303  1.00  0.00     0.119 A 
ATOM      2  C   UNL     1      11.035 -55.566 -21.347  1.00  0.00     0.047 A 
ATOM      3  C   UNL     1      11.369 -54.902 -23.630  1.00  0.00     0.047 A 
ATOM      4  C   UNL     1      11.176 -56.908 -21.714  1.00  0.00     0.014 A 
ATOM      5  C   UNL     1      11.510 -56.250 -23.994  1.00  0.00     0.014 A 
ATOM      6  C   UNL     1      11.421 -57.285 -23.046  1.00  0.00     0.001 A 
ENDROOT
BRANCH   1   7
ATOM      7  O   UNL     1      10.965 -53.290 -21.814  1.00  0.00    -0.488 OA
BRANCH   7   8
ATOM      8  C   UNL     1      10.957 -52.222 -22.757  1.00  0.00     0.290 C 
BRANCH   8   9
ATOM      9  C   UNL     1      12.211 -51.365 -22.539  1.00  0.00     0.304 C 
BRANCH   9  10
ATOM     10  N   UNL     1      13.332 -51.691 -23.523  1.00  0.00    -0.328 N 
ATOM     11  C   UNL     1      14.660 -51.001 -23.192  1.00  0.00     0.291 C 
ATOM     12  C   UNL     1      12.909 -51.333 -24.950  1.00  0.00     0.291 C 
ATOM     13  C   UNL     1      15.699 -51.317 -24.277  1.00  0.00     0.221 C 
ATOM     14  C   UNL     1      14.041 -51.653 -25.929  1.00  0.00     0.221 C 
ATOM     15  O   UNL     1      15.231 -50.942 -25.574  1.00  0.00    -0.370 OA
ATOM     16  H   UNL     1      13.502 -52.705 -23.495  1.00  0.00     0.348 HD
ENDBRANCH   9  10
ENDBRANCH   8   9
ENDBRANCH   7   8
ENDBRANCH   1   7
BRANCH   6  17
ATOM     17  C   UNL     1      11.552 -58.711 -23.415  1.00  0.00     0.075 A 
ATOM     18  C   UNL     1      10.511 -59.616 -23.315  1.00  0.00     0.058 A 
ATOM     19  N   UNL     1      12.771 -59.084 -23.860  1.00  0.00    -0.233 NA
ATOM     20  C   UNL     1      10.772 -60.927 -23.671  1.00  0.00     0.075 A 
ATOM     21  C   UNL     1      12.943 -60.376 -24.185  1.00  0.00     0.126 A 
ATOM     22  N   UNL     1      11.993 -61.317 -24.093  1.00  0.00    -0.233 NA
ATOM     23  C   UNL     1      14.304 -60.805 -24.636  1.00  0.00     0.089 C 
BRANCH  20  24
ATOM     24  C   UNL     1       9.751 -61.989 -23.599  1.00  0.00     0.004 A 
ATOM     25  C   UNL     1       9.759 -62.919 -22.543  1.00  0.00     0.010 A 
ATOM     26  C   UNL     1       8.737 -62.110 -24.569  1.00  0.00     0.056 A 
ATOM     27  C   UNL     1       8.780 -63.908 -22.438  1.00  0.00     0.005 A 
ATOM     28  C   UNL     1       7.768 -63.116 -24.480  1.00  0.00     0.121 A 
ATOM     29  C   UNL     1       7.777 -63.996 -23.400  1.00  0.00     0.046 A 
BRANCH  28  30
ATOM     30  O   UNL     1       6.743 -63.274 -25.371  1.00  0.00    -0.481 OA
BRANCH  30  31
ATOM     31  C   UNL     1       7.030 -64.096 -26.507  1.00  0.00     0.318 C 
BRANCH  31  32
ATOM     32  C   UNL     1       7.887 -63.378 -27.462  1.00  0.00    -0.065 C 
ATOM     33  C   UNL     1       8.595 -62.798 -28.240  1.00  0.00     0.007 C 
ENDBRANCH  31  32
ENDBRANCH  30  31
ENDBRANCH  28  30
ENDBRANCH  20  24
ENDBRANCH   6  17
TORSDOF 9
ENDMDL
MODEL 2
REMARK VINA RESULT:    -9.980      2.541     10.323
REMARK INTER + INTRA:         -16.221
REMARK INTER:                 -15.094
REMARK INTRA:                  -1.127
REMARK UNBOUND:                -0.990
REMARK SMILES C#CCOc1cccc(-c2cc(-c3ccc(OCC[NH+]4CCOCC4)cc3)nc(C)n2)c1
REMARK SMILES IDX 16 1 15 2 26 3 14 4 27 5 13 6 17 7 18 8 19 9 20 10 21 11
REMARK SMILES IDX 25 12 22 13 24 14 23 15 12 17 11 18 28 19 10 20 29 21 31 22
REMARK SMILES IDX 30 23 9 24 8 25 32 26 7 27 5 28 6 29 4 30 3 31 2 32 1 33
REMARK H PARENT 20 16
ROOT
ATOM      1  C   UNL     1       9.872 -59.832 -21.951  1.00  0.00     0.119 A 
ATOM      2  C   UNL     1      11.131 -59.327 -21.633  1.00  0.00     0.047 A 
ATOM      3  C   UNL     1       9.028 -59.079 -22.764  1.00  0.00     0.047 A 
ATOM      4  C   UNL     1      11.545 -58.086 -22.125  1.00  0.00     0.014 A 
ATOM      5  C   UNL     1       9.447 -57.833 -23.255  1.00  0.00     0.014 A 
ATOM      6  C   UNL     1      10.713 -57.305 -22.946  1.00  0.00     0.001 A 
ENDROOT
BRANCH   1   7
ATOM      7  O   UNL     1       9.594 -61.057 -21.412  1.00  0.00    -0.488 OA
BRANCH   7   8
ATOM      8  C   UNL     1       9.212 -62.095 -22.312  1.00  0.00     0.290 C 
BRANCH   8   9
ATOM      9  C   UNL     1      10.450 -62.538 -23.103  1.00  0.00     0.304 C 
BRANCH   9  10
ATOM     10  N   UNL     1      10.347 -62.222 -24.594  1.00  0.00    -0.328 N 
ATOM     11  C   UNL     1      10.974 -60.878 -24.982  1.00  0.00     0.291 C 
ATOM     12  C   UNL     1       8.885 -62.255 -25.046  1.00  0.00     0.291 C 
ATOM     13  C   UNL     1      10.749 -60.605 -26.475  1.00  0.00     0.221 C 
ATOM     14  C   UNL     1       8.789 -61.926 -26.537  1.00  0.00     0.221 C 
ATOM     15  O   UNL     1       9.360 -60.643 -26.809  1.00  0.00    -0.370 OA
ATOM     16  H   UNL     1      10.849 -62.951 -25.115  1.00  0.00     0.348 HD
ENDBRANCH   9  10
ENDBRANCH   8   9
ENDBRANCH   7   8
ENDBRANCH   1   7
BRANCH   6  17
ATOM     17  C   UNL     1      11.177 -56.001 -23.467  1.00  0.00     0.075 A 
ATOM     18  C   UNL     1      10.841 -54.792 -22.887  1.00  0.00     0.058 A 
ATOM     19  N   UNL     1      11.962 -56.063 -24.565  1.00  0.00    -0.233 NA
ATOM     20  C   UNL     1      11.323 -53.643 -23.486  1.00  0.00     0.075 A 
ATOM     21  C   UNL     1      12.388 -54.902 -25.087  1.00  0.00     0.126 A 
ATOM     22  N   UNL     1      12.086 -53.690 -24.598  1.00  0.00    -0.233 NA
ATOM     23  C   UNL     1      13.220 -54.960 -26.329  1.00  0.00     0.089 C 
BRANCH  20  24
ATOM     24  C   UNL     1      11.027 -52.292 -22.972  1.00  0.00     0.004 A 
ATOM     25  C   UNL     1       9.766 -51.998 -22.421  1.00  0.00     0.010 A 
ATOM     26  C   UNL     1      11.983 -51.259 -23.005  1.00  0.00     0.056 A 
ATOM     27  C   UNL     1       9.479 -50.737 -21.894  1.00  0.00     0.005 A 
ATOM     28  C   UNL     1      11.690 -49.987 -22.502  1.00  0.00     0.121 A 
ATOM     29  C   UNL     1      10.448 -49.737 -21.924  1.00  0.00     0.046 A 
BRANCH  28  30
ATOM     30  O   UNL     1      12.580 -48.948 -22.479  1.00  0.00    -0.481 OA
BRANCH  30  31
ATOM     31  C   UNL     1      12.008 -47.646 -22.317  1.00  0.00     0.318 C 
BRANCH  31  32
ATOM     32  C   UNL     1      11.777 -47.016 -23.626  1.00  0.00    -0.065 C 
ATOM     33  C   UNL     1      11.582 -46.511 -24.698  1.00  0.00     0.007 C 
ENDBRANCH  31  32
ENDBRANCH  30  31
ENDBRANCH  28  30
ENDBRANCH  20  24
ENDBRANCH   6  17
TORSDOF 9
ENDMDL
MODEL 3
REMARK VINA RESULT:    -9.824      4.085     12.562
REMARK INTER + INTRA:         -15.984
REMARK INTER:                 -14.939
REMARK INTRA:                  -1.045
REMARK UNBOUND:                -0.990
REMARK SMILES C#CCOc1cccc(-c2cc(-c3ccc(OCC[NH+]4CCOCC4)cc3)nc(C)n2)c1
REMARK SMILES IDX 16 1 15 2 26 3 14 4 27 5 13 6 17 7 18 8 19 9 20 10 21 11
REMARK SMILES IDX 25 12 22 13 24 14 23 15 12 17 11 18 28 19 10 20 29 21 31 22
REMARK SMILES IDX 30 23 9 24 8 25 32 26 7 27 5 28 6 29 4 30 3 31 2 32 1 33
REMARK H PARENT 20 16
ROOT
ATOM      1  C   UNL     1      10.707 -55.321 -22.422  1.00  0.00     0.119 A 
ATOM      2  C   UNL     1      11.293 -55.155 -23.675  1.00  0.00     0.047 A 
ATOM      3  C   UNL     1      10.605 -54.223 -21.573  1.00  0.00     0.047 A 
ATOM      4  C   UNL     1      11.769 -53.903 -24.077  1.00  0.00     0.014 A 
ATOM      5  C   UNL     1      11.084 -52.968 -21.980  1.00  0.00     0.014 A 
ATOM      6  C   UNL     1      11.680 -52.778 -23.239  1.00  0.00     0.001 A 
ENDROOT
BRANCH   1   7
ATOM      7  O   UNL     1      10.278 -56.592 -22.156  1.00  0.00    -0.488 OA
BRANCH   7   8
ATOM      8  C   UNL     1       9.472 -57.230 -23.144  1.00  0.00     0.290 C 
BRANCH   8   9
ATOM      9  C   UNL     1       9.685 -58.746 -23.046  1.00  0.00     0.304 C 
BRANCH   9  10
ATOM     10  N   UNL     1       8.378 -59.521 -22.889  1.00  0.00    -0.328 N 
ATOM     11  C   UNL     1       8.282 -60.754 -23.794  1.00  0.00     0.291 C 
ATOM     12  C   UNL     1       7.180 -58.602 -23.146  1.00  0.00     0.291 C 
ATOM     13  C   UNL     1       6.907 -61.417 -23.633  1.00  0.00     0.221 C 
ATOM     14  C   UNL     1       5.876 -59.387 -22.997  1.00  0.00     0.221 C 
ATOM     15  O   UNL     1       5.848 -60.496 -23.901  1.00  0.00    -0.370 OA
ATOM     16  H   UNL     1       8.312 -59.852 -21.918  1.00  0.00     0.348 HD
ENDBRANCH   9  10
ENDBRANCH   8   9
ENDBRANCH   7   8
ENDBRANCH   1   7
BRANCH   6  17
ATOM     17  C   UNL     1      12.176 -51.460 -23.691  1.00  0.00     0.075 A 
ATOM     18  C   UNL     1      11.921 -50.284 -23.011  1.00  0.00     0.058 A 
ATOM     19  N   UNL     1      12.903 -51.475 -24.828  1.00  0.00    -0.233 NA
ATOM     20  C   UNL     1      12.424 -49.115 -23.552  1.00  0.00     0.075 A 
ATOM     21  C   UNL     1      13.356 -50.297 -25.289  1.00  0.00     0.126 A 
ATOM     22  N   UNL     1      13.131 -49.113 -24.702  1.00  0.00    -0.233 NA
ATOM     23  C   UNL     1      14.124 -50.300 -26.573  1.00  0.00     0.089 C 
BRANCH  20  24
ATOM     24  C   UNL     1      12.213 -47.794 -22.930  1.00  0.00     0.004 A 
ATOM     25  C   UNL     1      12.989 -47.392 -21.826  1.00  0.00     0.010 A 
ATOM     26  C   UNL     1      11.245 -46.892 -23.411  1.00  0.00     0.056 A 
ATOM     27  C   UNL     1      12.830 -46.131 -21.248  1.00  0.00     0.005 A 
ATOM     28  C   UNL     1      11.065 -45.638 -22.817  1.00  0.00     0.121 A 
ATOM     29  C   UNL     1      11.877 -45.252 -21.754  1.00  0.00     0.046 A 
BRANCH  28  30
ATOM     30  O   UNL     1      10.162 -44.707 -23.250  1.00  0.00    -0.481 OA
BRANCH  30  31
ATOM     31  C   UNL     1      10.664 -43.373 -23.383  1.00  0.00     0.318 C 
BRANCH  31  32
ATOM     32  C   UNL     1      11.585 -43.278 -24.526  1.00  0.00    -0.065 C 
ATOM     33  C   UNL     1      12.345 -43.206 -25.454  1.00  0.00     0.007 C 
ENDBRANCH  31  32
ENDBRANCH  30  31
ENDBRANCH  28  30
ENDBRANCH  20  24
ENDBRANCH   6  17
TORSDOF 9
ENDMDL
MODEL 4
REMARK VINA RESULT:    -9.818      3.233      4.028
REMARK INTER + INTRA:         -15.974
REMARK INTER:                 -15.200
REMARK INTRA:                  -0.774
REMARK UNBOUND:                -0.990
REMARK SMILES C#CCOc1cccc(-c2cc(-c3ccc(OCC[NH+]4CCOCC4)cc3)nc(C)n2)c1
REMARK SMILES IDX 16 1 15 2 26 3 14 4 27 5 13 6 17 7 18 8 19 9 20 10 21 11
REMARK SMILES IDX 25 12 22 13 24 14 23 15 12 17 11 18 28 19 10 20 29 21 31 22
REMARK SMILES IDX 30 23 9 24 8 25 32 26 7 27 5 28 6 29 4 30 3 31 2 32 1 33
REMARK H PARENT 20 16
ROOT
ATOM      1  C   UNL     1      11.448 -52.072 -22.246  1.00  0.00     0.119 A 
ATOM      2  C   UNL     1      10.852 -52.917 -21.312  1.00  0.00     0.047 A 
ATOM      3  C   UNL     1      11.793 -52.582 -23.495  1.00  0.00     0.047 A 
ATOM      4  C   UNL     1      10.600 -54.256 -21.624  1.00  0.00     0.014 A 
ATOM      5  C   UNL     1      11.539 -53.927 -23.804  1.00  0.00     0.014 A 
ATOM      6  C   UNL     1      10.940 -54.797 -22.875  1.00  0.00     0.001 A 
ENDROOT
BRANCH   1   7
ATOM      7  O   UNL     1      11.632 -50.786 -21.818  1.00  0.00    -0.488 OA
BRANCH   7   8
ATOM      8  C   UNL     1      12.132 -49.848 -22.768  1.00  0.00     0.290 C 
BRANCH   8   9
ATOM      9  C   UNL     1      11.197 -48.632 -22.795  1.00  0.00     0.304 C 
BRANCH   9  10
ATOM     10  N   UNL     1      11.944 -47.312 -22.981  1.00  0.00    -0.328 N 
ATOM     11  C   UNL     1      11.749 -46.327 -21.823  1.00  0.00     0.291 C 
ATOM     12  C   UNL     1      11.530 -46.647 -24.296  1.00  0.00     0.291 C 
ATOM     13  C   UNL     1      12.462 -45.004 -22.134  1.00  0.00     0.221 C 
ATOM     14  C   UNL     1      12.274 -45.321 -24.470  1.00  0.00     0.221 C 
ATOM     15  O   UNL     1      12.010 -44.446 -23.370  1.00  0.00    -0.370 OA
ATOM     16  H   UNL     1      12.950 -47.516 -23.039  1.00  0.00     0.348 HD
ENDBRANCH   9  10
ENDBRANCH   8   9
ENDBRANCH   7   8
ENDBRANCH   1   7
BRANCH   6  17
ATOM     17  C   UNL     1      10.650 -56.213 -23.189  1.00  0.00     0.075 A 
ATOM     18  C   UNL     1       9.385 -56.764 -23.096  1.00  0.00     0.058 A 
ATOM     19  N   UNL     1      11.714 -56.949 -23.575  1.00  0.00    -0.233 NA
ATOM     20  C   UNL     1       9.253 -58.108 -23.396  1.00  0.00     0.075 A 
ATOM     21  C   UNL     1      11.503 -58.247 -23.849  1.00  0.00     0.126 A 
ATOM     22  N   UNL     1      10.313 -58.860 -23.759  1.00  0.00    -0.233 NA
ATOM     23  C   UNL     1      12.685 -59.080 -24.234  1.00  0.00     0.089 C 
BRANCH  20  24
ATOM     24  C   UNL     1       7.962 -58.816 -23.326  1.00  0.00     0.004 A 
ATOM     25  C   UNL     1       6.826 -58.180 -22.791  1.00  0.00     0.010 A 
ATOM     26  C   UNL     1       7.812 -60.137 -23.790  1.00  0.00     0.056 A 
ATOM     27  C   UNL     1       5.586 -58.820 -22.750  1.00  0.00     0.005 A 
ATOM     28  C   UNL     1       6.577 -60.791 -23.727  1.00  0.00     0.121 A 
ATOM     29  C   UNL     1       5.461 -60.121 -23.231  1.00  0.00     0.046 A 
BRANCH  28  30
ATOM     30  O   UNL     1       6.358 -62.062 -24.183  1.00  0.00    -0.481 OA
BRANCH  30  31
ATOM     31  C   UNL     1       7.507 -62.742 -24.697  1.00  0.00     0.318 C 
BRANCH  31  32
ATOM     32  C   UNL     1       8.318 -63.290 -23.599  1.00  0.00    -0.065 C 
ATOM     33  C   UNL     1       8.980 -63.727 -22.697  1.00  0.00     0.007 C 
ENDBRANCH  31  32
ENDBRANCH  30  31
ENDBRANCH  28  30
ENDBRANCH  20  24
ENDBRANCH   6  17
TORSDOF 9
ENDMDL
MODEL 5
REMARK VINA RESULT:    -9.534      3.811     12.390
REMARK INTER + INTRA:         -15.540
REMARK INTER:                 -14.526
REMARK INTRA:                  -1.014
REMARK UNBOUND:                -0.990
REMARK SMILES C#CCOc1cccc(-c2cc(-c3ccc(OCC[NH+]4CCOCC4)cc3)nc(C)n2)c1
REMARK SMILES IDX 16 1 15 2 26 3 14 4 27 5 13 6 17 7 18 8 19 9 20 10 21 11
REMARK SMILES IDX 25 12 22 13 24 14 23 15 12 17 11 18 28 19 10 20 29 21 31 22
REMARK SMILES IDX 30 23 9 24 8 25 32 26 7 27 5 28 6 29 4 30 3 31 2 32 1 33
REMARK H PARENT 20 16
ROOT
ATOM      1  C   UNL     1      10.714 -55.526 -22.576  1.00  0.00     0.119 A 
ATOM      2  C   UNL     1      11.328 -55.337 -23.812  1.00  0.00     0.047 A 
ATOM      3  C   UNL     1      10.589 -54.442 -21.712  1.00  0.00     0.047 A 
ATOM      4  C   UNL     1      11.808 -54.077 -24.184  1.00  0.00     0.014 A 
ATOM      5  C   UNL     1      11.072 -53.179 -22.087  1.00  0.00     0.014 A 
ATOM      6  C   UNL     1      11.695 -52.967 -23.330  1.00  0.00     0.001 A 
ENDROOT
BRANCH   1   7
ATOM      7  O   UNL     1      10.285 -56.803 -22.340  1.00  0.00    -0.488 OA
BRANCH   7   8
ATOM      8  C   UNL     1      11.226 -57.855 -22.537  1.00  0.00     0.290 C 
BRANCH   8   9
ATOM      9  C   UNL     1      10.748 -59.092 -21.764  1.00  0.00     0.304 C 
BRANCH   9  10
ATOM     10  N   UNL     1      10.871 -60.382 -22.573  1.00  0.00    -0.328 N 
ATOM     11  C   UNL     1      10.609 -60.194 -24.072  1.00  0.00     0.291 C 
ATOM     12  C   UNL     1       9.928 -61.452 -22.017  1.00  0.00     0.291 C 
ATOM     13  C   UNL     1      10.670 -61.550 -24.788  1.00  0.00     0.221 C 
ATOM     14  C   UNL     1      10.050 -62.736 -22.839  1.00  0.00     0.221 C 
ATOM     15  O   UNL     1       9.753 -62.485 -24.216  1.00  0.00    -0.370 OA
ATOM     16  H   UNL     1      11.832 -60.734 -22.476  1.00  0.00     0.348 HD
ENDBRANCH   9  10
ENDBRANCH   8   9
ENDBRANCH   7   8
ENDBRANCH   1   7
BRANCH   6  17
ATOM     17  C   UNL     1      12.196 -51.640 -23.749  1.00  0.00     0.075 A 
ATOM     18  C   UNL     1      11.960 -50.482 -23.031  1.00  0.00     0.058 A 
ATOM     19  N   UNL     1      12.909 -51.626 -24.896  1.00  0.00    -0.233 NA
ATOM     20  C   UNL     1      12.465 -49.301 -23.544  1.00  0.00     0.075 A 
ATOM     21  C   UNL     1      13.364 -50.439 -25.328  1.00  0.00     0.126 A 
ATOM     22  N   UNL     1      13.157 -49.271 -24.703  1.00  0.00    -0.233 NA
ATOM     23  C   UNL     1      14.116 -50.410 -26.621  1.00  0.00     0.089 C 
BRANCH  20  24
ATOM     24  C   UNL     1      12.273 -47.998 -22.881  1.00  0.00     0.004 A 
ATOM     25  C   UNL     1      13.078 -47.627 -21.787  1.00  0.00     0.010 A 
ATOM     26  C   UNL     1      11.294 -47.082 -23.311  1.00  0.00     0.056 A 
ATOM     27  C   UNL     1      12.937 -46.383 -21.170  1.00  0.00     0.005 A 
ATOM     28  C   UNL     1      11.133 -45.845 -22.678  1.00  0.00     0.121 A 
ATOM     29  C   UNL     1      11.973 -45.489 -21.626  1.00  0.00     0.046 A 
BRANCH  28  30
ATOM     30  O   UNL     1      10.221 -44.901 -23.062  1.00  0.00    -0.481 OA
BRANCH  30  31
ATOM     31  C   UNL     1      10.720 -43.564 -23.166  1.00  0.00     0.318 C 
BRANCH  31  32
ATOM     32  C   UNL     1      11.621 -43.436 -24.322  1.00  0.00    -0.065 C 
ATOM     33  C   UNL     1      12.350 -43.323 -25.269  1.00  0.00     0.007 C 
ENDBRANCH  31  32
ENDBRANCH  30  31
ENDBRANCH  28  30
ENDBRANCH  20  24
ENDBRANCH   6  17
TORSDOF 9
ENDMDL
MODEL 6
REMARK VINA RESULT:    -9.462      2.234      3.259
REMARK INTER + INTRA:         -15.431
REMARK INTER:                 -14.458
REMARK INTRA:                  -0.973
REMARK UNBOUND:                -0.990
REMARK SMILES C#CCOc1cccc(-c2cc(-c3ccc(OCC[NH+]4CCOCC4)cc3)nc(C)n2)c1
REMARK SMILES IDX 16 1 15 2 26 3 14 4 27 5 13 6 17 7 18 8 19 9 20 10 21 11
REMARK SMILES IDX 25 12 22 13 24 14 23 15 12 17 11 18 28 19 10 20 29 21 31 22
REMARK SMILES IDX 30 23 9 24 8 25 32 26 7 27 5 28 6 29 4 30 3 31 2 32 1 33
REMARK H PARENT 20 16
ROOT
ATOM      1  C   UNL     1      11.381 -52.137 -21.923  1.00  0.00     0.119 A 
ATOM      2  C   UNL     1      11.599 -52.566 -23.230  1.00  0.00     0.047 A 
ATOM      3  C   UNL     1      10.885 -53.042 -20.989  1.00  0.00     0.047 A 
ATOM      4  C   UNL     1      11.328 -53.888 -23.600  1.00  0.00     0.014 A 
ATOM      5  C   UNL     1      10.614 -54.368 -21.363  1.00  0.00     0.014 A 
ATOM      6  C   UNL     1      10.826 -54.821 -22.677  1.00  0.00     0.001 A 
ENDROOT
BRANCH   1   7
ATOM      7  O   UNL     1      11.693 -50.826 -21.692  1.00  0.00    -0.488 OA
BRANCH   7   8
ATOM      8  C   UNL     1      10.942 -49.843 -22.400  1.00  0.00     0.290 C 
BRANCH   8   9
ATOM      9  C   UNL     1      11.920 -48.861 -23.059  1.00  0.00     0.304 C 
BRANCH   9  10
ATOM     10  N   UNL     1      13.371 -49.334 -22.994  1.00  0.00    -0.328 N 
ATOM     11  C   UNL     1      14.345 -48.263 -22.489  1.00  0.00     0.291 C 
ATOM     12  C   UNL     1      13.829 -49.840 -24.364  1.00  0.00     0.291 C 
ATOM     13  C   UNL     1      15.783 -48.797 -22.538  1.00  0.00     0.221 C 
ATOM     14  C   UNL     1      15.286 -50.302 -24.293  1.00  0.00     0.221 C 
ATOM     15  O   UNL     1      16.133 -49.236 -23.853  1.00  0.00    -0.370 OA
ATOM     16  H   UNL     1      13.424 -50.124 -22.338  1.00  0.00     0.348 HD
ENDBRANCH   9  10
ENDBRANCH   8   9
ENDBRANCH   7   8
ENDBRANCH   1   7
BRANCH   6  17
ATOM     17  C   UNL     1      10.561 -56.217 -23.086  1.00  0.00     0.075 A 
ATOM     18  C   UNL     1       9.313 -56.806 -23.000  1.00  0.00     0.058 A 
ATOM     19  N   UNL     1      11.630 -56.895 -23.556  1.00  0.00    -0.233 NA
ATOM     20  C   UNL     1       9.204 -58.127 -23.394  1.00  0.00     0.075 A 
ATOM     21  C   UNL     1      11.441 -58.175 -23.919  1.00  0.00     0.126 A 
ATOM     22  N   UNL     1      10.270 -58.823 -23.841  1.00  0.00    -0.233 NA
ATOM     23  C   UNL     1      12.630 -58.946 -24.398  1.00  0.00     0.089 C 
BRANCH  20  24
ATOM     24  C   UNL     1       7.932 -58.872 -23.340  1.00  0.00     0.004 A 
ATOM     25  C   UNL     1       6.786 -58.290 -22.765  1.00  0.00     0.010 A 
ATOM     26  C   UNL     1       7.811 -60.176 -23.859  1.00  0.00     0.056 A 
ATOM     27  C   UNL     1       5.564 -58.963 -22.739  1.00  0.00     0.005 A 
ATOM     28  C   UNL     1       6.594 -60.864 -23.810  1.00  0.00     0.121 A 
ATOM     29  C   UNL     1       5.468 -60.245 -23.274  1.00  0.00     0.046 A 
BRANCH  28  30
ATOM     30  O   UNL     1       6.403 -62.119 -24.318  1.00  0.00    -0.481 OA
BRANCH  30  31
ATOM     31  C   UNL     1       7.587 -62.805 -24.737  1.00  0.00     0.318 C 
BRANCH  31  32
ATOM     32  C   UNL     1       8.366 -63.251 -23.573  1.00  0.00    -0.065 C 
ATOM     33  C   UNL     1       8.994 -63.615 -22.615  1.00  0.00     0.007 C 
ENDBRANCH  31  32
ENDBRANCH  30  31
ENDBRANCH  28  30
ENDBRANCH  20  24
ENDBRANCH   6  17
TORSDOF 9
ENDMDL
MODEL 7
REMARK VINA RESULT:    -9.435      3.858     11.749
REMARK INTER + INTRA:         -15.390
REMARK INTER:                 -14.444
REMARK INTRA:                  -0.946
REMARK UNBOUND:                -0.990
REMARK SMILES C#CCOc1cccc(-c2cc(-c3ccc(OCC[NH+]4CCOCC4)cc3)nc(C)n2)c1
REMARK SMILES IDX 16 1 15 2 26 3 14 4 27 5 13 6 17 7 18 8 19 9 20 10 21 11
REMARK SMILES IDX 25 12 22 13 24 14 23 15 12 17 11 18 28 19 10 20 29 21 31 22
REMARK SMILES IDX 30 23 9 24 8 25 32 26 7 27 5 28 6 29 4 30 3 31 2 32 1 33
REMARK H PARENT 20 16
ROOT
ATOM      1  C   UNL     1      11.264 -54.468 -24.128  1.00  0.00     0.119 A 
ATOM      2  C   UNL     1      11.526 -53.242 -23.521  1.00  0.00     0.047 A 
ATOM      3  C   UNL     1      12.007 -54.841 -25.245  1.00  0.00     0.047 A 
ATOM      4  C   UNL     1      12.523 -52.399 -24.022  1.00  0.00     0.014 A 
ATOM      5  C   UNL     1      13.006 -53.992 -25.745  1.00  0.00     0.014 A 
ATOM      6  C   UNL     1      13.287 -52.750 -25.148  1.00  0.00     0.001 A 
ENDROOT
BRANCH   1   7
ATOM      7  O   UNL     1      10.270 -55.198 -23.537  1.00  0.00    -0.488 OA
BRANCH   7   8
ATOM      8  C   UNL     1      10.667 -56.279 -22.697  1.00  0.00     0.290 C 
BRANCH   8   9
ATOM      9  C   UNL     1       9.844 -57.519 -23.073  1.00  0.00     0.304 C 
BRANCH   9  10
ATOM     10  N   UNL     1      10.656 -58.559 -23.842  1.00  0.00    -0.328 N 
ATOM     11  C   UNL     1       9.821 -59.747 -24.335  1.00  0.00     0.291 C 
ATOM     12  C   UNL     1      11.817 -59.069 -22.985  1.00  0.00     0.291 C 
ATOM     13  C   UNL     1      10.730 -60.778 -25.019  1.00  0.00     0.221 C 
ATOM     14  C   UNL     1      12.619 -60.118 -23.758  1.00  0.00     0.221 C 
ATOM     15  O   UNL     1      11.779 -61.208 -24.148  1.00  0.00    -0.370 OA
ATOM     16  H   UNL     1      11.058 -58.106 -24.672  1.00  0.00     0.348 HD
ENDBRANCH   9  10
ENDBRANCH   8   9
ENDBRANCH   7   8
ENDBRANCH   1   7
BRANCH   6  17
ATOM     17  C   UNL     1      14.346 -51.850 -25.652  1.00  0.00     0.075 A 
ATOM     18  C   UNL     1      14.083 -50.717 -26.400  1.00  0.00     0.058 A 
ATOM     19  N   UNL     1      15.609 -52.208 -25.333  1.00  0.00    -0.233 NA
ATOM     20  C   UNL     1      15.167 -49.972 -26.828  1.00  0.00     0.075 A 
ATOM     21  C   UNL     1      16.606 -51.432 -25.789  1.00  0.00     0.126 A 
ATOM     22  N   UNL     1      16.434 -50.334 -26.539  1.00  0.00    -0.233 NA
ATOM     23  C   UNL     1      18.010 -51.847 -25.478  1.00  0.00     0.089 C 
BRANCH  20  24
ATOM     24  C   UNL     1      15.021 -48.750 -27.641  1.00  0.00     0.004 A 
ATOM     25  C   UNL     1      14.802 -47.504 -27.025  1.00  0.00     0.010 A 
ATOM     26  C   UNL     1      15.099 -48.779 -29.047  1.00  0.00     0.056 A 
ATOM     27  C   UNL     1      14.699 -46.331 -27.774  1.00  0.00     0.005 A 
ATOM     28  C   UNL     1      14.970 -47.608 -29.802  1.00  0.00     0.121 A 
ATOM     29  C   UNL     1      14.797 -46.384 -29.162  1.00  0.00     0.046 A 
BRANCH  28  30
ATOM     30  O   UNL     1      15.063 -47.563 -31.167  1.00  0.00    -0.481 OA
BRANCH  30  31
ATOM     31  C   UNL     1      14.235 -48.491 -31.874  1.00  0.00     0.318 C 
BRANCH  31  32
ATOM     32  C   UNL     1      15.022 -49.228 -32.874  1.00  0.00    -0.065 C 
ATOM     33  C   UNL     1      15.657 -49.837 -33.693  1.00  0.00     0.007 C 
ENDBRANCH  31  32
ENDBRANCH  30  31
ENDBRANCH  28  30
ENDBRANCH  20  24
ENDBRANCH   6  17
TORSDOF 9
ENDMDL
MODEL 8
REMARK VINA RESULT:    -9.344      3.262     11.877
REMARK INTER + INTRA:         -15.251
REMARK INTER:                 -14.357
REMARK INTRA:                  -0.894
REMARK UNBOUND:                -0.990
REMARK SMILES C#CCOc1cccc(-c2cc(-c3ccc(OCC[NH+]4CCOCC4)cc3)nc(C)n2)c1
REMARK SMILES IDX 16 1 15 2 26 3 14 4 27 5 13 6 17 7 18 8 19 9 20 10 21 11
REMARK SMILES IDX 25 12 22 13 24 14 23 15 12 17 11 18 28 19 10 20 29 21 31 22
REMARK SMILES IDX 30 23 9 24 8 25 32 26 7 27 5 28 6 29 4 30 3 31 2 32 1 33
REMARK H PARENT 20 16
ROOT
ATOM      1  C   UNL     1      10.788 -55.143 -22.429  1.00  0.00     0.119 A 
ATOM      2  C   UNL     1      11.379 -54.879 -23.662  1.00  0.00     0.047 A 
ATOM      3  C   UNL     1      10.611 -54.097 -21.527  1.00  0.00     0.047 A 
ATOM      4  C   UNL     1      11.785 -53.583 -23.995  1.00  0.00     0.014 A 
ATOM      5  C   UNL     1      11.020 -52.797 -21.864  1.00  0.00     0.014 A 
ATOM      6  C   UNL     1      11.619 -52.509 -23.103  1.00  0.00     0.001 A 
ENDROOT
BRANCH   1   7
ATOM      7  O   UNL     1      10.432 -56.448 -22.232  1.00  0.00    -0.488 OA
BRANCH   7   8
ATOM      8  C   UNL     1       9.342 -56.951 -23.002  1.00  0.00     0.290 C 
BRANCH   8   9
ATOM      9  C   UNL     1       9.564 -58.450 -23.245  1.00  0.00     0.304 C 
BRANCH   9  10
ATOM     10  N   UNL     1       8.299 -59.279 -23.029  1.00  0.00    -0.328 N 
ATOM     11  C   UNL     1       8.173 -60.468 -23.989  1.00  0.00     0.291 C 
ATOM     12  C   UNL     1       7.055 -58.394 -23.141  1.00  0.00     0.291 C 
ATOM     13  C   UNL     1       6.838 -61.189 -23.756  1.00  0.00     0.221 C 
ATOM     14  C   UNL     1       5.794 -59.234 -22.934  1.00  0.00     0.221 C 
ATOM     15  O   UNL     1       5.731 -60.295 -23.891  1.00  0.00    -0.370 OA
ATOM     16  H   UNL     1       8.323 -59.662 -22.075  1.00  0.00     0.348 HD
ENDBRANCH   9  10
ENDBRANCH   8   9
ENDBRANCH   7   8
ENDBRANCH   1   7
BRANCH   6  17
ATOM     17  C   UNL     1      12.042 -51.144 -23.481  1.00  0.00     0.075 A 
ATOM     18  C   UNL     1      13.057 -50.890 -24.385  1.00  0.00     0.058 A 
ATOM     19  N   UNL     1      11.367 -50.141 -22.879  1.00  0.00    -0.233 NA
ATOM     20  C   UNL     1      13.370 -49.566 -24.635  1.00  0.00     0.075 A 
ATOM     21  C   UNL     1      11.732 -48.883 -23.174  1.00  0.00     0.126 A 
ATOM     22  N   UNL     1      12.720 -48.556 -24.020  1.00  0.00    -0.233 NA
ATOM     23  C   UNL     1      11.019 -47.768 -22.476  1.00  0.00     0.089 C 
BRANCH  20  24
ATOM     24  C   UNL     1      14.438 -49.163 -25.569  1.00  0.00     0.004 A 
ATOM     25  C   UNL     1      15.562 -48.453 -25.107  1.00  0.00     0.010 A 
ATOM     26  C   UNL     1      14.381 -49.474 -26.941  1.00  0.00     0.056 A 
ATOM     27  C   UNL     1      16.601 -48.096 -25.968  1.00  0.00     0.005 A 
ATOM     28  C   UNL     1      15.409 -49.095 -27.812  1.00  0.00     0.121 A 
ATOM     29  C   UNL     1      16.528 -48.430 -27.317  1.00  0.00     0.046 A 
BRANCH  28  30
ATOM     30  O   UNL     1      15.428 -49.387 -29.148  1.00  0.00    -0.481 OA
BRANCH  30  31
ATOM     31  C   UNL     1      15.585 -48.267 -30.025  1.00  0.00     0.318 C 
BRANCH  31  32
ATOM     32  C   UNL     1      15.054 -48.577 -31.361  1.00  0.00    -0.065 C 
ATOM     33  C   UNL     1      14.628 -48.840 -32.453  1.00  0.00     0.007 C 
ENDBRANCH  31  32
ENDBRANCH  30  31
ENDBRANCH  28  30
ENDBRANCH  20  24
ENDBRANCH   6  17
TORSDOF 9
ENDMDL
MODEL 9
REMARK VINA RESULT:    -9.229      3.439     11.946
REMARK INTER + INTRA:         -15.075
REMARK INTER:                 -13.965
REMARK INTRA:                  -1.110
REMARK UNBOUND:                -0.990
REMARK SMILES C#CCOc1cccc(-c2cc(-c3ccc(OCC[NH+]4CCOCC4)cc3)nc(C)n2)c1
REMARK SMILES IDX 16 1 15 2 26 3 14 4 27 5 13 6 17 7 18 8 19 9 20 10 21 11
REMARK SMILES IDX 25 12 22 13 24 14 23 15 12 17 11 18 28 19 10 20 29 21 31 22
REMARK SMILES IDX 30 23 9 24 8 25 32 26 7 27 5 28 6 29 4 30 3 31 2 32 1 33
REMARK H PARENT 20 16
ROOT
ATOM      1  C   UNL     1      10.682 -55.767 -22.637  1.00  0.00     0.119 A 
ATOM      2  C   UNL     1      11.311 -55.586 -23.867  1.00  0.00     0.047 A 
ATOM      3  C   UNL     1      10.540 -54.676 -21.784  1.00  0.00     0.047 A 
ATOM      4  C   UNL     1      11.790 -54.327 -24.243  1.00  0.00     0.014 A 
ATOM      5  C   UNL     1      11.022 -53.414 -22.164  1.00  0.00     0.014 A 
ATOM      6  C   UNL     1      11.661 -53.209 -23.400  1.00  0.00     0.001 A 
ENDROOT
BRANCH   1   7
ATOM      7  O   UNL     1      10.255 -57.043 -22.396  1.00  0.00    -0.488 OA
BRANCH   7   8
ATOM      8  C   UNL     1      11.255 -58.035 -22.174  1.00  0.00     0.290 C 
BRANCH   8   9
ATOM      9  C   UNL     1      10.621 -59.420 -22.363  1.00  0.00     0.304 C 
BRANCH   9  10
ATOM     10  N   UNL     1      10.680 -59.907 -23.810  1.00  0.00    -0.328 N 
ATOM     11  C   UNL     1      11.786 -59.243 -24.637  1.00  0.00     0.291 C 
ATOM     12  C   UNL     1       9.329 -59.698 -24.498  1.00  0.00     0.291 C 
ATOM     13  C   UNL     1      11.716 -59.728 -26.092  1.00  0.00     0.221 C 
ATOM     14  C   UNL     1       9.399 -60.179 -25.948  1.00  0.00     0.221 C 
ATOM     15  O   UNL     1      10.427 -59.485 -26.661  1.00  0.00    -0.370 OA
ATOM     16  H   UNL     1      10.872 -60.917 -23.803  1.00  0.00     0.348 HD
ENDBRANCH   9  10
ENDBRANCH   8   9
ENDBRANCH   7   8
ENDBRANCH   1   7
BRANCH   6  17
ATOM     17  C   UNL     1      12.161 -51.884 -23.824  1.00  0.00     0.075 A 
ATOM     18  C   UNL     1      11.864 -50.713 -23.151  1.00  0.00     0.058 A 
ATOM     19  N   UNL     1      12.938 -51.885 -24.929  1.00  0.00    -0.233 NA
ATOM     20  C   UNL     1      12.378 -49.536 -23.665  1.00  0.00     0.075 A 
ATOM     21  C   UNL     1      13.397 -50.700 -25.365  1.00  0.00     0.126 A 
ATOM     22  N   UNL     1      13.133 -49.521 -24.783  1.00  0.00    -0.233 NA
ATOM     23  C   UNL     1      14.220 -50.688 -26.614  1.00  0.00     0.089 C 
BRANCH  20  24
ATOM     24  C   UNL     1      12.125 -48.221 -23.047  1.00  0.00     0.004 A 
ATOM     25  C   UNL     1      11.051 -47.421 -23.480  1.00  0.00     0.010 A 
ATOM     26  C   UNL     1      12.934 -47.721 -22.008  1.00  0.00     0.056 A 
ATOM     27  C   UNL     1      10.773 -46.191 -22.882  1.00  0.00     0.005 A 
ATOM     28  C   UNL     1      12.673 -46.477 -21.424  1.00  0.00     0.121 A 
ATOM     29  C   UNL     1      11.578 -45.728 -21.845  1.00  0.00     0.046 A 
BRANCH  28  30
ATOM     30  O   UNL     1      13.402 -45.945 -20.395  1.00  0.00    -0.481 OA
BRANCH  30  31
ATOM     31  C   UNL     1      14.066 -46.893 -19.552  1.00  0.00     0.318 C 
BRANCH  31  32
ATOM     32  C   UNL     1      15.514 -46.639 -19.530  1.00  0.00    -0.065 C 
ATOM     33  C   UNL     1      16.699 -46.443 -19.510  1.00  0.00     0.007 C 
ENDBRANCH  31  32
ENDBRANCH  30  31
ENDBRANCH  28  30
ENDBRANCH  20  24
ENDBRANCH   6  17
TORSDOF 9
ENDMDL
