MODEL 1
REMARK VINA RESULT:    -8.979      0.000      0.000
REMARK INTER + INTRA:         -10.266
REMARK INTER:                 -10.029
REMARK INTRA:                  -0.237
REMARK UNBOUND:                -0.237
REMARK SMILES COc1ccc2c(c1)C[C@@H](NC(=O)N(C)C)CC2
REMARK SMILES IDX 3 1 4 2 5 3 6 4 7 5 8 6 9 7 10 8 17 9 18 10 2 11 1 12 11 13
REMARK SMILES IDX 12 14 14 15 13 17 15 18 16 19
REMARK H PARENT 11 16
ROOT
ATOM      1  C   UNL     1       7.746 -61.968 -24.142  1.00  0.00     0.119 A 
ATOM      2  C   UNL     1       8.876 -62.753 -23.921  1.00  0.00     0.047 A 
ATOM      3  C   UNL     1      10.064 -62.180 -23.466  1.00  0.00     0.008 A 
ATOM      4  C   UNL     1      10.139 -60.804 -23.214  1.00  0.00    -0.044 A 
ATOM      5  C   UNL     1       9.010 -60.002 -23.450  1.00  0.00    -0.039 A 
ATOM      6  C   UNL     1       7.816 -60.594 -23.902  1.00  0.00     0.050 A 
ATOM      7  C   UNL     1       9.027 -58.516 -23.175  1.00  0.00     0.061 C 
ATOM      8  C   UNL     1      10.442 -57.928 -23.019  1.00  0.00     0.088 C 
ATOM      9  C   UNL     1      11.291 -58.832 -22.127  1.00  0.00     0.030 C 
ATOM     10  C   UNL     1      11.448 -60.213 -22.759  1.00  0.00     0.038 C 
ENDROOT
BRANCH   1  11
ATOM     11  O   UNL     1       6.650 -62.654 -24.584  1.00  0.00    -0.497 OA
ATOM     12  C   UNL     1       6.891 -63.806 -25.381  1.00  0.00     0.278 C 
ENDBRANCH   1  11
BRANCH   8  13
ATOM     13  N   UNL     1      10.407 -56.577 -22.464  1.00  0.00    -0.335 N 
ATOM     14  C   UNL     1      10.981 -55.527 -23.136  1.00  0.00     0.317 C 
ATOM     15  N   UNL     1      10.842 -54.295 -22.508  1.00  0.00    -0.331 N 
ATOM     16  H   UNL     1       9.555 -56.326 -21.985  1.00  0.00     0.165 HD
ATOM     17  O   UNL     1      11.559 -55.674 -24.208  1.00  0.00    -0.249 OA
ATOM     18  C   UNL     1      10.663 -54.141 -21.070  1.00  0.00     0.148 C 
ATOM     19  C   UNL     1      11.413 -53.146 -23.191  1.00  0.00     0.148 C 
ENDBRANCH   8  13
TORSDOF 2
ENDMDL
MODEL 2
REMARK VINA RESULT:    -8.777      2.489      8.238
REMARK INTER + INTRA:         -10.040
REMARK INTER:                  -9.800
REMARK INTRA:                  -0.241
REMARK UNBOUND:                -0.237
REMARK SMILES COc1ccc2c(c1)C[C@@H](NC(=O)N(C)C)CC2
REMARK SMILES IDX 3 1 4 2 5 3 6 4 7 5 8 6 9 7 10 8 17 9 18 10 2 11 1 12 11 13
REMARK SMILES IDX 12 14 14 15 13 17 15 18 16 19
REMARK H PARENT 11 16
ROOT
ATOM      1  C   UNL     1      13.186 -52.119 -25.478  1.00  0.00     0.119 A 
ATOM      2  C   UNL     1      12.760 -51.207 -24.514  1.00  0.00     0.047 A 
ATOM      3  C   UNL     1      11.992 -51.625 -23.427  1.00  0.00     0.008 A 
ATOM      4  C   UNL     1      11.641 -52.974 -23.281  1.00  0.00    -0.044 A 
ATOM      5  C   UNL     1      12.051 -53.898 -24.258  1.00  0.00    -0.039 A 
ATOM      6  C   UNL     1      12.832 -53.463 -25.345  1.00  0.00     0.050 A 
ATOM      7  C   UNL     1      11.721 -55.367 -24.141  1.00  0.00     0.061 C 
ATOM      8  C   UNL     1      10.602 -55.675 -23.129  1.00  0.00     0.088 C 
ATOM      9  C   UNL     1      10.827 -54.886 -21.840  1.00  0.00     0.030 C 
ATOM     10  C   UNL     1      10.780 -53.386 -22.116  1.00  0.00     0.038 C 
ENDROOT
BRANCH   1  11
ATOM     11  O   UNL     1      13.933 -51.578 -26.488  1.00  0.00    -0.497 OA
ATOM     12  C   UNL     1      14.158 -50.175 -26.439  1.00  0.00     0.278 C 
ENDBRANCH   1  11
BRANCH   8  13
ATOM     13  N   UNL     1      10.524 -57.103 -22.828  1.00  0.00    -0.335 N 
ATOM     14  C   UNL     1       9.401 -57.827 -23.144  1.00  0.00     0.317 C 
ATOM     15  N   UNL     1       9.479 -59.179 -22.832  1.00  0.00    -0.331 N 
ATOM     16  H   UNL     1      11.380 -57.621 -22.954  1.00  0.00     0.165 HD
ATOM     17  O   UNL     1       8.417 -57.313 -23.668  1.00  0.00    -0.249 OA
ATOM     18  C   UNL     1      10.337 -59.714 -21.782  1.00  0.00     0.148 C 
ATOM     19  C   UNL     1       8.324 -59.994 -23.168  1.00  0.00     0.148 C 
ENDBRANCH   8  13
TORSDOF 2
ENDMDL
MODEL 3
REMARK VINA RESULT:    -7.977      4.774      8.328
REMARK INTER + INTRA:          -9.147
REMARK INTER:                  -8.908
REMARK INTRA:                  -0.239
REMARK UNBOUND:                -0.237
REMARK SMILES COc1ccc2c(c1)C[C@@H](NC(=O)N(C)C)CC2
REMARK SMILES IDX 3 1 4 2 5 3 6 4 7 5 8 6 9 7 10 8 17 9 18 10 2 11 1 12 11 13
REMARK SMILES IDX 12 14 14 15 13 17 15 18 16 19
REMARK H PARENT 11 16
ROOT
ATOM      1  C   UNL     1      10.602 -54.589 -22.742  1.00  0.00     0.119 A 
ATOM      2  C   UNL     1      11.367 -54.810 -23.886  1.00  0.00     0.047 A 
ATOM      3  C   UNL     1      12.095 -53.772 -24.468  1.00  0.00     0.008 A 
ATOM      4  C   UNL     1      12.078 -52.489 -23.906  1.00  0.00    -0.044 A 
ATOM      5  C   UNL     1      11.298 -52.253 -22.762  1.00  0.00    -0.039 A 
ATOM      6  C   UNL     1      10.574 -53.311 -22.181  1.00  0.00     0.050 A 
ATOM      7  C   UNL     1      11.259 -50.895 -22.100  1.00  0.00     0.061 C 
ATOM      8  C   UNL     1      11.793 -49.755 -22.987  1.00  0.00     0.088 C 
ATOM      9  C   UNL     1      13.092 -50.184 -23.668  1.00  0.00     0.030 C 
ATOM     10  C   UNL     1      12.847 -51.383 -24.580  1.00  0.00     0.038 C 
ENDROOT
BRANCH   1  11
ATOM     11  O   UNL     1       9.941 -55.690 -22.273  1.00  0.00    -0.497 OA
ATOM     12  C   UNL     1      10.308 -56.945 -22.831  1.00  0.00     0.278 C 
ENDBRANCH   1  11
BRANCH   8  13
ATOM     13  N   UNL     1      12.019 -48.532 -22.218  1.00  0.00    -0.335 N 
ATOM     14  C   UNL     1      11.562 -47.322 -22.675  1.00  0.00     0.317 C 
ATOM     15  N   UNL     1      11.816 -46.251 -21.827  1.00  0.00    -0.331 N 
ATOM     16  H   UNL     1      11.952 -48.631 -21.217  1.00  0.00     0.165 HD
ATOM     17  O   UNL     1      10.970 -47.207 -23.744  1.00  0.00    -0.249 OA
ATOM     18  C   UNL     1      12.917 -46.225 -20.873  1.00  0.00     0.148 C 
ATOM     19  C   UNL     1      11.332 -44.950 -22.254  1.00  0.00     0.148 C 
ENDBRANCH   8  13
TORSDOF 2
ENDMDL
MODEL 4
REMARK VINA RESULT:    -7.971      2.038      2.784
REMARK INTER + INTRA:          -9.141
REMARK INTER:                  -8.917
REMARK INTRA:                  -0.224
REMARK UNBOUND:                -0.237
REMARK SMILES COc1ccc2c(c1)C[C@@H](NC(=O)N(C)C)CC2
REMARK SMILES IDX 3 1 4 2 5 3 6 4 7 5 8 6 9 7 10 8 17 9 18 10 2 11 1 12 11 13
REMARK SMILES IDX 12 14 14 15 13 17 15 18 16 19
REMARK H PARENT 11 16
ROOT
ATOM      1  C   UNL     1       7.338 -59.247 -23.499  1.00  0.00     0.119 A 
ATOM      2  C   UNL     1       8.322 -60.159 -23.120  1.00  0.00     0.047 A 
ATOM      3  C   UNL     1       9.598 -59.722 -22.761  1.00  0.00     0.008 A 
ATOM      4  C   UNL     1       9.909 -58.356 -22.766  1.00  0.00    -0.044 A 
ATOM      5  C   UNL     1       8.929 -57.431 -23.162  1.00  0.00    -0.039 A 
ATOM      6  C   UNL     1       7.644 -57.885 -23.515  1.00  0.00     0.050 A 
ATOM      7  C   UNL     1       9.202 -55.945 -23.166  1.00  0.00     0.061 C 
ATOM      8  C   UNL     1      10.698 -55.587 -23.099  1.00  0.00     0.088 C 
ATOM      9  C   UNL     1      11.397 -56.442 -22.043  1.00  0.00     0.030 C 
ATOM     10  C   UNL     1      11.307 -57.922 -22.408  1.00  0.00     0.038 C 
ENDROOT
BRANCH   1  11
ATOM     11  O   UNL     1       6.134 -59.807 -23.824  1.00  0.00    -0.497 OA
ATOM     12  C   UNL     1       4.999 -59.356 -23.095  1.00  0.00     0.278 C 
ENDBRANCH   1  11
BRANCH   8  13
ATOM     13  N   UNL     1      10.902 -54.170 -22.803  1.00  0.00    -0.335 N 
ATOM     14  C   UNL     1      11.658 -53.382 -23.634  1.00  0.00     0.317 C 
ATOM     15  N   UNL     1      11.739 -52.049 -23.248  1.00  0.00    -0.331 N 
ATOM     16  H   UNL     1      10.106 -53.690 -22.413  1.00  0.00     0.165 HD
ATOM     17  O   UNL     1      12.207 -53.826 -24.638  1.00  0.00    -0.249 OA
ATOM     18  C   UNL     1      11.582 -51.599 -21.871  1.00  0.00     0.148 C 
ATOM     19  C   UNL     1      12.510 -51.166 -24.108  1.00  0.00     0.148 C 
ENDBRANCH   8  13
TORSDOF 2
ENDMDL
MODEL 5
REMARK VINA RESULT:    -7.924      5.196      8.887
REMARK INTER + INTRA:          -9.088
REMARK INTER:                  -8.863
REMARK INTRA:                  -0.225
REMARK UNBOUND:                -0.237
REMARK SMILES COc1ccc2c(c1)C[C@@H](NC(=O)N(C)C)CC2
REMARK SMILES IDX 3 1 4 2 5 3 6 4 7 5 8 6 9 7 10 8 17 9 18 10 2 11 1 12 11 13
REMARK SMILES IDX 12 14 14 15 13 17 15 18 16 19
REMARK H PARENT 11 16
ROOT
ATOM      1  C   UNL     1      11.357 -54.635 -23.784  1.00  0.00     0.119 A 
ATOM      2  C   UNL     1      11.048 -53.817 -22.698  1.00  0.00     0.047 A 
ATOM      3  C   UNL     1      11.502 -52.498 -22.648  1.00  0.00     0.008 A 
ATOM      4  C   UNL     1      12.269 -51.970 -23.695  1.00  0.00    -0.044 A 
ATOM      5  C   UNL     1      12.600 -52.792 -24.785  1.00  0.00    -0.039 A 
ATOM      6  C   UNL     1      12.129 -54.118 -24.826  1.00  0.00     0.050 A 
ATOM      7  C   UNL     1      13.406 -52.270 -25.951  1.00  0.00     0.061 C 
ATOM      8  C   UNL     1      14.144 -50.951 -25.657  1.00  0.00     0.088 C 
ATOM      9  C   UNL     1      13.213 -49.978 -24.935  1.00  0.00     0.030 C 
ATOM     10  C   UNL     1      12.774 -50.554 -23.592  1.00  0.00     0.038 C 
ENDROOT
BRANCH   1  11
ATOM     11  O   UNL     1      10.848 -55.901 -23.709  1.00  0.00    -0.497 OA
ATOM     12  C   UNL     1      11.089 -56.619 -22.505  1.00  0.00     0.278 C 
ENDBRANCH   1  11
BRANCH   8  13
ATOM     13  N   UNL     1      14.655 -50.333 -26.879  1.00  0.00    -0.335 N 
ATOM     14  C   UNL     1      15.889 -49.732 -26.898  1.00  0.00     0.317 C 
ATOM     15  N   UNL     1      16.260 -49.217 -28.135  1.00  0.00    -0.331 N 
ATOM     16  H   UNL     1      14.434 -50.818 -27.735  1.00  0.00     0.165 HD
ATOM     17  O   UNL     1      16.602 -49.668 -25.901  1.00  0.00    -0.249 OA
ATOM     18  C   UNL     1      15.304 -48.798 -29.152  1.00  0.00     0.148 C 
ATOM     19  C   UNL     1      17.569 -48.590 -28.214  1.00  0.00     0.148 C 
ENDBRANCH   8  13
TORSDOF 2
ENDMDL
MODEL 6
REMARK VINA RESULT:    -7.244      3.413      8.902
REMARK INTER + INTRA:          -8.328
REMARK INTER:                  -8.829
REMARK INTRA:                   0.500
REMARK UNBOUND:                -0.237
REMARK SMILES COc1ccc2c(c1)C[C@@H](NC(=O)N(C)C)CC2
REMARK SMILES IDX 3 1 4 2 5 3 6 4 7 5 8 6 9 7 10 8 17 9 18 10 2 11 1 12 11 13
REMARK SMILES IDX 12 14 14 15 13 17 15 18 16 19
REMARK H PARENT 11 16
ROOT
ATOM      1  C   UNL     1      13.016 -50.434 -23.428  1.00  0.00     0.119 A 
ATOM      2  C   UNL     1      12.001 -49.788 -22.724  1.00  0.00     0.047 A 
ATOM      3  C   UNL     1      10.860 -50.482 -22.320  1.00  0.00     0.008 A 
ATOM      4  C   UNL     1      10.719 -51.846 -22.608  1.00  0.00    -0.044 A 
ATOM      5  C   UNL     1      11.729 -52.502 -23.331  1.00  0.00    -0.039 A 
ATOM      6  C   UNL     1      12.878 -51.791 -23.726  1.00  0.00     0.050 A 
ATOM      7  C   UNL     1      11.641 -53.976 -23.651  1.00  0.00     0.061 C 
ATOM      8  C   UNL     1      10.229 -54.566 -23.483  1.00  0.00     0.088 C 
ATOM      9  C   UNL     1       9.607 -54.077 -22.176  1.00  0.00     0.030 C 
ATOM     10  C   UNL     1       9.458 -52.558 -22.189  1.00  0.00     0.038 C 
ENDROOT
BRANCH   1  11
ATOM     11  O   UNL     1      14.077 -49.639 -23.760  1.00  0.00    -0.497 OA
ATOM     12  C   UNL     1      15.298 -50.297 -24.073  1.00  0.00     0.278 C 
ENDBRANCH   1  11
BRANCH   8  13
ATOM     13  N   UNL     1      10.247 -56.027 -23.506  1.00  0.00    -0.335 N 
ATOM     14  C   UNL     1      10.792 -56.738 -22.466  1.00  0.00     0.317 C 
ATOM     15  N   UNL     1      10.709 -58.119 -22.606  1.00  0.00    -0.331 N 
ATOM     16  H   UNL     1       9.430 -56.465 -23.903  1.00  0.00     0.165 HD
ATOM     17  O   UNL     1      11.300 -56.190 -21.493  1.00  0.00    -0.249 OA
ATOM     18  C   UNL     1      10.621 -58.793 -23.895  1.00  0.00     0.148 C 
ATOM     19  C   UNL     1      11.252 -58.918 -21.520  1.00  0.00     0.148 C 
ENDBRANCH   8  13
TORSDOF 2
ENDMDL
MODEL 7
REMARK VINA RESULT:    -7.116      6.163      8.682
REMARK INTER + INTRA:          -8.186
REMARK INTER:                  -7.961
REMARK INTRA:                  -0.225
REMARK UNBOUND:                -0.237
REMARK SMILES COc1ccc2c(c1)C[C@@H](NC(=O)N(C)C)CC2
REMARK SMILES IDX 3 1 4 2 5 3 6 4 7 5 8 6 9 7 10 8 17 9 18 10 2 11 1 12 11 13
REMARK SMILES IDX 12 14 14 15 13 17 15 18 16 19
REMARK H PARENT 11 16
ROOT
ATOM      1  C   UNL     1      11.899 -54.503 -24.457  1.00  0.00     0.119 A 
ATOM      2  C   UNL     1      10.945 -54.701 -23.461  1.00  0.00     0.047 A 
ATOM      3  C   UNL     1      10.554 -53.650 -22.630  1.00  0.00     0.008 A 
ATOM      4  C   UNL     1      11.109 -52.374 -22.789  1.00  0.00    -0.044 A 
ATOM      5  C   UNL     1      12.084 -52.168 -23.780  1.00  0.00    -0.039 A 
ATOM      6  C   UNL     1      12.463 -53.235 -24.616  1.00  0.00     0.050 A 
ATOM      7  C   UNL     1      12.700 -50.808 -24.010  1.00  0.00     0.061 C 
ATOM      8  C   UNL     1      12.478 -49.820 -22.851  1.00  0.00     0.088 C 
ATOM      9  C   UNL     1      11.026 -49.879 -22.380  1.00  0.00     0.030 C 
ATOM     10  C   UNL     1      10.691 -51.271 -21.851  1.00  0.00     0.038 C 
ENDROOT
BRANCH   1  11
ATOM     11  O   UNL     1      12.189 -55.612 -25.201  1.00  0.00    -0.497 OA
ATOM     12  C   UNL     1      12.922 -55.406 -26.402  1.00  0.00     0.278 C 
ENDBRANCH   1  11
BRANCH   8  13
ATOM     13  N   UNL     1      12.819 -48.451 -23.234  1.00  0.00    -0.335 N 
ATOM     14  C   UNL     1      14.063 -47.937 -22.970  1.00  0.00     0.317 C 
ATOM     15  N   UNL     1      14.258 -46.637 -23.421  1.00  0.00    -0.331 N 
ATOM     16  H   UNL     1      12.438 -48.140 -24.115  1.00  0.00     0.165 HD
ATOM     17  O   UNL     1      14.929 -48.585 -22.389  1.00  0.00    -0.249 OA
ATOM     18  C   UNL     1      13.175 -45.681 -23.613  1.00  0.00     0.148 C 
ATOM     19  C   UNL     1      15.569 -46.054 -23.185  1.00  0.00     0.148 C 
ENDBRANCH   8  13
TORSDOF 2
ENDMDL
MODEL 8
REMARK VINA RESULT:    -6.561      8.753     11.166
REMARK INTER + INTRA:          -7.565
REMARK INTER:                  -7.342
REMARK INTRA:                  -0.223
REMARK UNBOUND:                -0.237
REMARK SMILES COc1ccc2c(c1)C[C@@H](NC(=O)N(C)C)CC2
REMARK SMILES IDX 3 1 4 2 5 3 6 4 7 5 8 6 9 7 10 8 17 9 18 10 2 11 1 12 11 13
REMARK SMILES IDX 12 14 14 15 13 17 15 18 16 19
REMARK H PARENT 11 16
ROOT
ATOM      1  C   UNL     1      13.865 -51.630 -25.169  1.00  0.00     0.119 A 
ATOM      2  C   UNL     1      13.057 -52.428 -24.361  1.00  0.00     0.047 A 
ATOM      3  C   UNL     1      12.132 -51.852 -23.489  1.00  0.00     0.008 A 
ATOM      4  C   UNL     1      11.992 -50.459 -23.419  1.00  0.00    -0.044 A 
ATOM      5  C   UNL     1      12.814 -49.647 -24.217  1.00  0.00    -0.039 A 
ATOM      6  C   UNL     1      13.738 -50.242 -25.097  1.00  0.00     0.050 A 
ATOM      7  C   UNL     1      12.693 -48.141 -24.198  1.00  0.00     0.061 C 
ATOM      8  C   UNL     1      11.918 -47.594 -22.985  1.00  0.00     0.088 C 
ATOM      9  C   UNL     1      10.653 -48.419 -22.755  1.00  0.00     0.030 C 
ATOM     10  C   UNL     1      11.009 -49.869 -22.441  1.00  0.00     0.038 C 
ENDROOT
BRANCH   1  11
ATOM     11  O   UNL     1      14.726 -52.320 -25.976  1.00  0.00    -0.497 OA
ATOM     12  C   UNL     1      15.886 -52.865 -25.361  1.00  0.00     0.278 C 
ENDBRANCH   1  11
BRANCH   8  13
ATOM     13  N   UNL     1      11.567 -46.186 -23.158  1.00  0.00    -0.335 N 
ATOM     14  C   UNL     1      12.193 -45.211 -22.423  1.00  0.00     0.317 C 
ATOM     15  N   UNL     1      11.784 -43.916 -22.716  1.00  0.00    -0.331 N 
ATOM     16  H   UNL     1      11.363 -45.903 -24.104  1.00  0.00     0.165 HD
ATOM     17  O   UNL     1      13.050 -45.472 -21.585  1.00  0.00    -0.249 OA
ATOM     18  C   UNL     1      10.474 -43.591 -23.265  1.00  0.00     0.148 C 
ATOM     19  C   UNL     1      12.434 -42.844 -21.981  1.00  0.00     0.148 C 
ENDBRANCH   8  13
TORSDOF 2
ENDMDL
MODEL 9
REMARK VINA RESULT:    -6.349      7.261     10.623
REMARK INTER + INTRA:          -7.328
REMARK INTER:                  -7.104
REMARK INTRA:                  -0.224
REMARK UNBOUND:                -0.237
REMARK SMILES COc1ccc2c(c1)C[C@@H](NC(=O)N(C)C)CC2
REMARK SMILES IDX 3 1 4 2 5 3 6 4 7 5 8 6 9 7 10 8 17 9 18 10 2 11 1 12 11 13
REMARK SMILES IDX 12 14 14 15 13 17 15 18 16 19
REMARK H PARENT 11 16
ROOT
ATOM      1  C   UNL     1      13.347 -52.901 -25.427  1.00  0.00     0.119 A 
ATOM      2  C   UNL     1      12.545 -53.121 -24.309  1.00  0.00     0.047 A 
ATOM      3  C   UNL     1      12.080 -52.051 -23.544  1.00  0.00     0.008 A 
ATOM      4  C   UNL     1      12.404 -50.733 -23.893  1.00  0.00    -0.044 A 
ATOM      5  C   UNL     1      13.226 -50.502 -25.009  1.00  0.00    -0.039 A 
ATOM      6  C   UNL     1      13.682 -51.591 -25.776  1.00  0.00     0.050 A 
ATOM      7  C   UNL     1      13.590 -49.102 -25.444  1.00  0.00     0.061 C 
ATOM      8  C   UNL     1      13.336 -48.030 -24.369  1.00  0.00     0.088 C 
ATOM      9  C   UNL     1      11.968 -48.248 -23.724  1.00  0.00     0.030 C 
ATOM     10  C   UNL     1      11.916 -49.603 -23.024  1.00  0.00     0.038 C 
ENDROOT
BRANCH   1  11
ATOM     11  O   UNL     1      13.731 -54.034 -26.088  1.00  0.00    -0.497 OA
ATOM     12  C   UNL     1      12.875 -55.163 -25.978  1.00  0.00     0.278 C 
ENDBRANCH   1  11
BRANCH   8  13
ATOM     13  N   UNL     1      13.412 -46.680 -24.923  1.00  0.00    -0.335 N 
ATOM     14  C   UNL     1      13.960 -45.653 -24.196  1.00  0.00     0.317 C 
ATOM     15  N   UNL     1      13.999 -44.432 -24.860  1.00  0.00    -0.331 N 
ATOM     16  H   UNL     1      13.620 -46.626 -25.908  1.00  0.00     0.165 HD
ATOM     17  O   UNL     1      14.387 -45.812 -23.057  1.00  0.00    -0.249 OA
ATOM     18  C   UNL     1      13.076 -44.068 -25.928  1.00  0.00     0.148 C 
ATOM     19  C   UNL     1      14.591 -43.317 -24.141  1.00  0.00     0.148 C 
ENDBRANCH   8  13
TORSDOF 2
ENDMDL
