MODEL 1
REMARK VINA RESULT:   -12.419      0.000      0.000
REMARK INTER + INTRA:         -17.806
REMARK INTER:                 -17.138
REMARK INTRA:                  -0.668
REMARK UNBOUND:                -0.668
REMARK SMILES O=C1CCc2cc(C(O)=CC[C@H]3CC[N@@H+](Cc4ccccc4)CC3)cc3c2N1CC3
REMARK SMILES IDX 10 1 8 2 9 3 7 5 6 6 25 7 5 8 26 9 27 10 4 11 30 12 28 13
REMARK SMILES IDX 3 14 29 15 2 16 1 17 11 18 12 19 13 20 24 21 14 22 23 23
REMARK SMILES IDX 15 24 16 26 17 27 18 28 22 29 19 30 21 31 20 32
REMARK H PARENT 9 4 15 25
ROOT
ATOM      1  C   UNL     1      11.381 -57.533 -22.850  1.00  0.00     0.020 C 
ENDROOT
BRANCH   1   2
ATOM      2  C   UNL     1      10.541 -56.522 -23.109  1.00  0.00     0.118 C 
BRANCH   2   3
ATOM      3  O   UNL     1       9.186 -56.732 -23.241  1.00  0.00    -0.508 OA
ATOM      4  H   UNL     1       8.738 -56.252 -22.521  1.00  0.00     0.293 HD
ENDBRANCH   2   3
BRANCH   2   5
ATOM      5  C   UNL     1      11.006 -55.136 -23.254  1.00  0.00     0.017 A 
ATOM      6  C   UNL     1      11.882 -54.809 -24.319  1.00  0.00     0.017 A 
ATOM      7  C   UNL     1      10.603 -54.152 -22.328  1.00  0.00     0.018 A 
ATOM      8  C   UNL     1      12.340 -53.502 -24.481  1.00  0.00    -0.023 A 
ATOM      9  C   UNL     1      11.079 -52.864 -22.487  1.00  0.00    -0.021 A 
ATOM     10  C   UNL     1      11.910 -52.576 -23.557  1.00  0.00     0.050 A 
ATOM     11  C   UNL     1      13.347 -53.058 -25.498  1.00  0.00     0.047 C 
ATOM     12  C   UNL     1      10.841 -51.626 -21.674  1.00  0.00     0.059 C 
ATOM     13  N   UNL     1      12.291 -51.247 -23.559  1.00  0.00    -0.312 N 
ATOM     14  C   UNL     1      13.249 -51.554 -25.782  1.00  0.00     0.105 C 
ATOM     15  C   UNL     1      11.791 -50.602 -22.346  1.00  0.00     0.130 C 
ATOM     16  C   UNL     1      13.062 -50.685 -24.541  1.00  0.00     0.227 C 
ATOM     17  O   UNL     1      13.488 -49.535 -24.484  1.00  0.00    -0.275 OA
ENDBRANCH   2   5
ENDBRANCH   1   2
BRANCH   1  18
ATOM     18  C   UNL     1      11.292 -58.406 -21.632  1.00  0.00     0.035 C 
BRANCH  18  19
ATOM     19  C   UNL     1      11.116 -59.898 -21.964  1.00  0.00     0.004 C 
ATOM     20  C   UNL     1      11.273 -60.122 -23.476  1.00  0.00     0.065 C 
ATOM     21  C   UNL     1       9.767 -60.452 -21.475  1.00  0.00     0.065 C 
ATOM     22  C   UNL     1      11.070 -61.581 -23.856  1.00  0.00     0.262 C 
ATOM     23  C   UNL     1       9.573 -61.906 -21.886  1.00  0.00     0.262 C 
ATOM     24  N   UNL     1       9.730 -62.074 -23.376  1.00  0.00    -0.331 N 
ATOM     25  H   UNL     1       9.728 -63.089 -23.535  1.00  0.00     0.348 HD
BRANCH  24  26
ATOM     26  C   UNL     1       8.568 -61.564 -24.206  1.00  0.00     0.299 C 
BRANCH  26  27
ATOM     27  C   UNL     1       8.625 -62.018 -25.640  1.00  0.00     0.006 A 
ATOM     28  C   UNL     1       9.398 -61.318 -26.578  1.00  0.00     0.009 A 
ATOM     29  C   UNL     1       7.888 -63.135 -26.064  1.00  0.00     0.009 A 
ATOM     30  C   UNL     1       9.427 -61.724 -27.914  1.00  0.00     0.001 A 
ATOM     31  C   UNL     1       7.920 -63.537 -27.399  1.00  0.00     0.001 A 
ATOM     32  C   UNL     1       8.687 -62.830 -28.323  1.00  0.00     0.000 A 
ENDBRANCH  26  27
ENDBRANCH  24  26
ENDBRANCH  18  19
ENDBRANCH   1  18
TORSDOF 7
ENDMDL
MODEL 2
REMARK VINA RESULT:   -12.255      0.374      1.866
REMARK INTER + INTRA:         -17.580
REMARK INTER:                 -16.984
REMARK INTRA:                  -0.596
REMARK UNBOUND:                -0.668
REMARK SMILES O=C1CCc2cc(C(O)=CC[C@H]3CC[N@@H+](Cc4ccccc4)CC3)cc3c2N1CC3
REMARK SMILES IDX 10 1 8 2 9 3 7 5 6 6 25 7 5 8 26 9 27 10 4 11 30 12 28 13
REMARK SMILES IDX 3 14 29 15 2 16 1 17 11 18 12 19 13 20 24 21 14 22 23 23
REMARK SMILES IDX 15 24 16 26 17 27 18 28 22 29 19 30 21 31 20 32
REMARK H PARENT 9 4 15 25
ROOT
ATOM      1  C   UNL     1      11.381 -57.481 -22.961  1.00  0.00     0.020 C 
ENDROOT
BRANCH   1   2
ATOM      2  C   UNL     1      10.564 -56.436 -23.147  1.00  0.00     0.118 C 
BRANCH   2   3
ATOM      3  O   UNL     1       9.195 -56.584 -23.121  1.00  0.00    -0.508 OA
ATOM      4  H   UNL     1       8.997 -57.484 -22.805  1.00  0.00     0.293 HD
ENDBRANCH   2   3
BRANCH   2   5
ATOM      5  C   UNL     1      11.072 -55.076 -23.374  1.00  0.00     0.017 A 
ATOM      6  C   UNL     1      10.694 -54.040 -22.484  1.00  0.00     0.017 A 
ATOM      7  C   UNL     1      11.906 -54.806 -24.479  1.00  0.00     0.018 A 
ATOM      8  C   UNL     1      11.161 -52.740 -22.676  1.00  0.00    -0.023 A 
ATOM      9  C   UNL     1      12.346 -53.510 -24.669  1.00  0.00    -0.021 A 
ATOM     10  C   UNL     1      11.980 -52.529 -23.763  1.00  0.00     0.050 A 
ATOM     11  C   UNL     1      10.748 -51.545 -21.871  1.00  0.00     0.047 C 
ATOM     12  C   UNL     1      13.219 -52.920 -25.738  1.00  0.00     0.059 C 
ATOM     13  N   UNL     1      12.505 -51.298 -24.108  1.00  0.00    -0.312 N 
ATOM     14  C   UNL     1      11.782 -50.415 -21.951  1.00  0.00     0.105 C 
ATOM     15  C   UNL     1      13.176 -51.408 -25.402  1.00  0.00     0.130 C 
ATOM     16  C   UNL     1      12.346 -50.170 -23.348  1.00  0.00     0.227 C 
ATOM     17  O   UNL     1      12.720 -49.058 -23.711  1.00  0.00    -0.275 OA
ENDBRANCH   2   5
ENDBRANCH   1   2
BRANCH   1  18
ATOM     18  C   UNL     1      11.375 -58.342 -21.731  1.00  0.00     0.035 C 
BRANCH  18  19
ATOM     19  C   UNL     1      11.202 -59.841 -22.038  1.00  0.00     0.004 C 
ATOM     20  C   UNL     1      11.323 -60.084 -23.550  1.00  0.00     0.065 C 
ATOM     21  C   UNL     1       9.870 -60.397 -21.508  1.00  0.00     0.065 C 
ATOM     22  C   UNL     1      11.122 -61.550 -23.905  1.00  0.00     0.262 C 
ATOM     23  C   UNL     1       9.676 -61.858 -21.894  1.00  0.00     0.262 C 
ATOM     24  N   UNL     1       9.798 -62.046 -23.386  1.00  0.00    -0.331 N 
ATOM     25  H   UNL     1       9.800 -63.063 -23.530  1.00  0.00     0.348 HD
BRANCH  24  26
ATOM     26  C   UNL     1       8.613 -61.556 -24.194  1.00  0.00     0.299 C 
BRANCH  26  27
ATOM     27  C   UNL     1       8.664 -61.988 -25.635  1.00  0.00     0.006 A 
ATOM     28  C   UNL     1       9.465 -61.299 -26.557  1.00  0.00     0.009 A 
ATOM     29  C   UNL     1       7.893 -63.074 -26.080  1.00  0.00     0.009 A 
ATOM     30  C   UNL     1       9.489 -61.684 -27.898  1.00  0.00     0.001 A 
ATOM     31  C   UNL     1       7.920 -63.455 -27.422  1.00  0.00     0.001 A 
ATOM     32  C   UNL     1       8.715 -62.759 -28.330  1.00  0.00     0.000 A 
ENDBRANCH  26  27
ENDBRANCH  24  26
ENDBRANCH  18  19
ENDBRANCH   1  18
TORSDOF 7
ENDMDL
MODEL 3
REMARK VINA RESULT:   -12.211      1.465      2.342
REMARK INTER + INTRA:         -17.520
REMARK INTER:                 -16.706
REMARK INTRA:                  -0.813
REMARK UNBOUND:                -0.668
REMARK SMILES O=C1CCc2cc(C(O)=CC[C@H]3CC[N@@H+](Cc4ccccc4)CC3)cc3c2N1CC3
REMARK SMILES IDX 10 1 8 2 9 3 7 5 6 6 25 7 5 8 26 9 27 10 4 11 30 12 28 13
REMARK SMILES IDX 3 14 29 15 2 16 1 17 11 18 12 19 13 20 24 21 14 22 23 23
REMARK SMILES IDX 15 24 16 26 17 27 18 28 22 29 19 30 21 31 20 32
REMARK H PARENT 9 4 15 25
ROOT
ATOM      1  C   UNL     1      10.447 -55.090 -22.896  1.00  0.00     0.020 C 
ENDROOT
BRANCH   1   2
ATOM      2  C   UNL     1      10.685 -53.943 -22.247  1.00  0.00     0.118 C 
BRANCH   2   3
ATOM      3  O   UNL     1      10.340 -53.784 -20.922  1.00  0.00    -0.508 OA
ATOM      4  H   UNL     1      10.465 -54.642 -20.477  1.00  0.00     0.293 HD
ENDBRANCH   2   3
BRANCH   2   5
ATOM      5  C   UNL     1      11.334 -52.796 -22.897  1.00  0.00     0.017 A 
ATOM      6  C   UNL     1      12.187 -53.022 -24.006  1.00  0.00     0.017 A 
ATOM      7  C   UNL     1      11.129 -51.491 -22.403  1.00  0.00     0.018 A 
ATOM      8  C   UNL     1      12.817 -51.953 -24.642  1.00  0.00    -0.023 A 
ATOM      9  C   UNL     1      11.775 -50.441 -23.029  1.00  0.00    -0.021 A 
ATOM     10  C   UNL     1      12.576 -50.698 -24.129  1.00  0.00     0.050 A 
ATOM     11  C   UNL     1      13.818 -52.074 -25.751  1.00  0.00     0.047 C 
ATOM     12  C   UNL     1      11.763 -48.970 -22.735  1.00  0.00     0.059 C 
ATOM     13  N   UNL     1      13.142 -49.539 -24.625  1.00  0.00    -0.312 N 
ATOM     14  C   UNL     1      13.920 -50.784 -26.574  1.00  0.00     0.105 C 
ATOM     15  C   UNL     1      12.809 -48.424 -23.739  1.00  0.00     0.130 C 
ATOM     16  C   UNL     1      13.929 -49.502 -25.745  1.00  0.00     0.227 C 
ATOM     17  O   UNL     1      14.518 -48.492 -26.120  1.00  0.00    -0.275 OA
ENDBRANCH   2   5
ENDBRANCH   1   2
BRANCH   1  18
ATOM     18  C   UNL     1      11.267 -56.336 -22.725  1.00  0.00     0.035 C 
BRANCH  18  19
ATOM     19  C   UNL     1      10.446 -57.542 -22.236  1.00  0.00     0.004 C 
ATOM     20  C   UNL     1      11.381 -58.611 -21.650  1.00  0.00     0.065 C 
ATOM     21  C   UNL     1       9.570 -58.144 -23.348  1.00  0.00     0.065 C 
ATOM     22  C   UNL     1      10.614 -59.841 -21.187  1.00  0.00     0.262 C 
ATOM     23  C   UNL     1       8.830 -59.386 -22.872  1.00  0.00     0.262 C 
ATOM     24  N   UNL     1       9.788 -60.408 -22.312  1.00  0.00    -0.331 N 
ATOM     25  H   UNL     1       9.195 -61.132 -21.890  1.00  0.00     0.348 HD
BRANCH  24  26
ATOM     26  C   UNL     1      10.610 -61.153 -23.345  1.00  0.00     0.299 C 
BRANCH  26  27
ATOM     27  C   UNL     1       9.772 -61.753 -24.442  1.00  0.00     0.006 A 
ATOM     28  C   UNL     1       9.973 -61.376 -25.778  1.00  0.00     0.009 A 
ATOM     29  C   UNL     1       8.764 -62.682 -24.140  1.00  0.00     0.009 A 
ATOM     30  C   UNL     1       9.176 -61.914 -26.791  1.00  0.00     0.001 A 
ATOM     31  C   UNL     1       7.970 -63.216 -25.156  1.00  0.00     0.001 A 
ATOM     32  C   UNL     1       8.175 -62.830 -26.479  1.00  0.00     0.000 A 
ENDBRANCH  26  27
ENDBRANCH  24  26
ENDBRANCH  18  19
ENDBRANCH   1  18
TORSDOF 7
ENDMDL
MODEL 4
REMARK VINA RESULT:   -11.912      1.425      2.778
REMARK INTER + INTRA:         -17.106
REMARK INTER:                 -16.326
REMARK INTRA:                  -0.780
REMARK UNBOUND:                -0.668
REMARK SMILES O=C1CCc2cc(C(O)=CC[C@H]3CC[N@@H+](Cc4ccccc4)CC3)cc3c2N1CC3
REMARK SMILES IDX 10 1 8 2 9 3 7 5 6 6 25 7 5 8 26 9 27 10 4 11 30 12 28 13
REMARK SMILES IDX 3 14 29 15 2 16 1 17 11 18 12 19 13 20 24 21 14 22 23 23
REMARK SMILES IDX 15 24 16 26 17 27 18 28 22 29 19 30 21 31 20 32
REMARK H PARENT 9 4 15 25
ROOT
ATOM      1  C   UNL     1      10.580 -55.424 -22.580  1.00  0.00     0.020 C 
ENDROOT
BRANCH   1   2
ATOM      2  C   UNL     1      10.660 -54.177 -22.096  1.00  0.00     0.118 C 
BRANCH   2   3
ATOM      3  O   UNL     1      10.114 -53.845 -20.876  1.00  0.00    -0.508 OA
ATOM      4  H   UNL     1      10.659 -54.260 -20.182  1.00  0.00     0.293 HD
ENDBRANCH   2   3
BRANCH   2   5
ATOM      5  C   UNL     1      11.341 -53.098 -22.825  1.00  0.00     0.017 A 
ATOM      6  C   UNL     1      11.170 -51.758 -22.394  1.00  0.00     0.017 A 
ATOM      7  C   UNL     1      12.134 -53.394 -23.953  1.00  0.00     0.018 A 
ATOM      8  C   UNL     1      11.804 -50.714 -23.067  1.00  0.00    -0.023 A 
ATOM      9  C   UNL     1      12.741 -52.349 -24.623  1.00  0.00    -0.021 A 
ATOM     10  C   UNL     1      12.575 -51.056 -24.156  1.00  0.00     0.050 A 
ATOM     11  C   UNL     1      11.617 -49.256 -22.775  1.00  0.00     0.047 C 
ATOM     12  C   UNL     1      13.620 -52.346 -25.839  1.00  0.00     0.059 C 
ATOM     13  N   UNL     1      13.247 -50.141 -24.945  1.00  0.00    -0.312 N 
ATOM     14  C   UNL     1      12.794 -48.414 -23.282  1.00  0.00     0.105 C 
ATOM     15  C   UNL     1      13.814 -50.831 -26.103  1.00  0.00     0.130 C 
ATOM     16  C   UNL     1      13.297 -48.801 -24.670  1.00  0.00     0.227 C 
ATOM     17  O   UNL     1      13.802 -47.978 -25.430  1.00  0.00    -0.275 OA
ENDBRANCH   2   5
ENDBRANCH   1   2
BRANCH   1  18
ATOM     18  C   UNL     1      11.384 -56.579 -22.056  1.00  0.00     0.035 C 
BRANCH  18  19
ATOM     19  C   UNL     1      10.617 -57.914 -22.081  1.00  0.00     0.004 C 
ATOM     20  C   UNL     1      11.592 -59.073 -22.339  1.00  0.00     0.065 C 
ATOM     21  C   UNL     1       9.485 -57.919 -23.122  1.00  0.00     0.065 C 
ATOM     22  C   UNL     1      10.871 -60.412 -22.409  1.00  0.00     0.262 C 
ATOM     23  C   UNL     1       8.793 -59.274 -23.193  1.00  0.00     0.262 C 
ATOM     24  N   UNL     1       9.787 -60.378 -23.454  1.00  0.00    -0.331 N 
ATOM     25  H   UNL     1       9.257 -61.251 -23.340  1.00  0.00     0.348 HD
BRANCH  24  26
ATOM     26  C   UNL     1      10.316 -60.445 -24.873  1.00  0.00     0.299 C 
BRANCH  26  27
ATOM     27  C   UNL     1       9.512 -61.358 -25.759  1.00  0.00     0.006 A 
ATOM     28  C   UNL     1       8.577 -62.246 -25.205  1.00  0.00     0.009 A 
ATOM     29  C   UNL     1       9.703 -61.351 -27.150  1.00  0.00     0.009 A 
ATOM     30  C   UNL     1       7.853 -63.112 -26.026  1.00  0.00     0.001 A 
ATOM     31  C   UNL     1       8.977 -62.219 -27.965  1.00  0.00     0.001 A 
ATOM     32  C   UNL     1       8.055 -63.100 -27.404  1.00  0.00     0.000 A 
ENDBRANCH  26  27
ENDBRANCH  24  26
ENDBRANCH  18  19
ENDBRANCH   1  18
TORSDOF 7
ENDMDL
MODEL 5
REMARK VINA RESULT:   -11.445      2.588      9.768
REMARK INTER + INTRA:         -16.462
REMARK INTER:                 -15.954
REMARK INTRA:                  -0.508
REMARK UNBOUND:                -0.668
REMARK SMILES O=C1CCc2cc(C(O)=CC[C@H]3CC[N@@H+](Cc4ccccc4)CC3)cc3c2N1CC3
REMARK SMILES IDX 10 1 8 2 9 3 7 5 6 6 25 7 5 8 26 9 27 10 4 11 30 12 28 13
REMARK SMILES IDX 3 14 29 15 2 16 1 17 11 18 12 19 13 20 24 21 14 22 23 23
REMARK SMILES IDX 15 24 16 26 17 27 18 28 22 29 19 30 21 31 20 32
REMARK H PARENT 9 4 15 25
ROOT
ATOM      1  C   UNL     1      11.524 -58.486 -22.249  1.00  0.00     0.020 C 
ENDROOT
BRANCH   1   2
ATOM      2  C   UNL     1      10.736 -59.562 -22.127  1.00  0.00     0.118 C 
BRANCH   2   3
ATOM      3  O   UNL     1      10.367 -60.044 -20.890  1.00  0.00    -0.508 OA
ATOM      4  H   UNL     1      11.144 -59.987 -20.304  1.00  0.00     0.293 HD
ENDBRANCH   2   3
BRANCH   2   5
ATOM      5  C   UNL     1      10.210 -60.282 -23.295  1.00  0.00     0.017 A 
ATOM      6  C   UNL     1       9.357 -61.396 -23.093  1.00  0.00     0.017 A 
ATOM      7  C   UNL     1      10.571 -59.881 -24.598  1.00  0.00     0.018 A 
ATOM      8  C   UNL     1       8.843 -62.099 -24.182  1.00  0.00    -0.023 A 
ATOM      9  C   UNL     1      10.071 -60.598 -25.669  1.00  0.00    -0.021 A 
ATOM     10  C   UNL     1       9.217 -61.662 -25.433  1.00  0.00     0.050 A 
ATOM     11  C   UNL     1       8.023 -63.350 -24.096  1.00  0.00     0.047 C 
ATOM     12  C   UNL     1      10.280 -60.424 -27.144  1.00  0.00     0.059 C 
ATOM     13  N   UNL     1       8.819 -62.262 -26.613  1.00  0.00    -0.312 N 
ATOM     14  C   UNL     1       7.186 -63.575 -25.361  1.00  0.00     0.105 C 
ATOM     15  C   UNL     1       9.538 -61.652 -27.730  1.00  0.00     0.130 C 
ATOM     16  C   UNL     1       7.927 -63.300 -26.667  1.00  0.00     0.227 C 
ATOM     17  O   UNL     1       7.658 -63.900 -27.704  1.00  0.00    -0.275 OA
ENDBRANCH   2   5
ENDBRANCH   1   2
BRANCH   1  18
ATOM     18  C   UNL     1      11.311 -57.201 -21.501  1.00  0.00     0.035 C 
BRANCH  18  19
ATOM     19  C   UNL     1      10.688 -56.090 -22.366  1.00  0.00     0.004 C 
ATOM     20  C   UNL     1      11.661 -55.686 -23.483  1.00  0.00     0.065 C 
ATOM     21  C   UNL     1      10.279 -54.862 -21.536  1.00  0.00     0.065 C 
ATOM     22  C   UNL     1      11.101 -54.562 -24.342  1.00  0.00     0.262 C 
ATOM     23  C   UNL     1       9.743 -53.740 -22.416  1.00  0.00     0.262 C 
ATOM     24  N   UNL     1      10.735 -53.374 -23.492  1.00  0.00    -0.331 N 
ATOM     25  H   UNL     1      10.234 -52.726 -24.111  1.00  0.00     0.348 HD
BRANCH  24  26
ATOM     26  C   UNL     1      11.937 -52.582 -23.015  1.00  0.00     0.299 C 
BRANCH  26  27
ATOM     27  C   UNL     1      12.582 -51.776 -24.110  1.00  0.00     0.006 A 
ATOM     28  C   UNL     1      13.049 -52.404 -25.275  1.00  0.00     0.009 A 
ATOM     29  C   UNL     1      12.746 -50.389 -23.972  1.00  0.00     0.009 A 
ATOM     30  C   UNL     1      13.673 -51.658 -26.277  1.00  0.00     0.001 A 
ATOM     31  C   UNL     1      13.370 -49.649 -24.976  1.00  0.00     0.001 A 
ATOM     32  C   UNL     1      13.835 -50.283 -26.126  1.00  0.00     0.000 A 
ENDBRANCH  26  27
ENDBRANCH  24  26
ENDBRANCH  18  19
ENDBRANCH   1  18
TORSDOF 7
ENDMDL
MODEL 6
REMARK VINA RESULT:   -11.172      2.709     10.838
REMARK INTER + INTRA:         -16.086
REMARK INTER:                 -15.458
REMARK INTRA:                  -0.627
REMARK UNBOUND:                -0.668
REMARK SMILES O=C1CCc2cc(C(O)=CC[C@H]3CC[N@@H+](Cc4ccccc4)CC3)cc3c2N1CC3
REMARK SMILES IDX 10 1 8 2 9 3 7 5 6 6 25 7 5 8 26 9 27 10 4 11 30 12 28 13
REMARK SMILES IDX 3 14 29 15 2 16 1 17 11 18 12 19 13 20 24 21 14 22 23 23
REMARK SMILES IDX 15 24 16 26 17 27 18 28 22 29 19 30 21 31 20 32
REMARK H PARENT 9 4 15 25
ROOT
ATOM      1  C   UNL     1      10.343 -54.702 -23.482  1.00  0.00     0.020 C 
ENDROOT
BRANCH   1   2
ATOM      2  C   UNL     1      10.573 -55.719 -22.641  1.00  0.00     0.118 C 
BRANCH   2   3
ATOM      3  O   UNL     1      11.256 -55.532 -21.460  1.00  0.00    -0.508 OA
ATOM      4  H   UNL     1      11.125 -56.327 -20.911  1.00  0.00     0.293 HD
ENDBRANCH   2   3
BRANCH   2   5
ATOM      5  C   UNL     1      10.103 -57.084 -22.918  1.00  0.00     0.017 A 
ATOM      6  C   UNL     1      11.055 -58.121 -23.085  1.00  0.00     0.017 A 
ATOM      7  C   UNL     1       8.723 -57.348 -23.040  1.00  0.00     0.018 A 
ATOM      8  C   UNL     1      10.638 -59.425 -23.350  1.00  0.00    -0.023 A 
ATOM      9  C   UNL     1       8.323 -58.640 -23.322  1.00  0.00    -0.021 A 
ATOM     10  C   UNL     1       9.280 -59.634 -23.449  1.00  0.00     0.050 A 
ATOM     11  C   UNL     1      11.545 -60.580 -23.649  1.00  0.00     0.047 C 
ATOM     12  C   UNL     1       6.953 -59.220 -23.517  1.00  0.00     0.059 C 
ATOM     13  N   UNL     1       8.704 -60.858 -23.732  1.00  0.00    -0.312 N 
ATOM     14  C   UNL     1      10.868 -61.928 -23.372  1.00  0.00     0.105 C 
ATOM     15  C   UNL     1       7.267 -60.678 -23.935  1.00  0.00     0.130 C 
ATOM     16  C   UNL     1       9.420 -62.020 -23.848  1.00  0.00     0.227 C 
ATOM     17  O   UNL     1       8.921 -63.083 -24.205  1.00  0.00    -0.275 OA
ENDBRANCH   2   5
ENDBRANCH   1   2
BRANCH   1  18
ATOM     18  C   UNL     1      11.421 -53.832 -24.060  1.00  0.00     0.035 C 
BRANCH  18  19
ATOM     19  C   UNL     1      11.866 -52.703 -23.112  1.00  0.00     0.004 C 
ATOM     20  C   UNL     1      10.680 -52.245 -22.249  1.00  0.00     0.065 C 
ATOM     21  C   UNL     1      12.475 -51.510 -23.867  1.00  0.00     0.065 C 
ATOM     22  C   UNL     1      11.065 -51.103 -21.320  1.00  0.00     0.262 C 
ATOM     23  C   UNL     1      12.831 -50.369 -22.923  1.00  0.00     0.262 C 
ATOM     24  N   UNL     1      11.637 -49.950 -22.103  1.00  0.00    -0.331 N 
ATOM     25  H   UNL     1      12.005 -49.290 -21.408  1.00  0.00     0.348 HD
BRANCH  24  26
ATOM     26  C   UNL     1      10.588 -49.154 -22.855  1.00  0.00     0.299 C 
BRANCH  26  27
ATOM     27  C   UNL     1      11.010 -47.735 -23.128  1.00  0.00     0.006 A 
ATOM     28  C   UNL     1      10.827 -46.739 -22.158  1.00  0.00     0.009 A 
ATOM     29  C   UNL     1      11.571 -47.385 -24.367  1.00  0.00     0.009 A 
ATOM     30  C   UNL     1      11.193 -45.419 -22.424  1.00  0.00     0.001 A 
ATOM     31  C   UNL     1      11.934 -46.064 -24.627  1.00  0.00     0.001 A 
ATOM     32  C   UNL     1      11.743 -45.081 -23.658  1.00  0.00     0.000 A 
ENDBRANCH  26  27
ENDBRANCH  24  26
ENDBRANCH  18  19
ENDBRANCH   1  18
TORSDOF 7
ENDMDL
MODEL 7
REMARK VINA RESULT:   -11.113      3.076      8.585
REMARK INTER + INTRA:         -16.004
REMARK INTER:                 -15.567
REMARK INTRA:                  -0.437
REMARK UNBOUND:                -0.668
REMARK SMILES O=C1CCc2cc(C(O)=CC[C@H]3CC[N@@H+](Cc4ccccc4)CC3)cc3c2N1CC3
REMARK SMILES IDX 10 1 8 2 9 3 7 5 6 6 25 7 5 8 26 9 27 10 4 11 30 12 28 13
REMARK SMILES IDX 3 14 29 15 2 16 1 17 11 18 12 19 13 20 24 21 14 22 23 23
REMARK SMILES IDX 15 24 16 26 17 27 18 28 22 29 19 30 21 31 20 32
REMARK H PARENT 9 4 15 25
ROOT
ATOM      1  C   UNL     1      10.226 -61.695 -21.589  1.00  0.00     0.020 C 
ENDROOT
BRANCH   1   2
ATOM      2  C   UNL     1       9.627 -62.387 -22.567  1.00  0.00     0.118 C 
BRANCH   2   3
ATOM      3  O   UNL     1       8.807 -63.459 -22.289  1.00  0.00    -0.508 OA
ATOM      4  H   UNL     1       7.930 -63.109 -22.051  1.00  0.00     0.293 HD
ENDBRANCH   2   3
BRANCH   2   5
ATOM      5  C   UNL     1       9.794 -62.041 -23.985  1.00  0.00     0.017 A 
ATOM      6  C   UNL     1      10.820 -61.136 -24.360  1.00  0.00     0.017 A 
ATOM      7  C   UNL     1       8.927 -62.585 -24.956  1.00  0.00     0.018 A 
ATOM      8  C   UNL     1      11.001 -60.789 -25.698  1.00  0.00    -0.023 A 
ATOM      9  C   UNL     1       9.105 -62.218 -26.276  1.00  0.00    -0.021 A 
ATOM     10  C   UNL     1      10.136 -61.355 -26.608  1.00  0.00     0.050 A 
ATOM     11  C   UNL     1      11.975 -59.768 -26.202  1.00  0.00     0.047 C 
ATOM     12  C   UNL     1       8.350 -62.614 -27.511  1.00  0.00     0.059 C 
ATOM     13  N   UNL     1      10.163 -61.096 -27.965  1.00  0.00    -0.312 N 
ATOM     14  C   UNL     1      12.317 -59.985 -27.682  1.00  0.00     0.105 C 
ATOM     15  C   UNL     1       9.003 -61.723 -28.597  1.00  0.00     0.130 C 
ATOM     16  C   UNL     1      11.120 -60.322 -28.566  1.00  0.00     0.227 C 
ATOM     17  O   UNL     1      11.080 -60.006 -29.752  1.00  0.00    -0.275 OA
ENDBRANCH   2   5
ENDBRANCH   1   2
BRANCH   1  18
ATOM     18  C   UNL     1       9.861 -60.287 -21.214  1.00  0.00     0.035 C 
BRANCH  18  19
ATOM     19  C   UNL     1      10.080 -59.277 -22.354  1.00  0.00     0.004 C 
ATOM     20  C   UNL     1      11.233 -58.326 -21.999  1.00  0.00     0.065 C 
ATOM     21  C   UNL     1       8.807 -58.481 -22.684  1.00  0.00     0.065 C 
ATOM     22  C   UNL     1      11.462 -57.285 -23.085  1.00  0.00     0.262 C 
ATOM     23  C   UNL     1       9.062 -57.429 -23.755  1.00  0.00     0.262 C 
ATOM     24  N   UNL     1      10.196 -56.516 -23.360  1.00  0.00    -0.331 N 
ATOM     25  H   UNL     1      10.386 -55.946 -24.192  1.00  0.00     0.348 HD
BRANCH  24  26
ATOM     26  C   UNL     1       9.860 -55.504 -22.282  1.00  0.00     0.299 C 
BRANCH  26  27
ATOM     27  C   UNL     1      10.602 -54.205 -22.443  1.00  0.00     0.006 A 
ATOM     28  C   UNL     1      10.609 -53.256 -21.410  1.00  0.00     0.009 A 
ATOM     29  C   UNL     1      11.279 -53.914 -23.639  1.00  0.00     0.009 A 
ATOM     30  C   UNL     1      11.275 -52.040 -21.572  1.00  0.00     0.001 A 
ATOM     31  C   UNL     1      11.942 -52.697 -23.796  1.00  0.00     0.001 A 
ATOM     32  C   UNL     1      11.938 -51.760 -22.765  1.00  0.00     0.000 A 
ENDBRANCH  26  27
ENDBRANCH  24  26
ENDBRANCH  18  19
ENDBRANCH   1  18
TORSDOF 7
ENDMDL
MODEL 8
REMARK VINA RESULT:   -10.967      3.834      6.895
REMARK INTER + INTRA:         -15.803
REMARK INTER:                 -15.078
REMARK INTRA:                  -0.724
REMARK UNBOUND:                -0.668
REMARK SMILES O=C1CCc2cc(C(O)=CC[C@H]3CC[N@@H+](Cc4ccccc4)CC3)cc3c2N1CC3
REMARK SMILES IDX 10 1 8 2 9 3 7 5 6 6 25 7 5 8 26 9 27 10 4 11 30 12 28 13
REMARK SMILES IDX 3 14 29 15 2 16 1 17 11 18 12 19 13 20 24 21 14 22 23 23
REMARK SMILES IDX 15 24 16 26 17 27 18 28 22 29 19 30 21 31 20 32
REMARK H PARENT 9 4 15 25
ROOT
ATOM      1  C   UNL     1      11.707 -50.345 -22.357  1.00  0.00     0.020 C 
ENDROOT
BRANCH   1   2
ATOM      2  C   UNL     1      10.847 -49.323 -22.450  1.00  0.00     0.118 C 
BRANCH   2   3
ATOM      3  O   UNL     1       9.569 -49.413 -21.942  1.00  0.00    -0.508 OA
ATOM      4  H   UNL     1       8.978 -49.685 -22.668  1.00  0.00     0.293 HD
ENDBRANCH   2   3
BRANCH   2   5
ATOM      5  C   UNL     1      11.212 -48.048 -23.081  1.00  0.00     0.017 A 
ATOM      6  C   UNL     1      12.272 -48.021 -24.023  1.00  0.00     0.017 A 
ATOM      7  C   UNL     1      10.531 -46.862 -22.733  1.00  0.00     0.018 A 
ATOM      8  C   UNL     1      12.641 -46.825 -24.637  1.00  0.00    -0.023 A 
ATOM      9  C   UNL     1      10.919 -45.680 -23.334  1.00  0.00    -0.021 A 
ATOM     10  C   UNL     1      11.939 -45.698 -24.271  1.00  0.00     0.050 A 
ATOM     11  C   UNL     1      13.806 -46.651 -25.563  1.00  0.00     0.047 C 
ATOM     12  C   UNL     1      10.403 -44.282 -23.165  1.00  0.00     0.059 C 
ATOM     13  N   UNL     1      12.196 -44.433 -24.764  1.00  0.00    -0.312 N 
ATOM     14  C   UNL     1      13.646 -45.419 -26.462  1.00  0.00     0.105 C 
ATOM     15  C   UNL     1      11.386 -43.459 -24.034  1.00  0.00     0.130 C 
ATOM     16  C   UNL     1      13.115 -44.179 -25.747  1.00  0.00     0.227 C 
ATOM     17  O   UNL     1      13.417 -43.044 -26.107  1.00  0.00    -0.275 OA
ENDBRANCH   2   5
ENDBRANCH   1   2
BRANCH   1  18
ATOM     18  C   UNL     1      11.413 -51.626 -21.632  1.00  0.00     0.035 C 
BRANCH  18  19
ATOM     19  C   UNL     1      10.731 -52.684 -22.518  1.00  0.00     0.004 C 
ATOM     20  C   UNL     1      10.065 -53.754 -21.640  1.00  0.00     0.065 C 
ATOM     21  C   UNL     1      11.708 -53.334 -23.512  1.00  0.00     0.065 C 
ATOM     22  C   UNL     1       9.408 -54.843 -22.476  1.00  0.00     0.262 C 
ATOM     23  C   UNL     1      11.038 -54.436 -24.321  1.00  0.00     0.262 C 
ATOM     24  N   UNL     1      10.405 -55.465 -23.418  1.00  0.00    -0.331 N 
ATOM     25  H   UNL     1       9.863 -56.075 -24.042  1.00  0.00     0.348 HD
BRANCH  24  26
ATOM     26  C   UNL     1      11.378 -56.403 -22.731  1.00  0.00     0.299 C 
BRANCH  26  27
ATOM     27  C   UNL     1      10.775 -57.743 -22.407  1.00  0.00     0.006 A 
ATOM     28  C   UNL     1      11.246 -58.490 -21.317  1.00  0.00     0.009 A 
ATOM     29  C   UNL     1       9.748 -58.274 -23.204  1.00  0.00     0.009 A 
ATOM     30  C   UNL     1      10.704 -59.745 -21.035  1.00  0.00     0.001 A 
ATOM     31  C   UNL     1       9.211 -59.528 -22.917  1.00  0.00     0.001 A 
ATOM     32  C   UNL     1       9.690 -60.264 -21.835  1.00  0.00     0.000 A 
ENDBRANCH  26  27
ENDBRANCH  24  26
ENDBRANCH  18  19
ENDBRANCH   1  18
TORSDOF 7
ENDMDL
MODEL 9
REMARK VINA RESULT:   -10.857      2.243      3.793
REMARK INTER + INTRA:         -15.651
REMARK INTER:                 -15.258
REMARK INTRA:                  -0.392
REMARK UNBOUND:                -0.668
REMARK SMILES O=C1CCc2cc(C(O)=CC[C@H]3CC[N@@H+](Cc4ccccc4)CC3)cc3c2N1CC3
REMARK SMILES IDX 10 1 8 2 9 3 7 5 6 6 25 7 5 8 26 9 27 10 4 11 30 12 28 13
REMARK SMILES IDX 3 14 29 15 2 16 1 17 11 18 12 19 13 20 24 21 14 22 23 23
REMARK SMILES IDX 15 24 16 26 17 27 18 28 22 29 19 30 21 31 20 32
REMARK H PARENT 9 4 15 25
ROOT
ATOM      1  C   UNL     1      10.789 -54.467 -22.694  1.00  0.00     0.020 C 
ENDROOT
BRANCH   1   2
ATOM      2  C   UNL     1      10.957 -53.248 -22.164  1.00  0.00     0.118 C 
BRANCH   2   3
ATOM      3  O   UNL     1      10.563 -52.967 -20.875  1.00  0.00    -0.508 OA
ATOM      4  H   UNL     1       9.954 -52.206 -20.908  1.00  0.00     0.293 HD
ENDBRANCH   2   3
BRANCH   2   5
ATOM      5  C   UNL     1      11.580 -52.149 -22.914  1.00  0.00     0.017 A 
ATOM      6  C   UNL     1      11.333 -50.812 -22.513  1.00  0.00     0.017 A 
ATOM      7  C   UNL     1      12.393 -52.424 -24.033  1.00  0.00     0.018 A 
ATOM      8  C   UNL     1      11.911 -49.749 -23.206  1.00  0.00    -0.023 A 
ATOM      9  C   UNL     1      12.944 -51.362 -24.724  1.00  0.00    -0.021 A 
ATOM     10  C   UNL     1      12.704 -50.070 -24.284  1.00  0.00     0.050 A 
ATOM     11  C   UNL     1      11.641 -48.298 -22.945  1.00  0.00     0.047 C 
ATOM     12  C   UNL     1      13.826 -51.335 -25.937  1.00  0.00     0.059 C 
ATOM     13  N   UNL     1      13.327 -49.137 -25.091  1.00  0.00    -0.312 N 
ATOM     14  C   UNL     1      12.772 -47.402 -23.467  1.00  0.00     0.105 C 
ATOM     15  C   UNL     1      13.937 -49.818 -26.232  1.00  0.00     0.130 C 
ATOM     16  C   UNL     1      13.302 -47.790 -24.845  1.00  0.00     0.227 C 
ATOM     17  O   UNL     1      13.763 -46.957 -25.620  1.00  0.00    -0.275 OA
ENDBRANCH   2   5
ENDBRANCH   1   2
BRANCH   1  18
ATOM     18  C   UNL     1      10.614 -55.718 -21.882  1.00  0.00     0.035 C 
BRANCH  18  19
ATOM     19  C   UNL     1      11.444 -56.904 -22.406  1.00  0.00     0.004 C 
ATOM     20  C   UNL     1      11.399 -56.939 -23.941  1.00  0.00     0.065 C 
ATOM     21  C   UNL     1      10.976 -58.248 -21.823  1.00  0.00     0.065 C 
ATOM     22  C   UNL     1      12.178 -58.119 -24.502  1.00  0.00     0.262 C 
ATOM     23  C   UNL     1      11.751 -59.418 -22.414  1.00  0.00     0.262 C 
ATOM     24  N   UNL     1      11.674 -59.414 -23.921  1.00  0.00    -0.331 N 
ATOM     25  H   UNL     1      12.334 -60.139 -24.227  1.00  0.00     0.348 HD
BRANCH  24  26
ATOM     26  C   UNL     1      10.342 -59.855 -24.497  1.00  0.00     0.299 C 
BRANCH  26  27
ATOM     27  C   UNL     1       9.836 -61.138 -23.896  1.00  0.00     0.006 A 
ATOM     28  C   UNL     1       8.461 -61.414 -23.860  1.00  0.00     0.009 A 
ATOM     29  C   UNL     1      10.731 -62.067 -23.342  1.00  0.00     0.009 A 
ATOM     30  C   UNL     1       7.992 -62.592 -23.277  1.00  0.00     0.001 A 
ATOM     31  C   UNL     1      10.257 -63.243 -22.760  1.00  0.00     0.001 A 
ATOM     32  C   UNL     1       8.889 -63.504 -22.726  1.00  0.00     0.000 A 
ENDBRANCH  26  27
ENDBRANCH  24  26
ENDBRANCH  18  19
ENDBRANCH   1  18
TORSDOF 7
ENDMDL
