MODEL 1
REMARK VINA RESULT:    -7.812      0.000      0.000
REMARK INTER + INTRA:         -10.766
REMARK INTER:                 -10.324
REMARK INTRA:                  -0.442
REMARK UNBOUND:                -0.442
REMARK SMILES COc1ccc([C@@H](C)NS(N)(=O)=O)cc1OC
REMARK SMILES IDX 7 1 8 2 6 3 3 4 4 5 15 6 5 7 14 8 2 9 1 10 16 11 17 12 9 13
REMARK SMILES IDX 10 15 12 16 13 17 11 18
REMARK H PARENT 9 14 11 19 11 20
ROOT
ATOM      1  C   UNL     1      10.674 -59.159 -22.806  1.00  0.00     0.098 C 
ATOM      2  C   UNL     1      11.033 -59.030 -21.324  1.00  0.00     0.031 C 
ENDROOT
BRANCH   1   3
ATOM      3  C   UNL     1       9.178 -59.234 -23.062  1.00  0.00    -0.026 A 
ATOM      4  C   UNL     1       6.388 -59.449 -23.450  1.00  0.00     0.160 A 
ATOM      5  C   UNL     1       6.995 -58.196 -23.334  1.00  0.00     0.051 A 
ATOM      6  C   UNL     1       7.179 -60.612 -23.361  1.00  0.00     0.161 A 
ATOM      7  C   UNL     1       8.374 -58.090 -23.137  1.00  0.00     0.009 A 
ATOM      8  C   UNL     1       8.559 -60.494 -23.162  1.00  0.00     0.055 A 
BRANCH   4   9
ATOM      9  O   UNL     1       5.043 -59.647 -23.641  1.00  0.00    -0.493 OA
ATOM     10  C   UNL     1       4.146 -58.913 -22.819  1.00  0.00     0.278 C 
ENDBRANCH   4   9
BRANCH   6  11
ATOM     11  O   UNL     1       6.510 -61.806 -23.468  1.00  0.00    -0.493 OA
ATOM     12  C   UNL     1       7.276 -63.000 -23.408  1.00  0.00     0.278 C 
ENDBRANCH   6  11
ENDBRANCH   1   3
BRANCH   1  13
ATOM     13  N   UNL     1      11.336 -60.357 -23.340  1.00  0.00    -0.195 NA
ATOM     14  H   UNL     1      10.747 -61.171 -23.490  1.00  0.00     0.143 HD
BRANCH  13  15
ATOM     15  S   UNL     1      12.538 -60.172 -24.453  1.00  0.00     0.274 S 
ATOM     16  O   UNL     1      13.804 -60.576 -23.903  1.00  0.00    -0.195 OA
ATOM     17  O   UNL     1      12.036 -60.631 -25.721  1.00  0.00    -0.195 OA
BRANCH  15  18
ATOM     18  N   UNL     1      12.545 -58.511 -24.553  1.00  0.00    -0.216 NA
ATOM     19  H   UNL     1      11.636 -58.168 -24.236  1.00  0.00     0.138 HD
ATOM     20  H   UNL     1      13.285 -58.146 -23.952  1.00  0.00     0.138 HD
ENDBRANCH  15  18
ENDBRANCH  13  15
ENDBRANCH   1  13
TORSDOF 6
ENDMDL
MODEL 2
REMARK VINA RESULT:    -7.477      1.413      2.941
REMARK INTER + INTRA:         -10.323
REMARK INTER:                  -9.991
REMARK INTRA:                  -0.332
REMARK UNBOUND:                -0.442
REMARK SMILES COc1ccc([C@@H](C)NS(N)(=O)=O)cc1OC
REMARK SMILES IDX 7 1 8 2 6 3 3 4 4 5 15 6 5 7 14 8 2 9 1 10 16 11 17 12 9 13
REMARK SMILES IDX 10 15 12 16 13 17 11 18
REMARK H PARENT 9 14 11 19 11 20
ROOT
ATOM      1  C   UNL     1      10.605 -59.875 -22.643  1.00  0.00     0.098 C 
ATOM      2  C   UNL     1      10.619 -59.735 -21.119  1.00  0.00     0.031 C 
ENDROOT
BRANCH   1   3
ATOM      3  C   UNL     1       9.466 -60.739 -23.161  1.00  0.00    -0.026 A 
ATOM      4  C   UNL     1       7.320 -62.257 -24.196  1.00  0.00     0.160 A 
ATOM      5  C   UNL     1       8.604 -62.803 -24.116  1.00  0.00     0.051 A 
ATOM      6  C   UNL     1       7.104 -60.933 -23.766  1.00  0.00     0.161 A 
ATOM      7  C   UNL     1       9.666 -62.050 -23.608  1.00  0.00     0.009 A 
ATOM      8  C   UNL     1       8.175 -60.187 -23.261  1.00  0.00     0.055 A 
BRANCH   4   9
ATOM      9  O   UNL     1       6.222 -62.921 -24.683  1.00  0.00    -0.493 OA
ATOM     10  C   UNL     1       6.446 -64.114 -25.421  1.00  0.00     0.278 C 
ENDBRANCH   4   9
BRANCH   6  11
ATOM     11  O   UNL     1       5.821 -60.461 -23.890  1.00  0.00    -0.493 OA
ATOM     12  C   UNL     1       5.456 -59.329 -23.115  1.00  0.00     0.278 C 
ENDBRANCH   6  11
ENDBRANCH   1   3
BRANCH   1  13
ATOM     13  N   UNL     1      11.894 -60.434 -23.069  1.00  0.00    -0.195 NA
ATOM     14  H   UNL     1      12.055 -61.415 -22.857  1.00  0.00     0.143 HD
BRANCH  13  15
ATOM     15  S   UNL     1      12.547 -59.931 -24.496  1.00  0.00     0.274 S 
ATOM     16  O   UNL     1      11.944 -60.624 -25.602  1.00  0.00    -0.195 OA
ATOM     17  O   UNL     1      12.691 -58.501 -24.434  1.00  0.00    -0.195 OA
BRANCH  15  18
ATOM     18  N   UNL     1      14.085 -60.540 -24.305  1.00  0.00    -0.216 NA
ATOM     19  H   UNL     1      14.495 -60.114 -23.472  1.00  0.00     0.138 HD
ATOM     20  H   UNL     1      14.028 -61.553 -24.189  1.00  0.00     0.138 HD
ENDBRANCH  15  18
ENDBRANCH  13  15
ENDBRANCH   1  13
TORSDOF 6
ENDMDL
MODEL 3
REMARK VINA RESULT:    -7.405      2.538      3.594
REMARK INTER + INTRA:         -10.228
REMARK INTER:                  -9.751
REMARK INTRA:                  -0.476
REMARK UNBOUND:                -0.442
REMARK SMILES COc1ccc([C@@H](C)NS(N)(=O)=O)cc1OC
REMARK SMILES IDX 7 1 8 2 6 3 3 4 4 5 15 6 5 7 14 8 2 9 1 10 16 11 17 12 9 13
REMARK SMILES IDX 10 15 12 16 13 17 11 18
REMARK H PARENT 9 14 11 19 11 20
ROOT
ATOM      1  C   UNL     1      11.057 -59.715 -23.378  1.00  0.00     0.098 C 
ATOM      2  C   UNL     1      12.406 -60.303 -23.799  1.00  0.00     0.031 C 
ENDROOT
BRANCH   1   3
ATOM      3  C   UNL     1       9.876 -60.611 -23.712  1.00  0.00    -0.026 A 
ATOM      4  C   UNL     1       7.638 -62.192 -24.402  1.00  0.00     0.160 A 
ATOM      5  C   UNL     1       8.933 -62.708 -24.507  1.00  0.00     0.051 A 
ATOM      6  C   UNL     1       7.456 -60.867 -23.957  1.00  0.00     0.161 A 
ATOM      7  C   UNL     1      10.040 -61.924 -24.171  1.00  0.00     0.009 A 
ATOM      8  C   UNL     1       8.572 -60.091 -23.625  1.00  0.00     0.055 A 
BRANCH   4   9
ATOM      9  O   UNL     1       6.496 -62.887 -24.713  1.00  0.00    -0.493 OA
ATOM     10  C   UNL     1       6.633 -64.056 -25.508  1.00  0.00     0.278 C 
ENDBRANCH   4   9
BRANCH   6  11
ATOM     11  O   UNL     1       6.157 -60.426 -23.895  1.00  0.00    -0.493 OA
ATOM     12  C   UNL     1       5.879 -59.310 -23.062  1.00  0.00     0.278 C 
ENDBRANCH   6  11
ENDBRANCH   1   3
BRANCH   1  13
ATOM     13  N   UNL     1      10.898 -58.409 -24.030  1.00  0.00    -0.195 NA
ATOM     14  H   UNL     1      10.225 -58.361 -24.790  1.00  0.00     0.143 HD
BRANCH  13  15
ATOM     15  S   UNL     1      10.982 -57.044 -23.110  1.00  0.00     0.274 S 
ATOM     16  O   UNL     1      11.284 -57.372 -21.743  1.00  0.00    -0.195 OA
ATOM     17  O   UNL     1      11.691 -56.047 -23.867  1.00  0.00    -0.195 OA
BRANCH  15  18
ATOM     18  N   UNL     1       9.381 -56.592 -23.172  1.00  0.00    -0.216 NA
ATOM     19  H   UNL     1       8.825 -57.325 -22.726  1.00  0.00     0.138 HD
ATOM     20  H   UNL     1       9.265 -55.711 -22.669  1.00  0.00     0.138 HD
ENDBRANCH  15  18
ENDBRANCH  13  15
ENDBRANCH   1  13
TORSDOF 6
ENDMDL
MODEL 4
REMARK VINA RESULT:    -7.240      3.915      5.565
REMARK INTER + INTRA:         -10.010
REMARK INTER:                  -9.507
REMARK INTRA:                  -0.503
REMARK UNBOUND:                -0.442
REMARK SMILES COc1ccc([C@@H](C)NS(N)(=O)=O)cc1OC
REMARK SMILES IDX 7 1 8 2 6 3 3 4 4 5 15 6 5 7 14 8 2 9 1 10 16 11 17 12 9 13
REMARK SMILES IDX 10 15 12 16 13 17 11 18
REMARK H PARENT 9 14 11 19 11 20
ROOT
ATOM      1  C   UNL     1      11.586 -58.720 -22.424  1.00  0.00     0.098 C 
ATOM      2  C   UNL     1      10.872 -59.315 -21.208  1.00  0.00     0.031 C 
ENDROOT
BRANCH   1   3
ATOM      3  C   UNL     1      11.429 -57.212 -22.540  1.00  0.00    -0.026 A 
ATOM      4  C   UNL     1      11.062 -54.428 -22.846  1.00  0.00     0.160 A 
ATOM      5  C   UNL     1      10.911 -55.032 -21.595  1.00  0.00     0.051 A 
ATOM      6  C   UNL     1      11.389 -55.223 -23.962  1.00  0.00     0.161 A 
ATOM      7  C   UNL     1      11.087 -56.410 -21.445  1.00  0.00     0.009 A 
ATOM      8  C   UNL     1      11.562 -56.603 -23.801  1.00  0.00     0.055 A 
BRANCH   4   9
ATOM      9  O   UNL     1      10.905 -53.086 -23.086  1.00  0.00    -0.493 OA
ATOM     10  C   UNL     1       9.918 -52.393 -22.335  1.00  0.00     0.278 C 
ENDBRANCH   4   9
BRANCH   6  11
ATOM     11  O   UNL     1      11.505 -54.561 -25.160  1.00  0.00    -0.493 OA
ATOM     12  C   UNL     1      12.795 -54.485 -25.749  1.00  0.00     0.278 C 
ENDBRANCH   6  11
ENDBRANCH   1   3
BRANCH   1  13
ATOM     13  N   UNL     1      11.068 -59.374 -23.632  1.00  0.00    -0.195 NA
ATOM     14  H   UNL     1      10.640 -58.769 -24.327  1.00  0.00     0.143 HD
BRANCH  13  15
ATOM     15  S   UNL     1      11.896 -60.653 -24.262  1.00  0.00     0.274 S 
ATOM     16  O   UNL     1      11.585 -61.861 -23.547  1.00  0.00    -0.195 OA
ATOM     17  O   UNL     1      11.852 -60.541 -25.696  1.00  0.00    -0.195 OA
BRANCH  15  18
ATOM     18  N   UNL     1      13.438 -60.201 -23.829  1.00  0.00    -0.216 NA
ATOM     19  H   UNL     1      13.887 -60.996 -23.370  1.00  0.00     0.138 HD
ATOM     20  H   UNL     1      13.957 -59.944 -24.670  1.00  0.00     0.138 HD
ENDBRANCH  15  18
ENDBRANCH  13  15
ENDBRANCH   1  13
TORSDOF 6
ENDMDL
MODEL 5
REMARK VINA RESULT:    -7.115      4.578      5.427
REMARK INTER + INTRA:          -9.845
REMARK INTER:                  -9.539
REMARK INTRA:                  -0.306
REMARK UNBOUND:                -0.442
REMARK SMILES COc1ccc([C@@H](C)NS(N)(=O)=O)cc1OC
REMARK SMILES IDX 7 1 8 2 6 3 3 4 4 5 15 6 5 7 14 8 2 9 1 10 16 11 17 12 9 13
REMARK SMILES IDX 10 15 12 16 13 17 11 18
REMARK H PARENT 9 14 11 19 11 20
ROOT
ATOM      1  C   UNL     1      11.153 -55.505 -22.924  1.00  0.00     0.098 C 
ATOM      2  C   UNL     1      11.733 -55.313 -24.327  1.00  0.00     0.031 C 
ENDROOT
BRANCH   1   3
ATOM      3  C   UNL     1      10.651 -56.916 -22.664  1.00  0.00    -0.026 A 
ATOM      4  C   UNL     1       9.705 -59.552 -22.299  1.00  0.00     0.160 A 
ATOM      5  C   UNL     1      10.900 -59.137 -21.704  1.00  0.00     0.051 A 
ATOM      6  C   UNL     1       8.978 -58.647 -23.096  1.00  0.00     0.161 A 
ATOM      7  C   UNL     1      11.370 -57.834 -21.890  1.00  0.00     0.009 A 
ATOM      8  C   UNL     1       9.459 -57.345 -23.276  1.00  0.00     0.055 A 
BRANCH   4   9
ATOM      9  O   UNL     1       9.172 -60.811 -22.174  1.00  0.00    -0.493 OA
ATOM     10  C   UNL     1       9.992 -61.914 -22.534  1.00  0.00     0.278 C 
ENDBRANCH   4   9
BRANCH   6  11
ATOM     11  O   UNL     1       7.824 -59.132 -23.659  1.00  0.00    -0.493 OA
ATOM     12  C   UNL     1       6.588 -58.675 -23.130  1.00  0.00     0.278 C 
ENDBRANCH   6  11
ENDBRANCH   1   3
BRANCH   1  13
ATOM     13  N   UNL     1      10.061 -54.541 -22.739  1.00  0.00    -0.195 NA
ATOM     14  H   UNL     1       9.146 -54.928 -22.522  1.00  0.00     0.143 HD
BRANCH  13  15
ATOM     15  S   UNL     1      10.384 -53.104 -21.997  1.00  0.00     0.274 S 
ATOM     16  O   UNL     1      10.590 -53.297 -20.587  1.00  0.00    -0.195 OA
ATOM     17  O   UNL     1      11.285 -52.367 -22.842  1.00  0.00    -0.195 OA
BRANCH  15  18
ATOM     18  N   UNL     1       8.900 -52.375 -22.188  1.00  0.00    -0.216 NA
ATOM     19  H   UNL     1       8.683 -51.862 -21.331  1.00  0.00     0.138 HD
ATOM     20  H   UNL     1       8.946 -51.732 -22.979  1.00  0.00     0.138 HD
ENDBRANCH  15  18
ENDBRANCH  13  15
ENDBRANCH   1  13
TORSDOF 6
ENDMDL
MODEL 6
REMARK VINA RESULT:    -6.911      3.380      4.213
REMARK INTER + INTRA:          -9.575
REMARK INTER:                  -9.094
REMARK INTRA:                  -0.481
REMARK UNBOUND:                -0.442
REMARK SMILES COc1ccc([C@@H](C)NS(N)(=O)=O)cc1OC
REMARK SMILES IDX 7 1 8 2 6 3 3 4 4 5 15 6 5 7 14 8 2 9 1 10 16 11 17 12 9 13
REMARK SMILES IDX 10 15 12 16 13 17 11 18
REMARK H PARENT 9 14 11 19 11 20
ROOT
ATOM      1  C   UNL     1      10.800 -58.185 -21.636  1.00  0.00     0.098 C 
ATOM      2  C   UNL     1      11.703 -58.237 -20.401  1.00  0.00     0.031 C 
ENDROOT
BRANCH   1   3
ATOM      3  C   UNL     1      10.373 -59.558 -22.130  1.00  0.00    -0.026 A 
ATOM      4  C   UNL     1       9.682 -62.116 -23.108  1.00  0.00     0.160 A 
ATOM      5  C   UNL     1       9.586 -61.827 -21.745  1.00  0.00     0.051 A 
ATOM      6  C   UNL     1      10.139 -61.123 -23.996  1.00  0.00     0.161 A 
ATOM      7  C   UNL     1       9.932 -60.562 -21.260  1.00  0.00     0.009 A 
ATOM      8  C   UNL     1      10.485 -59.860 -23.500  1.00  0.00     0.055 A 
BRANCH   4   9
ATOM      9  O   UNL     1       9.367 -63.329 -23.670  1.00  0.00    -0.493 OA
ATOM     10  C   UNL     1       8.075 -63.860 -23.410  1.00  0.00     0.278 C 
ENDBRANCH   4   9
BRANCH   6  11
ATOM     11  O   UNL     1      10.222 -61.487 -25.317  1.00  0.00    -0.493 OA
ATOM     12  C   UNL     1      10.017 -60.476 -26.294  1.00  0.00     0.278 C 
ENDBRANCH   6  11
ENDBRANCH   1   3
BRANCH   1  13
ATOM     13  N   UNL     1      11.510 -57.465 -22.700  1.00  0.00    -0.195 NA
ATOM     14  H   UNL     1      11.778 -58.010 -23.515  1.00  0.00     0.143 HD
BRANCH  13  15
ATOM     15  S   UNL     1      11.077 -55.910 -23.035  1.00  0.00     0.274 S 
ATOM     16  O   UNL     1      11.158 -55.095 -21.853  1.00  0.00    -0.195 OA
ATOM     17  O   UNL     1      11.672 -55.550 -24.294  1.00  0.00    -0.195 OA
BRANCH  15  18
ATOM     18  N   UNL     1       9.463 -56.156 -23.361  1.00  0.00    -0.216 NA
ATOM     19  H   UNL     1       8.919 -55.767 -22.588  1.00  0.00     0.138 HD
ATOM     20  H   UNL     1       9.225 -55.678 -24.232  1.00  0.00     0.138 HD
ENDBRANCH  15  18
ENDBRANCH  13  15
ENDBRANCH   1  13
TORSDOF 6
ENDMDL
MODEL 7
REMARK VINA RESULT:    -6.778      3.967      5.814
REMARK INTER + INTRA:          -9.400
REMARK INTER:                  -9.039
REMARK INTRA:                  -0.361
REMARK UNBOUND:                -0.442
REMARK SMILES COc1ccc([C@@H](C)NS(N)(=O)=O)cc1OC
REMARK SMILES IDX 7 1 8 2 6 3 3 4 4 5 15 6 5 7 14 8 2 9 1 10 16 11 17 12 9 13
REMARK SMILES IDX 10 15 12 16 13 17 11 18
REMARK H PARENT 9 14 11 19 11 20
ROOT
ATOM      1  C   UNL     1       9.318 -60.903 -23.738  1.00  0.00     0.098 C 
ATOM      2  C   UNL     1       9.214 -59.722 -22.770  1.00  0.00     0.031 C 
ENDROOT
BRANCH   1   3
ATOM      3  C   UNL     1      10.088 -60.578 -25.008  1.00  0.00    -0.026 A 
ATOM      4  C   UNL     1      11.417 -59.940 -27.418  1.00  0.00     0.160 A 
ATOM      5  C   UNL     1      11.881 -59.443 -26.197  1.00  0.00     0.051 A 
ATOM      6  C   UNL     1      10.269 -60.757 -27.441  1.00  0.00     0.161 A 
ATOM      7  C   UNL     1      11.220 -59.754 -25.006  1.00  0.00     0.009 A 
ATOM      8  C   UNL     1       9.614 -61.061 -26.242  1.00  0.00     0.055 A 
BRANCH   4   9
ATOM      9  O   UNL     1      12.000 -59.683 -28.634  1.00  0.00    -0.493 OA
ATOM     10  C   UNL     1      11.962 -58.347 -29.114  1.00  0.00     0.278 C 
ENDBRANCH   4   9
BRANCH   6  11
ATOM     11  O   UNL     1       9.865 -61.194 -28.678  1.00  0.00    -0.493 OA
ATOM     12  C   UNL     1       9.009 -62.326 -28.731  1.00  0.00     0.278 C 
ENDBRANCH   6  11
ENDBRANCH   1   3
BRANCH   1  13
ATOM     13  N   UNL     1       7.960 -61.349 -24.073  1.00  0.00    -0.195 NA
ATOM     14  H   UNL     1       7.475 -60.821 -24.793  1.00  0.00     0.143 HD
BRANCH  13  15
ATOM     15  S   UNL     1       7.630 -62.964 -24.076  1.00  0.00     0.274 S 
ATOM     16  O   UNL     1       6.973 -63.345 -25.296  1.00  0.00    -0.195 OA
ATOM     17  O   UNL     1       8.777 -63.647 -23.540  1.00  0.00    -0.195 OA
BRANCH  15  18
ATOM     18  N   UNL     1       6.489 -62.996 -22.864  1.00  0.00    -0.216 NA
ATOM     19  H   UNL     1       6.289 -62.032 -22.589  1.00  0.00     0.138 HD
ATOM     20  H   UNL     1       5.642 -63.442 -23.219  1.00  0.00     0.138 HD
ENDBRANCH  15  18
ENDBRANCH  13  15
ENDBRANCH   1  13
TORSDOF 6
ENDMDL
MODEL 8
REMARK VINA RESULT:    -6.778      3.527      5.421
REMARK INTER + INTRA:          -9.399
REMARK INTER:                  -8.960
REMARK INTRA:                  -0.439
REMARK UNBOUND:                -0.442
REMARK SMILES COc1ccc([C@@H](C)NS(N)(=O)=O)cc1OC
REMARK SMILES IDX 7 1 8 2 6 3 3 4 4 5 15 6 5 7 14 8 2 9 1 10 16 11 17 12 9 13
REMARK SMILES IDX 10 15 12 16 13 17 11 18
REMARK H PARENT 9 14 11 19 11 20
ROOT
ATOM      1  C   UNL     1       9.564 -62.794 -23.139  1.00  0.00     0.098 C 
ATOM      2  C   UNL     1      10.013 -63.881 -22.159  1.00  0.00     0.031 C 
ENDROOT
BRANCH   1   3
ATOM      3  C   UNL     1      10.179 -61.433 -22.856  1.00  0.00    -0.026 A 
ATOM      4  C   UNL     1      11.275 -58.865 -22.431  1.00  0.00     0.160 A 
ATOM      5  C   UNL     1      10.533 -59.495 -21.429  1.00  0.00     0.051 A 
ATOM      6  C   UNL     1      11.465 -59.516 -23.665  1.00  0.00     0.161 A 
ATOM      7  C   UNL     1       9.986 -60.764 -21.641  1.00  0.00     0.009 A 
ATOM      8  C   UNL     1      10.912 -60.786 -23.868  1.00  0.00     0.055 A 
BRANCH   4   9
ATOM      9  O   UNL     1      11.844 -57.621 -22.311  1.00  0.00    -0.493 OA
ATOM     10  C   UNL     1      10.975 -56.498 -22.285  1.00  0.00     0.278 C 
ENDBRANCH   4   9
BRANCH   6  11
ATOM     11  O   UNL     1      12.191 -58.828 -24.605  1.00  0.00    -0.493 OA
ATOM     12  C   UNL     1      12.076 -59.240 -25.959  1.00  0.00     0.278 C 
ENDBRANCH   6  11
ENDBRANCH   1   3
BRANCH   1  13
ATOM     13  N   UNL     1       8.099 -62.705 -23.091  1.00  0.00    -0.195 NA
ATOM     14  H   UNL     1       7.691 -62.428 -22.202  1.00  0.00     0.143 HD
BRANCH  13  15
ATOM     15  S   UNL     1       7.292 -62.143 -24.414  1.00  0.00     0.274 S 
ATOM     16  O   UNL     1       6.477 -61.010 -24.067  1.00  0.00    -0.195 OA
ATOM     17  O   UNL     1       8.206 -62.158 -25.525  1.00  0.00    -0.195 OA
BRANCH  15  18
ATOM     18  N   UNL     1       6.272 -63.434 -24.662  1.00  0.00    -0.216 NA
ATOM     19  H   UNL     1       5.380 -63.074 -25.008  1.00  0.00     0.138 HD
ATOM     20  H   UNL     1       6.689 -64.059 -25.352  1.00  0.00     0.138 HD
ENDBRANCH  15  18
ENDBRANCH  13  15
ENDBRANCH   1  13
TORSDOF 6
ENDMDL
MODEL 9
REMARK VINA RESULT:    -6.557      7.287      9.133
REMARK INTER + INTRA:          -9.107
REMARK INTER:                  -8.713
REMARK INTRA:                  -0.394
REMARK UNBOUND:                -0.442
REMARK SMILES COc1ccc([C@@H](C)NS(N)(=O)=O)cc1OC
REMARK SMILES IDX 7 1 8 2 6 3 3 4 4 5 15 6 5 7 14 8 2 9 1 10 16 11 17 12 9 13
REMARK SMILES IDX 10 15 12 16 13 17 11 18
REMARK H PARENT 9 14 11 19 11 20
ROOT
ATOM      1  C   UNL     1      10.999 -54.204 -22.825  1.00  0.00     0.098 C 
ATOM      2  C   UNL     1       9.646 -53.753 -22.270  1.00  0.00     0.031 C 
ENDROOT
BRANCH   1   3
ATOM      3  C   UNL     1      11.749 -53.102 -23.557  1.00  0.00    -0.026 A 
ATOM      4  C   UNL     1      13.197 -51.029 -24.816  1.00  0.00     0.160 A 
ATOM      5  C   UNL     1      13.171 -52.313 -25.366  1.00  0.00     0.051 A 
ATOM      6  C   UNL     1      12.502 -50.776 -23.617  1.00  0.00     0.161 A 
ATOM      7  C   UNL     1      12.459 -53.340 -24.740  1.00  0.00     0.009 A 
ATOM      8  C   UNL     1      11.793 -51.812 -22.998  1.00  0.00     0.055 A 
BRANCH   4   9
ATOM      9  O   UNL     1      13.872 -49.964 -25.359  1.00  0.00    -0.493 OA
ATOM     10  C   UNL     1      14.314 -50.080 -26.704  1.00  0.00     0.278 C 
ENDBRANCH   4   9
BRANCH   6  11
ATOM     11  O   UNL     1      12.587 -49.495 -23.130  1.00  0.00    -0.493 OA
ATOM     12  C   UNL     1      11.381 -48.755 -23.005  1.00  0.00     0.278 C 
ENDBRANCH   6  11
ENDBRANCH   1   3
BRANCH   1  13
ATOM     13  N   UNL     1      10.774 -55.343 -23.724  1.00  0.00    -0.195 NA
ATOM     14  H   UNL     1      11.199 -55.283 -24.646  1.00  0.00     0.143 HD
BRANCH  13  15
ATOM     15  S   UNL     1      10.740 -56.863 -23.089  1.00  0.00     0.274 S 
ATOM     16  O   UNL     1      11.310 -56.875 -21.770  1.00  0.00    -0.195 OA
ATOM     17  O   UNL     1       9.464 -57.445 -23.413  1.00  0.00    -0.195 OA
BRANCH  15  18
ATOM     18  N   UNL     1      11.832 -57.594 -24.110  1.00  0.00    -0.216 NA
ATOM     19  H   UNL     1      11.455 -58.504 -24.383  1.00  0.00     0.138 HD
ATOM     20  H   UNL     1      11.960 -57.007 -24.936  1.00  0.00     0.138 HD
ENDBRANCH  15  18
ENDBRANCH  13  15
ENDBRANCH   1  13
TORSDOF 6
ENDMDL
