MODEL 1
REMARK VINA RESULT:   -10.422      0.000      0.000
REMARK INTER + INTRA:         -19.725
REMARK INTER:                 -18.038
REMARK INTRA:                  -1.687
REMARK UNBOUND:                -1.687
REMARK SMILES CC[N@H+](CCCCCCN=C1C=C(O)c2ccccc2C1=O)Cc1ccccc1OC
REMARK SMILES IDX 6 1 7 2 8 3 9 4 10 5 11 6 13 7 12 8 15 9 16 10 20 11 21 12
REMARK SMILES IDX 17 13 19 14 18 15 22 16 14 17 5 19 4 20 3 21 2 23 1 24 23 25
REMARK SMILES IDX 24 26 25 27 29 28 26 29 28 30 27 31 30 32 31 33
REMARK H PARENT 14 18 3 22
ROOT
ATOM      1  C   UNL     1      10.893 -60.480 -22.336  1.00  0.00     0.006 C 
ENDROOT
BRANCH   1   2
ATOM      2  C   UNL     1      10.717 -59.367 -21.301  1.00  0.00     0.002 C 
BRANCH   2   3
ATOM      3  C   UNL     1      11.395 -58.053 -21.700  1.00  0.00     0.024 C 
BRANCH   3   4
ATOM      4  C   UNL     1      10.522 -57.157 -22.579  1.00  0.00     0.143 C 
BRANCH   4   5
ATOM      5  N   UNL     1      11.378 -56.359 -23.442  1.00  0.00    -0.281 NA
BRANCH   5   6
ATOM      6  C   UNL     1      11.285 -55.079 -23.513  1.00  0.00     0.109 C 
ATOM      7  C   UNL     1      10.841 -52.852 -22.584  1.00  0.00     0.125 C 
ATOM      8  C   UNL     1      10.598 -54.167 -22.567  1.00  0.00     0.078 C 
ATOM      9  C   UNL     1      11.826 -52.240 -23.496  1.00  0.00     0.028 A 
ATOM     10  C   UNL     1      12.287 -50.923 -23.337  1.00  0.00     0.013 A 
ATOM     11  C   UNL     1      12.337 -52.987 -24.567  1.00  0.00     0.035 A 
ATOM     12  C   UNL     1      11.933 -54.398 -24.718  1.00  0.00     0.211 C 
ATOM     13  C   UNL     1      13.190 -50.364 -24.248  1.00  0.00     0.001 A 
ATOM     14  C   UNL     1      13.230 -52.426 -25.490  1.00  0.00     0.013 A 
ATOM     15  C   UNL     1      13.652 -51.110 -25.329  1.00  0.00     0.001 A 
ATOM     16  O   UNL     1      12.103 -55.003 -25.766  1.00  0.00    -0.287 OA
BRANCH   7  17
ATOM     17  O   UNL     1      10.130 -52.035 -21.728  1.00  0.00    -0.507 OA
ATOM     18  H   UNL     1       9.807 -52.566 -20.979  1.00  0.00     0.293 HD
ENDBRANCH   7  17
ENDBRANCH   5   6
ENDBRANCH   4   5
ENDBRANCH   3   4
ENDBRANCH   2   3
ENDBRANCH   1   2
BRANCH   1  19
ATOM     19  C   UNL     1      11.998 -60.179 -23.358  1.00  0.00     0.061 C 
BRANCH  19  20
ATOM     20  C   UNL     1      11.774 -60.880 -24.700  1.00  0.00     0.262 C 
BRANCH  20  21
ATOM     21  N   UNL     1      11.110 -60.008 -25.743  1.00  0.00    -0.331 N 
ATOM     22  H   UNL     1      10.714 -59.231 -25.199  1.00  0.00     0.348 HD
BRANCH  21  23
ATOM     23  C   UNL     1      12.058 -59.292 -26.685  1.00  0.00     0.259 C 
ATOM     24  C   UNL     1      11.738 -59.492 -28.151  1.00  0.00     0.071 C 
ENDBRANCH  21  23
BRANCH  21  25
ATOM     25  C   UNL     1       9.885 -60.614 -26.405  1.00  0.00     0.302 C 
BRANCH  25  26
ATOM     26  C   UNL     1       8.900 -61.199 -25.425  1.00  0.00     0.048 A 
ATOM     27  C   UNL     1       8.733 -62.595 -25.366  1.00  0.00     0.013 A 
ATOM     28  C   UNL     1       8.155 -60.378 -24.558  1.00  0.00     0.127 A 
ATOM     29  C   UNL     1       7.839 -63.163 -24.460  1.00  0.00     0.001 A 
ATOM     30  C   UNL     1       7.264 -60.959 -23.651  1.00  0.00     0.047 A 
ATOM     31  C   UNL     1       7.108 -62.346 -23.604  1.00  0.00     0.004 A 
BRANCH  28  32
ATOM     32  O   UNL     1       8.393 -59.033 -24.663  1.00  0.00    -0.496 OA
ATOM     33  C   UNL     1       7.454 -58.156 -24.042  1.00  0.00     0.278 C 
ENDBRANCH  28  32
ENDBRANCH  25  26
ENDBRANCH  21  25
ENDBRANCH  20  21
ENDBRANCH  19  20
ENDBRANCH   1  19
TORSDOF 13
ENDMDL
MODEL 2
REMARK VINA RESULT:   -10.314      1.355      2.720
REMARK INTER + INTRA:         -19.537
REMARK INTER:                 -18.155
REMARK INTRA:                  -1.383
REMARK UNBOUND:                -1.687
REMARK SMILES CC[N@H+](CCCCCCN=C1C=C(O)c2ccccc2C1=O)Cc1ccccc1OC
REMARK SMILES IDX 6 1 7 2 8 3 9 4 10 5 11 6 13 7 12 8 15 9 16 10 20 11 21 12
REMARK SMILES IDX 17 13 19 14 18 15 22 16 14 17 5 19 4 20 3 21 2 23 1 24 23 25
REMARK SMILES IDX 24 26 25 27 29 28 26 29 28 30 27 31 30 32 31 33
REMARK H PARENT 14 18 3 22
ROOT
ATOM      1  C   UNL     1      10.635 -60.093 -21.222  1.00  0.00     0.006 C 
ENDROOT
BRANCH   1   2
ATOM      2  C   UNL     1      11.424 -59.090 -22.066  1.00  0.00     0.002 C 
BRANCH   2   3
ATOM      3  C   UNL     1      11.172 -57.632 -21.671  1.00  0.00     0.024 C 
BRANCH   3   4
ATOM      4  C   UNL     1      10.417 -56.833 -22.733  1.00  0.00     0.143 C 
BRANCH   4   5
ATOM      5  N   UNL     1      11.375 -56.124 -23.565  1.00  0.00    -0.281 NA
BRANCH   5   6
ATOM      6  C   UNL     1      11.382 -54.843 -23.670  1.00  0.00     0.109 C 
ATOM      7  C   UNL     1      11.159 -52.563 -22.792  1.00  0.00     0.125 C 
ATOM      8  C   UNL     1      10.812 -53.853 -22.726  1.00  0.00     0.078 C 
ATOM      9  C   UNL     1      12.151 -52.058 -23.760  1.00  0.00     0.028 A 
ATOM     10  C   UNL     1      12.723 -50.780 -23.659  1.00  0.00     0.013 A 
ATOM     11  C   UNL     1      12.554 -52.872 -24.828  1.00  0.00     0.035 A 
ATOM     12  C   UNL     1      12.032 -54.250 -24.921  1.00  0.00     0.211 C 
ATOM     13  C   UNL     1      13.629 -50.320 -24.622  1.00  0.00     0.001 A 
ATOM     14  C   UNL     1      13.449 -52.412 -25.802  1.00  0.00     0.013 A 
ATOM     15  C   UNL     1      13.983 -51.130 -25.697  1.00  0.00     0.001 A 
ATOM     16  O   UNL     1      12.108 -54.894 -25.956  1.00  0.00    -0.287 OA
BRANCH   7  17
ATOM     17  O   UNL     1      10.554 -51.668 -21.932  1.00  0.00    -0.507 OA
ATOM     18  H   UNL     1       9.702 -51.390 -22.313  1.00  0.00     0.293 HD
ENDBRANCH   7  17
ENDBRANCH   5   6
ENDBRANCH   4   5
ENDBRANCH   3   4
ENDBRANCH   2   3
ENDBRANCH   1   2
BRANCH   1  19
ATOM     19  C   UNL     1       9.771 -61.039 -22.068  1.00  0.00     0.061 C 
BRANCH  19  20
ATOM     20  C   UNL     1       8.457 -60.400 -22.521  1.00  0.00     0.262 C 
BRANCH  20  21
ATOM     21  N   UNL     1       8.375 -60.158 -24.013  1.00  0.00    -0.331 N 
ATOM     22  H   UNL     1       7.603 -60.764 -24.318  1.00  0.00     0.348 HD
BRANCH  21  23
ATOM     23  C   UNL     1       7.886 -58.782 -24.418  1.00  0.00     0.259 C 
ATOM     24  C   UNL     1       6.815 -58.216 -23.508  1.00  0.00     0.071 C 
ENDBRANCH  21  23
BRANCH  21  25
ATOM     25  C   UNL     1       9.552 -60.683 -24.816  1.00  0.00     0.302 C 
BRANCH  25  26
ATOM     26  C   UNL     1       9.145 -61.518 -26.004  1.00  0.00     0.048 A 
ATOM     27  C   UNL     1       8.327 -62.645 -25.806  1.00  0.00     0.013 A 
ATOM     28  C   UNL     1       9.557 -61.184 -27.308  1.00  0.00     0.127 A 
ATOM     29  C   UNL     1       7.925 -63.426 -26.887  1.00  0.00     0.001 A 
ATOM     30  C   UNL     1       9.144 -61.973 -28.385  1.00  0.00     0.047 A 
ATOM     31  C   UNL     1       8.332 -63.089 -28.174  1.00  0.00     0.004 A 
BRANCH  28  32
ATOM     32  O   UNL     1      10.332 -60.060 -27.417  1.00  0.00    -0.496 OA
ATOM     33  C   UNL     1      11.402 -60.098 -28.361  1.00  0.00     0.278 C 
ENDBRANCH  28  32
ENDBRANCH  25  26
ENDBRANCH  21  25
ENDBRANCH  20  21
ENDBRANCH  19  20
ENDBRANCH   1  19
TORSDOF 13
ENDMDL
MODEL 3
REMARK VINA RESULT:   -10.049      1.299      3.372
REMARK INTER + INTRA:         -19.080
REMARK INTER:                 -17.193
REMARK INTRA:                  -1.887
REMARK UNBOUND:                -1.687
REMARK SMILES CC[N@H+](CCCCCCN=C1C=C(O)c2ccccc2C1=O)Cc1ccccc1OC
REMARK SMILES IDX 6 1 7 2 8 3 9 4 10 5 11 6 13 7 12 8 15 9 16 10 20 11 21 12
REMARK SMILES IDX 17 13 19 14 18 15 22 16 14 17 5 19 4 20 3 21 2 23 1 24 23 25
REMARK SMILES IDX 24 26 25 27 29 28 26 29 28 30 27 31 30 32 31 33
REMARK H PARENT 14 18 3 22
ROOT
ATOM      1  C   UNL     1       8.247 -59.254 -22.732  1.00  0.00     0.006 C 
ENDROOT
BRANCH   1   2
ATOM      2  C   UNL     1       9.394 -58.334 -23.158  1.00  0.00     0.002 C 
BRANCH   2   3
ATOM      3  C   UNL     1      10.551 -58.302 -22.155  1.00  0.00     0.024 C 
BRANCH   3   4
ATOM      4  C   UNL     1      11.363 -57.008 -22.202  1.00  0.00     0.143 C 
BRANCH   4   5
ATOM      5  N   UNL     1      11.041 -56.288 -23.423  1.00  0.00    -0.281 NA
BRANCH   5   6
ATOM      6  C   UNL     1      10.988 -55.004 -23.474  1.00  0.00     0.109 C 
ATOM      7  C   UNL     1      10.487 -52.786 -22.554  1.00  0.00     0.125 C 
ATOM      8  C   UNL     1      10.212 -54.094 -22.598  1.00  0.00     0.078 C 
ATOM      9  C   UNL     1      11.591 -52.182 -23.322  1.00  0.00     0.028 A 
ATOM     10  C   UNL     1      12.060 -50.881 -23.076  1.00  0.00     0.013 A 
ATOM     11  C   UNL     1      12.212 -52.920 -24.341  1.00  0.00     0.035 A 
ATOM     12  C   UNL     1      11.796 -54.316 -24.574  1.00  0.00     0.211 C 
ATOM     13  C   UNL     1      13.082 -50.327 -23.856  1.00  0.00     0.001 A 
ATOM     14  C   UNL     1      13.225 -52.364 -25.133  1.00  0.00     0.013 A 
ATOM     15  C   UNL     1      13.656 -51.063 -24.890  1.00  0.00     0.001 A 
ATOM     16  O   UNL     1      12.080 -54.904 -25.607  1.00  0.00    -0.287 OA
BRANCH   7  17
ATOM     17  O   UNL     1       9.696 -51.968 -21.771  1.00  0.00    -0.507 OA
ATOM     18  H   UNL     1       9.127 -52.522 -21.208  1.00  0.00     0.293 HD
ENDBRANCH   7  17
ENDBRANCH   5   6
ENDBRANCH   4   5
ENDBRANCH   3   4
ENDBRANCH   2   3
ENDBRANCH   1   2
BRANCH   1  19
ATOM     19  C   UNL     1       7.277 -59.572 -23.879  1.00  0.00     0.061 C 
BRANCH  19  20
ATOM     20  C   UNL     1       6.931 -61.059 -23.971  1.00  0.00     0.262 C 
BRANCH  20  21
ATOM     21  N   UNL     1       8.095 -61.935 -24.380  1.00  0.00    -0.331 N 
ATOM     22  H   UNL     1       8.782 -61.800 -23.628  1.00  0.00     0.348 HD
BRANCH  21  23
ATOM     23  C   UNL     1       7.836 -63.427 -24.316  1.00  0.00     0.259 C 
ATOM     24  C   UNL     1       8.053 -64.032 -22.944  1.00  0.00     0.071 C 
ENDBRANCH  21  23
BRANCH  21  25
ATOM     25  C   UNL     1       8.850 -61.469 -25.612  1.00  0.00     0.302 C 
BRANCH  25  26
ATOM     26  C   UNL     1      10.283 -61.090 -25.333  1.00  0.00     0.048 A 
ATOM     27  C   UNL     1      10.860 -61.442 -24.099  1.00  0.00     0.013 A 
ATOM     28  C   UNL     1      11.057 -60.404 -26.287  1.00  0.00     0.127 A 
ATOM     29  C   UNL     1      12.186 -61.116 -23.819  1.00  0.00     0.001 A 
ATOM     30  C   UNL     1      12.387 -60.086 -25.997  1.00  0.00     0.047 A 
ATOM     31  C   UNL     1      12.947 -60.441 -24.768  1.00  0.00     0.004 A 
BRANCH  28  32
ATOM     32  O   UNL     1      10.429 -60.119 -27.470  1.00  0.00    -0.496 OA
ATOM     33  C   UNL     1      11.238 -60.078 -28.643  1.00  0.00     0.278 C 
ENDBRANCH  28  32
ENDBRANCH  25  26
ENDBRANCH  21  25
ENDBRANCH  20  21
ENDBRANCH  19  20
ENDBRANCH   1  19
TORSDOF 13
ENDMDL
MODEL 4
REMARK VINA RESULT:    -9.998      1.574      2.884
REMARK INTER + INTRA:         -18.991
REMARK INTER:                 -17.735
REMARK INTRA:                  -1.257
REMARK UNBOUND:                -1.687
REMARK SMILES CC[N@H+](CCCCCCN=C1C=C(O)c2ccccc2C1=O)Cc1ccccc1OC
REMARK SMILES IDX 6 1 7 2 8 3 9 4 10 5 11 6 13 7 12 8 15 9 16 10 20 11 21 12
REMARK SMILES IDX 17 13 19 14 18 15 22 16 14 17 5 19 4 20 3 21 2 23 1 24 23 25
REMARK SMILES IDX 24 26 25 27 29 28 26 29 28 30 27 31 30 32 31 33
REMARK H PARENT 14 18 3 22
ROOT
ATOM      1  C   UNL     1      11.264 -58.139 -21.045  1.00  0.00     0.006 C 
ENDROOT
BRANCH   1   2
ATOM      2  C   UNL     1      11.379 -57.040 -22.103  1.00  0.00     0.002 C 
BRANCH   2   3
ATOM      3  C   UNL     1      10.997 -55.652 -21.582  1.00  0.00     0.024 C 
BRANCH   3   4
ATOM      4  C   UNL     1       9.770 -55.056 -22.272  1.00  0.00     0.143 C 
BRANCH   4   5
ATOM      5  N   UNL     1      10.072 -53.696 -22.687  1.00  0.00    -0.281 NA
BRANCH   5   6
ATOM      6  C   UNL     1      11.126 -53.397 -23.360  1.00  0.00     0.109 C 
ATOM      7  C   UNL     1      12.691 -53.669 -25.229  1.00  0.00     0.125 C 
ATOM      8  C   UNL     1      11.804 -54.217 -24.392  1.00  0.00     0.078 C 
ATOM      9  C   UNL     1      13.012 -52.229 -25.213  1.00  0.00     0.028 A 
ATOM     10  C   UNL     1      13.719 -51.601 -26.250  1.00  0.00     0.013 A 
ATOM     11  C   UNL     1      12.599 -51.440 -24.130  1.00  0.00     0.035 A 
ATOM     12  C   UNL     1      11.786 -52.051 -23.061  1.00  0.00     0.211 C 
ATOM     13  C   UNL     1      14.041 -50.241 -26.178  1.00  0.00     0.001 A 
ATOM     14  C   UNL     1      12.931 -50.081 -24.047  1.00  0.00     0.013 A 
ATOM     15  C   UNL     1      13.658 -49.485 -25.074  1.00  0.00     0.001 A 
ATOM     16  O   UNL     1      11.647 -51.510 -21.975  1.00  0.00    -0.287 OA
BRANCH   7  17
ATOM     17  O   UNL     1      13.344 -54.486 -26.132  1.00  0.00    -0.507 OA
ATOM     18  H   UNL     1      13.065 -54.248 -27.033  1.00  0.00     0.293 HD
ENDBRANCH   7  17
ENDBRANCH   5   6
ENDBRANCH   4   5
ENDBRANCH   3   4
ENDBRANCH   2   3
ENDBRANCH   1   2
BRANCH   1  19
ATOM     19  C   UNL     1      10.994 -59.526 -21.648  1.00  0.00     0.061 C 
BRANCH  19  20
ATOM     20  C   UNL     1      10.226 -59.461 -22.969  1.00  0.00     0.262 C 
BRANCH  20  21
ATOM     21  N   UNL     1      10.899 -60.199 -24.106  1.00  0.00    -0.331 N 
ATOM     22  H   UNL     1      10.206 -60.169 -24.864  1.00  0.00     0.348 HD
BRANCH  21  23
ATOM     23  C   UNL     1      12.086 -59.489 -24.726  1.00  0.00     0.259 C 
ATOM     24  C   UNL     1      12.057 -59.446 -26.240  1.00  0.00     0.071 C 
ENDBRANCH  21  23
BRANCH  21  25
ATOM     25  C   UNL     1      11.089 -61.689 -23.883  1.00  0.00     0.302 C 
BRANCH  25  26
ATOM     26  C   UNL     1       9.799 -62.470 -23.906  1.00  0.00     0.048 A 
ATOM     27  C   UNL     1       9.439 -63.239 -22.784  1.00  0.00     0.013 A 
ATOM     28  C   UNL     1       8.941 -62.432 -25.021  1.00  0.00     0.127 A 
ATOM     29  C   UNL     1       8.246 -63.959 -22.773  1.00  0.00     0.001 A 
ATOM     30  C   UNL     1       7.745 -63.155 -24.997  1.00  0.00     0.047 A 
ATOM     31  C   UNL     1       7.401 -63.915 -23.877  1.00  0.00     0.004 A 
BRANCH  28  32
ATOM     32  O   UNL     1       9.353 -61.643 -26.062  1.00  0.00    -0.496 OA
ATOM     33  C   UNL     1       9.160 -62.152 -27.381  1.00  0.00     0.278 C 
ENDBRANCH  28  32
ENDBRANCH  25  26
ENDBRANCH  21  25
ENDBRANCH  20  21
ENDBRANCH  19  20
ENDBRANCH   1  19
TORSDOF 13
ENDMDL
MODEL 5
REMARK VINA RESULT:    -9.935      1.400      3.103
REMARK INTER + INTRA:         -18.882
REMARK INTER:                 -17.209
REMARK INTRA:                  -1.673
REMARK UNBOUND:                -1.687
REMARK SMILES CC[N@H+](CCCCCCN=C1C=C(O)c2ccccc2C1=O)Cc1ccccc1OC
REMARK SMILES IDX 6 1 7 2 8 3 9 4 10 5 11 6 13 7 12 8 15 9 16 10 20 11 21 12
REMARK SMILES IDX 17 13 19 14 18 15 22 16 14 17 5 19 4 20 3 21 2 23 1 24 23 25
REMARK SMILES IDX 24 26 25 27 29 28 26 29 28 30 27 31 30 32 31 33
REMARK H PARENT 14 18 3 22
ROOT
ATOM      1  C   UNL     1      10.649 -59.616 -21.300  1.00  0.00     0.006 C 
ENDROOT
BRANCH   1   2
ATOM      2  C   UNL     1      11.789 -58.973 -22.092  1.00  0.00     0.002 C 
BRANCH   2   3
ATOM      3  C   UNL     1      11.353 -57.748 -22.901  1.00  0.00     0.024 C 
BRANCH   3   4
ATOM      4  C   UNL     1      11.107 -56.507 -22.044  1.00  0.00     0.143 C 
BRANCH   4   5
ATOM      5  N   UNL     1      10.190 -55.621 -22.743  1.00  0.00    -0.281 NA
BRANCH   5   6
ATOM      6  C   UNL     1      10.466 -54.388 -22.980  1.00  0.00     0.109 C 
ATOM      7  C   UNL     1      10.557 -52.005 -22.404  1.00  0.00     0.125 C 
ATOM      8  C   UNL     1       9.957 -53.192 -22.267  1.00  0.00     0.078 C 
ATOM      9  C   UNL     1      11.772 -51.820 -23.220  1.00  0.00     0.028 A 
ATOM     10  C   UNL     1      12.560 -50.661 -23.150  1.00  0.00     0.013 A 
ATOM     11  C   UNL     1      12.174 -52.833 -24.103  1.00  0.00     0.035 A 
ATOM     12  C   UNL     1      11.413 -54.097 -24.144  1.00  0.00     0.211 C 
ATOM     13  C   UNL     1      13.682 -50.505 -23.972  1.00  0.00     0.001 A 
ATOM     14  C   UNL     1      13.288 -52.676 -24.938  1.00  0.00     0.013 A 
ATOM     15  C   UNL     1      14.039 -51.505 -24.872  1.00  0.00     0.001 A 
ATOM     16  O   UNL     1      11.527 -54.882 -25.073  1.00  0.00    -0.287 OA
BRANCH   7  17
ATOM     17  O   UNL     1      10.008 -50.908 -21.770  1.00  0.00    -0.507 OA
ATOM     18  H   UNL     1       9.275 -51.203 -21.203  1.00  0.00     0.293 HD
ENDBRANCH   7  17
ENDBRANCH   5   6
ENDBRANCH   4   5
ENDBRANCH   3   4
ENDBRANCH   2   3
ENDBRANCH   1   2
BRANCH   1  19
ATOM     19  C   UNL     1      10.052 -60.846 -21.998  1.00  0.00     0.061 C 
BRANCH  19  20
ATOM     20  C   UNL     1       8.652 -60.591 -22.560  1.00  0.00     0.262 C 
BRANCH  20  21
ATOM     21  N   UNL     1       8.584 -60.620 -24.072  1.00  0.00    -0.331 N 
ATOM     22  H   UNL     1       7.663 -61.031 -24.269  1.00  0.00     0.348 HD
BRANCH  21  23
ATOM     23  C   UNL     1       8.483 -59.264 -24.741  1.00  0.00     0.259 C 
ATOM     24  C   UNL     1       7.794 -58.211 -23.898  1.00  0.00     0.071 C 
ENDBRANCH  21  23
BRANCH  21  25
ATOM     25  C   UNL     1       9.537 -61.595 -24.741  1.00  0.00     0.302 C 
BRANCH  25  26
ATOM     26  C   UNL     1      10.475 -60.942 -25.724  1.00  0.00     0.048 A 
ATOM     27  C   UNL     1      11.738 -60.505 -25.286  1.00  0.00     0.013 A 
ATOM     28  C   UNL     1      10.116 -60.772 -27.075  1.00  0.00     0.127 A 
ATOM     29  C   UNL     1      12.629 -59.909 -26.177  1.00  0.00     0.001 A 
ATOM     30  C   UNL     1      11.019 -60.177 -27.960  1.00  0.00     0.047 A 
ATOM     31  C   UNL     1      12.270 -59.748 -27.511  1.00  0.00     0.004 A 
BRANCH  28  32
ATOM     32  O   UNL     1       8.879 -61.244 -27.425  1.00  0.00    -0.496 OA
ATOM     33  C   UNL     1       8.832 -62.290 -28.394  1.00  0.00     0.278 C 
ENDBRANCH  28  32
ENDBRANCH  25  26
ENDBRANCH  21  25
ENDBRANCH  20  21
ENDBRANCH  19  20
ENDBRANCH   1  19
TORSDOF 13
ENDMDL
MODEL 6
REMARK VINA RESULT:    -9.731      1.285      2.026
REMARK INTER + INTRA:         -18.529
REMARK INTER:                 -16.962
REMARK INTRA:                  -1.567
REMARK UNBOUND:                -1.687
REMARK SMILES CC[N@H+](CCCCCCN=C1C=C(O)c2ccccc2C1=O)Cc1ccccc1OC
REMARK SMILES IDX 6 1 7 2 8 3 9 4 10 5 11 6 13 7 12 8 15 9 16 10 20 11 21 12
REMARK SMILES IDX 17 13 19 14 18 15 22 16 14 17 5 19 4 20 3 21 2 23 1 24 23 25
REMARK SMILES IDX 24 26 25 27 29 28 26 29 28 30 27 31 30 32 31 33
REMARK H PARENT 14 18 3 22
ROOT
ATOM      1  C   UNL     1      11.833 -59.458 -22.443  1.00  0.00     0.006 C 
ENDROOT
BRANCH   1   2
ATOM      2  C   UNL     1      10.631 -58.672 -21.913  1.00  0.00     0.002 C 
BRANCH   2   3
ATOM      3  C   UNL     1      10.456 -57.306 -22.581  1.00  0.00     0.024 C 
BRANCH   3   4
ATOM      4  C   UNL     1      11.252 -56.189 -21.905  1.00  0.00     0.143 C 
BRANCH   4   5
ATOM      5  N   UNL     1      10.431 -54.992 -21.840  1.00  0.00    -0.281 NA
BRANCH   5   6
ATOM      6  C   UNL     1      10.846 -53.846 -22.251  1.00  0.00     0.109 C 
ATOM      7  C   UNL     1      11.674 -51.560 -21.923  1.00  0.00     0.125 C 
ATOM      8  C   UNL     1      10.941 -52.586 -21.477  1.00  0.00     0.078 C 
ATOM      9  C   UNL     1      12.462 -51.632 -23.168  1.00  0.00     0.028 A 
ATOM     10  C   UNL     1      13.440 -50.681 -23.499  1.00  0.00     0.013 A 
ATOM     11  C   UNL     1      12.242 -52.686 -24.067  1.00  0.00     0.035 A 
ATOM     12  C   UNL     1      11.278 -53.745 -23.714  1.00  0.00     0.211 C 
ATOM     13  C   UNL     1      14.137 -50.760 -24.711  1.00  0.00     0.001 A 
ATOM     14  C   UNL     1      12.927 -52.761 -25.287  1.00  0.00     0.013 A 
ATOM     15  C   UNL     1      13.873 -51.792 -25.608  1.00  0.00     0.001 A 
ATOM     16  O   UNL     1      10.833 -54.511 -24.555  1.00  0.00    -0.287 OA
BRANCH   7  17
ATOM     17  O   UNL     1      11.681 -50.385 -21.199  1.00  0.00    -0.507 OA
ATOM     18  H   UNL     1      11.022 -50.449 -20.485  1.00  0.00     0.293 HD
ENDBRANCH   7  17
ENDBRANCH   5   6
ENDBRANCH   4   5
ENDBRANCH   3   4
ENDBRANCH   2   3
ENDBRANCH   1   2
BRANCH   1  19
ATOM     19  C   UNL     1      12.174 -59.120 -23.902  1.00  0.00     0.061 C 
BRANCH  19  20
ATOM     20  C   UNL     1      11.730 -60.205 -24.884  1.00  0.00     0.262 C 
BRANCH  20  21
ATOM     21  N   UNL     1      10.858 -59.693 -26.010  1.00  0.00    -0.331 N 
ATOM     22  H   UNL     1      10.523 -58.784 -25.668  1.00  0.00     0.348 HD
BRANCH  21  23
ATOM     23  C   UNL     1      11.598 -59.308 -27.275  1.00  0.00     0.259 C 
ATOM     24  C   UNL     1      11.302 -60.205 -28.460  1.00  0.00     0.071 C 
ENDBRANCH  21  23
BRANCH  21  25
ATOM     25  C   UNL     1       9.570 -60.466 -26.230  1.00  0.00     0.302 C 
BRANCH  25  26
ATOM     26  C   UNL     1       8.559 -60.276 -25.128  1.00  0.00     0.048 A 
ATOM     27  C   UNL     1       8.191 -58.972 -24.749  1.00  0.00     0.013 A 
ATOM     28  C   UNL     1       7.966 -61.377 -24.482  1.00  0.00     0.127 A 
ATOM     29  C   UNL     1       7.248 -58.768 -23.743  1.00  0.00     0.001 A 
ATOM     30  C   UNL     1       7.020 -61.159 -23.476  1.00  0.00     0.047 A 
ATOM     31  C   UNL     1       6.664 -59.859 -23.109  1.00  0.00     0.004 A 
BRANCH  28  32
ATOM     32  O   UNL     1       8.362 -62.611 -24.925  1.00  0.00    -0.496 OA
ATOM     33  C   UNL     1       7.342 -63.494 -25.387  1.00  0.00     0.278 C 
ENDBRANCH  28  32
ENDBRANCH  25  26
ENDBRANCH  21  25
ENDBRANCH  20  21
ENDBRANCH  19  20
ENDBRANCH   1  19
TORSDOF 13
ENDMDL
MODEL 7
REMARK VINA RESULT:    -9.410      1.330      3.283
REMARK INTER + INTRA:         -17.973
REMARK INTER:                 -16.394
REMARK INTRA:                  -1.578
REMARK UNBOUND:                -1.687
REMARK SMILES CC[N@H+](CCCCCCN=C1C=C(O)c2ccccc2C1=O)Cc1ccccc1OC
REMARK SMILES IDX 6 1 7 2 8 3 9 4 10 5 11 6 13 7 12 8 15 9 16 10 20 11 21 12
REMARK SMILES IDX 17 13 19 14 18 15 22 16 14 17 5 19 4 20 3 21 2 23 1 24 23 25
REMARK SMILES IDX 24 26 25 27 29 28 26 29 28 30 27 31 30 32 31 33
REMARK H PARENT 14 18 3 22
ROOT
ATOM      1  C   UNL     1       7.666 -57.906 -23.538  1.00  0.00     0.006 C 
ENDROOT
BRANCH   1   2
ATOM      2  C   UNL     1       8.880 -57.009 -23.290  1.00  0.00     0.002 C 
BRANCH   2   3
ATOM      3  C   UNL     1      10.049 -57.738 -22.623  1.00  0.00     0.024 C 
BRANCH   3   4
ATOM      4  C   UNL     1      11.360 -56.953 -22.659  1.00  0.00     0.143 C 
BRANCH   4   5
ATOM      5  N   UNL     1      11.423 -56.190 -23.895  1.00  0.00    -0.281 NA
BRANCH   5   6
ATOM      6  C   UNL     1      11.469 -54.906 -23.912  1.00  0.00     0.109 C 
ATOM      7  C   UNL     1      11.338 -52.687 -22.874  1.00  0.00     0.125 C 
ATOM      8  C   UNL     1      10.952 -53.967 -22.888  1.00  0.00     0.078 C 
ATOM      9  C   UNL     1      12.323 -52.145 -23.828  1.00  0.00     0.028 A 
ATOM     10  C   UNL     1      12.938 -50.895 -23.654  1.00  0.00     0.013 A 
ATOM     11  C   UNL     1      12.677 -52.895 -24.960  1.00  0.00     0.035 A 
ATOM     12  C   UNL     1      12.109 -54.247 -25.134  1.00  0.00     0.211 C 
ATOM     13  C   UNL     1      13.836 -50.397 -24.604  1.00  0.00     0.001 A 
ATOM     14  C   UNL     1      13.564 -52.395 -25.921  1.00  0.00     0.013 A 
ATOM     15  C   UNL     1      14.140 -51.141 -25.742  1.00  0.00     0.001 A 
ATOM     16  O   UNL     1      12.142 -54.820 -26.213  1.00  0.00    -0.287 OA
BRANCH   7  17
ATOM     17  O   UNL     1      10.780 -51.836 -21.940  1.00  0.00    -0.507 OA
ATOM     18  H   UNL     1      10.067 -51.326 -22.362  1.00  0.00     0.293 HD
ENDBRANCH   7  17
ENDBRANCH   5   6
ENDBRANCH   4   5
ENDBRANCH   3   4
ENDBRANCH   2   3
ENDBRANCH   1   2
BRANCH   1  19
ATOM     19  C   UNL     1       7.986 -59.116 -24.428  1.00  0.00     0.061 C 
BRANCH  19  20
ATOM     20  C   UNL     1       7.761 -60.453 -23.719  1.00  0.00     0.262 C 
BRANCH  20  21
ATOM     21  N   UNL     1       9.031 -61.241 -23.478  1.00  0.00    -0.331 N 
ATOM     22  H   UNL     1       9.775 -60.536 -23.552  1.00  0.00     0.348 HD
BRANCH  21  23
ATOM     23  C   UNL     1       9.213 -61.756 -22.065  1.00  0.00     0.259 C 
ATOM     24  C   UNL     1       9.918 -60.785 -21.141  1.00  0.00     0.071 C 
ENDBRANCH  21  23
BRANCH  21  25
ATOM     25  C   UNL     1       9.393 -62.228 -24.573  1.00  0.00     0.302 C 
BRANCH  25  26
ATOM     26  C   UNL     1       9.965 -61.576 -25.806  1.00  0.00     0.048 A 
ATOM     27  C   UNL     1       9.414 -61.878 -27.065  1.00  0.00     0.013 A 
ATOM     28  C   UNL     1      11.031 -60.660 -25.721  1.00  0.00     0.127 A 
ATOM     29  C   UNL     1       9.915 -61.279 -28.219  1.00  0.00     0.001 A 
ATOM     30  C   UNL     1      11.523 -60.063 -26.885  1.00  0.00     0.047 A 
ATOM     31  C   UNL     1      10.966 -60.372 -28.128  1.00  0.00     0.004 A 
BRANCH  28  32
ATOM     32  O   UNL     1      11.496 -60.404 -24.458  1.00  0.00    -0.496 OA
ATOM     33  C   UNL     1      12.905 -60.486 -24.255  1.00  0.00     0.278 C 
ENDBRANCH  28  32
ENDBRANCH  25  26
ENDBRANCH  21  25
ENDBRANCH  20  21
ENDBRANCH  19  20
ENDBRANCH   1  19
TORSDOF 13
ENDMDL
MODEL 8
REMARK VINA RESULT:    -9.391      1.872      3.293
REMARK INTER + INTRA:         -17.941
REMARK INTER:                 -16.668
REMARK INTRA:                  -1.273
REMARK UNBOUND:                -1.687
REMARK SMILES CC[N@H+](CCCCCCN=C1C=C(O)c2ccccc2C1=O)Cc1ccccc1OC
REMARK SMILES IDX 6 1 7 2 8 3 9 4 10 5 11 6 13 7 12 8 15 9 16 10 20 11 21 12
REMARK SMILES IDX 17 13 19 14 18 15 22 16 14 17 5 19 4 20 3 21 2 23 1 24 23 25
REMARK SMILES IDX 24 26 25 27 29 28 26 29 28 30 27 31 30 32 31 33
REMARK H PARENT 14 18 3 22
ROOT
ATOM      1  C   UNL     1      11.110 -57.443 -21.942  1.00  0.00     0.006 C 
ENDROOT
BRANCH   1   2
ATOM      2  C   UNL     1       9.994 -56.988 -22.884  1.00  0.00     0.002 C 
BRANCH   2   3
ATOM      3  C   UNL     1       9.927 -55.468 -23.057  1.00  0.00     0.024 C 
BRANCH   3   4
ATOM      4  C   UNL     1      10.410 -54.692 -21.831  1.00  0.00     0.143 C 
BRANCH   4   5
ATOM      5  N   UNL     1      11.391 -53.704 -22.251  1.00  0.00    -0.281 NA
BRANCH   5   6
ATOM      6  C   UNL     1      11.073 -52.488 -22.523  1.00  0.00     0.109 C 
ATOM      7  C   UNL     1       9.892 -50.378 -22.107  1.00  0.00     0.125 C 
ATOM      8  C   UNL     1       9.929 -51.710 -21.991  1.00  0.00     0.078 C 
ATOM      9  C   UNL     1      10.991 -49.605 -22.718  1.00  0.00     0.028 A 
ATOM     10  C   UNL     1      11.091 -48.210 -22.598  1.00  0.00     0.013 A 
ATOM     11  C   UNL     1      11.985 -50.273 -23.448  1.00  0.00     0.035 A 
ATOM     12  C   UNL     1      11.953 -51.746 -23.529  1.00  0.00     0.211 C 
ATOM     13  C   UNL     1      12.124 -47.508 -23.228  1.00  0.00     0.001 A 
ATOM     14  C   UNL     1      13.013 -49.573 -24.093  1.00  0.00     0.013 A 
ATOM     15  C   UNL     1      13.078 -48.186 -23.984  1.00  0.00     0.001 A 
ATOM     16  O   UNL     1      12.599 -52.354 -24.369  1.00  0.00    -0.287 OA
BRANCH   7  17
ATOM     17  O   UNL     1       8.777 -49.703 -21.653  1.00  0.00    -0.507 OA
ATOM     18  H   UNL     1       8.005 -50.293 -21.710  1.00  0.00     0.293 HD
ENDBRANCH   7  17
ENDBRANCH   5   6
ENDBRANCH   4   5
ENDBRANCH   3   4
ENDBRANCH   2   3
ENDBRANCH   1   2
BRANCH   1  19
ATOM     19  C   UNL     1      11.636 -58.848 -22.269  1.00  0.00     0.061 C 
BRANCH  19  20
ATOM     20  C   UNL     1      11.632 -59.151 -23.769  1.00  0.00     0.262 C 
BRANCH  20  21
ATOM     21  N   UNL     1      10.907 -60.428 -24.135  1.00  0.00    -0.331 N 
ATOM     22  H   UNL     1      11.449 -60.800 -24.925  1.00  0.00     0.348 HD
BRANCH  21  23
ATOM     23  C   UNL     1      11.013 -61.545 -23.116  1.00  0.00     0.259 C 
ATOM     24  C   UNL     1       9.750 -61.769 -22.312  1.00  0.00     0.071 C 
ENDBRANCH  21  23
BRANCH  21  25
ATOM     25  C   UNL     1       9.526 -60.236 -24.735  1.00  0.00     0.302 C 
BRANCH  25  26
ATOM     26  C   UNL     1       9.263 -61.115 -25.932  1.00  0.00     0.048 A 
ATOM     27  C   UNL     1       8.493 -62.282 -25.775  1.00  0.00     0.013 A 
ATOM     28  C   UNL     1       9.761 -60.782 -27.206  1.00  0.00     0.127 A 
ATOM     29  C   UNL     1       8.224 -63.104 -26.868  1.00  0.00     0.001 A 
ATOM     30  C   UNL     1       9.482 -61.612 -28.295  1.00  0.00     0.047 A 
ATOM     31  C   UNL     1       8.716 -62.768 -28.124  1.00  0.00     0.004 A 
BRANCH  28  32
ATOM     32  O   UNL     1      10.482 -59.620 -27.278  1.00  0.00    -0.496 OA
ATOM     33  C   UNL     1      11.844 -59.723 -27.688  1.00  0.00     0.278 C 
ENDBRANCH  28  32
ENDBRANCH  25  26
ENDBRANCH  21  25
ENDBRANCH  20  21
ENDBRANCH  19  20
ENDBRANCH   1  19
TORSDOF 13
ENDMDL
MODEL 9
REMARK VINA RESULT:    -9.299      2.230      3.705
REMARK INTER + INTRA:         -17.782
REMARK INTER:                 -16.532
REMARK INTRA:                  -1.249
REMARK UNBOUND:                -1.687
REMARK SMILES CC[N@H+](CCCCCCN=C1C=C(O)c2ccccc2C1=O)Cc1ccccc1OC
REMARK SMILES IDX 6 1 7 2 8 3 9 4 10 5 11 6 13 7 12 8 15 9 16 10 20 11 21 12
REMARK SMILES IDX 17 13 19 14 18 15 22 16 14 17 5 19 4 20 3 21 2 23 1 24 23 25
REMARK SMILES IDX 24 26 25 27 29 28 26 29 28 30 27 31 30 32 31 33
REMARK H PARENT 14 18 3 22
ROOT
ATOM      1  C   UNL     1      11.034 -56.217 -22.013  1.00  0.00     0.006 C 
ENDROOT
BRANCH   1   2
ATOM      2  C   UNL     1       9.900 -55.725 -22.915  1.00  0.00     0.002 C 
BRANCH   2   3
ATOM      3  C   UNL     1       9.886 -54.205 -23.098  1.00  0.00     0.024 C 
BRANCH   3   4
ATOM      4  C   UNL     1       9.968 -53.430 -21.783  1.00  0.00     0.143 C 
BRANCH   4   5
ATOM      5  N   UNL     1       9.693 -52.026 -22.041  1.00  0.00    -0.281 NA
BRANCH   5   6
ATOM      6  C   UNL     1      10.626 -51.167 -22.255  1.00  0.00     0.109 C 
ATOM      7  C   UNL     1      12.893 -50.503 -22.914  1.00  0.00     0.125 C 
ATOM      8  C   UNL     1      12.080 -51.423 -22.386  1.00  0.00     0.078 C 
ATOM      9  C   UNL     1      12.399 -49.214 -23.436  1.00  0.00     0.028 A 
ATOM     10  C   UNL     1      13.188 -48.370 -24.234  1.00  0.00     0.013 A 
ATOM     11  C   UNL     1      11.092 -48.801 -23.139  1.00  0.00     0.035 A 
ATOM     12  C   UNL     1      10.210 -49.700 -22.369  1.00  0.00     0.211 C 
ATOM     13  C   UNL     1      12.697 -47.135 -24.674  1.00  0.00     0.001 A 
ATOM     14  C   UNL     1      10.602 -47.561 -23.566  1.00  0.00     0.013 A 
ATOM     15  C   UNL     1      11.411 -46.726 -24.333  1.00  0.00     0.001 A 
ATOM     16  O   UNL     1       9.189 -49.292 -21.837  1.00  0.00    -0.287 OA
BRANCH   7  17
ATOM     17  O   UNL     1      14.249 -50.761 -22.957  1.00  0.00    -0.507 OA
ATOM     18  H   UNL     1      14.631 -50.595 -22.077  1.00  0.00     0.293 HD
ENDBRANCH   7  17
ENDBRANCH   5   6
ENDBRANCH   4   5
ENDBRANCH   3   4
ENDBRANCH   2   3
ENDBRANCH   1   2
BRANCH   1  19
ATOM     19  C   UNL     1      11.203 -57.743 -22.042  1.00  0.00     0.061 C 
BRANCH  19  20
ATOM     20  C   UNL     1      11.640 -58.267 -23.411  1.00  0.00     0.262 C 
BRANCH  20  21
ATOM     21  N   UNL     1      11.446 -59.758 -23.586  1.00  0.00    -0.331 N 
ATOM     22  H   UNL     1      10.708 -59.828 -24.298  1.00  0.00     0.348 HD
BRANCH  21  23
ATOM     23  C   UNL     1      12.600 -60.487 -24.244  1.00  0.00     0.259 C 
ATOM     24  C   UNL     1      12.680 -60.289 -25.744  1.00  0.00     0.071 C 
ENDBRANCH  21  23
BRANCH  21  25
ATOM     25  C   UNL     1      10.833 -60.473 -22.395  1.00  0.00     0.302 C 
BRANCH  25  26
ATOM     26  C   UNL     1       9.683 -61.377 -22.763  1.00  0.00     0.048 A 
ATOM     27  C   UNL     1       9.884 -62.769 -22.796  1.00  0.00     0.013 A 
ATOM     28  C   UNL     1       8.410 -60.856 -23.061  1.00  0.00     0.127 A 
ATOM     29  C   UNL     1       8.836 -63.628 -23.120  1.00  0.00     0.001 A 
ATOM     30  C   UNL     1       7.365 -61.727 -23.380  1.00  0.00     0.047 A 
ATOM     31  C   UNL     1       7.579 -63.107 -23.410  1.00  0.00     0.004 A 
BRANCH  28  32
ATOM     32  O   UNL     1       8.292 -59.494 -22.984  1.00  0.00    -0.496 OA
ATOM     33  C   UNL     1       7.950 -58.802 -24.184  1.00  0.00     0.278 C 
ENDBRANCH  28  32
ENDBRANCH  25  26
ENDBRANCH  21  25
ENDBRANCH  20  21
ENDBRANCH  19  20
ENDBRANCH   1  19
TORSDOF 13
ENDMDL
