MODEL 1
REMARK VINA RESULT:    -9.189      0.000      0.000
REMARK INTER + INTRA:         -15.760
REMARK INTER:                 -14.830
REMARK INTRA:                  -0.930
REMARK UNBOUND:                -0.930
REMARK SMILES CCOCC[n+]1ccc(CC=C(O)[C@@H]2Cc3cc(OC)c(OC)cc3S2)cc1
REMARK SMILES IDX 9 1 8 2 7 3 6 4 28 5 27 6 10 7 11 8 12 9 13 10 14 12 15 13
REMARK SMILES IDX 26 14 16 15 25 16 17 17 24 18 18 19 21 20 19 21 20 22 22 23
REMARK SMILES IDX 23 24 5 25 4 26 3 27 2 28 1 29
REMARK H PARENT 13 11
ROOT
ATOM      1  C   UNL     1      11.161 -59.738 -22.528  1.00  0.00    -0.032 A 
ATOM      2  C   UNL     1      11.372 -60.659 -23.554  1.00  0.00     0.074 A 
ATOM      3  C   UNL     1      10.745 -61.900 -23.509  1.00  0.00     0.308 A 
ATOM      4  N   UNL     1       9.930 -62.224 -22.479  1.00  0.00    -0.203 N 
ATOM      5  C   UNL     1       9.718 -61.353 -21.467  1.00  0.00     0.308 A 
ATOM      6  C   UNL     1      10.323 -60.101 -21.471  1.00  0.00     0.074 A 
ENDROOT
BRANCH   1   7
ATOM      7  C   UNL     1      11.874 -58.404 -22.522  1.00  0.00     0.067 C 
BRANCH   7   8
ATOM      8  C   UNL     1      10.944 -57.293 -22.134  1.00  0.00     0.020 C 
BRANCH   8   9
ATOM      9  C   UNL     1      10.064 -56.638 -22.905  1.00  0.00     0.102 C 
BRANCH   9  10
ATOM     10  O   UNL     1       8.996 -57.377 -23.403  1.00  0.00    -0.511 OA
ATOM     11  H   UNL     1       8.225 -56.783 -23.490  1.00  0.00     0.293 HD
ENDBRANCH   9  10
BRANCH   9  12
ATOM     12  C   UNL     1      10.129 -55.182 -23.313  1.00  0.00     0.121 C 
ATOM     13  C   UNL     1      11.389 -54.820 -24.124  1.00  0.00     0.059 C 
ATOM     14  S   UNL     1      10.139 -54.115 -21.827  1.00  0.00    -0.114 SA
ATOM     15  C   UNL     1      11.709 -53.384 -23.813  1.00  0.00    -0.029 A 
ATOM     16  C   UNL     1      11.156 -52.908 -22.626  1.00  0.00     0.015 A 
ATOM     17  C   UNL     1      12.543 -52.571 -24.575  1.00  0.00     0.055 A 
ATOM     18  C   UNL     1      11.409 -51.620 -22.175  1.00  0.00     0.065 A 
ATOM     19  C   UNL     1      12.805 -51.264 -24.145  1.00  0.00     0.161 A 
ATOM     20  C   UNL     1      12.236 -50.787 -22.937  1.00  0.00     0.161 A 
BRANCH  19  21
ATOM     21  O   UNL     1      13.602 -50.374 -24.821  1.00  0.00    -0.493 OA
ATOM     22  C   UNL     1      13.985 -50.700 -26.149  1.00  0.00     0.278 C 
ENDBRANCH  19  21
BRANCH  20  23
ATOM     23  O   UNL     1      12.550 -49.494 -22.599  1.00  0.00    -0.493 OA
ATOM     24  C   UNL     1      11.547 -48.501 -22.770  1.00  0.00     0.278 C 
ENDBRANCH  20  23
ENDBRANCH   9  12
ENDBRANCH   8   9
ENDBRANCH   7   8
ENDBRANCH   1   7
BRANCH   4  25
ATOM     25  C   UNL     1       9.285 -63.556 -22.445  1.00  0.00     0.385 C 
BRANCH  25  26
ATOM     26  C   UNL     1       8.235 -63.656 -23.546  1.00  0.00     0.233 C 
BRANCH  26  27
ATOM     27  O   UNL     1       7.172 -62.769 -23.220  1.00  0.00    -0.375 OA
BRANCH  27  28
ATOM     28  C   UNL     1       7.051 -61.657 -24.112  1.00  0.00     0.157 C 
ATOM     29  C   UNL     1       6.708 -60.380 -23.366  1.00  0.00     0.035 C 
ENDBRANCH  27  28
ENDBRANCH  26  27
ENDBRANCH  25  26
ENDBRANCH   4  25
TORSDOF 11
ENDMDL
MODEL 2
REMARK VINA RESULT:    -8.823      1.852      2.615
REMARK INTER + INTRA:         -15.169
REMARK INTER:                 -14.497
REMARK INTRA:                  -0.672
REMARK UNBOUND:                -0.930
REMARK SMILES CCOCC[n+]1ccc(CC=C(O)[C@@H]2Cc3cc(OC)c(OC)cc3S2)cc1
REMARK SMILES IDX 9 1 8 2 7 3 6 4 28 5 27 6 10 7 11 8 12 9 13 10 14 12 15 13
REMARK SMILES IDX 26 14 16 15 25 16 17 17 24 18 18 19 21 20 19 21 20 22 22 23
REMARK SMILES IDX 23 24 5 25 4 26 3 27 2 28 1 29
REMARK H PARENT 13 11
ROOT
ATOM      1  C   UNL     1      10.584 -57.779 -22.220  1.00  0.00    -0.032 A 
ATOM      2  C   UNL     1      10.951 -58.986 -21.623  1.00  0.00     0.074 A 
ATOM      3  C   UNL     1      10.228 -60.142 -21.900  1.00  0.00     0.308 A 
ATOM      4  N   UNL     1       9.171 -60.108 -22.744  1.00  0.00    -0.203 N 
ATOM      5  C   UNL     1       8.790 -58.949 -23.326  1.00  0.00     0.308 A 
ATOM      6  C   UNL     1       9.484 -57.770 -23.080  1.00  0.00     0.074 A 
ENDROOT
BRANCH   1   7
ATOM      7  C   UNL     1      11.318 -56.496 -21.893  1.00  0.00     0.067 C 
BRANCH   7   8
ATOM      8  C   UNL     1      10.573 -55.299 -22.405  1.00  0.00     0.020 C 
BRANCH   8   9
ATOM      9  C   UNL     1      10.642 -54.031 -21.976  1.00  0.00     0.102 C 
BRANCH   9  10
ATOM     10  O   UNL     1      10.598 -53.832 -20.600  1.00  0.00    -0.511 OA
ATOM     11  H   UNL     1      10.547 -52.871 -20.429  1.00  0.00     0.293 HD
ENDBRANCH   9  10
BRANCH   9  12
ATOM     12  C   UNL     1      10.732 -52.789 -22.836  1.00  0.00     0.121 C 
ATOM     13  C   UNL     1      11.945 -52.780 -23.788  1.00  0.00     0.059 C 
ATOM     14  S   UNL     1      10.888 -51.304 -21.778  1.00  0.00    -0.114 SA
ATOM     15  C   UNL     1      12.340 -51.342 -23.977  1.00  0.00    -0.029 A 
ATOM     16  C   UNL     1      11.891 -50.479 -22.979  1.00  0.00     0.015 A 
ATOM     17  C   UNL     1      13.148 -50.866 -25.006  1.00  0.00     0.055 A 
ATOM     18  C   UNL     1      12.224 -49.132 -22.984  1.00  0.00     0.065 A 
ATOM     19  C   UNL     1      13.489 -49.508 -25.036  1.00  0.00     0.161 A 
ATOM     20  C   UNL     1      13.025 -48.637 -24.018  1.00  0.00     0.161 A 
BRANCH  19  21
ATOM     21  O   UNL     1      14.269 -48.930 -26.006  1.00  0.00    -0.493 OA
ATOM     22  C   UNL     1      14.633 -49.722 -27.127  1.00  0.00     0.278 C 
ENDBRANCH  19  21
BRANCH  20  23
ATOM     23  O   UNL     1      13.411 -47.324 -24.135  1.00  0.00    -0.493 OA
ATOM     24  C   UNL     1      12.401 -46.355 -24.380  1.00  0.00     0.278 C 
ENDBRANCH  20  23
ENDBRANCH   9  12
ENDBRANCH   8   9
ENDBRANCH   7   8
ENDBRANCH   1   7
BRANCH   4  25
ATOM     25  C   UNL     1       8.408 -61.347 -23.012  1.00  0.00     0.385 C 
BRANCH  25  26
ATOM     26  C   UNL     1       6.973 -61.004 -23.399  1.00  0.00     0.233 C 
BRANCH  26  27
ATOM     27  O   UNL     1       6.460 -62.080 -24.178  1.00  0.00    -0.375 OA
BRANCH  27  28
ATOM     28  C   UNL     1       7.471 -62.867 -24.813  1.00  0.00     0.157 C 
ATOM     29  C   UNL     1       6.867 -64.000 -25.624  1.00  0.00     0.035 C 
ENDBRANCH  27  28
ENDBRANCH  26  27
ENDBRANCH  25  26
ENDBRANCH   4  25
TORSDOF 11
ENDMDL
MODEL 3
REMARK VINA RESULT:    -8.806      3.742      9.615
REMARK INTER + INTRA:         -15.142
REMARK INTER:                 -14.313
REMARK INTRA:                  -0.829
REMARK UNBOUND:                -0.930
REMARK SMILES CCOCC[n+]1ccc(CC=C(O)[C@@H]2Cc3cc(OC)c(OC)cc3S2)cc1
REMARK SMILES IDX 9 1 8 2 7 3 6 4 28 5 27 6 10 7 11 8 12 9 13 10 14 12 15 13
REMARK SMILES IDX 26 14 16 15 25 16 17 17 24 18 18 19 21 20 19 21 20 22 22 23
REMARK SMILES IDX 23 24 5 25 4 26 3 27 2 28 1 29
REMARK H PARENT 13 11
ROOT
ATOM      1  C   UNL     1      10.724 -54.527 -22.645  1.00  0.00    -0.032 A 
ATOM      2  C   UNL     1      10.465 -53.745 -21.519  1.00  0.00     0.074 A 
ATOM      3  C   UNL     1      10.905 -52.426 -21.478  1.00  0.00     0.308 A 
ATOM      4  N   UNL     1      11.581 -51.891 -22.521  1.00  0.00    -0.203 N 
ATOM      5  C   UNL     1      11.853 -52.632 -23.619  1.00  0.00     0.308 A 
ATOM      6  C   UNL     1      11.432 -53.954 -23.704  1.00  0.00     0.074 A 
ENDROOT
BRANCH   1   7
ATOM      7  C   UNL     1      10.307 -55.981 -22.694  1.00  0.00     0.067 C 
BRANCH   7   8
ATOM      8  C   UNL     1      11.256 -56.844 -21.915  1.00  0.00     0.020 C 
BRANCH   8   9
ATOM      9  C   UNL     1      11.266 -58.180 -21.807  1.00  0.00     0.102 C 
BRANCH   9  10
ATOM     10  O   UNL     1      11.174 -58.705 -20.522  1.00  0.00    -0.511 OA
ATOM     11  H   UNL     1      10.261 -59.027 -20.386  1.00  0.00     0.293 HD
ENDBRANCH   9  10
BRANCH   9  12
ATOM     12  C   UNL     1      11.398 -59.177 -22.937  1.00  0.00     0.121 C 
ATOM     13  C   UNL     1      12.096 -58.608 -24.189  1.00  0.00     0.059 C 
ATOM     14  S   UNL     1       9.741 -59.739 -23.473  1.00  0.00    -0.114 SA
ATOM     15  C   UNL     1      11.519 -59.329 -25.375  1.00  0.00    -0.029 A 
ATOM     16  C   UNL     1      10.278 -59.923 -25.149  1.00  0.00     0.015 A 
ATOM     17  C   UNL     1      12.096 -59.370 -26.641  1.00  0.00     0.055 A 
ATOM     18  C   UNL     1       9.592 -60.575 -26.163  1.00  0.00     0.065 A 
ATOM     19  C   UNL     1      11.426 -60.031 -27.678  1.00  0.00     0.161 A 
ATOM     20  C   UNL     1      10.166 -60.635 -27.438  1.00  0.00     0.161 A 
BRANCH  19  21
ATOM     21  O   UNL     1      11.906 -60.143 -28.959  1.00  0.00    -0.493 OA
ATOM     22  C   UNL     1      12.048 -58.954 -29.723  1.00  0.00     0.278 C 
ENDBRANCH  19  21
BRANCH  20  23
ATOM     23  O   UNL     1       9.588 -61.260 -28.515  1.00  0.00    -0.493 OA
ATOM     24  C   UNL     1       9.029 -62.550 -28.314  1.00  0.00     0.278 C 
ENDBRANCH  20  23
ENDBRANCH   9  12
ENDBRANCH   8   9
ENDBRANCH   7   8
ENDBRANCH   1   7
BRANCH   4  25
ATOM     25  C   UNL     1      12.051 -50.490 -22.449  1.00  0.00     0.385 C 
BRANCH  25  26
ATOM     26  C   UNL     1      13.075 -50.225 -23.548  1.00  0.00     0.233 C 
BRANCH  26  27
ATOM     27  O   UNL     1      12.656 -49.071 -24.268  1.00  0.00    -0.375 OA
BRANCH  27  28
ATOM     28  C   UNL     1      11.741 -48.240 -23.548  1.00  0.00     0.157 C 
ATOM     29  C   UNL     1      11.418 -46.971 -24.317  1.00  0.00     0.035 C 
ENDBRANCH  27  28
ENDBRANCH  26  27
ENDBRANCH  25  26
ENDBRANCH   4  25
TORSDOF 11
ENDMDL
MODEL 4
REMARK VINA RESULT:    -8.342      1.493      2.282
REMARK INTER + INTRA:         -14.392
REMARK INTER:                 -13.521
REMARK INTRA:                  -0.871
REMARK UNBOUND:                -0.930
REMARK SMILES CCOCC[n+]1ccc(CC=C(O)[C@@H]2Cc3cc(OC)c(OC)cc3S2)cc1
REMARK SMILES IDX 9 1 8 2 7 3 6 4 28 5 27 6 10 7 11 8 12 9 13 10 14 12 15 13
REMARK SMILES IDX 26 14 16 15 25 16 17 17 24 18 18 19 21 20 19 21 20 22 22 23
REMARK SMILES IDX 23 24 5 25 4 26 3 27 2 28 1 29
REMARK H PARENT 13 11
ROOT
ATOM      1  C   UNL     1       8.003 -58.695 -23.771  1.00  0.00    -0.032 A 
ATOM      2  C   UNL     1       8.771 -59.499 -24.615  1.00  0.00     0.074 A 
ATOM      3  C   UNL     1       8.399 -60.821 -24.836  1.00  0.00     0.308 A 
ATOM      4  N   UNL     1       7.299 -61.337 -24.240  1.00  0.00    -0.203 N 
ATOM      5  C   UNL     1       6.545 -60.581 -23.410  1.00  0.00     0.308 A 
ATOM      6  C   UNL     1       6.878 -59.254 -23.162  1.00  0.00     0.074 A 
ENDROOT
BRANCH   1   7
ATOM      7  C   UNL     1       8.416 -57.270 -23.469  1.00  0.00     0.067 C 
BRANCH   7   8
ATOM      8  C   UNL     1       9.837 -57.206 -22.995  1.00  0.00     0.020 C 
BRANCH   8   9
ATOM      9  C   UNL     1      10.526 -56.133 -22.578  1.00  0.00     0.102 C 
BRANCH   9  10
ATOM     10  O   UNL     1      11.339 -56.307 -21.462  1.00  0.00    -0.511 OA
ATOM     11  H   UNL     1      12.147 -56.781 -21.740  1.00  0.00     0.293 HD
ENDBRANCH   9  10
BRANCH   9  12
ATOM     12  C   UNL     1      10.489 -54.745 -23.179  1.00  0.00     0.121 C 
ATOM     13  C   UNL     1      11.721 -54.408 -24.043  1.00  0.00     0.059 C 
ATOM     14  S   UNL     1      10.424 -53.490 -21.849  1.00  0.00    -0.114 SA
ATOM     15  C   UNL     1      11.939 -52.925 -23.930  1.00  0.00    -0.029 A 
ATOM     16  C   UNL     1      11.354 -52.333 -22.812  1.00  0.00     0.015 A 
ATOM     17  C   UNL     1      12.714 -52.166 -24.803  1.00  0.00     0.055 A 
ATOM     18  C   UNL     1      11.516 -50.982 -22.541  1.00  0.00     0.065 A 
ATOM     19  C   UNL     1      12.884 -50.798 -24.554  1.00  0.00     0.161 A 
ATOM     20  C   UNL     1      12.282 -50.204 -23.416  1.00  0.00     0.161 A 
BRANCH  19  21
ATOM     21  O   UNL     1      13.616 -49.954 -25.351  1.00  0.00    -0.493 OA
ATOM     22  C   UNL     1      14.201 -50.491 -26.528  1.00  0.00     0.278 C 
ENDBRANCH  19  21
BRANCH  20  23
ATOM     23  O   UNL     1      12.504 -48.858 -23.257  1.00  0.00    -0.493 OA
ATOM     24  C   UNL     1      13.295 -48.441 -22.153  1.00  0.00     0.278 C 
ENDBRANCH  20  23
ENDBRANCH   9  12
ENDBRANCH   8   9
ENDBRANCH   7   8
ENDBRANCH   1   7
BRANCH   4  25
ATOM     25  C   UNL     1       6.932 -62.751 -24.479  1.00  0.00     0.385 C 
BRANCH  25  26
ATOM     26  C   UNL     1       8.068 -63.667 -24.039  1.00  0.00     0.233 C 
BRANCH  26  27
ATOM     27  O   UNL     1       8.319 -63.423 -22.659  1.00  0.00    -0.375 OA
BRANCH  27  28
ATOM     28  C   UNL     1       9.687 -63.132 -22.362  1.00  0.00     0.157 C 
ATOM     29  C   UNL     1       9.839 -61.765 -21.719  1.00  0.00     0.035 C 
ENDBRANCH  27  28
ENDBRANCH  26  27
ENDBRANCH  25  26
ENDBRANCH   4  25
TORSDOF 11
ENDMDL
MODEL 5
REMARK VINA RESULT:    -8.319      2.067      3.544
REMARK INTER + INTRA:         -14.356
REMARK INTER:                 -13.750
REMARK INTRA:                  -0.606
REMARK UNBOUND:                -0.930
REMARK SMILES CCOCC[n+]1ccc(CC=C(O)[C@@H]2Cc3cc(OC)c(OC)cc3S2)cc1
REMARK SMILES IDX 9 1 8 2 7 3 6 4 28 5 27 6 10 7 11 8 12 9 13 10 14 12 15 13
REMARK SMILES IDX 26 14 16 15 25 16 17 17 24 18 18 19 21 20 19 21 20 22 22 23
REMARK SMILES IDX 23 24 5 25 4 26 3 27 2 28 1 29
REMARK H PARENT 13 11
ROOT
ATOM      1  C   UNL     1      10.221 -57.368 -22.739  1.00  0.00    -0.032 A 
ATOM      2  C   UNL     1       8.992 -56.991 -23.281  1.00  0.00     0.074 A 
ATOM      3  C   UNL     1       7.994 -57.943 -23.459  1.00  0.00     0.308 A 
ATOM      4  N   UNL     1       8.202 -59.234 -23.112  1.00  0.00    -0.203 N 
ATOM      5  C   UNL     1       9.388 -59.626 -22.594  1.00  0.00     0.308 A 
ATOM      6  C   UNL     1      10.414 -58.708 -22.397  1.00  0.00     0.074 A 
ENDROOT
BRANCH   1   7
ATOM      7  C   UNL     1      11.344 -56.364 -22.586  1.00  0.00     0.067 C 
BRANCH   7   8
ATOM      8  C   UNL     1      10.927 -55.007 -23.070  1.00  0.00     0.020 C 
BRANCH   8   9
ATOM      9  C   UNL     1      10.655 -53.913 -22.343  1.00  0.00     0.102 C 
BRANCH   9  10
ATOM     10  O   UNL     1       9.496 -53.944 -21.575  1.00  0.00    -0.511 OA
ATOM     11  H   UNL     1       9.564 -54.688 -20.945  1.00  0.00     0.293 HD
ENDBRANCH   9  10
BRANCH   9  12
ATOM     12  C   UNL     1      11.464 -52.635 -22.295  1.00  0.00     0.121 C 
ATOM     13  C   UNL     1      10.610 -51.365 -22.112  1.00  0.00     0.059 C 
ATOM     14  S   UNL     1      12.390 -52.423 -23.859  1.00  0.00    -0.114 SA
ATOM     15  C   UNL     1      11.338 -50.247 -22.806  1.00  0.00    -0.029 A 
ATOM     16  C   UNL     1      12.259 -50.660 -23.767  1.00  0.00     0.015 A 
ATOM     17  C   UNL     1      11.100 -48.891 -22.599  1.00  0.00     0.055 A 
ATOM     18  C   UNL     1      12.966 -49.744 -24.532  1.00  0.00     0.065 A 
ATOM     19  C   UNL     1      11.809 -47.948 -23.353  1.00  0.00     0.161 A 
ATOM     20  C   UNL     1      12.746 -48.378 -24.327  1.00  0.00     0.161 A 
BRANCH  19  21
ATOM     21  O   UNL     1      11.663 -46.590 -23.225  1.00  0.00    -0.493 OA
ATOM     22  C   UNL     1      10.604 -46.109 -22.411  1.00  0.00     0.278 C 
ENDBRANCH  19  21
BRANCH  20  23
ATOM     23  O   UNL     1      13.393 -47.380 -25.014  1.00  0.00    -0.493 OA
ATOM     24  C   UNL     1      14.799 -47.264 -24.849  1.00  0.00     0.278 C 
ENDBRANCH  20  23
ENDBRANCH   9  12
ENDBRANCH   8   9
ENDBRANCH   7   8
ENDBRANCH   1   7
BRANCH   4  25
ATOM     25  C   UNL     1       7.131 -60.233 -23.324  1.00  0.00     0.385 C 
BRANCH  25  26
ATOM     26  C   UNL     1       7.606 -61.312 -24.291  1.00  0.00     0.233 C 
BRANCH  26  27
ATOM     27  O   UNL     1       6.579 -62.292 -24.394  1.00  0.00    -0.375 OA
BRANCH  27  28
ATOM     28  C   UNL     1       6.950 -63.441 -25.159  1.00  0.00     0.157 C 
ATOM     29  C   UNL     1       7.883 -63.074 -26.299  1.00  0.00     0.035 C 
ENDBRANCH  27  28
ENDBRANCH  26  27
ENDBRANCH  25  26
ENDBRANCH   4  25
TORSDOF 11
ENDMDL
MODEL 6
REMARK VINA RESULT:    -8.213      2.467      4.268
REMARK INTER + INTRA:         -14.184
REMARK INTER:                 -13.577
REMARK INTRA:                  -0.608
REMARK UNBOUND:                -0.930
REMARK SMILES CCOCC[n+]1ccc(CC=C(O)[C@@H]2Cc3cc(OC)c(OC)cc3S2)cc1
REMARK SMILES IDX 9 1 8 2 7 3 6 4 28 5 27 6 10 7 11 8 12 9 13 10 14 12 15 13
REMARK SMILES IDX 26 14 16 15 25 16 17 17 24 18 18 19 21 20 19 21 20 22 22 23
REMARK SMILES IDX 23 24 5 25 4 26 3 27 2 28 1 29
REMARK H PARENT 13 11
ROOT
ATOM      1  C   UNL     1      11.164 -56.475 -22.082  1.00  0.00    -0.032 A 
ATOM      2  C   UNL     1      11.252 -57.675 -21.375  1.00  0.00     0.074 A 
ATOM      3  C   UNL     1      11.642 -58.837 -22.033  1.00  0.00     0.308 A 
ATOM      4  N   UNL     1      11.936 -58.816 -23.354  1.00  0.00    -0.203 N 
ATOM      5  C   UNL     1      11.849 -57.668 -24.062  1.00  0.00     0.308 A 
ATOM      6  C   UNL     1      11.466 -56.482 -23.445  1.00  0.00     0.074 A 
ENDROOT
BRANCH   1   7
ATOM      7  C   UNL     1      10.690 -55.207 -21.404  1.00  0.00     0.067 C 
BRANCH   7   8
ATOM      8  C   UNL     1      10.666 -54.055 -22.364  1.00  0.00     0.020 C 
BRANCH   8   9
ATOM      9  C   UNL     1      10.174 -52.822 -22.171  1.00  0.00     0.102 C 
BRANCH   9  10
ATOM     10  O   UNL     1       8.790 -52.703 -22.111  1.00  0.00    -0.511 OA
ATOM     11  H   UNL     1       8.397 -53.577 -22.302  1.00  0.00     0.293 HD
ENDBRANCH   9  10
BRANCH   9  12
ATOM     12  C   UNL     1      10.970 -51.542 -22.041  1.00  0.00     0.121 C 
ATOM     13  C   UNL     1      10.121 -50.264 -22.195  1.00  0.00     0.059 C 
ATOM     14  S   UNL     1      12.259 -51.472 -23.339  1.00  0.00    -0.114 SA
ATOM     15  C   UNL     1      11.019 -49.213 -22.786  1.00  0.00    -0.029 A 
ATOM     16  C   UNL     1      12.142 -49.710 -23.446  1.00  0.00     0.015 A 
ATOM     17  C   UNL     1      10.762 -47.845 -22.771  1.00  0.00     0.055 A 
ATOM     18  C   UNL     1      13.034 -48.866 -24.092  1.00  0.00     0.065 A 
ATOM     19  C   UNL     1      11.654 -46.973 -23.408  1.00  0.00     0.161 A 
ATOM     20  C   UNL     1      12.795 -47.487 -24.074  1.00  0.00     0.161 A 
BRANCH  19  21
ATOM     21  O   UNL     1      11.505 -45.609 -23.446  1.00  0.00    -0.493 OA
ATOM     22  C   UNL     1      10.668 -45.004 -22.473  1.00  0.00     0.278 C 
ENDBRANCH  19  21
BRANCH  20  23
ATOM     23  O   UNL     1      13.610 -46.556 -24.668  1.00  0.00    -0.493 OA
ATOM     24  C   UNL     1      14.929 -46.408 -24.161  1.00  0.00     0.278 C 
ENDBRANCH  20  23
ENDBRANCH   9  12
ENDBRANCH   8   9
ENDBRANCH   7   8
ENDBRANCH   1   7
BRANCH   4  25
ATOM     25  C   UNL     1      12.334 -60.068 -24.036  1.00  0.00     0.385 C 
BRANCH  25  26
ATOM     26  C   UNL     1      11.440 -61.217 -23.582  1.00  0.00     0.233 C 
BRANCH  26  27
ATOM     27  O   UNL     1      10.441 -61.415 -24.577  1.00  0.00    -0.375 OA
BRANCH  27  28
ATOM     28  C   UNL     1       9.352 -62.235 -24.148  1.00  0.00     0.157 C 
ATOM     29  C   UNL     1       8.451 -62.617 -25.309  1.00  0.00     0.035 C 
ENDBRANCH  27  28
ENDBRANCH  26  27
ENDBRANCH  25  26
ENDBRANCH   4  25
TORSDOF 11
ENDMDL
MODEL 7
REMARK VINA RESULT:    -8.084      1.532      2.751
REMARK INTER + INTRA:         -13.976
REMARK INTER:                 -13.062
REMARK INTRA:                  -0.915
REMARK UNBOUND:                -0.930
REMARK SMILES CCOCC[n+]1ccc(CC=C(O)[C@@H]2Cc3cc(OC)c(OC)cc3S2)cc1
REMARK SMILES IDX 9 1 8 2 7 3 6 4 28 5 27 6 10 7 11 8 12 9 13 10 14 12 15 13
REMARK SMILES IDX 26 14 16 15 25 16 17 17 24 18 18 19 21 20 19 21 20 22 22 23
REMARK SMILES IDX 23 24 5 25 4 26 3 27 2 28 1 29
REMARK H PARENT 13 11
ROOT
ATOM      1  C   UNL     1      11.165 -58.215 -22.199  1.00  0.00    -0.032 A 
ATOM      2  C   UNL     1      10.766 -59.166 -21.259  1.00  0.00     0.074 A 
ATOM      3  C   UNL     1      10.484 -60.465 -21.667  1.00  0.00     0.308 A 
ATOM      4  N   UNL     1      10.591 -60.818 -22.969  1.00  0.00    -0.203 N 
ATOM      5  C   UNL     1      10.965 -59.912 -23.901  1.00  0.00     0.308 A 
ATOM      6  C   UNL     1      11.259 -58.602 -23.538  1.00  0.00     0.074 A 
ENDROOT
BRANCH   1   7
ATOM      7  C   UNL     1      11.424 -56.781 -21.792  1.00  0.00     0.067 C 
BRANCH   7   8
ATOM      8  C   UNL     1      10.330 -55.874 -22.272  1.00  0.00     0.020 C 
BRANCH   8   9
ATOM      9  C   UNL     1      10.273 -54.535 -22.210  1.00  0.00     0.102 C 
BRANCH   9  10
ATOM     10  O   UNL     1       9.031 -53.974 -21.932  1.00  0.00    -0.511 OA
ATOM     11  H   UNL     1       8.364 -54.689 -21.926  1.00  0.00     0.293 HD
ENDBRANCH   9  10
BRANCH   9  12
ATOM     12  C   UNL     1      11.415 -53.570 -22.441  1.00  0.00     0.121 C 
ATOM     13  C   UNL     1      11.044 -52.095 -22.189  1.00  0.00     0.059 C 
ATOM     14  S   UNL     1      11.983 -53.677 -24.178  1.00  0.00    -0.114 SA
ATOM     15  C   UNL     1      11.894 -51.268 -23.112  1.00  0.00    -0.029 A 
ATOM     16  C   UNL     1      12.407 -51.960 -24.208  1.00  0.00     0.015 A 
ATOM     17  C   UNL     1      12.125 -49.902 -22.973  1.00  0.00     0.055 A 
ATOM     18  C   UNL     1      13.163 -51.319 -25.179  1.00  0.00     0.065 A 
ATOM     19  C   UNL     1      12.892 -49.236 -23.936  1.00  0.00     0.161 A 
ATOM     20  C   UNL     1      13.413 -49.948 -25.046  1.00  0.00     0.161 A 
BRANCH  19  21
ATOM     21  O   UNL     1      13.191 -47.897 -23.894  1.00  0.00    -0.493 OA
ATOM     22  C   UNL     1      13.905 -47.410 -22.767  1.00  0.00     0.278 C 
ENDBRANCH  19  21
BRANCH  20  23
ATOM     23  O   UNL     1      14.154 -49.210 -25.935  1.00  0.00    -0.493 OA
ATOM     24  C   UNL     1      14.579 -49.844 -27.134  1.00  0.00     0.278 C 
ENDBRANCH  20  23
ENDBRANCH   9  12
ENDBRANCH   8   9
ENDBRANCH   7   8
ENDBRANCH   1   7
BRANCH   4  25
ATOM     25  C   UNL     1      10.271 -62.202 -23.383  1.00  0.00     0.385 C 
BRANCH  25  26
ATOM     26  C   UNL     1       8.968 -62.223 -24.175  1.00  0.00     0.233 C 
BRANCH  26  27
ATOM     27  O   UNL     1       7.930 -61.749 -23.324  1.00  0.00    -0.375 OA
BRANCH  27  28
ATOM     28  C   UNL     1       7.196 -60.647 -23.865  1.00  0.00     0.157 C 
ATOM     29  C   UNL     1       7.089 -59.506 -22.870  1.00  0.00     0.035 C 
ENDBRANCH  27  28
ENDBRANCH  26  27
ENDBRANCH  25  26
ENDBRANCH   4  25
TORSDOF 11
ENDMDL
MODEL 8
REMARK VINA RESULT:    -8.071      2.171      3.307
REMARK INTER + INTRA:         -13.956
REMARK INTER:                 -13.361
REMARK INTRA:                  -0.595
REMARK UNBOUND:                -0.930
REMARK SMILES CCOCC[n+]1ccc(CC=C(O)[C@@H]2Cc3cc(OC)c(OC)cc3S2)cc1
REMARK SMILES IDX 9 1 8 2 7 3 6 4 28 5 27 6 10 7 11 8 12 9 13 10 14 12 15 13
REMARK SMILES IDX 26 14 16 15 25 16 17 17 24 18 18 19 21 20 19 21 20 22 22 23
REMARK SMILES IDX 23 24 5 25 4 26 3 27 2 28 1 29
REMARK H PARENT 13 11
ROOT
ATOM      1  C   UNL     1      11.360 -57.436 -22.151  1.00  0.00    -0.032 A 
ATOM      2  C   UNL     1      11.195 -58.699 -21.581  1.00  0.00     0.074 A 
ATOM      3  C   UNL     1      11.346 -59.837 -22.366  1.00  0.00     0.308 A 
ATOM      4  N   UNL     1      11.653 -59.733 -23.680  1.00  0.00    -0.203 N 
ATOM      5  C   UNL     1      11.808 -58.520 -24.258  1.00  0.00     0.308 A 
ATOM      6  C   UNL     1      11.668 -57.356 -23.511  1.00  0.00     0.074 A 
ENDROOT
BRANCH   1   7
ATOM      7  C   UNL     1      11.146 -56.181 -21.334  1.00  0.00     0.067 C 
BRANCH   7   8
ATOM      8  C   UNL     1      10.983 -54.979 -22.217  1.00  0.00     0.020 C 
BRANCH   8   9
ATOM      9  C   UNL     1      10.801 -53.701 -21.856  1.00  0.00     0.102 C 
BRANCH   9  10
ATOM     10  O   UNL     1      10.485 -53.465 -20.523  1.00  0.00    -0.511 OA
ATOM     11  H   UNL     1       9.542 -53.685 -20.387  1.00  0.00     0.293 HD
ENDBRANCH   9  10
BRANCH   9  12
ATOM     12  C   UNL     1      10.876 -52.488 -22.758  1.00  0.00     0.121 C 
ATOM     13  C   UNL     1      12.294 -51.896 -22.888  1.00  0.00     0.059 C 
ATOM     14  S   UNL     1       9.811 -51.153 -22.101  1.00  0.00    -0.114 SA
ATOM     15  C   UNL     1      12.130 -50.419 -23.115  1.00  0.00    -0.029 A 
ATOM     16  C   UNL     1      10.902 -49.900 -22.709  1.00  0.00     0.015 A 
ATOM     17  C   UNL     1      13.118 -49.576 -23.617  1.00  0.00     0.055 A 
ATOM     18  C   UNL     1      10.625 -48.544 -22.800  1.00  0.00     0.065 A 
ATOM     19  C   UNL     1      12.856 -48.205 -23.727  1.00  0.00     0.161 A 
ATOM     20  C   UNL     1      11.603 -47.686 -23.315  1.00  0.00     0.161 A 
BRANCH  19  21
ATOM     21  O   UNL     1      13.750 -47.286 -24.217  1.00  0.00    -0.493 OA
ATOM     22  C   UNL     1      14.013 -47.293 -25.613  1.00  0.00     0.278 C 
ENDBRANCH  19  21
BRANCH  20  23
ATOM     23  O   UNL     1      11.440 -46.331 -23.463  1.00  0.00    -0.493 OA
ATOM     24  C   UNL     1      10.738 -45.631 -22.445  1.00  0.00     0.278 C 
ENDBRANCH  20  23
ENDBRANCH   9  12
ENDBRANCH   8   9
ENDBRANCH   7   8
ENDBRANCH   1   7
BRANCH   4  25
ATOM     25  C   UNL     1      11.794 -60.957 -24.499  1.00  0.00     0.385 C 
BRANCH  25  26
ATOM     26  C   UNL     1      10.768 -60.953 -25.627  1.00  0.00     0.233 C 
BRANCH  26  27
ATOM     27  O   UNL     1       9.474 -61.061 -25.043  1.00  0.00    -0.375 OA
BRANCH  27  28
ATOM     28  C   UNL     1       8.978 -62.401 -24.980  1.00  0.00     0.157 C 
ATOM     29  C   UNL     1       9.146 -62.993 -23.592  1.00  0.00     0.035 C 
ENDBRANCH  27  28
ENDBRANCH  26  27
ENDBRANCH  25  26
ENDBRANCH   4  25
TORSDOF 11
ENDMDL
MODEL 9
REMARK VINA RESULT:    -7.965      2.209      3.898
REMARK INTER + INTRA:         -13.784
REMARK INTER:                 -13.147
REMARK INTRA:                  -0.637
REMARK UNBOUND:                -0.930
REMARK SMILES CCOCC[n+]1ccc(CC=C(O)[C@@H]2Cc3cc(OC)c(OC)cc3S2)cc1
REMARK SMILES IDX 9 1 8 2 7 3 6 4 28 5 27 6 10 7 11 8 12 9 13 10 14 12 15 13
REMARK SMILES IDX 26 14 16 15 25 16 17 17 24 18 18 19 21 20 19 21 20 22 22 23
REMARK SMILES IDX 23 24 5 25 4 26 3 27 2 28 1 29
REMARK H PARENT 13 11
ROOT
ATOM      1  C   UNL     1      10.460 -56.935 -22.682  1.00  0.00    -0.032 A 
ATOM      2  C   UNL     1       9.091 -57.044 -22.931  1.00  0.00     0.074 A 
ATOM      3  C   UNL     1       8.596 -58.165 -23.592  1.00  0.00     0.308 A 
ATOM      4  N   UNL     1       9.430 -59.151 -23.995  1.00  0.00    -0.203 N 
ATOM      5  C   UNL     1      10.761 -59.064 -23.774  1.00  0.00     0.308 A 
ATOM      6  C   UNL     1      11.299 -57.964 -23.116  1.00  0.00     0.074 A 
ENDROOT
BRANCH   1   7
ATOM      7  C   UNL     1      11.032 -55.702 -22.016  1.00  0.00     0.067 C 
BRANCH   7   8
ATOM      8  C   UNL     1      10.721 -54.466 -22.805  1.00  0.00     0.020 C 
BRANCH   8   9
ATOM      9  C   UNL     1      10.966 -53.188 -22.480  1.00  0.00     0.102 C 
BRANCH   9  10
ATOM     10  O   UNL     1      10.044 -52.566 -21.644  1.00  0.00    -0.511 OA
ATOM     11  H   UNL     1      10.488 -51.818 -21.198  1.00  0.00     0.293 HD
ENDBRANCH   9  10
BRANCH   9  12
ATOM     12  C   UNL     1      12.129 -52.343 -22.952  1.00  0.00     0.121 C 
ATOM     13  C   UNL     1      11.813 -50.835 -23.025  1.00  0.00     0.059 C 
ATOM     14  S   UNL     1      12.630 -52.854 -24.636  1.00  0.00    -0.114 SA
ATOM     15  C   UNL     1      12.655 -50.267 -24.132  1.00  0.00    -0.029 A 
ATOM     16  C   UNL     1      13.106 -51.203 -25.061  1.00  0.00     0.015 A 
ATOM     17  C   UNL     1      12.933 -48.914 -24.308  1.00  0.00     0.055 A 
ATOM     18  C   UNL     1      13.846 -50.823 -26.171  1.00  0.00     0.065 A 
ATOM     19  C   UNL     1      13.685 -48.507 -25.417  1.00  0.00     0.161 A 
ATOM     20  C   UNL     1      14.144 -49.467 -26.354  1.00  0.00     0.161 A 
BRANCH  19  21
ATOM     21  O   UNL     1      14.027 -47.205 -25.682  1.00  0.00    -0.493 OA
ATOM     22  C   UNL     1      14.257 -46.340 -24.580  1.00  0.00     0.278 C 
ENDBRANCH  19  21
BRANCH  20  23
ATOM     23  O   UNL     1      14.875 -48.974 -27.406  1.00  0.00    -0.493 OA
ATOM     24  C   UNL     1      16.245 -49.338 -27.491  1.00  0.00     0.278 C 
ENDBRANCH  20  23
ENDBRANCH   9  12
ENDBRANCH   8   9
ENDBRANCH   7   8
ENDBRANCH   1   7
BRANCH   4  25
ATOM     25  C   UNL     1       8.883 -60.327 -24.708  1.00  0.00     0.385 C 
BRANCH  25  26
ATOM     26  C   UNL     1       9.935 -61.428 -24.786  1.00  0.00     0.233 C 
BRANCH  26  27
ATOM     27  O   UNL     1       9.259 -62.681 -24.785  1.00  0.00    -0.375 OA
BRANCH  27  28
ATOM     28  C   UNL     1       8.475 -62.915 -23.612  1.00  0.00     0.157 C 
ATOM     29  C   UNL     1       9.316 -63.487 -22.485  1.00  0.00     0.035 C 
ENDBRANCH  27  28
ENDBRANCH  26  27
ENDBRANCH  25  26
ENDBRANCH   4  25
TORSDOF 11
ENDMDL
