MODEL 1
REMARK VINA RESULT:    -8.567      0.000      0.000
REMARK INTER + INTRA:          -9.803
REMARK INTER:                  -9.568
REMARK INTRA:                  -0.235
REMARK UNBOUND:                -0.235
REMARK SMILES CNC(=O)Oc1ccc2c(c1)SC[C@@H]1CC[N@H+](C)[C@H]21
REMARK SMILES IDX 5 1 6 2 16 3 17 4 15 5 19 6 14 7 9 8 13 9 10 10 8 11 12 12
REMARK SMILES IDX 11 13 7 14 18 15 3 17 2 18 4 19 1 20
REMARK H PARENT 17 16 2 21
ROOT
ATOM      1  O   UNL     1      11.746 -55.035 -23.492  1.00  0.00    -0.410 OA
ENDROOT
BRANCH   1   2
ATOM      2  C   UNL     1      11.584 -56.399 -23.255  1.00  0.00     0.133 A 
ATOM      3  C   UNL     1       9.574 -62.457 -22.032  1.00  0.00     0.263 C 
ATOM      4  N   UNL     1       9.616 -60.954 -21.970  1.00  0.00    -0.331 N 
ATOM      5  C   UNL     1      10.201 -62.782 -23.372  1.00  0.00     0.072 C 
ATOM      6  C   UNL     1      10.989 -60.601 -22.552  1.00  0.00     0.220 C 
ATOM      7  C   UNL     1      11.199 -61.648 -23.665  1.00  0.00     0.068 C 
ATOM      8  C   UNL     1      11.220 -59.140 -22.828  1.00  0.00     0.023 A 
ATOM      9  C   UNL     1      11.013 -61.119 -25.080  1.00  0.00     0.085 C 
ATOM     10  C   UNL     1      11.700 -58.672 -24.065  1.00  0.00     0.020 A 
ATOM     11  C   UNL     1      11.001 -58.206 -21.790  1.00  0.00     0.015 A 
ATOM     12  S   UNL     1      12.147 -59.757 -25.401  1.00  0.00    -0.125 SA
ATOM     13  C   UNL     1      11.883 -57.299 -24.272  1.00  0.00     0.062 A 
ATOM     14  C   UNL     1      11.178 -56.840 -22.002  1.00  0.00     0.048 A 
ATOM     15  C   UNL     1       8.425 -60.299 -22.618  1.00  0.00     0.333 C 
ATOM     16  H   UNL     1       9.606 -60.668 -20.984  1.00  0.00     0.348 HD
ENDBRANCH   1   2
BRANCH   1  17
ATOM     17  C   UNL     1      10.542 -54.346 -23.445  1.00  0.00     0.412 C 
ATOM     18  N   UNL     1      10.643 -53.323 -22.544  1.00  0.00    -0.324 N 
ATOM     19  O   UNL     1       9.543 -54.603 -24.105  1.00  0.00    -0.224 OA
ATOM     20  C   UNL     1       9.595 -52.352 -22.368  1.00  0.00     0.146 C 
ATOM     21  H   UNL     1      11.560 -53.146 -22.158  1.00  0.00     0.166 HD
ENDBRANCH   1  17
TORSDOF 2
ENDMDL
MODEL 2
REMARK VINA RESULT:    -8.145      1.899      2.252
REMARK INTER + INTRA:          -9.332
REMARK INTER:                  -9.377
REMARK INTRA:                   0.045
REMARK UNBOUND:                -0.235
REMARK SMILES CNC(=O)Oc1ccc2c(c1)SC[C@@H]1CC[N@H+](C)[C@H]21
REMARK SMILES IDX 5 1 6 2 16 3 17 4 15 5 19 6 14 7 9 8 13 9 10 10 8 11 12 12
REMARK SMILES IDX 11 13 7 14 18 15 3 17 2 18 4 19 1 20
REMARK H PARENT 17 16 2 21
ROOT
ATOM      1  O   UNL     1      11.744 -57.104 -22.158  1.00  0.00    -0.410 OA
ENDROOT
BRANCH   1   2
ATOM      2  C   UNL     1      11.130 -58.298 -22.536  1.00  0.00     0.133 A 
ATOM      3  C   UNL     1       7.167 -63.235 -24.004  1.00  0.00     0.263 C 
ATOM      4  N   UNL     1       7.681 -62.013 -23.291  1.00  0.00    -0.331 N 
ATOM      5  C   UNL     1       7.798 -63.144 -25.378  1.00  0.00     0.072 C 
ATOM      6  C   UNL     1       9.149 -61.927 -23.723  1.00  0.00     0.220 C 
ATOM      7  C   UNL     1       9.131 -62.401 -25.190  1.00  0.00     0.068 C 
ATOM      8  C   UNL     1       9.864 -60.659 -23.340  1.00  0.00     0.023 A 
ATOM      9  C   UNL     1       9.278 -61.289 -26.219  1.00  0.00     0.085 C 
ATOM     10  C   UNL     1      10.599 -59.898 -24.266  1.00  0.00     0.020 A 
ATOM     11  C   UNL     1       9.845 -60.246 -21.988  1.00  0.00     0.015 A 
ATOM     12  S   UNL     1      10.816 -60.386 -25.962  1.00  0.00    -0.125 SA
ATOM     13  C   UNL     1      11.233 -58.717 -23.858  1.00  0.00     0.062 A 
ATOM     14  C   UNL     1      10.471 -59.068 -21.586  1.00  0.00     0.048 A 
ATOM     15  C   UNL     1       6.840 -60.788 -23.530  1.00  0.00     0.333 C 
ATOM     16  H   UNL     1       7.657 -62.192 -22.280  1.00  0.00     0.348 HD
ENDBRANCH   1   2
BRANCH   1  17
ATOM     17  C   UNL     1      10.987 -55.992 -22.498  1.00  0.00     0.412 C 
ATOM     18  N   UNL     1      11.021 -55.091 -21.470  1.00  0.00    -0.324 N 
ATOM     19  O   UNL     1      10.384 -55.831 -23.552  1.00  0.00    -0.224 OA
ATOM     20  C   UNL     1      10.432 -53.783 -21.579  1.00  0.00     0.146 C 
ATOM     21  H   UNL     1      11.654 -55.294 -20.710  1.00  0.00     0.166 HD
ENDBRANCH   1  17
TORSDOF 2
ENDMDL
MODEL 3
REMARK VINA RESULT:    -7.983      1.922      2.311
REMARK INTER + INTRA:          -9.151
REMARK INTER:                  -9.120
REMARK INTRA:                  -0.031
REMARK UNBOUND:                -0.235
REMARK SMILES CNC(=O)Oc1ccc2c(c1)SC[C@@H]1CC[N@H+](C)[C@H]21
REMARK SMILES IDX 5 1 6 2 16 3 17 4 15 5 19 6 14 7 9 8 13 9 10 10 8 11 12 12
REMARK SMILES IDX 11 13 7 14 18 15 3 17 2 18 4 19 1 20
REMARK H PARENT 17 16 2 21
ROOT
ATOM      1  O   UNL     1      10.391 -54.933 -22.267  1.00  0.00    -0.410 OA
ENDROOT
BRANCH   1   2
ATOM      2  C   UNL     1      10.276 -56.272 -22.639  1.00  0.00     0.133 A 
ATOM      3  C   UNL     1       9.941 -62.745 -23.108  1.00  0.00     0.263 C 
ATOM      4  N   UNL     1      10.383 -61.396 -22.607  1.00  0.00    -0.331 N 
ATOM      5  C   UNL     1       8.556 -62.489 -23.664  1.00  0.00     0.072 C 
ATOM      6  C   UNL     1       9.894 -60.426 -23.688  1.00  0.00     0.220 C 
ATOM      7  C   UNL     1       8.550 -61.028 -24.145  1.00  0.00     0.068 C 
ATOM      8  C   UNL     1       9.996 -58.965 -23.342  1.00  0.00     0.023 A 
ATOM      9  C   UNL     1       7.318 -60.297 -23.631  1.00  0.00     0.085 C 
ATOM     10  C   UNL     1       8.914 -58.078 -23.485  1.00  0.00     0.020 A 
ATOM     11  C   UNL     1      11.240 -58.450 -22.910  1.00  0.00     0.015 A 
ATOM     12  S   UNL     1       7.341 -58.573 -24.151  1.00  0.00    -0.125 SA
ATOM     13  C   UNL     1       9.060 -56.730 -23.134  1.00  0.00     0.062 A 
ATOM     14  C   UNL     1      11.381 -57.110 -22.556  1.00  0.00     0.048 A 
ATOM     15  C   UNL     1       9.936 -61.110 -21.198  1.00  0.00     0.333 C 
ATOM     16  H   UNL     1      11.410 -61.372 -22.599  1.00  0.00     0.348 HD
ENDBRANCH   1   2
BRANCH   1  17
ATOM     17  C   UNL     1      10.974 -54.159 -23.260  1.00  0.00     0.412 C 
ATOM     18  N   UNL     1      11.382 -52.969 -22.725  1.00  0.00    -0.324 N 
ATOM     19  O   UNL     1      11.111 -54.484 -24.434  1.00  0.00    -0.224 OA
ATOM     20  C   UNL     1      12.136 -52.007 -23.484  1.00  0.00     0.146 C 
ATOM     21  H   UNL     1      11.319 -52.878 -21.721  1.00  0.00     0.166 HD
ENDBRANCH   1  17
TORSDOF 2
ENDMDL
MODEL 4
REMARK VINA RESULT:    -7.759      1.920      2.187
REMARK INTER + INTRA:          -8.901
REMARK INTER:                  -8.845
REMARK INTRA:                  -0.056
REMARK UNBOUND:                -0.235
REMARK SMILES CNC(=O)Oc1ccc2c(c1)SC[C@@H]1CC[N@H+](C)[C@H]21
REMARK SMILES IDX 5 1 6 2 16 3 17 4 15 5 19 6 14 7 9 8 13 9 10 10 8 11 12 12
REMARK SMILES IDX 11 13 7 14 18 15 3 17 2 18 4 19 1 20
REMARK H PARENT 17 16 2 21
ROOT
ATOM      1  O   UNL     1      10.882 -54.760 -22.674  1.00  0.00    -0.410 OA
ENDROOT
BRANCH   1   2
ATOM      2  C   UNL     1      10.472 -56.084 -22.827  1.00  0.00     0.133 A 
ATOM      3  C   UNL     1       8.270 -61.887 -24.751  1.00  0.00     0.263 C 
ATOM      4  N   UNL     1       8.382 -60.389 -24.660  1.00  0.00    -0.331 N 
ATOM      5  C   UNL     1       9.652 -62.376 -24.373  1.00  0.00     0.072 C 
ATOM      6  C   UNL     1       9.222 -60.160 -23.400  1.00  0.00     0.220 C 
ATOM      7  C   UNL     1      10.232 -61.325 -23.412  1.00  0.00     0.068 C 
ATOM      8  C   UNL     1       9.692 -58.746 -23.182  1.00  0.00     0.023 A 
ATOM      9  C   UNL     1      11.645 -60.938 -23.825  1.00  0.00     0.085 C 
ATOM     10  C   UNL     1      11.035 -58.431 -22.911  1.00  0.00     0.020 A 
ATOM     11  C   UNL     1       8.741 -57.700 -23.195  1.00  0.00     0.015 A 
ATOM     12  S   UNL     1      12.300 -59.667 -22.729  1.00  0.00    -0.125 SA
ATOM     13  C   UNL     1      11.421 -57.096 -22.732  1.00  0.00     0.062 A 
ATOM     14  C   UNL     1       9.128 -56.373 -23.022  1.00  0.00     0.048 A 
ATOM     15  C   UNL     1       8.888 -59.753 -25.928  1.00  0.00     0.333 C 
ATOM     16  H   UNL     1       7.445 -60.002 -24.493  1.00  0.00     0.348 HD
ENDBRANCH   1   2
BRANCH   1  17
ATOM     17  C   UNL     1      11.404 -54.231 -23.846  1.00  0.00     0.412 C 
ATOM     18  N   UNL     1      11.923 -52.993 -23.592  1.00  0.00    -0.324 N 
ATOM     19  O   UNL     1      11.408 -54.782 -24.941  1.00  0.00    -0.224 OA
ATOM     20  C   UNL     1      12.648 -52.247 -24.586  1.00  0.00     0.146 C 
ATOM     21  H   UNL     1      11.965 -52.708 -22.623  1.00  0.00     0.166 HD
ENDBRANCH   1  17
TORSDOF 2
ENDMDL
MODEL 5
REMARK VINA RESULT:    -7.544      4.315      7.087
REMARK INTER + INTRA:          -8.661
REMARK INTER:                  -8.911
REMARK INTRA:                   0.250
REMARK UNBOUND:                -0.235
REMARK SMILES CNC(=O)Oc1ccc2c(c1)SC[C@@H]1CC[N@H+](C)[C@H]21
REMARK SMILES IDX 5 1 6 2 16 3 17 4 15 5 19 6 14 7 9 8 13 9 10 10 8 11 12 12
REMARK SMILES IDX 11 13 7 14 18 15 3 17 2 18 4 19 1 20
REMARK H PARENT 17 16 2 21
ROOT
ATOM      1  O   UNL     1       7.266 -64.154 -24.248  1.00  0.00    -0.410 OA
ENDROOT
BRANCH   1   2
ATOM      2  C   UNL     1       7.925 -62.995 -23.840  1.00  0.00     0.133 A 
ATOM      3  C   UNL     1      11.682 -57.754 -23.035  1.00  0.00     0.263 C 
ATOM      4  N   UNL     1      11.286 -59.145 -23.450  1.00  0.00    -0.331 N 
ATOM      5  C   UNL     1      10.372 -56.995 -23.017  1.00  0.00     0.072 C 
ATOM      6  C   UNL     1       9.984 -59.400 -22.683  1.00  0.00     0.220 C 
ATOM      7  C   UNL     1       9.282 -58.027 -22.680  1.00  0.00     0.068 C 
ATOM      8  C   UNL     1       9.230 -60.640 -23.079  1.00  0.00     0.023 A 
ATOM      9  C   UNL     1       8.111 -57.909 -23.644  1.00  0.00     0.085 C 
ATOM     10  C   UNL     1       7.858 -60.623 -23.389  1.00  0.00     0.020 A 
ATOM     11  C   UNL     1       9.910 -61.880 -23.088  1.00  0.00     0.015 A 
ATOM     12  S   UNL     1       6.861 -59.155 -23.279  1.00  0.00    -0.125 SA
ATOM     13  C   UNL     1       7.209 -61.805 -23.768  1.00  0.00     0.062 A 
ATOM     14  C   UNL     1       9.263 -63.053 -23.471  1.00  0.00     0.048 A 
ATOM     15  C   UNL     1      11.230 -59.327 -24.943  1.00  0.00     0.333 C 
ATOM     16  H   UNL     1      11.994 -59.803 -23.101  1.00  0.00     0.348 HD
ENDBRANCH   1   2
BRANCH   1  17
ATOM     17  C   UNL     1       6.910 -64.115 -25.588  1.00  0.00     0.412 C 
ATOM     18  N   UNL     1       7.869 -63.441 -26.290  1.00  0.00    -0.324 N 
ATOM     19  O   UNL     1       5.900 -64.608 -26.076  1.00  0.00    -0.224 OA
ATOM     20  C   UNL     1       7.842 -63.345 -27.726  1.00  0.00     0.146 C 
ATOM     21  H   UNL     1       8.710 -63.192 -25.788  1.00  0.00     0.166 HD
ENDBRANCH   1  17
TORSDOF 2
ENDMDL
MODEL 6
REMARK VINA RESULT:    -7.014      3.995      5.731
REMARK INTER + INTRA:          -8.069
REMARK INTER:                  -8.762
REMARK INTRA:                   0.693
REMARK UNBOUND:                -0.235
REMARK SMILES CNC(=O)Oc1ccc2c(c1)SC[C@@H]1CC[N@H+](C)[C@H]21
REMARK SMILES IDX 5 1 6 2 16 3 17 4 15 5 19 6 14 7 9 8 13 9 10 10 8 11 12 12
REMARK SMILES IDX 11 13 7 14 18 15 3 17 2 18 4 19 1 20
REMARK H PARENT 17 16 2 21
ROOT
ATOM      1  O   UNL     1      10.641 -60.538 -28.724  1.00  0.00    -0.410 OA
ENDROOT
BRANCH   1   2
ATOM      2  C   UNL     1      10.819 -60.466 -27.342  1.00  0.00     0.133 A 
ATOM      3  C   UNL     1      11.408 -58.866 -21.072  1.00  0.00     0.263 C 
ATOM      4  N   UNL     1      11.486 -58.726 -22.568  1.00  0.00    -0.331 N 
ATOM      5  C   UNL     1      10.292 -59.867 -20.860  1.00  0.00     0.072 C 
ATOM      6  C   UNL     1      11.308 -60.159 -23.080  1.00  0.00     0.220 C 
ATOM      7  C   UNL     1      10.292 -60.778 -22.099  1.00  0.00     0.068 C 
ATOM      8  C   UNL     1      11.114 -60.298 -24.566  1.00  0.00     0.023 A 
ATOM      9  C   UNL     1       8.883 -60.931 -22.655  1.00  0.00     0.085 C 
ATOM     10  C   UNL     1      10.061 -61.045 -25.124  1.00  0.00     0.020 A 
ATOM     11  C   UNL     1      12.056 -59.703 -25.436  1.00  0.00     0.015 A 
ATOM     12  S   UNL     1       8.895 -61.955 -24.137  1.00  0.00    -0.125 SA
ATOM     13  C   UNL     1       9.918 -61.128 -26.514  1.00  0.00     0.062 A 
ATOM     14  C   UNL     1      11.908 -59.782 -26.820  1.00  0.00     0.048 A 
ATOM     15  C   UNL     1      10.538 -57.695 -23.119  1.00  0.00     0.333 C 
ATOM     16  H   UNL     1      12.433 -58.415 -22.817  1.00  0.00     0.348 HD
ENDBRANCH   1   2
BRANCH   1  17
ATOM     17  C   UNL     1      11.391 -59.586 -29.401  1.00  0.00     0.412 C 
ATOM     18  N   UNL     1      11.768 -60.088 -30.615  1.00  0.00    -0.324 N 
ATOM     19  O   UNL     1      11.671 -58.468 -28.987  1.00  0.00    -0.224 OA
ATOM     20  C   UNL     1      12.450 -59.287 -31.597  1.00  0.00     0.146 C 
ATOM     21  H   UNL     1      11.368 -60.977 -30.883  1.00  0.00     0.166 HD
ENDBRANCH   1  17
TORSDOF 2
ENDMDL
MODEL 7
REMARK VINA RESULT:    -6.897      5.071     10.420
REMARK INTER + INTRA:          -7.938
REMARK INTER:                  -7.767
REMARK INTRA:                  -0.171
REMARK UNBOUND:                -0.235
REMARK SMILES CNC(=O)Oc1ccc2c(c1)SC[C@@H]1CC[N@H+](C)[C@H]21
REMARK SMILES IDX 5 1 6 2 16 3 17 4 15 5 19 6 14 7 9 8 13 9 10 10 8 11 12 12
REMARK SMILES IDX 11 13 7 14 18 15 3 17 2 18 4 19 1 20
REMARK H PARENT 17 16 2 21
ROOT
ATOM      1  O   UNL     1      10.453 -52.591 -21.240  1.00  0.00    -0.410 OA
ENDROOT
BRANCH   1   2
ATOM      2  C   UNL     1      10.787 -51.411 -21.905  1.00  0.00     0.133 A 
ATOM      3  C   UNL     1      12.302 -45.387 -23.813  1.00  0.00     0.263 C 
ATOM      4  N   UNL     1      11.657 -46.483 -23.007  1.00  0.00    -0.331 N 
ATOM      5  C   UNL     1      13.560 -46.030 -24.356  1.00  0.00     0.072 C 
ATOM      6  C   UNL     1      11.859 -47.736 -23.865  1.00  0.00     0.220 C 
ATOM      7  C   UNL     1      13.249 -47.529 -24.500  1.00  0.00     0.068 C 
ATOM      8  C   UNL     1      11.512 -49.040 -23.200  1.00  0.00     0.023 A 
ATOM      9  C   UNL     1      14.359 -48.372 -23.889  1.00  0.00     0.085 C 
ATOM     10  C   UNL     1      12.389 -50.139 -23.188  1.00  0.00     0.020 A 
ATOM     11  C   UNL     1      10.234 -49.189 -22.612  1.00  0.00     0.015 A 
ATOM     12  S   UNL     1      13.965 -50.125 -24.012  1.00  0.00    -0.125 SA
ATOM     13  C   UNL     1      12.021 -51.325 -22.540  1.00  0.00     0.062 A 
ATOM     14  C   UNL     1       9.873 -50.367 -21.963  1.00  0.00     0.048 A 
ATOM     15  C   UNL     1      12.160 -46.552 -21.590  1.00  0.00     0.333 C 
ATOM     16  H   UNL     1      10.649 -46.295 -22.951  1.00  0.00     0.348 HD
ENDBRANCH   1   2
BRANCH   1  17
ATOM     17  C   UNL     1      10.357 -53.673 -22.104  1.00  0.00     0.412 C 
ATOM     18  N   UNL     1      10.996 -54.748 -21.554  1.00  0.00    -0.324 N 
ATOM     19  O   UNL     1       9.786 -53.675 -23.188  1.00  0.00    -0.224 OA
ATOM     20  C   UNL     1      10.958 -56.053 -22.160  1.00  0.00     0.146 C 
ATOM     21  H   UNL     1      11.319 -54.647 -20.602  1.00  0.00     0.166 HD
ENDBRANCH   1  17
TORSDOF 2
ENDMDL
MODEL 8
REMARK VINA RESULT:    -6.426      4.623      8.881
REMARK INTER + INTRA:          -7.412
REMARK INTER:                  -7.852
REMARK INTRA:                   0.440
REMARK UNBOUND:                -0.235
REMARK SMILES CNC(=O)Oc1ccc2c(c1)SC[C@@H]1CC[N@H+](C)[C@H]21
REMARK SMILES IDX 5 1 6 2 16 3 17 4 15 5 19 6 14 7 9 8 13 9 10 10 8 11 12 12
REMARK SMILES IDX 11 13 7 14 18 15 3 17 2 18 4 19 1 20
REMARK H PARENT 17 16 2 21
ROOT
ATOM      1  O   UNL     1       9.996 -52.788 -21.625  1.00  0.00    -0.410 OA
ENDROOT
BRANCH   1   2
ATOM      2  C   UNL     1      10.881 -52.094 -22.449  1.00  0.00     0.133 A 
ATOM      3  C   UNL     1      15.665 -48.655 -25.189  1.00  0.00     0.263 C 
ATOM      4  N   UNL     1      14.675 -49.095 -24.145  1.00  0.00    -0.331 N 
ATOM      5  C   UNL     1      15.883 -49.896 -26.029  1.00  0.00     0.072 C 
ATOM      6  C   UNL     1      13.688 -49.971 -24.923  1.00  0.00     0.220 C 
ATOM      7  C   UNL     1      14.572 -50.698 -25.956  1.00  0.00     0.068 C 
ATOM      8  C   UNL     1      12.705 -50.743 -24.083  1.00  0.00     0.023 A 
ATOM      9  C   UNL     1      14.852 -52.160 -25.637  1.00  0.00     0.085 C 
ATOM     10  C   UNL     1      12.495 -52.124 -24.246  1.00  0.00     0.020 A 
ATOM     11  C   UNL     1      11.923 -50.047 -23.134  1.00  0.00     0.015 A 
ATOM     12  S   UNL     1      13.313 -53.085 -25.499  1.00  0.00    -0.125 SA
ATOM     13  C   UNL     1      11.579 -52.796 -23.426  1.00  0.00     0.062 A 
ATOM     14  C   UNL     1      11.017 -50.719 -22.316  1.00  0.00     0.048 A 
ATOM     15  C   UNL     1      15.323 -49.724 -22.940  1.00  0.00     0.333 C 
ATOM     16  H   UNL     1      14.169 -48.268 -23.807  1.00  0.00     0.348 HD
ENDBRANCH   1   2
BRANCH   1  17
ATOM     17  C   UNL     1      10.539 -53.972 -21.146  1.00  0.00     0.412 C 
ATOM     18  N   UNL     1      10.442 -54.936 -22.110  1.00  0.00    -0.324 N 
ATOM     19  O   UNL     1      11.034 -54.136 -20.038  1.00  0.00    -0.224 OA
ATOM     20  C   UNL     1      11.034 -56.238 -21.953  1.00  0.00     0.146 C 
ATOM     21  H   UNL     1      10.123 -54.637 -23.021  1.00  0.00     0.166 HD
ENDBRANCH   1  17
TORSDOF 2
ENDMDL
MODEL 9
REMARK VINA RESULT:    -6.309      5.346     10.218
REMARK INTER + INTRA:          -7.281
REMARK INTER:                  -7.422
REMARK INTRA:                   0.140
REMARK UNBOUND:                -0.235
REMARK SMILES CNC(=O)Oc1ccc2c(c1)SC[C@@H]1CC[N@H+](C)[C@H]21
REMARK SMILES IDX 5 1 6 2 16 3 17 4 15 5 19 6 14 7 9 8 13 9 10 10 8 11 12 12
REMARK SMILES IDX 11 13 7 14 18 15 3 17 2 18 4 19 1 20
REMARK H PARENT 17 16 2 21
ROOT
ATOM      1  O   UNL     1       9.623 -52.498 -22.057  1.00  0.00    -0.410 OA
ENDROOT
BRANCH   1   2
ATOM      2  C   UNL     1      10.619 -51.561 -22.335  1.00  0.00     0.133 A 
ATOM      3  C   UNL     1      15.291 -47.776 -24.798  1.00  0.00     0.263 C 
ATOM      4  N   UNL     1      14.470 -49.014 -24.559  1.00  0.00    -0.331 N 
ATOM      5  C   UNL     1      14.334 -46.642 -24.493  1.00  0.00     0.072 C 
ATOM      6  C   UNL     1      13.668 -48.684 -23.295  1.00  0.00     0.220 C 
ATOM      7  C   UNL     1      13.351 -47.182 -23.440  1.00  0.00     0.068 C 
ATOM      8  C   UNL     1      12.580 -49.662 -22.944  1.00  0.00     0.023 A 
ATOM      9  C   UNL     1      11.915 -46.870 -23.835  1.00  0.00     0.085 C 
ATOM     10  C   UNL     1      11.262 -49.257 -22.663  1.00  0.00     0.020 A 
ATOM     11  C   UNL     1      12.903 -51.034 -22.837  1.00  0.00     0.015 A 
ATOM     12  S   UNL     1      10.764 -47.551 -22.627  1.00  0.00    -0.125 SA
ATOM     13  C   UNL     1      10.285 -50.212 -22.357  1.00  0.00     0.062 A 
ATOM     14  C   UNL     1      11.927 -51.982 -22.537  1.00  0.00     0.048 A 
ATOM     15  C   UNL     1      13.675 -49.441 -25.764  1.00  0.00     0.333 C 
ATOM     16  H   UNL     1      15.106 -49.789 -24.338  1.00  0.00     0.348 HD
ENDBRANCH   1   2
BRANCH   1  17
ATOM     17  C   UNL     1      10.139 -53.679 -21.545  1.00  0.00     0.412 C 
ATOM     18  N   UNL     1      10.146 -54.631 -22.526  1.00  0.00    -0.324 N 
ATOM     19  O   UNL     1      10.534 -53.851 -20.398  1.00  0.00    -0.224 OA
ATOM     20  C   UNL     1      10.743 -55.926 -22.331  1.00  0.00     0.146 C 
ATOM     21  H   UNL     1       9.908 -54.324 -23.458  1.00  0.00     0.166 HD
ENDBRANCH   1  17
TORSDOF 2
ENDMDL
