MODEL 1
REMARK VINA RESULT:   -10.889      0.000      0.000
REMARK INTER + INTRA:         -16.807
REMARK INTER:                 -15.981
REMARK INTRA:                  -0.826
REMARK UNBOUND:                -0.826
REMARK SMILES COc1cc2c(cc1OC)S[C@H](C(=O)CCc1cc[n+](Cc3ccc(F)cc3)cc1)C2
REMARK SMILES IDX 15 1 13 2 14 3 12 4 3 5 4 6 8 7 5 8 7 9 6 10 31 11 11 12
REMARK SMILES IDX 2 13 1 14 9 15 10 16 16 17 17 18 18 19 30 20 19 21 29 22
REMARK SMILES IDX 20 23 21 24 22 25 23 26 28 27 24 28 27 29 25 30 26 31
REMARK H PARENT
ROOT
ATOM      1  C   UNL     1      11.035 -57.662 -22.368  1.00  0.00     0.081 C 
ENDROOT
BRANCH   1   2
ATOM      2  C   UNL     1      10.459 -59.067 -22.477  1.00  0.00     0.146 C 
ATOM      3  O   UNL     1       9.236 -59.227 -22.399  1.00  0.00    -0.298 OA
BRANCH   2   4
ATOM      4  C   UNL     1      11.400 -60.243 -22.768  1.00  0.00     0.123 C 
ATOM      5  C   UNL     1      11.033 -59.955 -27.530  1.00  0.00     0.161 A 
ATOM      6  C   UNL     1      11.819 -59.578 -26.433  1.00  0.00     0.055 A 
ATOM      7  C   UNL     1      10.077 -60.984 -27.372  1.00  0.00     0.161 A 
ATOM      8  C   UNL     1      11.602 -60.186 -25.199  1.00  0.00    -0.029 A 
ATOM      9  C   UNL     1       9.868 -61.593 -26.134  1.00  0.00     0.065 A 
ATOM     10  C   UNL     1      10.626 -61.173 -25.058  1.00  0.00     0.015 A 
ATOM     11  C   UNL     1      12.360 -59.900 -23.927  1.00  0.00     0.059 C 
ATOM     12  S   UNL     1      10.459 -61.695 -23.382  1.00  0.00    -0.114 SA
BRANCH   5  13
ATOM     13  O   UNL     1      11.079 -59.344 -28.754  1.00  0.00    -0.493 OA
ATOM     14  C   UNL     1      12.090 -58.360 -28.951  1.00  0.00     0.278 C 
ENDBRANCH   5  13
BRANCH   7  15
ATOM     15  O   UNL     1       9.227 -61.392 -28.373  1.00  0.00    -0.493 OA
ATOM     16  C   UNL     1       8.653 -62.676 -28.103  1.00  0.00     0.278 C 
ENDBRANCH   7  15
ENDBRANCH   2   4
ENDBRANCH   1   2
BRANCH   1  17
ATOM     17  C   UNL     1       9.977 -56.601 -22.685  1.00  0.00     0.044 C 
BRANCH  17  18
ATOM     18  C   UNL     1      10.533 -55.193 -22.747  1.00  0.00    -0.036 A 
ATOM     19  C   UNL     1      11.249 -54.764 -23.866  1.00  0.00     0.074 A 
ATOM     20  C   UNL     1      10.316 -54.284 -21.713  1.00  0.00     0.074 A 
ATOM     21  C   UNL     1      11.718 -53.457 -23.935  1.00  0.00     0.308 A 
ATOM     22  C   UNL     1      10.816 -52.988 -21.818  1.00  0.00     0.308 A 
ATOM     23  N   UNL     1      11.505 -52.596 -22.915  1.00  0.00    -0.201 N 
BRANCH  23  24
ATOM     24  C   UNL     1      12.009 -51.204 -23.008  1.00  0.00     0.393 C 
BRANCH  24  25
ATOM     25  C   UNL     1      13.258 -51.138 -23.855  1.00  0.00     0.017 A 
ATOM     26  C   UNL     1      14.516 -51.447 -23.309  1.00  0.00     0.013 A 
ATOM     27  C   UNL     1      13.176 -50.771 -25.211  1.00  0.00     0.013 A 
ATOM     28  C   UNL     1      15.665 -51.375 -24.099  1.00  0.00     0.040 A 
ATOM     29  C   UNL     1      14.329 -50.702 -25.995  1.00  0.00     0.040 A 
ATOM     30  C   UNL     1      15.562 -51.003 -25.433  1.00  0.00     0.123 A 
ATOM     31  F   UNL     1      16.666 -50.933 -26.187  1.00  0.00    -0.207 F 
ENDBRANCH  24  25
ENDBRANCH  23  24
ENDBRANCH  17  18
ENDBRANCH   1  17
TORSDOF 8
ENDMDL
MODEL 2
REMARK VINA RESULT:   -10.872      1.488      2.021
REMARK INTER + INTRA:         -16.782
REMARK INTER:                 -16.184
REMARK INTRA:                  -0.598
REMARK UNBOUND:                -0.826
REMARK SMILES COc1cc2c(cc1OC)S[C@H](C(=O)CCc1cc[n+](Cc3ccc(F)cc3)cc1)C2
REMARK SMILES IDX 15 1 13 2 14 3 12 4 3 5 4 6 8 7 5 8 7 9 6 10 31 11 11 12
REMARK SMILES IDX 2 13 1 14 9 15 10 16 16 17 17 18 18 19 30 20 19 21 29 22
REMARK SMILES IDX 20 23 21 24 22 25 23 26 28 27 24 28 27 29 25 30 26 31
REMARK H PARENT
ROOT
ATOM      1  C   UNL     1      11.026 -58.258 -21.877  1.00  0.00     0.081 C 
ENDROOT
BRANCH   1   2
ATOM      2  C   UNL     1      10.282 -59.479 -22.397  1.00  0.00     0.146 C 
ATOM      3  O   UNL     1       9.073 -59.394 -22.639  1.00  0.00    -0.298 OA
BRANCH   2   4
ATOM      4  C   UNL     1      11.066 -60.765 -22.691  1.00  0.00     0.123 C 
ATOM      5  C   UNL     1      10.857 -60.345 -27.453  1.00  0.00     0.161 A 
ATOM      6  C   UNL     1      11.659 -60.096 -26.331  1.00  0.00     0.055 A 
ATOM      7  C   UNL     1       9.769 -61.240 -27.338  1.00  0.00     0.161 A 
ATOM      8  C   UNL     1      11.333 -60.692 -25.116  1.00  0.00    -0.029 A 
ATOM      9  C   UNL     1       9.451 -61.838 -26.118  1.00  0.00     0.065 A 
ATOM     10  C   UNL     1      10.232 -61.542 -25.017  1.00  0.00     0.015 A 
ATOM     11  C   UNL     1      12.091 -60.532 -23.821  1.00  0.00     0.059 C 
ATOM     12  S   UNL     1       9.955 -62.067 -23.357  1.00  0.00    -0.114 SA
BRANCH   5  13
ATOM     13  O   UNL     1      11.014 -59.725 -28.662  1.00  0.00    -0.493 OA
ATOM     14  C   UNL     1      11.844 -58.566 -28.696  1.00  0.00     0.278 C 
ENDBRANCH   5  13
BRANCH   7  15
ATOM     15  O   UNL     1       8.898 -61.513 -28.365  1.00  0.00    -0.493 OA
ATOM     16  C   UNL     1       8.404 -62.856 -28.311  1.00  0.00     0.278 C 
ENDBRANCH   7  15
ENDBRANCH   2   4
ENDBRANCH   1   2
BRANCH   1  17
ATOM     17  C   UNL     1      11.383 -57.297 -23.015  1.00  0.00     0.044 C 
BRANCH  17  18
ATOM     18  C   UNL     1      11.018 -55.856 -22.727  1.00  0.00    -0.036 A 
ATOM     19  C   UNL     1      10.642 -55.000 -23.765  1.00  0.00     0.074 A 
ATOM     20  C   UNL     1      11.010 -55.358 -21.426  1.00  0.00     0.074 A 
ATOM     21  C   UNL     1      10.265 -53.691 -23.488  1.00  0.00     0.308 A 
ATOM     22  C   UNL     1      10.638 -54.036 -21.195  1.00  0.00     0.308 A 
ATOM     23  N   UNL     1      10.276 -53.228 -22.218  1.00  0.00    -0.201 N 
BRANCH  23  24
ATOM     24  C   UNL     1       9.865 -51.829 -21.941  1.00  0.00     0.393 C 
BRANCH  24  25
ATOM     25  C   UNL     1      10.870 -50.851 -22.502  1.00  0.00     0.017 A 
ATOM     26  C   UNL     1      10.582 -49.476 -22.561  1.00  0.00     0.013 A 
ATOM     27  C   UNL     1      12.115 -51.307 -22.971  1.00  0.00     0.013 A 
ATOM     28  C   UNL     1      11.515 -48.582 -23.090  1.00  0.00     0.040 A 
ATOM     29  C   UNL     1      13.044 -50.407 -23.498  1.00  0.00     0.040 A 
ATOM     30  C   UNL     1      12.735 -49.054 -23.555  1.00  0.00     0.123 A 
ATOM     31  F   UNL     1      13.627 -48.195 -24.063  1.00  0.00    -0.207 F 
ENDBRANCH  24  25
ENDBRANCH  23  24
ENDBRANCH  17  18
ENDBRANCH   1  17
TORSDOF 8
ENDMDL
MODEL 3
REMARK VINA RESULT:   -10.430      2.238      2.756
REMARK INTER + INTRA:         -16.134
REMARK INTER:                 -15.635
REMARK INTRA:                  -0.499
REMARK UNBOUND:                -0.826
REMARK SMILES COc1cc2c(cc1OC)S[C@H](C(=O)CCc1cc[n+](Cc3ccc(F)cc3)cc1)C2
REMARK SMILES IDX 15 1 13 2 14 3 12 4 3 5 4 6 8 7 5 8 7 9 6 10 31 11 11 12
REMARK SMILES IDX 2 13 1 14 9 15 10 16 16 17 17 18 18 19 30 20 19 21 29 22
REMARK SMILES IDX 20 23 21 24 22 25 23 26 28 27 24 28 27 29 25 30 26 31
REMARK H PARENT
ROOT
ATOM      1  C   UNL     1      10.821 -56.466 -22.821  1.00  0.00     0.081 C 
ENDROOT
BRANCH   1   2
ATOM      2  C   UNL     1       9.920 -57.670 -23.057  1.00  0.00     0.146 C 
ATOM      3  O   UNL     1       8.790 -57.496 -23.528  1.00  0.00    -0.298 OA
BRANCH   2   4
ATOM      4  C   UNL     1      10.464 -59.078 -22.786  1.00  0.00     0.123 C 
ATOM      5  C   UNL     1      11.493 -60.055 -27.355  1.00  0.00     0.161 A 
ATOM      6  C   UNL     1      12.037 -59.598 -26.148  1.00  0.00     0.055 A 
ATOM      7  C   UNL     1      10.247 -60.722 -27.341  1.00  0.00     0.161 A 
ATOM      8  C   UNL     1      11.313 -59.760 -24.970  1.00  0.00    -0.029 A 
ATOM      9  C   UNL     1       9.528 -60.886 -26.156  1.00  0.00     0.065 A 
ATOM     10  C   UNL     1      10.067 -60.386 -24.986  1.00  0.00     0.015 A 
ATOM     11  C   UNL     1      11.755 -59.329 -23.593  1.00  0.00     0.059 C 
ATOM     12  S   UNL     1       9.297 -60.357 -23.400  1.00  0.00    -0.114 SA
BRANCH   5  13
ATOM     13  O   UNL     1      12.061 -59.846 -28.582  1.00  0.00    -0.493 OA
ATOM     14  C   UNL     1      11.937 -58.542 -29.142  1.00  0.00     0.278 C 
ENDBRANCH   5  13
BRANCH   7  15
ATOM     15  O   UNL     1       9.609 -61.166 -28.475  1.00  0.00    -0.493 OA
ATOM     16  C   UNL     1       8.842 -62.351 -28.234  1.00  0.00     0.278 C 
ENDBRANCH   7  15
ENDBRANCH   2   4
ENDBRANCH   1   2
BRANCH   1  17
ATOM     17  C   UNL     1      10.080 -55.154 -23.096  1.00  0.00     0.044 C 
BRANCH  17  18
ATOM     18  C   UNL     1      10.989 -53.943 -23.135  1.00  0.00    -0.036 A 
ATOM     19  C   UNL     1      11.771 -53.681 -24.262  1.00  0.00     0.074 A 
ATOM     20  C   UNL     1      11.043 -53.045 -22.071  1.00  0.00     0.074 A 
ATOM     21  C   UNL     1      12.569 -52.544 -24.309  1.00  0.00     0.308 A 
ATOM     22  C   UNL     1      11.867 -51.925 -22.154  1.00  0.00     0.308 A 
ATOM     23  N   UNL     1      12.613 -51.693 -23.259  1.00  0.00    -0.201 N 
BRANCH  23  24
ATOM     24  C   UNL     1      13.467 -50.482 -23.329  1.00  0.00     0.393 C 
BRANCH  24  25
ATOM     25  C   UNL     1      12.629 -49.244 -23.544  1.00  0.00     0.017 A 
ATOM     26  C   UNL     1      12.978 -48.298 -24.524  1.00  0.00     0.013 A 
ATOM     27  C   UNL     1      11.479 -49.023 -22.764  1.00  0.00     0.013 A 
ATOM     28  C   UNL     1      12.200 -47.153 -24.708  1.00  0.00     0.040 A 
ATOM     29  C   UNL     1      10.705 -47.877 -22.954  1.00  0.00     0.040 A 
ATOM     30  C   UNL     1      11.073 -46.951 -23.922  1.00  0.00     0.123 A 
ATOM     31  F   UNL     1      10.331 -45.852 -24.099  1.00  0.00    -0.207 F 
ENDBRANCH  24  25
ENDBRANCH  23  24
ENDBRANCH  17  18
ENDBRANCH   1  17
TORSDOF 8
ENDMDL
MODEL 4
REMARK VINA RESULT:   -10.400      5.100     10.351
REMARK INTER + INTRA:         -16.090
REMARK INTER:                 -15.723
REMARK INTRA:                  -0.366
REMARK UNBOUND:                -0.826
REMARK SMILES COc1cc2c(cc1OC)S[C@H](C(=O)CCc1cc[n+](Cc3ccc(F)cc3)cc1)C2
REMARK SMILES IDX 15 1 13 2 14 3 12 4 3 5 4 6 8 7 5 8 7 9 6 10 31 11 11 12
REMARK SMILES IDX 2 13 1 14 9 15 10 16 16 17 17 18 18 19 30 20 19 21 29 22
REMARK SMILES IDX 20 23 21 24 22 25 23 26 28 27 24 28 27 29 25 30 26 31
REMARK H PARENT
ROOT
ATOM      1  C   UNL     1      11.348 -55.884 -21.496  1.00  0.00     0.081 C 
ENDROOT
BRANCH   1   2
ATOM      2  C   UNL     1      10.643 -54.537 -21.428  1.00  0.00     0.146 C 
ATOM      3  O   UNL     1      10.589 -53.937 -20.349  1.00  0.00    -0.298 OA
BRANCH   2   4
ATOM      4  C   UNL     1      10.091 -53.914 -22.716  1.00  0.00     0.123 C 
ATOM      5  C   UNL     1      13.464 -50.540 -23.073  1.00  0.00     0.161 A 
ATOM      6  C   UNL     1      13.093 -51.817 -23.515  1.00  0.00     0.055 A 
ATOM      7  C   UNL     1      12.495 -49.712 -22.463  1.00  0.00     0.161 A 
ATOM      8  C   UNL     1      11.793 -52.263 -23.292  1.00  0.00    -0.029 A 
ATOM      9  C   UNL     1      11.192 -50.164 -22.247  1.00  0.00     0.065 A 
ATOM     10  C   UNL     1      10.863 -51.443 -22.652  1.00  0.00     0.015 A 
ATOM     11  C   UNL     1      11.234 -53.601 -23.705  1.00  0.00     0.059 C 
ATOM     12  S   UNL     1       9.334 -52.276 -22.376  1.00  0.00    -0.114 SA
BRANCH   5  13
ATOM     13  O   UNL     1      14.740 -50.047 -23.135  1.00  0.00    -0.493 OA
ATOM     14  C   UNL     1      15.193 -49.571 -24.399  1.00  0.00     0.278 C 
ENDBRANCH   5  13
BRANCH   7  15
ATOM     15  O   UNL     1      12.771 -48.465 -21.955  1.00  0.00    -0.493 OA
ATOM     16  C   UNL     1      12.247 -47.418 -22.780  1.00  0.00     0.278 C 
ENDBRANCH   7  15
ENDBRANCH   2   4
ENDBRANCH   1   2
BRANCH   1  17
ATOM     17  C   UNL     1      11.376 -56.426 -22.929  1.00  0.00     0.044 C 
BRANCH  17  18
ATOM     18  C   UNL     1      11.254 -57.934 -23.007  1.00  0.00    -0.036 A 
ATOM     19  C   UNL     1      11.793 -58.633 -24.089  1.00  0.00     0.074 A 
ATOM     20  C   UNL     1      10.639 -58.663 -21.991  1.00  0.00     0.074 A 
ATOM     21  C   UNL     1      11.717 -60.020 -24.132  1.00  0.00     0.308 A 
ATOM     22  C   UNL     1      10.573 -60.052 -22.081  1.00  0.00     0.308 A 
ATOM     23  N   UNL     1      11.105 -60.705 -23.140  1.00  0.00    -0.201 N 
BRANCH  23  24
ATOM     24  C   UNL     1      11.038 -62.186 -23.200  1.00  0.00     0.393 C 
BRANCH  24  25
ATOM     25  C   UNL     1       9.729 -62.642 -23.802  1.00  0.00     0.017 A 
ATOM     26  C   UNL     1       8.848 -63.460 -23.074  1.00  0.00     0.013 A 
ATOM     27  C   UNL     1       9.373 -62.246 -25.104  1.00  0.00     0.013 A 
ATOM     28  C   UNL     1       7.644 -63.882 -23.644  1.00  0.00     0.040 A 
ATOM     29  C   UNL     1       8.169 -62.671 -25.668  1.00  0.00     0.040 A 
ATOM     30  C   UNL     1       7.317 -63.487 -24.934  1.00  0.00     0.123 A 
ATOM     31  F   UNL     1       6.164 -63.894 -25.478  1.00  0.00    -0.207 F 
ENDBRANCH  24  25
ENDBRANCH  23  24
ENDBRANCH  17  18
ENDBRANCH   1  17
TORSDOF 8
ENDMDL
MODEL 5
REMARK VINA RESULT:    -9.951      2.733      3.461
REMARK INTER + INTRA:         -15.430
REMARK INTER:                 -14.624
REMARK INTRA:                  -0.807
REMARK UNBOUND:                -0.826
REMARK SMILES COc1cc2c(cc1OC)S[C@H](C(=O)CCc1cc[n+](Cc3ccc(F)cc3)cc1)C2
REMARK SMILES IDX 15 1 13 2 14 3 12 4 3 5 4 6 8 7 5 8 7 9 6 10 31 11 11 12
REMARK SMILES IDX 2 13 1 14 9 15 10 16 16 17 17 18 18 19 30 20 19 21 29 22
REMARK SMILES IDX 20 23 21 24 22 25 23 26 28 27 24 28 27 29 25 30 26 31
REMARK H PARENT
ROOT
ATOM      1  C   UNL     1      10.635 -55.277 -22.705  1.00  0.00     0.081 C 
ENDROOT
BRANCH   1   2
ATOM      2  C   UNL     1      10.225 -56.723 -22.938  1.00  0.00     0.146 C 
ATOM      3  O   UNL     1       9.143 -56.965 -23.485  1.00  0.00    -0.298 OA
BRANCH   2   4
ATOM      4  C   UNL     1      11.201 -57.849 -22.570  1.00  0.00     0.123 C 
ATOM      5  C   UNL     1      10.644 -60.290 -26.646  1.00  0.00     0.161 A 
ATOM      6  C   UNL     1      11.455 -59.352 -25.993  1.00  0.00     0.055 A 
ATOM      7  C   UNL     1       9.736 -61.064 -25.888  1.00  0.00     0.161 A 
ATOM      8  C   UNL     1      11.309 -59.165 -24.621  1.00  0.00    -0.029 A 
ATOM      9  C   UNL     1       9.599 -60.875 -24.512  1.00  0.00     0.065 A 
ATOM     10  C   UNL     1      10.379 -59.914 -23.900  1.00  0.00     0.015 A 
ATOM     11  C   UNL     1      12.102 -58.204 -23.771  1.00  0.00     0.059 C 
ATOM     12  S   UNL     1      10.296 -59.406 -22.213  1.00  0.00    -0.114 SA
BRANCH   5  13
ATOM     13  O   UNL     1      10.620 -60.472 -28.003  1.00  0.00    -0.493 OA
ATOM     14  C   UNL     1      11.648 -59.842 -28.761  1.00  0.00     0.278 C 
ENDBRANCH   5  13
BRANCH   7  15
ATOM     15  O   UNL     1       8.866 -61.974 -26.441  1.00  0.00    -0.493 OA
ATOM     16  C   UNL     1       8.094 -62.655 -25.446  1.00  0.00     0.278 C 
ENDBRANCH   7  15
ENDBRANCH   2   4
ENDBRANCH   1   2
BRANCH   1  17
ATOM     17  C   UNL     1      11.059 -54.600 -24.013  1.00  0.00     0.044 C 
BRANCH  17  18
ATOM     18  C   UNL     1      11.742 -53.264 -23.808  1.00  0.00    -0.036 A 
ATOM     19  C   UNL     1      11.472 -52.497 -22.673  1.00  0.00     0.074 A 
ATOM     20  C   UNL     1      12.680 -52.785 -24.720  1.00  0.00     0.074 A 
ATOM     21  C   UNL     1      12.136 -51.294 -22.469  1.00  0.00     0.308 A 
ATOM     22  C   UNL     1      13.313 -51.566 -24.484  1.00  0.00     0.308 A 
ATOM     23  N   UNL     1      13.033 -50.843 -23.374  1.00  0.00    -0.201 N 
BRANCH  23  24
ATOM     24  C   UNL     1      13.737 -49.558 -23.138  1.00  0.00     0.393 C 
BRANCH  24  25
ATOM     25  C   UNL     1      12.767 -48.400 -23.165  1.00  0.00     0.017 A 
ATOM     26  C   UNL     1      12.497 -47.659 -22.001  1.00  0.00     0.013 A 
ATOM     27  C   UNL     1      12.122 -48.045 -24.364  1.00  0.00     0.013 A 
ATOM     28  C   UNL     1      11.592 -46.596 -22.036  1.00  0.00     0.040 A 
ATOM     29  C   UNL     1      11.219 -46.980 -24.392  1.00  0.00     0.040 A 
ATOM     30  C   UNL     1      10.960 -46.267 -23.228  1.00  0.00     0.123 A 
ATOM     31  F   UNL     1      10.093 -45.249 -23.258  1.00  0.00    -0.207 F 
ENDBRANCH  24  25
ENDBRANCH  23  24
ENDBRANCH  17  18
ENDBRANCH   1  17
TORSDOF 8
ENDMDL
MODEL 6
REMARK VINA RESULT:    -9.836      5.026     10.003
REMARK INTER + INTRA:         -15.261
REMARK INTER:                 -14.242
REMARK INTRA:                  -1.019
REMARK UNBOUND:                -0.826
REMARK SMILES COc1cc2c(cc1OC)S[C@H](C(=O)CCc1cc[n+](Cc3ccc(F)cc3)cc1)C2
REMARK SMILES IDX 15 1 13 2 14 3 12 4 3 5 4 6 8 7 5 8 7 9 6 10 31 11 11 12
REMARK SMILES IDX 2 13 1 14 9 15 10 16 16 17 17 18 18 19 30 20 19 21 29 22
REMARK SMILES IDX 20 23 21 24 22 25 23 26 28 27 24 28 27 29 25 30 26 31
REMARK H PARENT
ROOT
ATOM      1  C   UNL     1      11.486 -54.022 -23.489  1.00  0.00     0.081 C 
ENDROOT
BRANCH   1   2
ATOM      2  C   UNL     1      11.619 -52.644 -22.858  1.00  0.00     0.146 C 
ATOM      3  O   UNL     1      11.642 -52.542 -21.626  1.00  0.00    -0.298 OA
BRANCH   2   4
ATOM      4  C   UNL     1      11.808 -51.419 -23.763  1.00  0.00     0.123 C 
ATOM      5  C   UNL     1      16.494 -52.088 -24.461  1.00  0.00     0.161 A 
ATOM      6  C   UNL     1      15.226 -52.317 -25.011  1.00  0.00     0.055 A 
ATOM      7  C   UNL     1      16.636 -51.132 -23.430  1.00  0.00     0.161 A 
ATOM      8  C   UNL     1      14.126 -51.639 -24.493  1.00  0.00    -0.029 A 
ATOM      9  C   UNL     1      15.529 -50.452 -22.918  1.00  0.00     0.065 A 
ATOM     10  C   UNL     1      14.284 -50.728 -23.449  1.00  0.00     0.015 A 
ATOM     11  C   UNL     1      12.701 -51.767 -24.972  1.00  0.00     0.059 C 
ATOM     12  S   UNL     1      12.736 -50.099 -22.887  1.00  0.00    -0.114 SA
BRANCH   5  13
ATOM     13  O   UNL     1      17.620 -52.781 -24.812  1.00  0.00    -0.493 OA
ATOM     14  C   UNL     1      18.397 -52.259 -25.886  1.00  0.00     0.278 C 
ENDBRANCH   5  13
BRANCH   7  15
ATOM     15  O   UNL     1      17.826 -50.869 -22.794  1.00  0.00    -0.493 OA
ATOM     16  C   UNL     1      17.793 -51.243 -21.412  1.00  0.00     0.278 C 
ENDBRANCH   7  15
ENDBRANCH   2   4
ENDBRANCH   1   2
BRANCH   1  17
ATOM     17  C   UNL     1      10.927 -55.040 -22.490  1.00  0.00     0.044 C 
BRANCH  17  18
ATOM     18  C   UNL     1      11.330 -56.468 -22.794  1.00  0.00    -0.036 A 
ATOM     19  C   UNL     1      11.225 -57.457 -21.813  1.00  0.00     0.074 A 
ATOM     20  C   UNL     1      11.777 -56.839 -24.060  1.00  0.00     0.074 A 
ATOM     21  C   UNL     1      11.554 -58.774 -22.112  1.00  0.00     0.308 A 
ATOM     22  C   UNL     1      12.110 -58.169 -24.313  1.00  0.00     0.308 A 
ATOM     23  N   UNL     1      11.997 -59.108 -23.345  1.00  0.00    -0.201 N 
BRANCH  23  24
ATOM     24  C   UNL     1      12.339 -60.520 -23.648  1.00  0.00     0.393 C 
BRANCH  24  25
ATOM     25  C   UNL     1      11.101 -61.309 -24.004  1.00  0.00     0.017 A 
ATOM     26  C   UNL     1      10.460 -61.124 -25.242  1.00  0.00     0.013 A 
ATOM     27  C   UNL     1      10.574 -62.246 -23.098  1.00  0.00     0.013 A 
ATOM     28  C   UNL     1       9.311 -61.853 -25.557  1.00  0.00     0.040 A 
ATOM     29  C   UNL     1       9.425 -62.972 -23.419  1.00  0.00     0.040 A 
ATOM     30  C   UNL     1       8.803 -62.768 -24.644  1.00  0.00     0.123 A 
ATOM     31  F   UNL     1       7.701 -63.463 -24.949  1.00  0.00    -0.207 F 
ENDBRANCH  24  25
ENDBRANCH  23  24
ENDBRANCH  17  18
ENDBRANCH   1  17
TORSDOF 8
ENDMDL
MODEL 7
REMARK VINA RESULT:    -9.796      2.594      4.120
REMARK INTER + INTRA:         -15.204
REMARK INTER:                 -14.815
REMARK INTRA:                  -0.388
REMARK UNBOUND:                -0.826
REMARK SMILES COc1cc2c(cc1OC)S[C@H](C(=O)CCc1cc[n+](Cc3ccc(F)cc3)cc1)C2
REMARK SMILES IDX 15 1 13 2 14 3 12 4 3 5 4 6 8 7 5 8 7 9 6 10 31 11 11 12
REMARK SMILES IDX 2 13 1 14 9 15 10 16 16 17 17 18 18 19 30 20 19 21 29 22
REMARK SMILES IDX 20 23 21 24 22 25 23 26 28 27 24 28 27 29 25 30 26 31
REMARK H PARENT
ROOT
ATOM      1  C   UNL     1      10.134 -60.096 -21.252  1.00  0.00     0.081 C 
ENDROOT
BRANCH   1   2
ATOM      2  C   UNL     1       9.196 -61.023 -22.011  1.00  0.00     0.146 C 
ATOM      3  O   UNL     1       9.392 -62.244 -21.974  1.00  0.00    -0.298 OA
BRANCH   2   4
ATOM      4  C   UNL     1       7.978 -60.432 -22.732  1.00  0.00     0.123 C 
ATOM      5  C   UNL     1       9.107 -62.182 -27.040  1.00  0.00     0.161 A 
ATOM      6  C   UNL     1       8.334 -62.413 -25.894  1.00  0.00     0.055 A 
ATOM      7  C   UNL     1       9.645 -60.895 -27.261  1.00  0.00     0.161 A 
ATOM      8  C   UNL     1       8.161 -61.385 -24.972  1.00  0.00    -0.029 A 
ATOM      9  C   UNL     1       9.463 -59.867 -26.334  1.00  0.00     0.065 A 
ATOM     10  C   UNL     1       8.734 -60.133 -25.192  1.00  0.00     0.015 A 
ATOM     11  C   UNL     1       7.360 -61.467 -23.696  1.00  0.00     0.059 C 
ATOM     12  S   UNL     1       8.479 -59.045 -23.827  1.00  0.00    -0.114 SA
BRANCH   5  13
ATOM     13  O   UNL     1       9.438 -63.149 -27.951  1.00  0.00    -0.493 OA
ATOM     14  C   UNL     1       8.372 -63.740 -28.688  1.00  0.00     0.278 C 
ENDBRANCH   5  13
BRANCH   7  15
ATOM     15  O   UNL     1      10.453 -60.581 -28.328  1.00  0.00    -0.493 OA
ATOM     16  C   UNL     1      11.303 -59.462 -28.050  1.00  0.00     0.278 C 
ENDBRANCH   7  15
ENDBRANCH   2   4
ENDBRANCH   1   2
BRANCH   1  17
ATOM     17  C   UNL     1      11.461 -59.914 -21.997  1.00  0.00     0.044 C 
BRANCH  17  18
ATOM     18  C   UNL     1      11.596 -58.564 -22.670  1.00  0.00    -0.036 A 
ATOM     19  C   UNL     1      12.065 -58.472 -23.982  1.00  0.00     0.074 A 
ATOM     20  C   UNL     1      11.223 -57.390 -22.018  1.00  0.00     0.074 A 
ATOM     21  C   UNL     1      12.143 -57.234 -24.609  1.00  0.00     0.308 A 
ATOM     22  C   UNL     1      11.331 -56.169 -22.679  1.00  0.00     0.308 A 
ATOM     23  N   UNL     1      11.788 -56.107 -23.952  1.00  0.00    -0.201 N 
BRANCH  23  24
ATOM     24  C   UNL     1      11.873 -54.795 -24.639  1.00  0.00     0.393 C 
BRANCH  24  25
ATOM     25  C   UNL     1      11.301 -53.696 -23.775  1.00  0.00     0.017 A 
ATOM     26  C   UNL     1      10.007 -53.805 -23.235  1.00  0.00     0.013 A 
ATOM     27  C   UNL     1      12.062 -52.547 -23.494  1.00  0.00     0.013 A 
ATOM     28  C   UNL     1       9.485 -52.779 -22.444  1.00  0.00     0.040 A 
ATOM     29  C   UNL     1      11.534 -51.526 -22.702  1.00  0.00     0.040 A 
ATOM     30  C   UNL     1      10.250 -51.650 -22.186  1.00  0.00     0.123 A 
ATOM     31  F   UNL     1       9.746 -50.668 -21.429  1.00  0.00    -0.207 F 
ENDBRANCH  24  25
ENDBRANCH  23  24
ENDBRANCH  17  18
ENDBRANCH   1  17
TORSDOF 8
ENDMDL
MODEL 8
REMARK VINA RESULT:    -9.791      5.483     10.267
REMARK INTER + INTRA:         -15.196
REMARK INTER:                 -13.939
REMARK INTRA:                  -1.256
REMARK UNBOUND:                -0.826
REMARK SMILES COc1cc2c(cc1OC)S[C@H](C(=O)CCc1cc[n+](Cc3ccc(F)cc3)cc1)C2
REMARK SMILES IDX 15 1 13 2 14 3 12 4 3 5 4 6 8 7 5 8 7 9 6 10 31 11 11 12
REMARK SMILES IDX 2 13 1 14 9 15 10 16 16 17 17 18 18 19 30 20 19 21 29 22
REMARK SMILES IDX 20 23 21 24 22 25 23 26 28 27 24 28 27 29 25 30 26 31
REMARK H PARENT
ROOT
ATOM      1  C   UNL     1      14.984 -52.126 -25.106  1.00  0.00     0.081 C 
ENDROOT
BRANCH   1   2
ATOM      2  C   UNL     1      15.529 -50.759 -25.492  1.00  0.00     0.146 C 
ATOM      3  O   UNL     1      15.558 -50.434 -26.684  1.00  0.00    -0.298 OA
BRANCH   2   4
ATOM      4  C   UNL     1      15.949 -49.780 -24.388  1.00  0.00     0.123 C 
ATOM      5  C   UNL     1      11.496 -48.546 -23.151  1.00  0.00     0.161 A 
ATOM      6  C   UNL     1      12.564 -49.392 -22.828  1.00  0.00     0.055 A 
ATOM      7  C   UNL     1      11.728 -47.431 -23.988  1.00  0.00     0.161 A 
ATOM      8  C   UNL     1      13.817 -49.149 -23.383  1.00  0.00    -0.029 A 
ATOM      9  C   UNL     1      12.988 -47.190 -24.537  1.00  0.00     0.065 A 
ATOM     10  C   UNL     1      14.014 -48.065 -24.238  1.00  0.00     0.015 A 
ATOM     11  C   UNL     1      15.066 -49.958 -23.135  1.00  0.00     0.059 C 
ATOM     12  S   UNL     1      15.646 -48.044 -24.905  1.00  0.00    -0.114 SA
BRANCH   5  13
ATOM     13  O   UNL     1      10.202 -48.757 -22.759  1.00  0.00    -0.493 OA
ATOM     14  C   UNL     1       9.921 -49.974 -22.072  1.00  0.00     0.278 C 
ENDBRANCH   5  13
BRANCH   7  15
ATOM     15  O   UNL     1      10.739 -46.570 -24.401  1.00  0.00    -0.493 OA
ATOM     16  C   UNL     1      10.702 -45.374 -23.615  1.00  0.00     0.278 C 
ENDBRANCH   7  15
ENDBRANCH   2   4
ENDBRANCH   1   2
BRANCH   1  17
ATOM     17  C   UNL     1      13.648 -52.410 -25.801  1.00  0.00     0.044 C 
BRANCH  17  18
ATOM     18  C   UNL     1      12.647 -53.126 -24.919  1.00  0.00    -0.036 A 
ATOM     19  C   UNL     1      12.246 -54.430 -25.218  1.00  0.00     0.074 A 
ATOM     20  C   UNL     1      12.132 -52.523 -23.773  1.00  0.00     0.074 A 
ATOM     21  C   UNL     1      11.362 -55.097 -24.379  1.00  0.00     0.308 A 
ATOM     22  C   UNL     1      11.237 -53.224 -22.967  1.00  0.00     0.308 A 
ATOM     23  N   UNL     1      10.866 -54.487 -23.279  1.00  0.00    -0.201 N 
BRANCH  23  24
ATOM     24  C   UNL     1       9.927 -55.217 -22.392  1.00  0.00     0.393 C 
BRANCH  24  25
ATOM     25  C   UNL     1      10.225 -56.698 -22.394  1.00  0.00     0.017 A 
ATOM     26  C   UNL     1       9.421 -57.594 -23.120  1.00  0.00     0.013 A 
ATOM     27  C   UNL     1      11.321 -57.201 -21.669  1.00  0.00     0.013 A 
ATOM     28  C   UNL     1       9.701 -58.962 -23.109  1.00  0.00     0.040 A 
ATOM     29  C   UNL     1      11.596 -58.569 -21.663  1.00  0.00     0.040 A 
ATOM     30  C   UNL     1      10.784 -59.438 -22.380  1.00  0.00     0.123 A 
ATOM     31  F   UNL     1      11.048 -60.749 -22.369  1.00  0.00    -0.207 F 
ENDBRANCH  24  25
ENDBRANCH  23  24
ENDBRANCH  17  18
ENDBRANCH   1  17
TORSDOF 8
ENDMDL
MODEL 9
REMARK VINA RESULT:    -9.302      5.576      9.812
REMARK INTER + INTRA:         -14.478
REMARK INTER:                 -13.769
REMARK INTRA:                  -0.708
REMARK UNBOUND:                -0.826
REMARK SMILES COc1cc2c(cc1OC)S[C@H](C(=O)CCc1cc[n+](Cc3ccc(F)cc3)cc1)C2
REMARK SMILES IDX 15 1 13 2 14 3 12 4 3 5 4 6 8 7 5 8 7 9 6 10 31 11 11 12
REMARK SMILES IDX 2 13 1 14 9 15 10 16 16 17 17 18 18 19 30 20 19 21 29 22
REMARK SMILES IDX 20 23 21 24 22 25 23 26 28 27 24 28 27 29 25 30 26 31
REMARK H PARENT
ROOT
ATOM      1  C   UNL     1      11.519 -50.739 -22.705  1.00  0.00     0.081 C 
ENDROOT
BRANCH   1   2
ATOM      2  C   UNL     1      10.961 -49.324 -22.661  1.00  0.00     0.146 C 
ATOM      3  O   UNL     1       9.738 -49.158 -22.585  1.00  0.00    -0.298 OA
BRANCH   2   4
ATOM      4  C   UNL     1      11.931 -48.135 -22.625  1.00  0.00     0.123 C 
ATOM      5  C   UNL     1      14.696 -49.693 -26.205  1.00  0.00     0.161 A 
ATOM      6  C   UNL     1      13.624 -48.847 -25.892  1.00  0.00     0.055 A 
ATOM      7  C   UNL     1      15.521 -50.176 -25.164  1.00  0.00     0.161 A 
ATOM      8  C   UNL     1      13.362 -48.545 -24.558  1.00  0.00    -0.029 A 
ATOM      9  C   UNL     1      15.256 -49.865 -23.830  1.00  0.00     0.065 A 
ATOM     10  C   UNL     1      14.167 -49.064 -23.544  1.00  0.00     0.015 A 
ATOM     11  C   UNL     1      12.256 -47.652 -24.054  1.00  0.00     0.059 C 
ATOM     12  S   UNL     1      13.559 -48.643 -21.944  1.00  0.00    -0.114 SA
BRANCH   5  13
ATOM     13  O   UNL     1      14.972 -50.148 -27.466  1.00  0.00    -0.493 OA
ATOM     14  C   UNL     1      15.615 -49.241 -28.358  1.00  0.00     0.278 C 
ENDBRANCH   5  13
BRANCH   7  15
ATOM     15  O   UNL     1      16.566 -51.046 -25.363  1.00  0.00    -0.493 OA
ATOM     16  C   UNL     1      16.240 -52.382 -24.961  1.00  0.00     0.278 C 
ENDBRANCH   7  15
ENDBRANCH   2   4
ENDBRANCH   1   2
BRANCH   1  17
ATOM     17  C   UNL     1      10.724 -51.679 -21.794  1.00  0.00     0.044 C 
BRANCH  17  18
ATOM     18  C   UNL     1      10.883 -53.143 -22.151  1.00  0.00    -0.036 A 
ATOM     19  C   UNL     1      11.201 -53.523 -23.456  1.00  0.00     0.074 A 
ATOM     20  C   UNL     1      10.756 -54.140 -21.186  1.00  0.00     0.074 A 
ATOM     21  C   UNL     1      11.390 -54.864 -23.767  1.00  0.00     0.308 A 
ATOM     22  C   UNL     1      10.941 -55.474 -21.543  1.00  0.00     0.308 A 
ATOM     23  N   UNL     1      11.249 -55.815 -22.816  1.00  0.00    -0.201 N 
BRANCH  23  24
ATOM     24  C   UNL     1      11.460 -57.242 -23.164  1.00  0.00     0.393 C 
BRANCH  24  25
ATOM     25  C   UNL     1      10.170 -58.020 -23.050  1.00  0.00     0.017 A 
ATOM     26  C   UNL     1      10.157 -59.317 -22.508  1.00  0.00     0.013 A 
ATOM     27  C   UNL     1       8.959 -57.450 -23.482  1.00  0.00     0.013 A 
ATOM     28  C   UNL     1       8.960 -60.031 -22.415  1.00  0.00     0.040 A 
ATOM     29  C   UNL     1       7.766 -58.169 -23.386  1.00  0.00     0.040 A 
ATOM     30  C   UNL     1       7.777 -59.452 -22.856  1.00  0.00     0.123 A 
ATOM     31  F   UNL     1       6.632 -60.139 -22.767  1.00  0.00    -0.207 F 
ENDBRANCH  24  25
ENDBRANCH  23  24
ENDBRANCH  17  18
ENDBRANCH   1  17
TORSDOF 8
ENDMDL
