MODEL 1
REMARK VINA RESULT:   -10.933      0.000      0.000
REMARK INTER + INTRA:         -15.209
REMARK INTER:                 -14.768
REMARK INTRA:                  -0.441
REMARK UNBOUND:                -0.441
REMARK SMILES COc1ccc(CNC(=O)C2CCN(C(=O)c3ccccc3)CC2)cc1OC
REMARK SMILES IDX 7 1 6 2 3 3 4 4 26 5 5 6 25 7 2 8 1 9 27 10 28 11 8 12 9 13
REMARK SMILES IDX 10 15 11 16 12 17 24 18 13 19 23 20 14 21 15 22 16 23 17 24
REMARK SMILES IDX 18 25 22 26 19 27 21 28 20 29
REMARK H PARENT 8 14
ROOT
ATOM      1  C   UNL     1      10.639 -53.430 -21.954  1.00  0.00     0.151 C 
ENDROOT
BRANCH   1   2
ATOM      2  C   UNL     1      11.524 -52.693 -22.926  1.00  0.00    -0.025 A 
ATOM      3  C   UNL     1      13.196 -51.326 -24.712  1.00  0.00     0.160 A 
ATOM      4  C   UNL     1      12.721 -50.682 -23.569  1.00  0.00     0.051 A 
ATOM      5  C   UNL     1      12.894 -52.673 -24.939  1.00  0.00     0.161 A 
ATOM      6  C   UNL     1      11.889 -51.363 -22.680  1.00  0.00     0.009 A 
ATOM      7  C   UNL     1      12.036 -53.341 -24.060  1.00  0.00     0.056 A 
BRANCH   3   8
ATOM      8  O   UNL     1      13.982 -50.597 -25.565  1.00  0.00    -0.493 OA
ATOM      9  C   UNL     1      13.637 -49.212 -25.469  1.00  0.00     0.278 C 
ENDBRANCH   3   8
BRANCH   5  10
ATOM     10  O   UNL     1      13.335 -53.415 -26.003  1.00  0.00    -0.493 OA
ATOM     11  C   UNL     1      12.876 -54.766 -25.986  1.00  0.00     0.278 C 
ENDBRANCH   5  10
ENDBRANCH   1   2
BRANCH   1  12
ATOM     12  N   UNL     1      10.953 -54.842 -21.956  1.00  0.00    -0.352 N 
ATOM     13  C   UNL     1      10.296 -55.725 -22.778  1.00  0.00     0.223 C 
ATOM     14  H   UNL     1      11.459 -55.195 -21.156  1.00  0.00     0.163 HD
ATOM     15  O   UNL     1       9.499 -55.373 -23.646  1.00  0.00    -0.275 OA
BRANCH  13  16
ATOM     16  C   UNL     1      10.617 -57.195 -22.555  1.00  0.00     0.082 C 
ATOM     17  C   UNL     1       9.379 -58.081 -22.723  1.00  0.00     0.035 C 
ATOM     18  C   UNL     1      11.746 -57.672 -23.473  1.00  0.00     0.035 C 
ATOM     19  C   UNL     1       9.730 -59.545 -22.488  1.00  0.00     0.120 C 
ATOM     20  C   UNL     1      12.052 -59.147 -23.237  1.00  0.00     0.120 C 
ATOM     21  N   UNL     1      10.849 -59.971 -23.334  1.00  0.00    -0.339 N 
ATOM     22  C   UNL     1      11.053 -61.323 -23.647  1.00  0.00     0.253 C 
ATOM     23  O   UNL     1      12.164 -61.819 -23.825  1.00  0.00    -0.269 OA
BRANCH  22  24
ATOM     24  C   UNL     1       9.875 -62.206 -23.810  1.00  0.00     0.040 A 
ATOM     25  C   UNL     1       9.115 -62.112 -24.981  1.00  0.00     0.014 A 
ATOM     26  C   UNL     1       9.485 -63.072 -22.782  1.00  0.00     0.014 A 
ATOM     27  C   UNL     1       7.987 -62.917 -25.140  1.00  0.00     0.001 A 
ATOM     28  C   UNL     1       8.356 -63.875 -22.946  1.00  0.00     0.001 A 
ATOM     29  C   UNL     1       7.611 -63.799 -24.126  1.00  0.00     0.000 A 
ENDBRANCH  22  24
ENDBRANCH  13  16
ENDBRANCH   1  12
TORSDOF 6
ENDMDL
MODEL 2
REMARK VINA RESULT:   -10.895      0.959      2.007
REMARK INTER + INTRA:         -15.157
REMARK INTER:                 -14.624
REMARK INTRA:                  -0.533
REMARK UNBOUND:                -0.441
REMARK SMILES COc1ccc(CNC(=O)C2CCN(C(=O)c3ccccc3)CC2)cc1OC
REMARK SMILES IDX 7 1 6 2 3 3 4 4 26 5 5 6 25 7 2 8 1 9 27 10 28 11 8 12 9 13
REMARK SMILES IDX 10 15 11 16 12 17 24 18 13 19 23 20 14 21 15 22 16 23 17 24
REMARK SMILES IDX 18 25 22 26 19 27 21 28 20 29
REMARK H PARENT 8 14
ROOT
ATOM      1  C   UNL     1      10.383 -53.275 -22.082  1.00  0.00     0.151 C 
ENDROOT
BRANCH   1   2
ATOM      2  C   UNL     1      11.396 -52.447 -22.831  1.00  0.00    -0.025 A 
ATOM      3  C   UNL     1      13.258 -50.903 -24.247  1.00  0.00     0.160 A 
ATOM      4  C   UNL     1      13.006 -52.220 -24.633  1.00  0.00     0.051 A 
ATOM      5  C   UNL     1      12.538 -50.327 -23.196  1.00  0.00     0.161 A 
ATOM      6  C   UNL     1      12.079 -52.988 -23.928  1.00  0.00     0.009 A 
ATOM      7  C   UNL     1      11.632 -51.111 -22.474  1.00  0.00     0.056 A 
BRANCH   3   8
ATOM      8  O   UNL     1      14.202 -50.209 -24.956  1.00  0.00    -0.493 OA
ATOM      9  C   UNL     1      14.016 -50.438 -26.355  1.00  0.00     0.278 C 
ENDBRANCH   3   8
BRANCH   5  10
ATOM     10  O   UNL     1      12.673 -49.036 -22.757  1.00  0.00    -0.493 OA
ATOM     11  C   UNL     1      11.480 -48.263 -22.884  1.00  0.00     0.278 C 
ENDBRANCH   5  10
ENDBRANCH   1   2
BRANCH   1  12
ATOM     12  N   UNL     1      10.786 -54.663 -22.056  1.00  0.00    -0.352 N 
ATOM     13  C   UNL     1      10.247 -55.586 -22.919  1.00  0.00     0.223 C 
ATOM     14  H   UNL     1      11.256 -54.983 -21.221  1.00  0.00     0.163 HD
ATOM     15  O   UNL     1       9.494 -55.286 -23.842  1.00  0.00    -0.275 OA
BRANCH  13  16
ATOM     16  C   UNL     1      10.645 -57.033 -22.667  1.00  0.00     0.082 C 
ATOM     17  C   UNL     1       9.441 -57.976 -22.738  1.00  0.00     0.035 C 
ATOM     18  C   UNL     1      11.743 -57.492 -23.631  1.00  0.00     0.035 C 
ATOM     19  C   UNL     1       9.869 -59.415 -22.476  1.00  0.00     0.120 C 
ATOM     20  C   UNL     1      12.127 -58.943 -23.366  1.00  0.00     0.120 C 
ATOM     21  N   UNL     1      10.959 -59.822 -23.369  1.00  0.00    -0.339 N 
ATOM     22  C   UNL     1      11.206 -61.174 -23.650  1.00  0.00     0.253 C 
ATOM     23  O   UNL     1      12.327 -61.627 -23.873  1.00  0.00    -0.269 OA
BRANCH  22  24
ATOM     24  C   UNL     1      10.061 -62.111 -23.718  1.00  0.00     0.040 A 
ATOM     25  C   UNL     1       9.250 -62.107 -24.858  1.00  0.00     0.014 A 
ATOM     26  C   UNL     1       9.752 -62.940 -22.634  1.00  0.00     0.014 A 
ATOM     27  C   UNL     1       8.152 -62.965 -24.929  1.00  0.00     0.001 A 
ATOM     28  C   UNL     1       8.652 -63.795 -22.709  1.00  0.00     0.001 A 
ATOM     29  C   UNL     1       7.857 -63.810 -23.858  1.00  0.00     0.000 A 
ENDBRANCH  22  24
ENDBRANCH  13  16
ENDBRANCH   1  12
TORSDOF 6
ENDMDL
MODEL 3
REMARK VINA RESULT:    -9.940      2.001      2.979
REMARK INTER + INTRA:         -13.867
REMARK INTER:                 -14.079
REMARK INTRA:                   0.212
REMARK UNBOUND:                -0.441
REMARK SMILES COc1ccc(CNC(=O)C2CCN(C(=O)c3ccccc3)CC2)cc1OC
REMARK SMILES IDX 7 1 6 2 3 3 4 4 26 5 5 6 25 7 2 8 1 9 27 10 28 11 8 12 9 13
REMARK SMILES IDX 10 15 11 16 12 17 24 18 13 19 23 20 14 21 15 22 16 23 17 24
REMARK SMILES IDX 18 25 22 26 19 27 21 28 20 29
REMARK H PARENT 8 14
ROOT
ATOM      1  C   UNL     1      11.717 -54.999 -24.023  1.00  0.00     0.151 C 
ENDROOT
BRANCH   1   2
ATOM      2  C   UNL     1      11.150 -53.742 -23.414  1.00  0.00    -0.025 A 
ATOM      3  C   UNL     1      10.097 -51.419 -22.251  1.00  0.00     0.160 A 
ATOM      4  C   UNL     1       9.285 -52.541 -22.426  1.00  0.00     0.051 A 
ATOM      5  C   UNL     1      11.452 -51.469 -22.594  1.00  0.00     0.161 A 
ATOM      6  C   UNL     1       9.810 -53.697 -23.004  1.00  0.00     0.009 A 
ATOM      7  C   UNL     1      11.964 -52.620 -23.201  1.00  0.00     0.056 A 
BRANCH   3   8
ATOM      8  O   UNL     1       9.518 -50.302 -21.708  1.00  0.00    -0.493 OA
ATOM      9  C   UNL     1       9.751 -49.178 -22.561  1.00  0.00     0.278 C 
ENDBRANCH   3   8
BRANCH   5  10
ATOM     10  O   UNL     1      12.348 -50.445 -22.432  1.00  0.00    -0.493 OA
ATOM     11  C   UNL     1      13.118 -50.169 -23.601  1.00  0.00     0.278 C 
ENDBRANCH   5  10
ENDBRANCH   1   2
BRANCH   1  12
ATOM     12  N   UNL     1      10.891 -56.138 -23.689  1.00  0.00    -0.352 N 
ATOM     13  C   UNL     1      10.967 -56.746 -22.459  1.00  0.00     0.223 C 
ATOM     14  H   UNL     1      10.470 -56.636 -24.461  1.00  0.00     0.163 HD
ATOM     15  O   UNL     1      11.633 -56.301 -21.527  1.00  0.00    -0.275 OA
BRANCH  13  16
ATOM     16  C   UNL     1      10.160 -58.028 -22.309  1.00  0.00     0.082 C 
ATOM     17  C   UNL     1       9.583 -58.498 -23.647  1.00  0.00     0.035 C 
ATOM     18  C   UNL     1      10.987 -59.142 -21.661  1.00  0.00     0.035 C 
ATOM     19  C   UNL     1       8.777 -59.778 -23.465  1.00  0.00     0.120 C 
ATOM     20  C   UNL     1      10.165 -60.418 -21.521  1.00  0.00     0.120 C 
ATOM     21  N   UNL     1       9.565 -60.817 -22.793  1.00  0.00    -0.339 N 
ATOM     22  C   UNL     1       9.240 -62.176 -22.922  1.00  0.00     0.253 C 
ATOM     23  O   UNL     1       9.426 -63.005 -22.033  1.00  0.00    -0.269 OA
BRANCH  22  24
ATOM     24  C   UNL     1       8.674 -62.658 -24.203  1.00  0.00     0.040 A 
ATOM     25  C   UNL     1       9.242 -62.216 -25.402  1.00  0.00     0.014 A 
ATOM     26  C   UNL     1       7.547 -63.488 -24.217  1.00  0.00     0.014 A 
ATOM     27  C   UNL     1       8.706 -62.640 -26.618  1.00  0.00     0.001 A 
ATOM     28  C   UNL     1       7.014 -63.908 -25.436  1.00  0.00     0.001 A 
ATOM     29  C   UNL     1       7.597 -63.488 -26.634  1.00  0.00     0.000 A 
ENDBRANCH  22  24
ENDBRANCH  13  16
ENDBRANCH   1  12
TORSDOF 6
ENDMDL
MODEL 4
REMARK VINA RESULT:    -9.900      2.747     10.472
REMARK INTER + INTRA:         -13.813
REMARK INTER:                 -13.958
REMARK INTRA:                   0.144
REMARK UNBOUND:                -0.441
REMARK SMILES COc1ccc(CNC(=O)C2CCN(C(=O)c3ccccc3)CC2)cc1OC
REMARK SMILES IDX 7 1 6 2 3 3 4 4 26 5 5 6 25 7 2 8 1 9 27 10 28 11 8 12 9 13
REMARK SMILES IDX 10 15 11 16 12 17 24 18 13 19 23 20 14 21 15 22 16 23 17 24
REMARK SMILES IDX 18 25 22 26 19 27 21 28 20 29
REMARK H PARENT 8 14
ROOT
ATOM      1  C   UNL     1      11.300 -57.467 -23.084  1.00  0.00     0.151 C 
ENDROOT
BRANCH   1   2
ATOM      2  C   UNL     1       9.988 -58.209 -23.104  1.00  0.00    -0.025 A 
ATOM      3  C   UNL     1       7.550 -59.590 -23.176  1.00  0.00     0.160 A 
ATOM      4  C   UNL     1       7.584 -58.219 -23.438  1.00  0.00     0.051 A 
ATOM      5  C   UNL     1       8.736 -60.292 -22.940  1.00  0.00     0.161 A 
ATOM      6  C   UNL     1       8.798 -57.533 -23.403  1.00  0.00     0.009 A 
ATOM      7  C   UNL     1       9.946 -59.593 -22.877  1.00  0.00     0.056 A 
BRANCH   3   8
ATOM      8  O   UNL     1       6.325 -60.203 -23.192  1.00  0.00    -0.493 OA
ATOM      9  C   UNL     1       5.318 -59.276 -22.777  1.00  0.00     0.278 C 
ENDBRANCH   3   8
BRANCH   5  10
ATOM     10  O   UNL     1       8.827 -61.639 -22.711  1.00  0.00    -0.493 OA
ATOM     11  C   UNL     1       9.283 -62.382 -23.841  1.00  0.00     0.278 C 
ENDBRANCH   5  10
ENDBRANCH   1   2
BRANCH   1  12
ATOM     12  N   UNL     1      11.102 -56.106 -22.637  1.00  0.00    -0.352 N 
ATOM     13  C   UNL     1      11.370 -55.034 -23.454  1.00  0.00     0.223 C 
ATOM     14  H   UNL     1      11.032 -55.961 -21.640  1.00  0.00     0.163 HD
ATOM     15  O   UNL     1      11.668 -55.148 -24.640  1.00  0.00    -0.275 OA
BRANCH  13  16
ATOM     16  C   UNL     1      11.271 -53.665 -22.795  1.00  0.00     0.082 C 
ATOM     17  C   UNL     1      12.143 -52.627 -23.505  1.00  0.00     0.035 C 
ATOM     18  C   UNL     1       9.820 -53.181 -22.715  1.00  0.00     0.035 C 
ATOM     19  C   UNL     1      12.029 -51.270 -22.821  1.00  0.00     0.120 C 
ATOM     20  C   UNL     1       9.740 -51.809 -22.056  1.00  0.00     0.120 C 
ATOM     21  N   UNL     1      10.630 -50.846 -22.702  1.00  0.00    -0.339 N 
ATOM     22  C   UNL     1      10.288 -49.494 -22.550  1.00  0.00     0.253 C 
ATOM     23  O   UNL     1       9.312 -49.109 -21.910  1.00  0.00    -0.269 OA
BRANCH  22  24
ATOM     24  C   UNL     1      11.118 -48.466 -23.220  1.00  0.00     0.040 A 
ATOM     25  C   UNL     1      10.777 -47.118 -23.072  1.00  0.00     0.014 A 
ATOM     26  C   UNL     1      12.187 -48.839 -24.044  1.00  0.00     0.014 A 
ATOM     27  C   UNL     1      11.533 -46.139 -23.717  1.00  0.00     0.001 A 
ATOM     28  C   UNL     1      12.939 -47.855 -24.687  1.00  0.00     0.001 A 
ATOM     29  C   UNL     1      12.614 -46.507 -24.519  1.00  0.00     0.000 A 
ENDBRANCH  22  24
ENDBRANCH  13  16
ENDBRANCH   1  12
TORSDOF 6
ENDMDL
MODEL 5
REMARK VINA RESULT:    -9.822      2.679      4.533
REMARK INTER + INTRA:         -13.708
REMARK INTER:                 -13.098
REMARK INTRA:                  -0.610
REMARK UNBOUND:                -0.441
REMARK SMILES COc1ccc(CNC(=O)C2CCN(C(=O)c3ccccc3)CC2)cc1OC
REMARK SMILES IDX 7 1 6 2 3 3 4 4 26 5 5 6 25 7 2 8 1 9 27 10 28 11 8 12 9 13
REMARK SMILES IDX 10 15 11 16 12 17 24 18 13 19 23 20 14 21 15 22 16 23 17 24
REMARK SMILES IDX 18 25 22 26 19 27 21 28 20 29
REMARK H PARENT 8 14
ROOT
ATOM      1  C   UNL     1      10.233 -49.396 -22.077  1.00  0.00     0.151 C 
ENDROOT
BRANCH   1   2
ATOM      2  C   UNL     1      10.948 -48.368 -22.915  1.00  0.00    -0.025 A 
ATOM      3  C   UNL     1      12.293 -46.442 -24.446  1.00  0.00     0.160 A 
ATOM      4  C   UNL     1      11.183 -46.076 -23.683  1.00  0.00     0.051 A 
ATOM      5  C   UNL     1      12.778 -47.753 -24.401  1.00  0.00     0.161 A 
ATOM      6  C   UNL     1      10.515 -47.035 -22.921  1.00  0.00     0.009 A 
ATOM      7  C   UNL     1      12.086 -48.716 -23.659  1.00  0.00     0.056 A 
BRANCH   3   8
ATOM      8  O   UNL     1      12.888 -45.465 -25.199  1.00  0.00    -0.493 OA
ATOM      9  C   UNL     1      12.587 -44.182 -24.646  1.00  0.00     0.278 C 
ENDBRANCH   3   8
BRANCH   5  10
ATOM     10  O   UNL     1      13.878 -48.215 -25.075  1.00  0.00    -0.493 OA
ATOM     11  C   UNL     1      13.723 -49.539 -25.582  1.00  0.00     0.278 C 
ENDBRANCH   5  10
ENDBRANCH   1   2
BRANCH   1  12
ATOM     12  N   UNL     1      10.779 -50.713 -22.320  1.00  0.00    -0.352 N 
ATOM     13  C   UNL     1      10.015 -51.846 -22.181  1.00  0.00     0.223 C 
ATOM     14  H   UNL     1      11.786 -50.794 -22.321  1.00  0.00     0.163 HD
ATOM     15  O   UNL     1       8.805 -51.821 -21.970  1.00  0.00    -0.275 OA
BRANCH  13  16
ATOM     16  C   UNL     1      10.764 -53.164 -22.310  1.00  0.00     0.082 C 
ATOM     17  C   UNL     1      10.026 -54.310 -21.612  1.00  0.00     0.035 C 
ATOM     18  C   UNL     1      11.038 -53.517 -23.775  1.00  0.00     0.035 C 
ATOM     19  C   UNL     1      10.802 -55.614 -21.752  1.00  0.00     0.120 C 
ATOM     20  C   UNL     1      11.786 -54.840 -23.885  1.00  0.00     0.120 C 
ATOM     21  N   UNL     1      11.105 -55.909 -23.157  1.00  0.00    -0.339 N 
ATOM     22  C   UNL     1      11.378 -57.217 -23.584  1.00  0.00     0.253 C 
ATOM     23  O   UNL     1      12.148 -57.483 -24.505  1.00  0.00    -0.269 OA
BRANCH  22  24
ATOM     24  C   UNL     1      10.684 -58.346 -22.923  1.00  0.00     0.040 A 
ATOM     25  C   UNL     1      11.314 -58.999 -21.859  1.00  0.00     0.014 A 
ATOM     26  C   UNL     1       9.447 -58.798 -23.396  1.00  0.00     0.014 A 
ATOM     27  C   UNL     1      10.686 -60.080 -21.241  1.00  0.00     0.001 A 
ATOM     28  C   UNL     1       8.823 -59.881 -22.776  1.00  0.00     0.001 A 
ATOM     29  C   UNL     1       9.441 -60.517 -21.696  1.00  0.00     0.000 A 
ENDBRANCH  22  24
ENDBRANCH  13  16
ENDBRANCH   1  12
TORSDOF 6
ENDMDL
MODEL 6
REMARK VINA RESULT:    -9.678      2.947      4.960
REMARK INTER + INTRA:         -13.514
REMARK INTER:                 -12.917
REMARK INTRA:                  -0.596
REMARK UNBOUND:                -0.441
REMARK SMILES COc1ccc(CNC(=O)C2CCN(C(=O)c3ccccc3)CC2)cc1OC
REMARK SMILES IDX 7 1 6 2 3 3 4 4 26 5 5 6 25 7 2 8 1 9 27 10 28 11 8 12 9 13
REMARK SMILES IDX 10 15 11 16 12 17 24 18 13 19 23 20 14 21 15 22 16 23 17 24
REMARK SMILES IDX 18 25 22 26 19 27 21 28 20 29
REMARK H PARENT 8 14
ROOT
ATOM      1  C   UNL     1      10.589 -49.480 -22.340  1.00  0.00     0.151 C 
ENDROOT
BRANCH   1   2
ATOM      2  C   UNL     1      11.501 -48.482 -23.005  1.00  0.00    -0.025 A 
ATOM      3  C   UNL     1      13.177 -46.624 -24.269  1.00  0.00     0.160 A 
ATOM      4  C   UNL     1      13.187 -47.960 -24.672  1.00  0.00     0.051 A 
ATOM      5  C   UNL     1      12.288 -46.193 -23.279  1.00  0.00     0.161 A 
ATOM      6  C   UNL     1      12.352 -48.884 -24.043  1.00  0.00     0.009 A 
ATOM      7  C   UNL     1      11.475 -47.130 -22.632  1.00  0.00     0.056 A 
BRANCH   3   8
ATOM      8  O   UNL     1      14.042 -45.770 -24.900  1.00  0.00    -0.493 OA
ATOM      9  C   UNL     1      13.484 -45.360 -26.151  1.00  0.00     0.278 C 
ENDBRANCH   3   8
BRANCH   5  10
ATOM     10  O   UNL     1      12.164 -44.904 -22.832  1.00  0.00    -0.493 OA
ATOM     11  C   UNL     1      11.150 -44.161 -23.506  1.00  0.00     0.278 C 
ENDBRANCH   5  10
ENDBRANCH   1   2
BRANCH   1  12
ATOM     12  N   UNL     1      11.059 -50.827 -22.574  1.00  0.00    -0.352 N 
ATOM     13  C   UNL     1      10.306 -51.924 -22.228  1.00  0.00     0.223 C 
ATOM     14  H   UNL     1      12.050 -50.941 -22.735  1.00  0.00     0.163 HD
ATOM     15  O   UNL     1       9.149 -51.845 -21.822  1.00  0.00    -0.275 OA
BRANCH  13  16
ATOM     16  C   UNL     1      10.997 -53.271 -22.383  1.00  0.00     0.082 C 
ATOM     17  C   UNL     1      10.235 -54.388 -21.664  1.00  0.00     0.035 C 
ATOM     18  C   UNL     1      11.209 -53.630 -23.857  1.00  0.00     0.035 C 
ATOM     19  C   UNL     1      10.952 -55.721 -21.831  1.00  0.00     0.120 C 
ATOM     20  C   UNL     1      11.898 -54.982 -23.993  1.00  0.00     0.120 C 
ATOM     21  N   UNL     1      11.197 -56.025 -23.245  1.00  0.00    -0.339 N 
ATOM     22  C   UNL     1      11.403 -57.341 -23.683  1.00  0.00     0.253 C 
ATOM     23  O   UNL     1      12.132 -57.636 -24.629  1.00  0.00    -0.269 OA
BRANCH  22  24
ATOM     24  C   UNL     1      10.685 -58.443 -23.002  1.00  0.00     0.040 A 
ATOM     25  C   UNL     1       9.397 -58.779 -23.431  1.00  0.00     0.014 A 
ATOM     26  C   UNL     1      11.255 -59.094 -21.902  1.00  0.00     0.014 A 
ATOM     27  C   UNL     1       8.696 -59.797 -22.785  1.00  0.00     0.001 A 
ATOM     28  C   UNL     1      10.549 -60.110 -21.258  1.00  0.00     0.001 A 
ATOM     29  C   UNL     1       9.273 -60.463 -21.703  1.00  0.00     0.000 A 
ENDBRANCH  22  24
ENDBRANCH  13  16
ENDBRANCH   1  12
TORSDOF 6
ENDMDL
MODEL 7
REMARK VINA RESULT:    -9.350      3.985      6.591
REMARK INTER + INTRA:         -13.070
REMARK INTER:                 -12.229
REMARK INTRA:                  -0.841
REMARK UNBOUND:                -0.441
REMARK SMILES COc1ccc(CNC(=O)C2CCN(C(=O)c3ccccc3)CC2)cc1OC
REMARK SMILES IDX 7 1 6 2 3 3 4 4 26 5 5 6 25 7 2 8 1 9 27 10 28 11 8 12 9 13
REMARK SMILES IDX 10 15 11 16 12 17 24 18 13 19 23 20 14 21 15 22 16 23 17 24
REMARK SMILES IDX 18 25 22 26 19 27 21 28 20 29
REMARK H PARENT 8 14
ROOT
ATOM      1  C   UNL     1      16.632 -51.951 -25.561  1.00  0.00     0.151 C 
ENDROOT
BRANCH   1   2
ATOM      2  C   UNL     1      17.314 -51.403 -24.334  1.00  0.00    -0.025 A 
ATOM      3  C   UNL     1      18.593 -50.416 -22.043  1.00  0.00     0.160 A 
ATOM      4  C   UNL     1      17.355 -51.051 -21.933  1.00  0.00     0.051 A 
ATOM      5  C   UNL     1      19.230 -50.326 -23.285  1.00  0.00     0.161 A 
ATOM      6  C   UNL     1      16.719 -51.543 -23.073  1.00  0.00     0.009 A 
ATOM      7  C   UNL     1      18.575 -50.794 -24.428  1.00  0.00     0.056 A 
BRANCH   3   8
ATOM      8  O   UNL     1      19.153 -49.925 -20.894  1.00  0.00    -0.493 OA
ATOM      9  C   UNL     1      18.621 -50.622 -19.765  1.00  0.00     0.278 C 
ENDBRANCH   3   8
BRANCH   5  10
ATOM     10  O   UNL     1      20.459 -49.762 -23.506  1.00  0.00    -0.493 OA
ATOM     11  C   UNL     1      21.515 -50.716 -23.615  1.00  0.00     0.278 C 
ENDBRANCH   5  10
ENDBRANCH   1   2
BRANCH   1  12
ATOM     12  N   UNL     1      15.325 -52.470 -25.222  1.00  0.00    -0.352 N 
ATOM     13  C   UNL     1      14.174 -51.893 -25.702  1.00  0.00     0.223 C 
ATOM     14  H   UNL     1      15.273 -53.080 -24.419  1.00  0.00     0.163 HD
ATOM     15  O   UNL     1      14.170 -50.992 -26.538  1.00  0.00    -0.275 OA
BRANCH  13  16
ATOM     16  C   UNL     1      12.875 -52.444 -25.132  1.00  0.00     0.082 C 
ATOM     17  C   UNL     1      12.819 -53.972 -25.216  1.00  0.00     0.035 C 
ATOM     18  C   UNL     1      12.649 -51.978 -23.691  1.00  0.00     0.035 C 
ATOM     19  C   UNL     1      11.508 -54.494 -24.644  1.00  0.00     0.120 C 
ATOM     20  C   UNL     1      11.347 -52.541 -23.135  1.00  0.00     0.120 C 
ATOM     21  N   UNL     1      11.278 -53.994 -23.284  1.00  0.00    -0.339 N 
ATOM     22  C   UNL     1      10.426 -54.665 -22.394  1.00  0.00     0.253 C 
ATOM     23  O   UNL     1       9.756 -54.094 -21.537  1.00  0.00    -0.269 OA
BRANCH  22  24
ATOM     24  C   UNL     1      10.347 -56.143 -22.457  1.00  0.00     0.040 A 
ATOM     25  C   UNL     1       9.263 -56.735 -23.112  1.00  0.00     0.014 A 
ATOM     26  C   UNL     1      11.303 -56.937 -21.813  1.00  0.00     0.014 A 
ATOM     27  C   UNL     1       9.158 -58.125 -23.159  1.00  0.00     0.001 A 
ATOM     28  C   UNL     1      11.193 -58.326 -21.862  1.00  0.00     0.001 A 
ATOM     29  C   UNL     1      10.124 -58.919 -22.538  1.00  0.00     0.000 A 
ENDBRANCH  22  24
ENDBRANCH  13  16
ENDBRANCH   1  12
TORSDOF 6
ENDMDL
MODEL 8
REMARK VINA RESULT:    -9.326      3.208      6.533
REMARK INTER + INTRA:         -13.038
REMARK INTER:                 -12.397
REMARK INTRA:                  -0.641
REMARK UNBOUND:                -0.441
REMARK SMILES COc1ccc(CNC(=O)C2CCN(C(=O)c3ccccc3)CC2)cc1OC
REMARK SMILES IDX 7 1 6 2 3 3 4 4 26 5 5 6 25 7 2 8 1 9 27 10 28 11 8 12 9 13
REMARK SMILES IDX 10 15 11 16 12 17 24 18 13 19 23 20 14 21 15 22 16 23 17 24
REMARK SMILES IDX 18 25 22 26 19 27 21 28 20 29
REMARK H PARENT 8 14
ROOT
ATOM      1  C   UNL     1      15.041 -49.378 -25.714  1.00  0.00     0.151 C 
ENDROOT
BRANCH   1   2
ATOM      2  C   UNL     1      14.564 -47.966 -25.934  1.00  0.00    -0.025 A 
ATOM      3  C   UNL     1      13.655 -45.350 -26.368  1.00  0.00     0.160 A 
ATOM      4  C   UNL     1      14.521 -45.948 -27.284  1.00  0.00     0.051 A 
ATOM      5  C   UNL     1      13.186 -46.072 -25.266  1.00  0.00     0.161 A 
ATOM      6  C   UNL     1      14.973 -47.251 -27.068  1.00  0.00     0.009 A 
ATOM      7  C   UNL     1      13.666 -47.366 -25.039  1.00  0.00     0.056 A 
BRANCH   3   8
ATOM      8  O   UNL     1      13.272 -44.058 -26.615  1.00  0.00    -0.493 OA
ATOM      9  C   UNL     1      14.163 -43.158 -25.952  1.00  0.00     0.278 C 
ENDBRANCH   3   8
BRANCH   5  10
ATOM     10  O   UNL     1      12.307 -45.602 -24.326  1.00  0.00    -0.493 OA
ATOM     11  C   UNL     1      11.090 -46.344 -24.261  1.00  0.00     0.278 C 
ENDBRANCH   5  10
ENDBRANCH   1   2
BRANCH   1  12
ATOM     12  N   UNL     1      13.990 -50.180 -25.126  1.00  0.00    -0.352 N 
ATOM     13  C   UNL     1      13.854 -51.515 -25.418  1.00  0.00     0.223 C 
ATOM     14  H   UNL     1      13.210 -49.680 -24.723  1.00  0.00     0.163 HD
ATOM     15  O   UNL     1      14.671 -52.146 -26.085  1.00  0.00    -0.275 OA
BRANCH  13  16
ATOM     16  C   UNL     1      12.611 -52.188 -24.855  1.00  0.00     0.082 C 
ATOM     17  C   UNL     1      12.667 -53.710 -25.009  1.00  0.00     0.035 C 
ATOM     18  C   UNL     1      12.377 -51.805 -23.390  1.00  0.00     0.035 C 
ATOM     19  C   UNL     1      11.408 -54.355 -24.442  1.00  0.00     0.120 C 
ATOM     20  C   UNL     1      11.130 -52.490 -22.842  1.00  0.00     0.120 C 
ATOM     21  N   UNL     1      11.167 -53.935 -23.057  1.00  0.00    -0.339 N 
ATOM     22  C   UNL     1      10.384 -54.707 -22.187  1.00  0.00     0.253 C 
ATOM     23  O   UNL     1       9.688 -54.228 -21.294  1.00  0.00    -0.269 OA
BRANCH  22  24
ATOM     24  C   UNL     1      10.413 -56.183 -22.317  1.00  0.00     0.040 A 
ATOM     25  C   UNL     1       9.412 -56.817 -23.059  1.00  0.00     0.014 A 
ATOM     26  C   UNL     1      11.386 -56.938 -21.652  1.00  0.00     0.014 A 
ATOM     27  C   UNL     1       9.409 -58.207 -23.171  1.00  0.00     0.001 A 
ATOM     28  C   UNL     1      11.379 -58.329 -21.766  1.00  0.00     0.001 A 
ATOM     29  C   UNL     1      10.394 -58.961 -22.529  1.00  0.00     0.000 A 
ENDBRANCH  22  24
ENDBRANCH  13  16
ENDBRANCH   1  12
TORSDOF 6
ENDMDL
MODEL 9
REMARK VINA RESULT:    -9.223      2.740     10.535
REMARK INTER + INTRA:         -12.899
REMARK INTER:                 -12.260
REMARK INTRA:                  -0.640
REMARK UNBOUND:                -0.441
REMARK SMILES COc1ccc(CNC(=O)C2CCN(C(=O)c3ccccc3)CC2)cc1OC
REMARK SMILES IDX 7 1 6 2 3 3 4 4 26 5 5 6 25 7 2 8 1 9 27 10 28 11 8 12 9 13
REMARK SMILES IDX 10 15 11 16 12 17 24 18 13 19 23 20 14 21 15 22 16 23 17 24
REMARK SMILES IDX 18 25 22 26 19 27 21 28 20 29
REMARK H PARENT 8 14
ROOT
ATOM      1  C   UNL     1      11.024 -56.595 -21.762  1.00  0.00     0.151 C 
ENDROOT
BRANCH   1   2
ATOM      2  C   UNL     1      10.695 -57.665 -22.771  1.00  0.00    -0.025 A 
ATOM      3  C   UNL     1      10.089 -59.680 -24.623  1.00  0.00     0.160 A 
ATOM      4  C   UNL     1      11.414 -59.451 -24.251  1.00  0.00     0.051 A 
ATOM      5  C   UNL     1       9.054 -58.952 -24.028  1.00  0.00     0.161 A 
ATOM      6  C   UNL     1      11.716 -58.448 -23.328  1.00  0.00     0.009 A 
ATOM      7  C   UNL     1       9.364 -57.928 -23.127  1.00  0.00     0.056 A 
BRANCH   3   8
ATOM      8  O   UNL     1       9.858 -60.655 -25.557  1.00  0.00    -0.493 OA
ATOM      9  C   UNL     1       9.895 -61.939 -24.930  1.00  0.00     0.278 C 
ENDBRANCH   3   8
BRANCH   5  10
ATOM     10  O   UNL     1       7.718 -59.117 -24.287  1.00  0.00    -0.493 OA
ATOM     11  C   UNL     1       6.887 -58.929 -23.142  1.00  0.00     0.278 C 
ENDBRANCH   5  10
ENDBRANCH   1   2
BRANCH   1  12
ATOM     12  N   UNL     1      11.197 -55.318 -22.419  1.00  0.00    -0.352 N 
ATOM     13  C   UNL     1      10.893 -54.136 -21.788  1.00  0.00     0.223 C 
ATOM     14  H   UNL     1      11.280 -55.334 -23.426  1.00  0.00     0.163 HD
ATOM     15  O   UNL     1      10.580 -54.067 -20.602  1.00  0.00    -0.275 OA
BRANCH  13  16
ATOM     16  C   UNL     1      10.971 -52.889 -22.657  1.00  0.00     0.082 C 
ATOM     17  C   UNL     1      10.645 -51.621 -21.863  1.00  0.00     0.035 C 
ATOM     18  C   UNL     1      12.337 -52.759 -23.336  1.00  0.00     0.035 C 
ATOM     19  C   UNL     1      10.725 -50.391 -22.758  1.00  0.00     0.120 C 
ATOM     20  C   UNL     1      12.398 -51.504 -24.199  1.00  0.00     0.120 C 
ATOM     21  N   UNL     1      12.019 -50.310 -23.445  1.00  0.00    -0.339 N 
ATOM     22  C   UNL     1      12.511 -49.091 -23.934  1.00  0.00     0.253 C 
ATOM     23  O   UNL     1      13.211 -48.996 -24.939  1.00  0.00    -0.269 OA
BRANCH  22  24
ATOM     24  C   UNL     1      12.205 -47.847 -23.190  1.00  0.00     0.040 A 
ATOM     25  C   UNL     1      11.267 -46.955 -23.719  1.00  0.00     0.014 A 
ATOM     26  C   UNL     1      12.893 -47.533 -22.012  1.00  0.00     0.014 A 
ATOM     27  C   UNL     1      10.986 -45.766 -23.045  1.00  0.00     0.001 A 
ATOM     28  C   UNL     1      12.609 -46.342 -21.343  1.00  0.00     0.001 A 
ATOM     29  C   UNL     1      11.653 -45.463 -21.857  1.00  0.00     0.000 A 
ENDBRANCH  22  24
ENDBRANCH  13  16
ENDBRANCH   1  12
TORSDOF 6
ENDMDL
