MODEL 1
REMARK VINA RESULT:   -11.108      0.000      0.000
REMARK INTER + INTRA:         -14.238
REMARK INTER:                 -13.705
REMARK INTRA:                  -0.534
REMARK UNBOUND:                -0.534
REMARK SMILES COc1ccccc1NC(=O)C1CCN(C(=O)c2ccccc2)CC1
REMARK SMILES IDX 3 1 4 2 5 3 6 4 7 5 8 6 2 7 1 8 9 9 10 10 11 12 12 13 13 14
REMARK SMILES IDX 25 15 14 16 24 17 15 18 16 19 17 20 18 21 19 22 23 23 20 24
REMARK SMILES IDX 22 25 21 26
REMARK H PARENT 9 11
ROOT
ATOM      1  C   UNL     1      11.934 -52.957 -23.701  1.00  0.00     0.142 A 
ATOM      2  C   UNL     1      12.110 -51.570 -23.800  1.00  0.00     0.048 A 
ATOM      3  C   UNL     1      11.700 -50.730 -22.764  1.00  0.00     0.004 A 
ATOM      4  C   UNL     1      11.142 -51.274 -21.612  1.00  0.00     0.002 A 
ATOM      5  C   UNL     1      10.982 -52.657 -21.499  1.00  0.00     0.030 A 
ATOM      6  C   UNL     1      11.347 -53.510 -22.551  1.00  0.00     0.083 A 
ENDROOT
BRANCH   1   7
ATOM      7  O   UNL     1      12.497 -53.781 -24.644  1.00  0.00    -0.495 OA
ATOM      8  C   UNL     1      13.257 -53.063 -25.614  1.00  0.00     0.278 C 
ENDBRANCH   1   7
BRANCH   6   9
ATOM      9  N   UNL     1      11.142 -54.892 -22.340  1.00  0.00    -0.323 N 
ATOM     10  C   UNL     1      10.325 -55.716 -23.094  1.00  0.00     0.227 C 
ATOM     11  H   UNL     1      11.421 -55.245 -21.436  1.00  0.00     0.170 HD
ATOM     12  O   UNL     1       9.487 -55.350 -23.913  1.00  0.00    -0.274 OA
BRANCH  10  13
ATOM     13  C   UNL     1      10.460 -57.201 -22.765  1.00  0.00     0.082 C 
ATOM     14  C   UNL     1      11.712 -57.812 -23.398  1.00  0.00     0.035 C 
ATOM     15  C   UNL     1       9.211 -57.995 -23.167  1.00  0.00     0.035 C 
ATOM     16  C   UNL     1      11.829 -59.292 -23.052  1.00  0.00     0.120 C 
ATOM     17  C   UNL     1       9.375 -59.468 -22.811  1.00  0.00     0.120 C 
ATOM     18  N   UNL     1      10.606 -60.022 -23.384  1.00  0.00    -0.339 N 
ATOM     19  C   UNL     1      10.752 -61.398 -23.615  1.00  0.00     0.253 C 
ATOM     20  O   UNL     1      11.830 -61.986 -23.546  1.00  0.00    -0.269 OA
BRANCH  19  21
ATOM     21  C   UNL     1       9.561 -62.190 -23.996  1.00  0.00     0.040 A 
ATOM     22  C   UNL     1       9.032 -62.108 -25.290  1.00  0.00     0.014 A 
ATOM     23  C   UNL     1       9.012 -63.077 -23.065  1.00  0.00     0.014 A 
ATOM     24  C   UNL     1       7.925 -62.884 -25.635  1.00  0.00     0.001 A 
ATOM     25  C   UNL     1       7.905 -63.851 -23.416  1.00  0.00     0.001 A 
ATOM     26  C   UNL     1       7.361 -63.750 -24.697  1.00  0.00     0.000 A 
ENDBRANCH  19  21
ENDBRANCH  10  13
ENDBRANCH   6   9
TORSDOF 4
ENDMDL
MODEL 2
REMARK VINA RESULT:   -10.308      1.572      2.077
REMARK INTER + INTRA:         -13.252
REMARK INTER:                 -12.949
REMARK INTRA:                  -0.303
REMARK UNBOUND:                -0.534
REMARK SMILES COc1ccccc1NC(=O)C1CCN(C(=O)c2ccccc2)CC1
REMARK SMILES IDX 3 1 4 2 5 3 6 4 7 5 8 6 2 7 1 8 9 9 10 10 11 12 12 13 13 14
REMARK SMILES IDX 25 15 14 16 24 17 15 18 16 19 17 20 18 21 19 22 23 23 20 24
REMARK SMILES IDX 22 25 21 26
REMARK H PARENT 9 11
ROOT
ATOM      1  C   UNL     1      11.416 -54.058 -23.971  1.00  0.00     0.142 A 
ATOM      2  C   UNL     1      11.822 -52.729 -23.785  1.00  0.00     0.048 A 
ATOM      3  C   UNL     1      11.528 -52.060 -22.596  1.00  0.00     0.004 A 
ATOM      4  C   UNL     1      10.855 -52.725 -21.576  1.00  0.00     0.002 A 
ATOM      5  C   UNL     1      10.464 -54.055 -21.748  1.00  0.00     0.030 A 
ATOM      6  C   UNL     1      10.713 -54.726 -22.955  1.00  0.00     0.083 A 
ENDROOT
BRANCH   1   7
ATOM      7  O   UNL     1      11.861 -54.756 -25.066  1.00  0.00    -0.495 OA
ATOM      8  C   UNL     1      12.956 -54.113 -25.716  1.00  0.00     0.278 C 
ENDBRANCH   1   7
BRANCH   6   9
ATOM      9  N   UNL     1      10.274 -56.067 -23.031  1.00  0.00    -0.323 N 
ATOM     10  C   UNL     1      10.650 -57.094 -22.184  1.00  0.00     0.227 C 
ATOM     11  H   UNL     1       9.849 -56.341 -23.905  1.00  0.00     0.170 HD
ATOM     12  O   UNL     1      11.579 -57.066 -21.381  1.00  0.00    -0.274 OA
BRANCH  10  13
ATOM     13  C   UNL     1       9.859 -58.386 -22.376  1.00  0.00     0.082 C 
ATOM     14  C   UNL     1      10.611 -59.600 -21.827  1.00  0.00     0.035 C 
ATOM     15  C   UNL     1       9.472 -58.611 -23.843  1.00  0.00     0.035 C 
ATOM     16  C   UNL     1       9.800 -60.877 -22.024  1.00  0.00     0.120 C 
ATOM     17  C   UNL     1       8.673 -59.899 -23.995  1.00  0.00     0.120 C 
ATOM     18  N   UNL     1       9.386 -61.042 -23.417  1.00  0.00    -0.339 N 
ATOM     19  C   UNL     1       9.121 -62.356 -23.830  1.00  0.00     0.253 C 
ATOM     20  O   UNL     1       9.217 -63.332 -23.088  1.00  0.00    -0.269 OA
BRANCH  19  21
ATOM     21  C   UNL     1       8.737 -62.600 -25.239  1.00  0.00     0.040 A 
ATOM     22  C   UNL     1       9.470 -62.031 -26.288  1.00  0.00     0.014 A 
ATOM     23  C   UNL     1       7.673 -63.465 -25.511  1.00  0.00     0.014 A 
ATOM     24  C   UNL     1       9.107 -62.296 -27.609  1.00  0.00     0.001 A 
ATOM     25  C   UNL     1       7.314 -63.728 -26.833  1.00  0.00     0.001 A 
ATOM     26  C   UNL     1       8.028 -63.140 -27.879  1.00  0.00     0.000 A 
ENDBRANCH  19  21
ENDBRANCH  10  13
ENDBRANCH   6   9
TORSDOF 4
ENDMDL
MODEL 3
REMARK VINA RESULT:   -10.129      1.578      2.563
REMARK INTER + INTRA:         -13.031
REMARK INTER:                 -13.052
REMARK INTRA:                   0.021
REMARK UNBOUND:                -0.534
REMARK SMILES COc1ccccc1NC(=O)C1CCN(C(=O)c2ccccc2)CC1
REMARK SMILES IDX 3 1 4 2 5 3 6 4 7 5 8 6 2 7 1 8 9 9 10 10 11 12 12 13 13 14
REMARK SMILES IDX 25 15 14 16 24 17 15 18 16 19 17 20 18 21 19 22 23 23 20 24
REMARK SMILES IDX 22 25 21 26
REMARK H PARENT 9 11
ROOT
ATOM      1  C   UNL     1      11.273 -53.527 -23.106  1.00  0.00     0.142 A 
ATOM      2  C   UNL     1      11.818 -52.300 -23.510  1.00  0.00     0.048 A 
ATOM      3  C   UNL     1      12.617 -52.222 -24.651  1.00  0.00     0.004 A 
ATOM      4  C   UNL     1      12.848 -53.363 -25.413  1.00  0.00     0.002 A 
ATOM      5  C   UNL     1      12.291 -54.585 -25.027  1.00  0.00     0.030 A 
ATOM      6  C   UNL     1      11.525 -54.687 -23.857  1.00  0.00     0.083 A 
ENDROOT
BRANCH   1   7
ATOM      7  O   UNL     1      10.353 -53.558 -22.088  1.00  0.00    -0.495 OA
ATOM      8  C   UNL     1       9.189 -52.786 -22.380  1.00  0.00     0.278 C 
ENDBRANCH   1   7
BRANCH   6   9
ATOM      9  N   UNL     1      11.010 -55.968 -23.551  1.00  0.00    -0.323 N 
ATOM     10  C   UNL     1      11.018 -56.570 -22.306  1.00  0.00     0.227 C 
ATOM     11  H   UNL     1      10.847 -56.575 -24.341  1.00  0.00     0.170 HD
ATOM     12  O   UNL     1      11.659 -56.198 -21.327  1.00  0.00    -0.274 OA
BRANCH  10  13
ATOM     13  C   UNL     1      10.208 -57.862 -22.231  1.00  0.00     0.082 C 
ATOM     14  C   UNL     1      10.999 -58.990 -21.564  1.00  0.00     0.035 C 
ATOM     15  C   UNL     1       9.699 -58.303 -23.609  1.00  0.00     0.035 C 
ATOM     16  C   UNL     1      10.170 -60.268 -21.495  1.00  0.00     0.120 C 
ATOM     17  C   UNL     1       8.885 -59.587 -23.494  1.00  0.00     0.120 C 
ATOM     18  N   UNL     1       9.640 -60.639 -22.807  1.00  0.00    -0.339 N 
ATOM     19  C   UNL     1       9.337 -61.996 -22.989  1.00  0.00     0.253 C 
ATOM     20  O   UNL     1       9.491 -62.848 -22.116  1.00  0.00    -0.269 OA
BRANCH  19  21
ATOM     21  C   UNL     1       8.835 -62.447 -24.307  1.00  0.00     0.040 A 
ATOM     22  C   UNL     1       7.698 -63.259 -24.398  1.00  0.00     0.014 A 
ATOM     23  C   UNL     1       9.472 -61.993 -25.466  1.00  0.00     0.014 A 
ATOM     24  C   UNL     1       7.226 -63.650 -25.651  1.00  0.00     0.001 A 
ATOM     25  C   UNL     1       8.996 -62.387 -26.717  1.00  0.00     0.001 A 
ATOM     26  C   UNL     1       7.878 -63.218 -26.808  1.00  0.00     0.000 A 
ENDBRANCH  19  21
ENDBRANCH  10  13
ENDBRANCH   6   9
TORSDOF 4
ENDMDL
MODEL 4
REMARK VINA RESULT:    -9.812      2.686      9.591
REMARK INTER + INTRA:         -12.640
REMARK INTER:                 -11.957
REMARK INTRA:                  -0.683
REMARK UNBOUND:                -0.534
REMARK SMILES COc1ccccc1NC(=O)C1CCN(C(=O)c2ccccc2)CC1
REMARK SMILES IDX 3 1 4 2 5 3 6 4 7 5 8 6 2 7 1 8 9 9 10 10 11 12 12 13 13 14
REMARK SMILES IDX 25 15 14 16 24 17 15 18 16 19 17 20 18 21 19 22 23 23 20 24
REMARK SMILES IDX 22 25 21 26
REMARK H PARENT 9 11
ROOT
ATOM      1  C   UNL     1       9.733 -58.606 -23.188  1.00  0.00     0.142 A 
ATOM      2  C   UNL     1       9.525 -59.772 -22.439  1.00  0.00     0.048 A 
ATOM      3  C   UNL     1      10.235 -59.989 -21.258  1.00  0.00     0.004 A 
ATOM      4  C   UNL     1      11.132 -59.027 -20.803  1.00  0.00     0.002 A 
ATOM      5  C   UNL     1      11.329 -57.854 -21.535  1.00  0.00     0.030 A 
ATOM      6  C   UNL     1      10.656 -57.643 -22.748  1.00  0.00     0.083 A 
ENDROOT
BRANCH   1   7
ATOM      7  O   UNL     1       8.907 -58.325 -24.249  1.00  0.00    -0.495 OA
ATOM      8  C   UNL     1       7.544 -58.177 -23.855  1.00  0.00     0.278 C 
ENDBRANCH   1   7
BRANCH   6   9
ATOM      9  N   UNL     1      10.928 -56.427 -23.415  1.00  0.00    -0.323 N 
ATOM     10  C   UNL     1      10.463 -55.177 -23.047  1.00  0.00     0.227 C 
ATOM     11  H   UNL     1      11.284 -56.513 -24.356  1.00  0.00     0.170 HD
ATOM     12  O   UNL     1       9.574 -54.948 -22.231  1.00  0.00    -0.274 OA
BRANCH  10  13
ATOM     13  C   UNL     1      11.086 -54.023 -23.828  1.00  0.00     0.082 C 
ATOM     14  C   UNL     1      12.172 -54.509 -24.790  1.00  0.00     0.035 C 
ATOM     15  C   UNL     1      11.635 -52.931 -22.902  1.00  0.00     0.035 C 
ATOM     16  C   UNL     1      12.776 -53.341 -25.563  1.00  0.00     0.120 C 
ATOM     17  C   UNL     1      12.235 -51.791 -23.716  1.00  0.00     0.120 C 
ATOM     18  N   UNL     1      13.237 -52.282 -24.667  1.00  0.00    -0.339 N 
ATOM     19  C   UNL     1      14.243 -51.444 -25.168  1.00  0.00     0.253 C 
ATOM     20  O   UNL     1      14.727 -51.564 -26.292  1.00  0.00    -0.269 OA
BRANCH  19  21
ATOM     21  C   UNL     1      14.785 -50.376 -24.298  1.00  0.00     0.040 A 
ATOM     22  C   UNL     1      14.343 -49.053 -24.431  1.00  0.00     0.014 A 
ATOM     23  C   UNL     1      15.695 -50.717 -23.292  1.00  0.00     0.014 A 
ATOM     24  C   UNL     1      14.847 -48.067 -23.582  1.00  0.00     0.001 A 
ATOM     25  C   UNL     1      16.195 -49.727 -22.446  1.00  0.00     0.001 A 
ATOM     26  C   UNL     1      15.775 -48.404 -22.595  1.00  0.00     0.000 A 
ENDBRANCH  19  21
ENDBRANCH  10  13
ENDBRANCH   6   9
TORSDOF 4
ENDMDL
MODEL 5
REMARK VINA RESULT:    -9.777      1.529      9.090
REMARK INTER + INTRA:         -12.596
REMARK INTER:                 -12.162
REMARK INTRA:                  -0.434
REMARK UNBOUND:                -0.534
REMARK SMILES COc1ccccc1NC(=O)C1CCN(C(=O)c2ccccc2)CC1
REMARK SMILES IDX 3 1 4 2 5 3 6 4 7 5 8 6 2 7 1 8 9 9 10 10 11 12 12 13 13 14
REMARK SMILES IDX 25 15 14 16 24 17 15 18 16 19 17 20 18 21 19 22 23 23 20 24
REMARK SMILES IDX 22 25 21 26
REMARK H PARENT 9 11
ROOT
ATOM      1  C   UNL     1       7.857 -62.392 -24.908  1.00  0.00     0.142 A 
ATOM      2  C   UNL     1       7.599 -63.461 -25.777  1.00  0.00     0.048 A 
ATOM      3  C   UNL     1       8.102 -63.450 -27.079  1.00  0.00     0.004 A 
ATOM      4  C   UNL     1       8.892 -62.388 -27.507  1.00  0.00     0.002 A 
ATOM      5  C   UNL     1       9.169 -61.329 -26.638  1.00  0.00     0.030 A 
ATOM      6  C   UNL     1       8.632 -61.304 -25.343  1.00  0.00     0.083 A 
ENDROOT
BRANCH   1   7
ATOM      7  O   UNL     1       7.507 -62.494 -23.584  1.00  0.00    -0.495 OA
ATOM      8  C   UNL     1       8.217 -63.532 -22.910  1.00  0.00     0.278 C 
ENDBRANCH   1   7
BRANCH   6   9
ATOM      9  N   UNL     1       8.968 -60.187 -24.544  1.00  0.00    -0.323 N 
ATOM     10  C   UNL     1      10.089 -60.070 -23.741  1.00  0.00     0.227 C 
ATOM     11  H   UNL     1       8.218 -59.535 -24.364  1.00  0.00     0.170 HD
ATOM     12  O   UNL     1      10.845 -60.982 -23.419  1.00  0.00    -0.274 OA
BRANCH  10  13
ATOM     13  C   UNL     1      10.297 -58.675 -23.158  1.00  0.00     0.082 C 
ATOM     14  C   UNL     1       9.019 -57.836 -23.221  1.00  0.00     0.035 C 
ATOM     15  C   UNL     1      11.459 -57.936 -23.834  1.00  0.00     0.035 C 
ATOM     16  C   UNL     1       9.249 -56.450 -22.628  1.00  0.00     0.120 C 
ATOM     17  C   UNL     1      11.647 -56.555 -23.218  1.00  0.00     0.120 C 
ATOM     18  N   UNL     1      10.399 -55.786 -23.240  1.00  0.00    -0.339 N 
ATOM     19  C   UNL     1      10.402 -54.384 -23.189  1.00  0.00     0.253 C 
ATOM     20  O   UNL     1       9.507 -53.724 -22.664  1.00  0.00    -0.269 OA
BRANCH  19  21
ATOM     21  C   UNL     1      11.516 -53.647 -23.826  1.00  0.00     0.040 A 
ATOM     22  C   UNL     1      12.072 -54.094 -25.031  1.00  0.00     0.014 A 
ATOM     23  C   UNL     1      11.960 -52.456 -23.244  1.00  0.00     0.014 A 
ATOM     24  C   UNL     1      13.104 -53.368 -25.628  1.00  0.00     0.001 A 
ATOM     25  C   UNL     1      12.992 -51.734 -23.845  1.00  0.00     0.001 A 
ATOM     26  C   UNL     1      13.565 -52.193 -25.032  1.00  0.00     0.000 A 
ENDBRANCH  19  21
ENDBRANCH  10  13
ENDBRANCH   6   9
TORSDOF 4
ENDMDL
MODEL 6
REMARK VINA RESULT:    -9.495      3.525      6.592
REMARK INTER + INTRA:         -12.249
REMARK INTER:                 -11.509
REMARK INTRA:                  -0.740
REMARK UNBOUND:                -0.534
REMARK SMILES COc1ccccc1NC(=O)C1CCN(C(=O)c2ccccc2)CC1
REMARK SMILES IDX 3 1 4 2 5 3 6 4 7 5 8 6 2 7 1 8 9 9 10 10 11 12 12 13 13 14
REMARK SMILES IDX 25 15 14 16 24 17 15 18 16 19 17 20 18 21 19 22 23 23 20 24
REMARK SMILES IDX 22 25 21 26
REMARK H PARENT 9 11
ROOT
ATOM      1  C   UNL     1      17.118 -50.167 -24.800  1.00  0.00     0.142 A 
ATOM      2  C   UNL     1      18.457 -49.961 -25.162  1.00  0.00     0.048 A 
ATOM      3  C   UNL     1      19.226 -51.016 -25.655  1.00  0.00     0.004 A 
ATOM      4  C   UNL     1      18.652 -52.272 -25.820  1.00  0.00     0.002 A 
ATOM      5  C   UNL     1      17.313 -52.479 -25.479  1.00  0.00     0.030 A 
ATOM      6  C   UNL     1      16.541 -51.440 -24.939  1.00  0.00     0.083 A 
ENDROOT
BRANCH   1   7
ATOM      7  O   UNL     1      16.327 -49.090 -24.484  1.00  0.00    -0.495 OA
ATOM      8  C   UNL     1      16.243 -48.143 -25.547  1.00  0.00     0.278 C 
ENDBRANCH   1   7
BRANCH   6   9
ATOM      9  N   UNL     1      15.199 -51.752 -24.623  1.00  0.00    -0.323 N 
ATOM     10  C   UNL     1      14.118 -51.647 -25.480  1.00  0.00     0.227 C 
ATOM     11  H   UNL     1      14.985 -51.825 -23.639  1.00  0.00     0.170 HD
ATOM     12  O   UNL     1      14.105 -51.064 -26.560  1.00  0.00    -0.274 OA
BRANCH  10  13
ATOM     13  C   UNL     1      12.826 -52.249 -24.933  1.00  0.00     0.082 C 
ATOM     14  C   UNL     1      12.576 -51.835 -23.480  1.00  0.00     0.035 C 
ATOM     15  C   UNL     1      12.799 -53.776 -25.070  1.00  0.00     0.035 C 
ATOM     16  C   UNL     1      11.279 -52.443 -22.957  1.00  0.00     0.120 C 
ATOM     17  C   UNL     1      11.492 -54.340 -24.527  1.00  0.00     0.120 C 
ATOM     18  N   UNL     1      11.245 -53.892 -23.154  1.00  0.00    -0.339 N 
ATOM     19  C   UNL     1      10.410 -54.613 -22.287  1.00  0.00     0.253 C 
ATOM     20  O   UNL     1       9.732 -54.086 -21.406  1.00  0.00    -0.269 OA
BRANCH  19  21
ATOM     21  C   UNL     1      10.359 -56.087 -22.403  1.00  0.00     0.040 A 
ATOM     22  C   UNL     1      11.335 -56.886 -21.793  1.00  0.00     0.014 A 
ATOM     23  C   UNL     1       9.283 -56.677 -23.073  1.00  0.00     0.014 A 
ATOM     24  C   UNL     1      11.252 -58.275 -21.893  1.00  0.00     0.001 A 
ATOM     25  C   UNL     1       9.205 -58.066 -23.169  1.00  0.00     0.001 A 
ATOM     26  C   UNL     1      10.190 -58.863 -22.584  1.00  0.00     0.000 A 
ENDBRANCH  19  21
ENDBRANCH  10  13
ENDBRANCH   6   9
TORSDOF 4
ENDMDL
MODEL 7
REMARK VINA RESULT:    -9.399      2.961     10.292
REMARK INTER + INTRA:         -12.130
REMARK INTER:                 -11.981
REMARK INTRA:                  -0.149
REMARK UNBOUND:                -0.534
REMARK SMILES COc1ccccc1NC(=O)C1CCN(C(=O)c2ccccc2)CC1
REMARK SMILES IDX 3 1 4 2 5 3 6 4 7 5 8 6 2 7 1 8 9 9 10 10 11 12 12 13 13 14
REMARK SMILES IDX 25 15 14 16 24 17 15 18 16 19 17 20 18 21 19 22 23 23 20 24
REMARK SMILES IDX 22 25 21 26
REMARK H PARENT 9 11
ROOT
ATOM      1  C   UNL     1       9.481 -57.874 -23.093  1.00  0.00     0.142 A 
ATOM      2  C   UNL     1       9.525 -59.200 -22.639  1.00  0.00     0.048 A 
ATOM      3  C   UNL     1      10.489 -59.597 -21.711  1.00  0.00     0.004 A 
ATOM      4  C   UNL     1      11.390 -58.665 -21.207  1.00  0.00     0.002 A 
ATOM      5  C   UNL     1      11.338 -57.338 -21.641  1.00  0.00     0.030 A 
ATOM      6  C   UNL     1      10.405 -56.934 -22.608  1.00  0.00     0.083 A 
ENDROOT
BRANCH   1   7
ATOM      7  O   UNL     1       8.426 -57.458 -23.868  1.00  0.00    -0.495 OA
ATOM      8  C   UNL     1       7.348 -58.392 -23.871  1.00  0.00     0.278 C 
ENDBRANCH   1   7
BRANCH   6   9
ATOM      9  N   UNL     1      10.436 -55.572 -22.983  1.00  0.00    -0.323 N 
ATOM     10  C   UNL     1      10.721 -54.506 -22.149  1.00  0.00     0.227 C 
ATOM     11  H   UNL     1       9.986 -55.347 -23.858  1.00  0.00     0.170 HD
ATOM     12  O   UNL     1      10.771 -54.541 -20.922  1.00  0.00    -0.274 OA
BRANCH  10  13
ATOM     13  C   UNL     1      10.887 -53.172 -22.873  1.00  0.00     0.082 C 
ATOM     14  C   UNL     1      12.197 -53.113 -23.661  1.00  0.00     0.035 C 
ATOM     15  C   UNL     1      10.781 -51.980 -21.914  1.00  0.00     0.035 C 
ATOM     16  C   UNL     1      12.338 -51.775 -24.381  1.00  0.00     0.120 C 
ATOM     17  C   UNL     1      10.936 -50.667 -22.673  1.00  0.00     0.120 C 
ATOM     18  N   UNL     1      12.172 -50.649 -23.462  1.00  0.00    -0.339 N 
ATOM     19  C   UNL     1      12.778 -49.444 -23.847  1.00  0.00     0.253 C 
ATOM     20  O   UNL     1      13.415 -49.309 -24.890  1.00  0.00    -0.269 OA
BRANCH  19  21
ATOM     21  C   UNL     1      12.683 -48.275 -22.944  1.00  0.00     0.040 A 
ATOM     22  C   UNL     1      11.648 -47.342 -23.090  1.00  0.00     0.014 A 
ATOM     23  C   UNL     1      13.601 -48.151 -21.896  1.00  0.00     0.014 A 
ATOM     24  C   UNL     1      11.562 -46.262 -22.211  1.00  0.00     0.001 A 
ATOM     25  C   UNL     1      13.510 -47.070 -21.020  1.00  0.00     0.001 A 
ATOM     26  C   UNL     1      12.495 -46.125 -21.181  1.00  0.00     0.000 A 
ENDBRANCH  19  21
ENDBRANCH  10  13
ENDBRANCH   6   9
TORSDOF 4
ENDMDL
MODEL 8
REMARK VINA RESULT:    -9.277      2.647     10.153
REMARK INTER + INTRA:         -11.980
REMARK INTER:                 -11.536
REMARK INTRA:                  -0.444
REMARK UNBOUND:                -0.534
REMARK SMILES COc1ccccc1NC(=O)C1CCN(C(=O)c2ccccc2)CC1
REMARK SMILES IDX 3 1 4 2 5 3 6 4 7 5 8 6 2 7 1 8 9 9 10 10 11 12 12 13 13 14
REMARK SMILES IDX 25 15 14 16 24 17 15 18 16 19 17 20 18 21 19 22 23 23 20 24
REMARK SMILES IDX 22 25 21 26
REMARK H PARENT 9 11
ROOT
ATOM      1  C   UNL     1       9.608 -57.968 -23.205  1.00  0.00     0.142 A 
ATOM      2  C   UNL     1       9.507 -59.350 -23.416  1.00  0.00     0.048 A 
ATOM      3  C   UNL     1      10.442 -60.221 -22.853  1.00  0.00     0.004 A 
ATOM      4  C   UNL     1      11.461 -59.718 -22.051  1.00  0.00     0.002 A 
ATOM      5  C   UNL     1      11.555 -58.343 -21.822  1.00  0.00     0.030 A 
ATOM      6  C   UNL     1      10.651 -57.452 -22.418  1.00  0.00     0.083 A 
ENDROOT
BRANCH   1   7
ATOM      7  O   UNL     1       8.590 -57.144 -23.615  1.00  0.00    -0.495 OA
ATOM      8  C   UNL     1       7.390 -57.860 -23.906  1.00  0.00     0.278 C 
ENDBRANCH   1   7
BRANCH   6   9
ATOM      9  N   UNL     1      10.834 -56.081 -22.127  1.00  0.00    -0.323 N 
ATOM     10  C   UNL     1      11.041 -55.075 -23.053  1.00  0.00     0.227 C 
ATOM     11  H   UNL     1      11.068 -55.863 -21.169  1.00  0.00     0.170 HD
ATOM     12  O   UNL     1      11.321 -55.230 -24.238  1.00  0.00    -0.274 OA
BRANCH  10  13
ATOM     13  C   UNL     1      10.997 -53.666 -22.466  1.00  0.00     0.082 C 
ATOM     14  C   UNL     1       9.651 -52.985 -22.725  1.00  0.00     0.035 C 
ATOM     15  C   UNL     1      12.149 -52.792 -22.977  1.00  0.00     0.035 C 
ATOM     16  C   UNL     1       9.626 -51.583 -22.125  1.00  0.00     0.120 C 
ATOM     17  C   UNL     1      12.080 -51.400 -22.361  1.00  0.00     0.120 C 
ATOM     18  N   UNL     1      10.767 -50.785 -22.574  1.00  0.00    -0.339 N 
ATOM     19  C   UNL     1      10.597 -49.393 -22.544  1.00  0.00     0.253 C 
ATOM     20  O   UNL     1       9.563 -48.845 -22.164  1.00  0.00    -0.269 OA
BRANCH  19  21
ATOM     21  C   UNL     1      11.696 -48.526 -23.024  1.00  0.00     0.040 A 
ATOM     22  C   UNL     1      12.453 -47.768 -22.121  1.00  0.00     0.014 A 
ATOM     23  C   UNL     1      12.017 -48.529 -24.385  1.00  0.00     0.014 A 
ATOM     24  C   UNL     1      13.503 -46.979 -22.592  1.00  0.00     0.001 A 
ATOM     25  C   UNL     1      13.068 -47.739 -24.850  1.00  0.00     0.001 A 
ATOM     26  C   UNL     1      13.806 -46.962 -23.955  1.00  0.00     0.000 A 
ENDBRANCH  19  21
ENDBRANCH  10  13
ENDBRANCH   6   9
TORSDOF 4
ENDMDL
MODEL 9
REMARK VINA RESULT:    -9.163      3.612      6.683
REMARK INTER + INTRA:         -11.840
REMARK INTER:                 -11.234
REMARK INTRA:                  -0.605
REMARK UNBOUND:                -0.534
REMARK SMILES COc1ccccc1NC(=O)C1CCN(C(=O)c2ccccc2)CC1
REMARK SMILES IDX 3 1 4 2 5 3 6 4 7 5 8 6 2 7 1 8 9 9 10 10 11 12 12 13 13 14
REMARK SMILES IDX 25 15 14 16 24 17 15 18 16 19 17 20 18 21 19 22 23 23 20 24
REMARK SMILES IDX 22 25 21 26
REMARK H PARENT 9 11
ROOT
ATOM      1  C   UNL     1      15.878 -48.824 -25.821  1.00  0.00     0.142 A 
ATOM      2  C   UNL     1      16.876 -48.031 -26.405  1.00  0.00     0.048 A 
ATOM      3  C   UNL     1      17.004 -47.966 -27.793  1.00  0.00     0.004 A 
ATOM      4  C   UNL     1      16.116 -48.665 -28.604  1.00  0.00     0.002 A 
ATOM      5  C   UNL     1      15.107 -49.442 -28.027  1.00  0.00     0.030 A 
ATOM      6  C   UNL     1      14.995 -49.554 -26.634  1.00  0.00     0.083 A 
ENDROOT
BRANCH   1   7
ATOM      7  O   UNL     1      15.653 -48.743 -24.469  1.00  0.00    -0.495 OA
ATOM      8  C   UNL     1      16.576 -49.525 -23.713  1.00  0.00     0.278 C 
ENDBRANCH   1   7
BRANCH   6   9
ATOM      9  N   UNL     1      13.945 -50.366 -26.150  1.00  0.00    -0.323 N 
ATOM     10  C   UNL     1      14.075 -51.649 -25.650  1.00  0.00     0.227 C 
ATOM     11  H   UNL     1      13.012 -50.080 -26.412  1.00  0.00     0.170 HD
ATOM     12  O   UNL     1      15.066 -52.367 -25.749  1.00  0.00    -0.274 OA
BRANCH  10  13
ATOM     13  C   UNL     1      12.804 -52.202 -25.009  1.00  0.00     0.082 C 
ATOM     14  C   UNL     1      12.685 -51.793 -23.539  1.00  0.00     0.035 C 
ATOM     15  C   UNL     1      12.702 -53.725 -25.153  1.00  0.00     0.035 C 
ATOM     16  C   UNL     1      11.407 -52.350 -22.922  1.00  0.00     0.120 C 
ATOM     17  C   UNL     1      11.417 -54.240 -24.516  1.00  0.00     0.120 C 
ATOM     18  N   UNL     1      11.296 -53.794 -23.124  1.00  0.00    -0.339 N 
ATOM     19  C   UNL     1      10.501 -54.488 -22.200  1.00  0.00     0.253 C 
ATOM     20  O   UNL     1       9.915 -53.943 -21.267  1.00  0.00    -0.269 OA
BRANCH  19  21
ATOM     21  C   UNL     1      10.378 -55.958 -22.322  1.00  0.00     0.040 A 
ATOM     22  C   UNL     1       9.338 -56.529 -23.067  1.00  0.00     0.014 A 
ATOM     23  C   UNL     1      11.357 -56.770 -21.742  1.00  0.00     0.014 A 
ATOM     24  C   UNL     1       9.257 -57.916 -23.191  1.00  0.00     0.001 A 
ATOM     25  C   UNL     1      11.272 -58.157 -21.869  1.00  0.00     0.001 A 
ATOM     26  C   UNL     1      10.221 -58.728 -22.589  1.00  0.00     0.000 A 
ENDBRANCH  19  21
ENDBRANCH  10  13
ENDBRANCH   6   9
TORSDOF 4
ENDMDL
