MODEL 1
REMARK VINA RESULT:   -11.809      0.000      0.000
REMARK INTER + INTRA:         -15.747
REMARK INTER:                 -15.260
REMARK INTRA:                  -0.487
REMARK UNBOUND:                -0.487
REMARK SMILES O=c1[nH]c2ccccc2c(=O)n1CC[C@H]1CC[N@@H+](Cc2ccccc2)CC1
REMARK SMILES IDX 14 1 15 2 17 3 18 4 16 5 26 6 27 7 19 9 20 10 21 11 25 12
REMARK SMILES IDX 22 13 24 14 23 15 13 16 12 17 10 18 2 19 9 20 3 21 8 22 4 23
REMARK SMILES IDX 7 24 5 25 6 26 11 27 1 28
REMARK H PARENT 18 8 3 29
ROOT
ATOM      1  C   UNL     1      11.215 -56.585 -22.293  1.00  0.00     0.026 C 
ENDROOT
BRANCH   1   2
ATOM      2  C   UNL     1      10.688 -58.034 -22.304  1.00  0.00     0.002 C 
ATOM      3  C   UNL     1      11.285 -60.405 -23.001  1.00  0.00     0.262 C 
ATOM      4  N   UNL     1      10.030 -60.469 -23.829  1.00  0.00    -0.331 N 
ATOM      5  C   UNL     1      11.769 -58.968 -22.874  1.00  0.00     0.065 C 
ATOM      6  C   UNL     1       8.933 -59.620 -23.239  1.00  0.00     0.262 C 
ATOM      7  C   UNL     1       9.380 -58.170 -23.100  1.00  0.00     0.065 C 
ATOM      8  H   UNL     1       9.691 -61.436 -23.758  1.00  0.00     0.348 HD
BRANCH   4   9
ATOM      9  C   UNL     1      10.272 -60.265 -25.311  1.00  0.00     0.299 C 
BRANCH   9  10
ATOM     10  C   UNL     1       9.558 -61.274 -26.168  1.00  0.00     0.006 A 
ATOM     11  C   UNL     1       8.667 -62.195 -25.593  1.00  0.00     0.009 A 
ATOM     12  C   UNL     1       9.756 -61.297 -27.557  1.00  0.00     0.009 A 
ATOM     13  C   UNL     1       7.986 -63.111 -26.394  1.00  0.00     0.001 A 
ATOM     14  C   UNL     1       9.071 -62.215 -28.353  1.00  0.00     0.001 A 
ATOM     15  C   UNL     1       8.186 -63.119 -27.773  1.00  0.00     0.000 A 
ENDBRANCH   9  10
ENDBRANCH   4   9
ENDBRANCH   1   2
BRANCH   1  16
ATOM     16  C   UNL     1      10.268 -55.576 -22.956  1.00  0.00     0.131 C 
BRANCH  16  17
ATOM     17  N   UNL     1      10.945 -54.318 -23.233  1.00  0.00    -0.260 N 
ATOM     18  C   UNL     1      11.761 -54.259 -24.363  1.00  0.00     0.264 A 
ATOM     19  C   UNL     1      10.839 -53.301 -22.297  1.00  0.00     0.328 A 
ATOM     20  C   UNL     1      12.419 -52.969 -24.639  1.00  0.00     0.064 A 
ATOM     21  N   UNL     1      11.484 -52.133 -22.584  1.00  0.00    -0.307 N 
ATOM     22  C   UNL     1      13.199 -52.784 -25.785  1.00  0.00     0.016 A 
ATOM     23  C   UNL     1      12.253 -51.932 -23.727  1.00  0.00     0.055 A 
ATOM     24  C   UNL     1      13.810 -51.551 -26.011  1.00  0.00     0.001 A 
ATOM     25  C   UNL     1      12.865 -50.698 -23.949  1.00  0.00     0.027 A 
ATOM     26  C   UNL     1      13.643 -50.510 -25.095  1.00  0.00     0.002 A 
ATOM     27  O   UNL     1      11.961 -55.222 -25.103  1.00  0.00    -0.268 OA
ATOM     28  O   UNL     1      10.216 -53.411 -21.242  1.00  0.00    -0.248 OA
ATOM     29  H   UNL     1      11.378 -51.393 -21.901  1.00  0.00     0.171 HD
ENDBRANCH  16  17
ENDBRANCH   1  16
TORSDOF 5
ENDMDL
MODEL 2
REMARK VINA RESULT:   -11.193      1.183      2.279
REMARK INTER + INTRA:         -14.952
REMARK INTER:                 -14.629
REMARK INTRA:                  -0.323
REMARK UNBOUND:                -0.487
REMARK SMILES O=c1[nH]c2ccccc2c(=O)n1CC[C@H]1CC[N@@H+](Cc2ccccc2)CC1
REMARK SMILES IDX 14 1 15 2 17 3 18 4 16 5 26 6 27 7 19 9 20 10 21 11 25 12
REMARK SMILES IDX 22 13 24 14 23 15 13 16 12 17 10 18 2 19 9 20 3 21 8 22 4 23
REMARK SMILES IDX 7 24 5 25 6 26 11 27 1 28
REMARK H PARENT 18 8 3 29
ROOT
ATOM      1  C   UNL     1      11.091 -56.514 -22.820  1.00  0.00     0.026 C 
ENDROOT
BRANCH   1   2
ATOM      2  C   UNL     1      10.320 -57.726 -22.261  1.00  0.00     0.002 C 
ATOM      3  C   UNL     1      10.627 -60.078 -21.344  1.00  0.00     0.262 C 
ATOM      4  N   UNL     1       9.694 -60.603 -22.403  1.00  0.00    -0.331 N 
ATOM      5  C   UNL     1      11.319 -58.811 -21.822  1.00  0.00     0.065 C 
ATOM      6  C   UNL     1       8.658 -59.578 -22.787  1.00  0.00     0.262 C 
ATOM      7  C   UNL     1       9.315 -58.294 -23.276  1.00  0.00     0.065 C 
ATOM      8  H   UNL     1       9.168 -61.369 -21.965  1.00  0.00     0.348 HD
BRANCH   4   9
ATOM      9  C   UNL     1      10.411 -61.259 -23.567  1.00  0.00     0.299 C 
BRANCH   9  10
ATOM     10  C   UNL     1       9.477 -61.977 -24.503  1.00  0.00     0.006 A 
ATOM     11  C   UNL     1       8.503 -62.857 -24.002  1.00  0.00     0.009 A 
ATOM     12  C   UNL     1       9.551 -61.762 -25.887  1.00  0.00     0.009 A 
ATOM     13  C   UNL     1       7.621 -63.500 -24.870  1.00  0.00     0.001 A 
ATOM     14  C   UNL     1       8.665 -62.407 -26.750  1.00  0.00     0.001 A 
ATOM     15  C   UNL     1       7.700 -63.273 -26.242  1.00  0.00     0.000 A 
ENDBRANCH   9  10
ENDBRANCH   4   9
ENDBRANCH   1   2
BRANCH   1  16
ATOM     16  C   UNL     1      10.205 -55.297 -23.113  1.00  0.00     0.131 C 
BRANCH  16  17
ATOM     17  N   UNL     1      11.005 -54.114 -23.393  1.00  0.00    -0.260 N 
ATOM     18  C   UNL     1      10.838 -53.009 -22.558  1.00  0.00     0.264 A 
ATOM     19  C   UNL     1      11.785 -54.112 -24.538  1.00  0.00     0.328 A 
ATOM     20  C   UNL     1      11.675 -51.828 -22.846  1.00  0.00     0.064 A 
ATOM     21  N   UNL     1      12.525 -52.989 -24.776  1.00  0.00    -0.307 N 
ATOM     22  C   UNL     1      11.636 -50.696 -22.025  1.00  0.00     0.016 A 
ATOM     23  C   UNL     1      12.505 -51.861 -23.960  1.00  0.00     0.055 A 
ATOM     24  C   UNL     1      12.438 -49.597 -22.331  1.00  0.00     0.001 A 
ATOM     25  C   UNL     1      13.307 -50.762 -24.270  1.00  0.00     0.027 A 
ATOM     26  C   UNL     1      13.272 -49.630 -23.451  1.00  0.00     0.002 A 
ATOM     27  O   UNL     1      10.027 -52.977 -21.633  1.00  0.00    -0.268 OA
ATOM     28  O   UNL     1      11.827 -55.049 -25.334  1.00  0.00    -0.248 OA
ATOM     29  H   UNL     1      13.107 -53.013 -25.604  1.00  0.00     0.171 HD
ENDBRANCH  16  17
ENDBRANCH   1  16
TORSDOF 5
ENDMDL
MODEL 3
REMARK VINA RESULT:   -11.116      1.858      2.302
REMARK INTER + INTRA:         -14.852
REMARK INTER:                 -14.196
REMARK INTRA:                  -0.656
REMARK UNBOUND:                -0.487
REMARK SMILES O=c1[nH]c2ccccc2c(=O)n1CC[C@H]1CC[N@@H+](Cc2ccccc2)CC1
REMARK SMILES IDX 14 1 15 2 17 3 18 4 16 5 26 6 27 7 19 9 20 10 21 11 25 12
REMARK SMILES IDX 22 13 24 14 23 15 13 16 12 17 10 18 2 19 9 20 3 21 8 22 4 23
REMARK SMILES IDX 7 24 5 25 6 26 11 27 1 28
REMARK H PARENT 18 8 3 29
ROOT
ATOM      1  C   UNL     1      11.010 -55.713 -21.749  1.00  0.00     0.026 C 
ENDROOT
BRANCH   1   2
ATOM      2  C   UNL     1      11.371 -57.115 -22.279  1.00  0.00     0.002 C 
ATOM      3  C   UNL     1      10.698 -58.872 -23.990  1.00  0.00     0.262 C 
ATOM      4  N   UNL     1      10.536 -59.877 -22.882  1.00  0.00    -0.331 N 
ATOM      5  C   UNL     1      10.461 -57.461 -23.471  1.00  0.00     0.065 C 
ATOM      6  C   UNL     1      11.478 -59.598 -21.738  1.00  0.00     0.262 C 
ATOM      7  C   UNL     1      11.267 -58.192 -21.188  1.00  0.00     0.065 C 
ATOM      8  H   UNL     1      10.840 -60.779 -23.268  1.00  0.00     0.348 HD
BRANCH   4   9
ATOM      9  C   UNL     1       9.092 -60.108 -22.482  1.00  0.00     0.299 C 
BRANCH   9  10
ATOM     10  C   UNL     1       8.573 -61.455 -22.906  1.00  0.00     0.006 A 
ATOM     11  C   UNL     1       7.503 -61.554 -23.810  1.00  0.00     0.009 A 
ATOM     12  C   UNL     1       9.164 -62.632 -22.420  1.00  0.00     0.009 A 
ATOM     13  C   UNL     1       7.042 -62.804 -24.223  1.00  0.00     0.001 A 
ATOM     14  C   UNL     1       8.699 -63.879 -22.838  1.00  0.00     0.001 A 
ATOM     15  C   UNL     1       7.642 -63.965 -23.739  1.00  0.00     0.000 A 
ENDBRANCH   9  10
ENDBRANCH   4   9
ENDBRANCH   1   2
BRANCH   1  16
ATOM     16  C   UNL     1      10.215 -54.859 -22.746  1.00  0.00     0.131 C 
BRANCH  16  17
ATOM     17  N   UNL     1      10.960 -53.672 -23.140  1.00  0.00    -0.260 N 
ATOM     18  C   UNL     1      11.780 -53.769 -24.264  1.00  0.00     0.264 A 
ATOM     19  C   UNL     1      10.908 -52.565 -22.308  1.00  0.00     0.328 A 
ATOM     20  C   UNL     1      12.509 -52.549 -24.660  1.00  0.00     0.064 A 
ATOM     21  N   UNL     1      11.617 -51.467 -22.703  1.00  0.00    -0.307 N 
ATOM     22  C   UNL     1      13.301 -52.521 -25.812  1.00  0.00     0.016 A 
ATOM     23  C   UNL     1      12.398 -51.421 -23.854  1.00  0.00     0.055 A 
ATOM     24  C   UNL     1      13.979 -51.350 -26.152  1.00  0.00     0.001 A 
ATOM     25  C   UNL     1      13.077 -50.250 -24.191  1.00  0.00     0.027 A 
ATOM     26  C   UNL     1      13.867 -50.217 -25.343  1.00  0.00     0.002 A 
ATOM     27  O   UNL     1      11.929 -54.809 -24.904  1.00  0.00    -0.268 OA
ATOM     28  O   UNL     1      10.278 -52.537 -21.252  1.00  0.00    -0.248 OA
ATOM     29  H   UNL     1      11.550 -50.659 -22.096  1.00  0.00     0.171 HD
ENDBRANCH  16  17
ENDBRANCH   1  16
TORSDOF 5
ENDMDL
MODEL 4
REMARK VINA RESULT:   -11.025      1.569      2.300
REMARK INTER + INTRA:         -14.736
REMARK INTER:                 -14.898
REMARK INTRA:                   0.162
REMARK UNBOUND:                -0.487
REMARK SMILES O=c1[nH]c2ccccc2c(=O)n1CC[C@H]1CC[N@@H+](Cc2ccccc2)CC1
REMARK SMILES IDX 14 1 15 2 17 3 18 4 16 5 26 6 27 7 19 9 20 10 21 11 25 12
REMARK SMILES IDX 22 13 24 14 23 15 13 16 12 17 10 18 2 19 9 20 3 21 8 22 4 23
REMARK SMILES IDX 7 24 5 25 6 26 11 27 1 28
REMARK H PARENT 18 8 3 29
ROOT
ATOM      1  C   UNL     1      11.360 -56.940 -21.956  1.00  0.00     0.026 C 
ENDROOT
BRANCH   1   2
ATOM      2  C   UNL     1      11.609 -58.391 -22.411  1.00  0.00     0.002 C 
ATOM      3  C   UNL     1      12.223 -59.806 -24.434  1.00  0.00     0.262 C 
ATOM      4  N   UNL     1      10.963 -60.608 -24.244  1.00  0.00    -0.331 N 
ATOM      5  C   UNL     1      12.047 -58.397 -23.886  1.00  0.00     0.065 C 
ATOM      6  C   UNL     1      10.564 -60.679 -22.792  1.00  0.00     0.262 C 
ATOM      7  C   UNL     1      10.374 -59.284 -22.209  1.00  0.00     0.065 C 
ATOM      8  H   UNL     1      11.197 -61.573 -24.508  1.00  0.00     0.348 HD
BRANCH   4   9
ATOM      9  C   UNL     1       9.850 -60.218 -25.197  1.00  0.00     0.299 C 
BRANCH   9  10
ATOM     10  C   UNL     1       8.533 -59.999 -24.504  1.00  0.00     0.006 A 
ATOM     11  C   UNL     1       7.751 -61.093 -24.096  1.00  0.00     0.009 A 
ATOM     12  C   UNL     1       8.075 -58.700 -24.236  1.00  0.00     0.009 A 
ATOM     13  C   UNL     1       6.544 -60.887 -23.429  1.00  0.00     0.001 A 
ATOM     14  C   UNL     1       6.868 -58.500 -23.568  1.00  0.00     0.001 A 
ATOM     15  C   UNL     1       6.104 -59.592 -23.163  1.00  0.00     0.000 A 
ENDBRANCH   9  10
ENDBRANCH   4   9
ENDBRANCH   1   2
BRANCH   1  16
ATOM     16  C   UNL     1      10.455 -56.140 -22.902  1.00  0.00     0.131 C 
BRANCH  16  17
ATOM     17  N   UNL     1      10.985 -54.805 -23.139  1.00  0.00    -0.260 N 
ATOM     18  C   UNL     1      11.792 -54.621 -24.262  1.00  0.00     0.264 A 
ATOM     19  C   UNL     1      10.762 -53.835 -22.175  1.00  0.00     0.328 A 
ATOM     20  C   UNL     1      12.300 -53.256 -24.496  1.00  0.00     0.064 A 
ATOM     21  N   UNL     1      11.270 -52.593 -22.424  1.00  0.00    -0.307 N 
ATOM     22  C   UNL     1      13.057 -52.951 -25.632  1.00  0.00     0.016 A 
ATOM     23  C   UNL     1      12.015 -52.272 -23.556  1.00  0.00     0.055 A 
ATOM     24  C   UNL     1      13.525 -51.649 -25.817  1.00  0.00     0.001 A 
ATOM     25  C   UNL     1      12.482 -50.971 -23.738  1.00  0.00     0.027 A 
ATOM     26  C   UNL     1      13.237 -50.662 -24.873  1.00  0.00     0.002 A 
ATOM     27  O   UNL     1      12.103 -55.533 -25.027  1.00  0.00    -0.268 OA
ATOM     28  O   UNL     1      10.152 -54.046 -21.127  1.00  0.00    -0.248 OA
ATOM     29  H   UNL     1      11.078 -51.891 -21.720  1.00  0.00     0.171 HD
ENDBRANCH  16  17
ENDBRANCH   1  16
TORSDOF 5
ENDMDL
MODEL 5
REMARK VINA RESULT:   -10.650      2.540      9.580
REMARK INTER + INTRA:         -14.250
REMARK INTER:                 -13.618
REMARK INTRA:                  -0.633
REMARK UNBOUND:                -0.487
REMARK SMILES O=c1[nH]c2ccccc2c(=O)n1CC[C@H]1CC[N@@H+](Cc2ccccc2)CC1
REMARK SMILES IDX 14 1 15 2 17 3 18 4 16 5 26 6 27 7 19 9 20 10 21 11 25 12
REMARK SMILES IDX 22 13 24 14 23 15 13 16 12 17 10 18 2 19 9 20 3 21 8 22 4 23
REMARK SMILES IDX 7 24 5 25 6 26 11 27 1 28
REMARK H PARENT 18 8 3 29
ROOT
ATOM      1  C   UNL     1      11.399 -57.168 -22.376  1.00  0.00     0.026 C 
ENDROOT
BRANCH   1   2
ATOM      2  C   UNL     1      10.591 -55.855 -22.360  1.00  0.00     0.002 C 
ATOM      3  C   UNL     1      10.060 -53.783 -23.734  1.00  0.00     0.262 C 
ATOM      4  N   UNL     1      10.542 -52.918 -22.601  1.00  0.00    -0.331 N 
ATOM      5  C   UNL     1      10.757 -55.135 -23.709  1.00  0.00     0.065 C 
ATOM      6  C   UNL     1      10.313 -53.577 -21.264  1.00  0.00     0.262 C 
ATOM      7  C   UNL     1      11.002 -54.935 -21.200  1.00  0.00     0.065 C 
ATOM      8  H   UNL     1       9.938 -52.087 -22.599  1.00  0.00     0.348 HD
BRANCH   4   9
ATOM      9  C   UNL     1      11.938 -52.367 -22.813  1.00  0.00     0.299 C 
BRANCH   9  10
ATOM     10  C   UNL     1      11.948 -50.893 -23.115  1.00  0.00     0.006 A 
ATOM     11  C   UNL     1      12.858 -50.361 -24.044  1.00  0.00     0.009 A 
ATOM     12  C   UNL     1      11.036 -50.031 -22.488  1.00  0.00     0.009 A 
ATOM     13  C   UNL     1      12.846 -48.999 -24.342  1.00  0.00     0.001 A 
ATOM     14  C   UNL     1      11.028 -48.669 -22.790  1.00  0.00     0.001 A 
ATOM     15  C   UNL     1      11.931 -48.155 -23.718  1.00  0.00     0.000 A 
ENDBRANCH   9  10
ENDBRANCH   4   9
ENDBRANCH   1   2
BRANCH   1  16
ATOM     16  C   UNL     1      11.454 -57.845 -23.752  1.00  0.00     0.131 C 
BRANCH  16  17
ATOM     17  N   UNL     1      10.928 -59.202 -23.696  1.00  0.00    -0.260 N 
ATOM     18  C   UNL     1       9.545 -59.361 -23.776  1.00  0.00     0.264 A 
ATOM     19  C   UNL     1      11.817 -60.234 -23.441  1.00  0.00     0.328 A 
ATOM     20  C   UNL     1       9.034 -60.745 -23.740  1.00  0.00     0.064 A 
ATOM     21  N   UNL     1      11.295 -61.495 -23.394  1.00  0.00    -0.307 N 
ATOM     22  C   UNL     1       7.670 -61.017 -23.886  1.00  0.00     0.016 A 
ATOM     23  C   UNL     1       9.942 -61.781 -23.550  1.00  0.00     0.055 A 
ATOM     24  C   UNL     1       7.224 -62.338 -23.842  1.00  0.00     0.001 A 
ATOM     25  C   UNL     1       9.498 -63.103 -23.504  1.00  0.00     0.027 A 
ATOM     26  C   UNL     1       8.136 -63.378 -23.652  1.00  0.00     0.002 A 
ATOM     27  O   UNL     1       8.758 -58.418 -23.852  1.00  0.00    -0.268 OA
ATOM     28  O   UNL     1      13.020 -60.064 -23.248  1.00  0.00    -0.248 OA
ATOM     29  H   UNL     1      11.961 -62.240 -23.229  1.00  0.00     0.171 HD
ENDBRANCH  16  17
ENDBRANCH   1  16
TORSDOF 5
ENDMDL
MODEL 6
REMARK VINA RESULT:   -10.435      2.465      9.213
REMARK INTER + INTRA:         -13.973
REMARK INTER:                 -13.646
REMARK INTRA:                  -0.327
REMARK UNBOUND:                -0.487
REMARK SMILES O=c1[nH]c2ccccc2c(=O)n1CC[C@H]1CC[N@@H+](Cc2ccccc2)CC1
REMARK SMILES IDX 14 1 15 2 17 3 18 4 16 5 26 6 27 7 19 9 20 10 21 11 25 12
REMARK SMILES IDX 22 13 24 14 23 15 13 16 12 17 10 18 2 19 9 20 3 21 8 22 4 23
REMARK SMILES IDX 7 24 5 25 6 26 11 27 1 28
REMARK H PARENT 18 8 3 29
ROOT
ATOM      1  C   UNL     1      11.033 -56.964 -22.001  1.00  0.00     0.026 C 
ENDROOT
BRANCH   1   2
ATOM      2  C   UNL     1      10.449 -55.569 -22.302  1.00  0.00     0.002 C 
ATOM      3  C   UNL     1      10.565 -53.634 -23.947  1.00  0.00     0.262 C 
ATOM      4  N   UNL     1      10.899 -52.701 -22.814  1.00  0.00    -0.331 N 
ATOM      5  C   UNL     1      11.026 -55.048 -23.630  1.00  0.00     0.065 C 
ATOM      6  C   UNL     1      10.273 -53.155 -21.520  1.00  0.00     0.262 C 
ATOM      7  C   UNL     1      10.717 -54.569 -21.165  1.00  0.00     0.065 C 
ATOM      8  H   UNL     1      10.443 -51.808 -23.036  1.00  0.00     0.348 HD
BRANCH   4   9
ATOM      9  C   UNL     1      12.374 -52.358 -22.728  1.00  0.00     0.299 C 
BRANCH   9  10
ATOM     10  C   UNL     1      12.846 -51.503 -23.871  1.00  0.00     0.006 A 
ATOM     11  C   UNL     1      13.316 -52.093 -25.056  1.00  0.00     0.009 A 
ATOM     12  C   UNL     1      12.804 -50.103 -23.779  1.00  0.00     0.009 A 
ATOM     13  C   UNL     1      13.727 -51.297 -26.125  1.00  0.00     0.001 A 
ATOM     14  C   UNL     1      13.216 -49.312 -24.852  1.00  0.00     0.001 A 
ATOM     15  C   UNL     1      13.674 -49.908 -26.024  1.00  0.00     0.000 A 
ENDBRANCH   9  10
ENDBRANCH   4   9
ENDBRANCH   1   2
BRANCH   1  16
ATOM     16  C   UNL     1      11.220 -57.839 -23.246  1.00  0.00     0.131 C 
BRANCH  16  17
ATOM     17  N   UNL     1      10.273 -58.945 -23.264  1.00  0.00    -0.260 N 
ATOM     18  C   UNL     1      10.777 -60.229 -23.062  1.00  0.00     0.264 A 
ATOM     19  C   UNL     1       8.958 -58.670 -23.604  1.00  0.00     0.328 A 
ATOM     20  C   UNL     1       9.798 -61.333 -23.061  1.00  0.00     0.064 A 
ATOM     21  N   UNL     1       8.093 -59.726 -23.613  1.00  0.00    -0.307 N 
ATOM     22  C   UNL     1      10.190 -62.649 -22.796  1.00  0.00     0.016 A 
ATOM     23  C   UNL     1       8.468 -61.038 -23.338  1.00  0.00     0.055 A 
ATOM     24  C   UNL     1       9.237 -63.667 -22.809  1.00  0.00     0.001 A 
ATOM     25  C   UNL     1       7.512 -62.054 -23.353  1.00  0.00     0.027 A 
ATOM     26  C   UNL     1       7.901 -63.370 -23.087  1.00  0.00     0.002 A 
ATOM     27  O   UNL     1      11.974 -60.470 -22.910  1.00  0.00    -0.268 OA
ATOM     28  O   UNL     1       8.553 -57.547 -23.903  1.00  0.00    -0.248 OA
ATOM     29  H   UNL     1       7.131 -59.504 -23.841  1.00  0.00     0.171 HD
ENDBRANCH  16  17
ENDBRANCH   1  16
TORSDOF 5
ENDMDL
MODEL 7
REMARK VINA RESULT:   -10.403      2.041      8.517
REMARK INTER + INTRA:         -13.931
REMARK INTER:                 -13.655
REMARK INTRA:                  -0.276
REMARK UNBOUND:                -0.487
REMARK SMILES O=c1[nH]c2ccccc2c(=O)n1CC[C@H]1CC[N@@H+](Cc2ccccc2)CC1
REMARK SMILES IDX 14 1 15 2 17 3 18 4 16 5 26 6 27 7 19 9 20 10 21 11 25 12
REMARK SMILES IDX 22 13 24 14 23 15 13 16 12 17 10 18 2 19 9 20 3 21 8 22 4 23
REMARK SMILES IDX 7 24 5 25 6 26 11 27 1 28
REMARK H PARENT 18 8 3 29
ROOT
ATOM      1  C   UNL     1      10.549 -60.088 -22.191  1.00  0.00     0.026 C 
ENDROOT
BRANCH   1   2
ATOM      2  C   UNL     1      10.205 -58.600 -21.976  1.00  0.00     0.002 C 
ATOM      3  C   UNL     1       9.157 -56.577 -23.105  1.00  0.00     0.262 C 
ATOM      4  N   UNL     1      10.428 -55.803 -22.877  1.00  0.00    -0.331 N 
ATOM      5  C   UNL     1       9.450 -58.067 -23.206  1.00  0.00     0.065 C 
ATOM      6  C   UNL     1      11.140 -56.260 -21.630  1.00  0.00     0.262 C 
ATOM      7  C   UNL     1      11.454 -57.750 -21.696  1.00  0.00     0.065 C 
ATOM      8  H   UNL     1      10.141 -54.835 -22.685  1.00  0.00     0.348 HD
BRANCH   4   9
ATOM      9  C   UNL     1      11.301 -55.696 -24.112  1.00  0.00     0.299 C 
BRANCH   9  10
ATOM     10  C   UNL     1      11.854 -54.314 -24.323  1.00  0.00     0.006 A 
ATOM     11  C   UNL     1      11.558 -53.281 -23.418  1.00  0.00     0.009 A 
ATOM     12  C   UNL     1      12.690 -54.040 -25.417  1.00  0.00     0.009 A 
ATOM     13  C   UNL     1      12.095 -52.007 -23.602  1.00  0.00     0.001 A 
ATOM     14  C   UNL     1      13.225 -52.764 -25.595  1.00  0.00     0.001 A 
ATOM     15  C   UNL     1      12.929 -51.750 -24.688  1.00  0.00     0.000 A 
ENDBRANCH   9  10
ENDBRANCH   4   9
ENDBRANCH   1   2
BRANCH   1  16
ATOM     16  C   UNL     1      11.606 -60.328 -23.277  1.00  0.00     0.131 C 
BRANCH  16  17
ATOM     17  N   UNL     1      10.989 -60.650 -24.555  1.00  0.00    -0.260 N 
ATOM     18  C   UNL     1      10.102 -61.726 -24.591  1.00  0.00     0.264 A 
ATOM     19  C   UNL     1      11.413 -59.955 -25.676  1.00  0.00     0.328 A 
ATOM     20  C   UNL     1       9.470 -62.021 -25.891  1.00  0.00     0.064 A 
ATOM     21  N   UNL     1      10.817 -60.278 -26.862  1.00  0.00    -0.307 N 
ATOM     22  C   UNL     1       8.512 -63.032 -26.017  1.00  0.00     0.016 A 
ATOM     23  C   UNL     1       9.853 -61.273 -26.998  1.00  0.00     0.055 A 
ATOM     24  C   UNL     1       7.940 -63.286 -27.263  1.00  0.00     0.001 A 
ATOM     25  C   UNL     1       9.284 -61.526 -28.246  1.00  0.00     0.027 A 
ATOM     26  C   UNL     1       8.324 -62.534 -28.375  1.00  0.00     0.002 A 
ATOM     27  O   UNL     1       9.852 -62.428 -23.612  1.00  0.00    -0.268 OA
ATOM     28  O   UNL     1      12.289 -59.091 -25.650  1.00  0.00    -0.248 OA
ATOM     29  H   UNL     1      11.122 -59.745 -27.667  1.00  0.00     0.171 HD
ENDBRANCH  16  17
ENDBRANCH   1  16
TORSDOF 5
ENDMDL
MODEL 8
REMARK VINA RESULT:   -10.033      2.564      3.984
REMARK INTER + INTRA:         -13.452
REMARK INTER:                 -12.910
REMARK INTRA:                  -0.543
REMARK UNBOUND:                -0.487
REMARK SMILES O=c1[nH]c2ccccc2c(=O)n1CC[C@H]1CC[N@@H+](Cc2ccccc2)CC1
REMARK SMILES IDX 14 1 15 2 17 3 18 4 16 5 26 6 27 7 19 9 20 10 21 11 25 12
REMARK SMILES IDX 22 13 24 14 23 15 13 16 12 17 10 18 2 19 9 20 3 21 8 22 4 23
REMARK SMILES IDX 7 24 5 25 6 26 11 27 1 28
REMARK H PARENT 18 8 3 29
ROOT
ATOM      1  C   UNL     1      10.167 -53.144 -22.716  1.00  0.00     0.026 C 
ENDROOT
BRANCH   1   2
ATOM      2  C   UNL     1      11.075 -54.390 -22.663  1.00  0.00     0.002 C 
ATOM      3  C   UNL     1      11.837 -56.403 -24.018  1.00  0.00     0.262 C 
ATOM      4  N   UNL     1      11.367 -57.312 -22.914  1.00  0.00    -0.331 N 
ATOM      5  C   UNL     1      11.035 -55.110 -24.023  1.00  0.00     0.065 C 
ATOM      6  C   UNL     1      11.475 -56.649 -21.565  1.00  0.00     0.262 C 
ATOM      7  C   UNL     1      10.679 -55.350 -21.530  1.00  0.00     0.065 C 
ATOM      8  H   UNL     1      12.033 -58.094 -22.885  1.00  0.00     0.348 HD
BRANCH   4   9
ATOM      9  C   UNL     1      10.031 -57.970 -23.201  1.00  0.00     0.299 C 
BRANCH   9  10
ATOM     10  C   UNL     1      10.113 -59.471 -23.247  1.00  0.00     0.006 A 
ATOM     11  C   UNL     1       9.941 -60.231 -22.078  1.00  0.00     0.009 A 
ATOM     12  C   UNL     1      10.341 -60.135 -24.462  1.00  0.00     0.009 A 
ATOM     13  C   UNL     1       9.989 -61.624 -22.130  1.00  0.00     0.001 A 
ATOM     14  C   UNL     1      10.388 -61.528 -24.507  1.00  0.00     0.001 A 
ATOM     15  C   UNL     1      10.210 -62.271 -23.343  1.00  0.00     0.000 A 
ENDBRANCH   9  10
ENDBRANCH   4   9
ENDBRANCH   1   2
BRANCH   1  16
ATOM     16  C   UNL     1      10.487 -52.099 -21.639  1.00  0.00     0.131 C 
BRANCH  16  17
ATOM     17  N   UNL     1      10.664 -50.776 -22.221  1.00  0.00    -0.260 N 
ATOM     18  C   UNL     1      11.871 -50.512 -22.868  1.00  0.00     0.264 A 
ATOM     19  C   UNL     1       9.681 -49.827 -21.990  1.00  0.00     0.328 A 
ATOM     20  C   UNL     1      12.022 -49.174 -23.471  1.00  0.00     0.064 A 
ATOM     21  N   UNL     1       9.875 -48.596 -22.548  1.00  0.00    -0.307 N 
ATOM     22  C   UNL     1      13.164 -48.834 -24.202  1.00  0.00     0.016 A 
ATOM     23  C   UNL     1      11.000 -48.248 -23.290  1.00  0.00     0.055 A 
ATOM     24  C   UNL     1      13.272 -47.557 -24.754  1.00  0.00     0.001 A 
ATOM     25  C   UNL     1      11.108 -46.970 -23.838  1.00  0.00     0.027 A 
ATOM     26  C   UNL     1      12.246 -46.628 -24.572  1.00  0.00     0.002 A 
ATOM     27  O   UNL     1      12.795 -51.323 -22.933  1.00  0.00    -0.268 OA
ATOM     28  O   UNL     1       8.678 -50.038 -21.311  1.00  0.00    -0.248 OA
ATOM     29  H   UNL     1       9.137 -47.921 -22.389  1.00  0.00     0.171 HD
ENDBRANCH  16  17
ENDBRANCH   1  16
TORSDOF 5
ENDMDL
MODEL 9
REMARK VINA RESULT:    -9.791      3.337      5.607
REMARK INTER + INTRA:         -13.141
REMARK INTER:                 -12.472
REMARK INTRA:                  -0.669
REMARK UNBOUND:                -0.487
REMARK SMILES O=c1[nH]c2ccccc2c(=O)n1CC[C@H]1CC[N@@H+](Cc2ccccc2)CC1
REMARK SMILES IDX 14 1 15 2 17 3 18 4 16 5 26 6 27 7 19 9 20 10 21 11 25 12
REMARK SMILES IDX 22 13 24 14 23 15 13 16 12 17 10 18 2 19 9 20 3 21 8 22 4 23
REMARK SMILES IDX 7 24 5 25 6 26 11 27 1 28
REMARK H PARENT 18 8 3 29
ROOT
ATOM      1  C   UNL     1      12.090 -51.782 -23.193  1.00  0.00     0.026 C 
ENDROOT
BRANCH   1   2
ATOM      2  C   UNL     1      10.994 -52.866 -23.157  1.00  0.00     0.002 C 
ATOM      3  C   UNL     1       9.745 -54.435 -21.594  1.00  0.00     0.262 C 
ATOM      4  N   UNL     1      10.176 -55.605 -22.438  1.00  0.00    -0.331 N 
ATOM      5  C   UNL     1      10.751 -53.299 -21.701  1.00  0.00     0.065 C 
ATOM      6  C   UNL     1      10.342 -55.214 -23.884  1.00  0.00     0.262 C 
ATOM      7  C   UNL     1      11.348 -54.079 -24.031  1.00  0.00     0.065 C 
ATOM      8  H   UNL     1       9.393 -56.270 -22.425  1.00  0.00     0.348 HD
BRANCH   4   9
ATOM      9  C   UNL     1      11.337 -56.381 -21.846  1.00  0.00     0.299 C 
BRANCH   9  10
ATOM     10  C   UNL     1      11.291 -57.848 -22.174  1.00  0.00     0.006 A 
ATOM     11  C   UNL     1      10.745 -58.766 -21.261  1.00  0.00     0.009 A 
ATOM     12  C   UNL     1      11.773 -58.319 -23.405  1.00  0.00     0.009 A 
ATOM     13  C   UNL     1      10.679 -60.122 -21.580  1.00  0.00     0.001 A 
ATOM     14  C   UNL     1      11.703 -59.676 -23.718  1.00  0.00     0.001 A 
ATOM     15  C   UNL     1      11.155 -60.576 -22.808  1.00  0.00     0.000 A 
ENDBRANCH   9  10
ENDBRANCH   4   9
ENDBRANCH   1   2
BRANCH   1  16
ATOM     16  C   UNL     1      12.063 -50.833 -21.988  1.00  0.00     0.131 C 
BRANCH  16  17
ATOM     17  N   UNL     1      11.703 -49.480 -22.387  1.00  0.00    -0.260 N 
ATOM     18  C   UNL     1      12.740 -48.610 -22.725  1.00  0.00     0.264 A 
ATOM     19  C   UNL     1      10.374 -49.103 -22.286  1.00  0.00     0.328 A 
ATOM     20  C   UNL     1      12.353 -47.251 -23.149  1.00  0.00     0.064 A 
ATOM     21  N   UNL     1      10.066 -47.828 -22.668  1.00  0.00    -0.307 N 
ATOM     22  C   UNL     1      13.311 -46.326 -23.577  1.00  0.00     0.016 A 
ATOM     23  C   UNL     1      11.008 -46.902 -23.108  1.00  0.00     0.055 A 
ATOM     24  C   UNL     1      12.908 -45.048 -23.966  1.00  0.00     0.001 A 
ATOM     25  C   UNL     1      10.603 -45.624 -23.494  1.00  0.00     0.027 A 
ATOM     26  C   UNL     1      11.557 -44.699 -23.924  1.00  0.00     0.002 A 
ATOM     27  O   UNL     1      13.929 -48.920 -22.665  1.00  0.00    -0.268 OA
ATOM     28  O   UNL     1       9.487 -49.845 -21.867  1.00  0.00    -0.248 OA
ATOM     29  H   UNL     1       9.087 -47.576 -22.609  1.00  0.00     0.171 HD
ENDBRANCH  16  17
ENDBRANCH   1  16
TORSDOF 5
ENDMDL
