MODEL 1
REMARK VINA RESULT:    -9.634      0.000      0.000
REMARK INTER + INTRA:         -16.312
REMARK INTER:                 -14.703
REMARK INTRA:                  -1.609
REMARK UNBOUND:                -1.609
REMARK SMILES COc1ccc(OC)c([C@H](C)NS(=O)(=O)NC(=O)OCc2ccccc2)c1
REMARK SMILES IDX 12 1 10 3 11 4 9 5 3 6 4 7 27 8 5 9 6 10 2 11 1 12 7 13 8 14
REMARK SMILES IDX 13 15 14 16 15 17 16 18 17 19 18 21 19 22 20 23 21 24 22 25
REMARK SMILES IDX 26 26 23 27 25 28 24 29
REMARK H PARENT 12 2 16 20
ROOT
ATOM      1  N   UNL     1       7.728 -60.752 -25.070  1.00  0.00    -0.190 NA
ATOM      2  H   UNL     1       7.121 -60.641 -25.884  1.00  0.00     0.143 HD
ENDROOT
BRANCH   1   3
ATOM      3  C   UNL     1       8.756 -61.790 -25.291  1.00  0.00     0.102 C 
ATOM      4  C   UNL     1       8.568 -62.478 -26.645  1.00  0.00     0.031 C 
BRANCH   3   5
ATOM      5  C   UNL     1      10.150 -61.182 -25.176  1.00  0.00     0.016 A 
ATOM      6  C   UNL     1      11.802 -59.621 -26.088  1.00  0.00     0.119 A 
ATOM      7  C   UNL     1      12.686 -59.977 -25.075  1.00  0.00     0.050 A 
ATOM      8  C   UNL     1      10.543 -60.224 -26.132  1.00  0.00     0.055 A 
ATOM      9  C   UNL     1      12.317 -60.930 -24.118  1.00  0.00     0.050 A 
ATOM     10  C   UNL     1      11.058 -61.538 -24.158  1.00  0.00     0.123 A 
BRANCH   6  11
ATOM     11  O   UNL     1      12.035 -58.712 -27.082  1.00  0.00    -0.497 OA
ATOM     12  C   UNL     1      11.865 -59.164 -28.419  1.00  0.00     0.278 C 
ENDBRANCH   6  11
BRANCH  10  13
ATOM     13  O   UNL     1      10.629 -62.483 -23.261  1.00  0.00    -0.496 OA
ATOM     14  C   UNL     1      10.095 -62.026 -22.024  1.00  0.00     0.278 C 
ENDBRANCH  10  13
ENDBRANCH   3   5
ENDBRANCH   1   3
BRANCH   1  15
ATOM     15  S   UNL     1       6.869 -60.756 -23.644  1.00  0.00     0.304 S 
ATOM     16  O   UNL     1       6.848 -62.107 -23.148  1.00  0.00    -0.189 OA
ATOM     17  O   UNL     1       5.668 -60.001 -23.904  1.00  0.00    -0.189 OA
BRANCH  15  18
ATOM     18  N   UNL     1       7.881 -59.807 -22.767  1.00  0.00    -0.205 N 
ATOM     19  C   UNL     1       8.459 -58.655 -23.282  1.00  0.00     0.422 C 
ATOM     20  H   UNL     1       8.478 -60.335 -22.144  1.00  0.00     0.188 HD
ATOM     21  O   UNL     1       8.072 -58.063 -24.274  1.00  0.00    -0.223 OA
BRANCH  19  22
ATOM     22  O   UNL     1       9.524 -58.291 -22.526  1.00  0.00    -0.444 OA
BRANCH  22  23
ATOM     23  C   UNL     1      10.550 -57.567 -23.215  1.00  0.00     0.270 C 
BRANCH  23  24
ATOM     24  C   UNL     1      10.557 -56.137 -22.740  1.00  0.00    -0.011 A 
ATOM     25  C   UNL     1      10.925 -55.826 -21.424  1.00  0.00     0.007 A 
ATOM     26  C   UNL     1      10.154 -55.103 -23.597  1.00  0.00     0.007 A 
ATOM     27  C   UNL     1      10.910 -54.503 -20.979  1.00  0.00     0.000 A 
ATOM     28  C   UNL     1      10.139 -53.781 -23.149  1.00  0.00     0.000 A 
ATOM     29  C   UNL     1      10.518 -53.482 -21.842  1.00  0.00     0.000 A 
ENDBRANCH  23  24
ENDBRANCH  22  23
ENDBRANCH  19  22
ENDBRANCH  15  18
ENDBRANCH   1  15
TORSDOF 9
ENDMDL
MODEL 2
REMARK VINA RESULT:    -9.425      1.879      4.007
REMARK INTER + INTRA:         -15.993
REMARK INTER:                 -14.822
REMARK INTRA:                  -1.171
REMARK UNBOUND:                -1.609
REMARK SMILES COc1ccc(OC)c([C@H](C)NS(=O)(=O)NC(=O)OCc2ccccc2)c1
REMARK SMILES IDX 12 1 10 3 11 4 9 5 3 6 4 7 27 8 5 9 6 10 2 11 1 12 7 13 8 14
REMARK SMILES IDX 13 15 14 16 15 17 16 18 17 19 18 21 19 22 20 23 21 24 22 25
REMARK SMILES IDX 26 26 23 27 25 28 24 29
REMARK H PARENT 12 2 16 20
ROOT
ATOM      1  N   UNL     1       9.364 -60.246 -23.780  1.00  0.00    -0.190 NA
ATOM      2  H   UNL     1       9.738 -60.426 -22.847  1.00  0.00     0.143 HD
ENDROOT
BRANCH   1   3
ATOM      3  C   UNL     1      10.378 -60.472 -24.831  1.00  0.00     0.102 C 
ATOM      4  C   UNL     1      11.588 -61.230 -24.280  1.00  0.00     0.031 C 
BRANCH   3   5
ATOM      5  C   UNL     1       9.759 -61.215 -26.010  1.00  0.00     0.016 A 
ATOM      6  C   UNL     1       8.208 -62.952 -26.769  1.00  0.00     0.119 A 
ATOM      7  C   UNL     1       8.534 -62.656 -28.088  1.00  0.00     0.050 A 
ATOM      8  C   UNL     1       8.821 -62.232 -25.741  1.00  0.00     0.055 A 
ATOM      9  C   UNL     1       9.465 -61.651 -28.376  1.00  0.00     0.050 A 
ATOM     10  C   UNL     1      10.083 -60.927 -27.351  1.00  0.00     0.123 A 
BRANCH   6  11
ATOM     11  O   UNL     1       7.322 -63.905 -26.349  1.00  0.00    -0.497 OA
ATOM     12  C   UNL     1       6.931 -63.862 -24.983  1.00  0.00     0.278 C 
ENDBRANCH   6  11
BRANCH  10  13
ATOM     13  O   UNL     1      11.009 -59.936 -27.555  1.00  0.00    -0.496 OA
ATOM     14  C   UNL     1      11.857 -60.049 -28.692  1.00  0.00     0.278 C 
ENDBRANCH  10  13
ENDBRANCH   3   5
ENDBRANCH   1   3
BRANCH   1  15
ATOM     15  S   UNL     1       8.444 -58.860 -23.830  1.00  0.00     0.304 S 
ATOM     16  O   UNL     1       7.539 -58.894 -22.711  1.00  0.00    -0.189 OA
ATOM     17  O   UNL     1       7.994 -58.731 -25.193  1.00  0.00    -0.189 OA
BRANCH  15  18
ATOM     18  N   UNL     1       9.653 -57.776 -23.593  1.00  0.00    -0.205 N 
ATOM     19  C   UNL     1      10.478 -57.809 -22.477  1.00  0.00     0.422 C 
ATOM     20  H   UNL     1       9.421 -56.846 -23.916  1.00  0.00     0.188 HD
ATOM     21  O   UNL     1      10.613 -58.767 -21.736  1.00  0.00    -0.223 OA
BRANCH  19  22
ATOM     22  O   UNL     1      11.104 -56.615 -22.326  1.00  0.00    -0.444 OA
BRANCH  22  23
ATOM     23  C   UNL     1      10.264 -55.461 -22.438  1.00  0.00     0.270 C 
BRANCH  23  24
ATOM     24  C   UNL     1      11.028 -54.351 -23.112  1.00  0.00    -0.011 A 
ATOM     25  C   UNL     1      11.717 -54.585 -24.310  1.00  0.00     0.007 A 
ATOM     26  C   UNL     1      11.095 -53.078 -22.527  1.00  0.00     0.007 A 
ATOM     27  C   UNL     1      12.443 -53.561 -24.921  1.00  0.00     0.000 A 
ATOM     28  C   UNL     1      11.822 -52.057 -23.140  1.00  0.00     0.000 A 
ATOM     29  C   UNL     1      12.494 -52.298 -24.337  1.00  0.00     0.000 A 
ENDBRANCH  23  24
ENDBRANCH  22  23
ENDBRANCH  19  22
ENDBRANCH  15  18
ENDBRANCH   1  15
TORSDOF 9
ENDMDL
MODEL 3
REMARK VINA RESULT:    -9.418      2.352      3.651
REMARK INTER + INTRA:         -15.982
REMARK INTER:                 -14.876
REMARK INTRA:                  -1.106
REMARK UNBOUND:                -1.609
REMARK SMILES COc1ccc(OC)c([C@H](C)NS(=O)(=O)NC(=O)OCc2ccccc2)c1
REMARK SMILES IDX 12 1 10 3 11 4 9 5 3 6 4 7 27 8 5 9 6 10 2 11 1 12 7 13 8 14
REMARK SMILES IDX 13 15 14 16 15 17 16 18 17 19 18 21 19 22 20 23 21 24 22 25
REMARK SMILES IDX 26 26 23 27 25 28 24 29
REMARK H PARENT 12 2 16 20
ROOT
ATOM      1  N   UNL     1      10.326 -59.479 -24.035  1.00  0.00    -0.190 NA
ATOM      2  H   UNL     1      10.250 -58.532 -24.409  1.00  0.00     0.143 HD
ENDROOT
BRANCH   1   3
ATOM      3  C   UNL     1       9.016 -60.162 -24.002  1.00  0.00     0.102 C 
ATOM      4  C   UNL     1       7.866 -59.155 -23.938  1.00  0.00     0.031 C 
BRANCH   3   5
ATOM      5  C   UNL     1       8.871 -61.081 -25.211  1.00  0.00     0.016 A 
ATOM      6  C   UNL     1       9.422 -61.503 -27.560  1.00  0.00     0.119 A 
ATOM      7  C   UNL     1       8.693 -62.687 -27.510  1.00  0.00     0.050 A 
ATOM      8  C   UNL     1       9.505 -60.710 -26.413  1.00  0.00     0.055 A 
ATOM      9  C   UNL     1       8.052 -63.071 -26.327  1.00  0.00     0.050 A 
ATOM     10  C   UNL     1       8.132 -62.281 -25.175  1.00  0.00     0.123 A 
BRANCH   6  11
ATOM     11  O   UNL     1      10.090 -61.010 -28.645  1.00  0.00    -0.497 OA
ATOM     12  C   UNL     1      11.226 -60.194 -28.385  1.00  0.00     0.278 C 
ENDBRANCH   6  11
BRANCH  10  13
ATOM     13  O   UNL     1       7.525 -62.588 -23.984  1.00  0.00    -0.496 OA
ATOM     14  C   UNL     1       8.107 -63.618 -23.193  1.00  0.00     0.278 C 
ENDBRANCH  10  13
ENDBRANCH   3   5
ENDBRANCH   1   3
BRANCH   1  15
ATOM     15  S   UNL     1      11.306 -59.545 -22.691  1.00  0.00     0.304 S 
ATOM     16  O   UNL     1      12.666 -59.669 -23.146  1.00  0.00    -0.189 OA
ATOM     17  O   UNL     1      10.692 -60.496 -21.799  1.00  0.00    -0.189 OA
BRANCH  15  18
ATOM     18  N   UNL     1      10.999 -58.040 -22.112  1.00  0.00    -0.205 N 
ATOM     19  C   UNL     1      11.308 -56.888 -22.823  1.00  0.00     0.422 C 
ATOM     20  H   UNL     1      11.132 -57.965 -21.113  1.00  0.00     0.188 HD
ATOM     21  O   UNL     1      11.539 -56.847 -24.019  1.00  0.00    -0.223 OA
BRANCH  19  22
ATOM     22  O   UNL     1      11.327 -55.818 -21.990  1.00  0.00    -0.444 OA
BRANCH  22  23
ATOM     23  C   UNL     1      10.303 -54.843 -22.219  1.00  0.00     0.270 C 
BRANCH  23  24
ATOM     24  C   UNL     1      10.939 -53.500 -22.470  1.00  0.00    -0.011 A 
ATOM     25  C   UNL     1      11.752 -53.296 -23.593  1.00  0.00     0.007 A 
ATOM     26  C   UNL     1      10.762 -52.449 -21.559  1.00  0.00     0.007 A 
ATOM     27  C   UNL     1      12.359 -52.058 -23.812  1.00  0.00     0.000 A 
ATOM     28  C   UNL     1      11.371 -51.213 -21.779  1.00  0.00     0.000 A 
ATOM     29  C   UNL     1      12.167 -51.018 -22.906  1.00  0.00     0.000 A 
ENDBRANCH  23  24
ENDBRANCH  22  23
ENDBRANCH  19  22
ENDBRANCH  15  18
ENDBRANCH   1  15
TORSDOF 9
ENDMDL
MODEL 4
REMARK VINA RESULT:    -9.288      2.527      4.502
REMARK INTER + INTRA:         -15.784
REMARK INTER:                 -14.992
REMARK INTRA:                  -0.793
REMARK UNBOUND:                -1.609
REMARK SMILES COc1ccc(OC)c([C@H](C)NS(=O)(=O)NC(=O)OCc2ccccc2)c1
REMARK SMILES IDX 12 1 10 3 11 4 9 5 3 6 4 7 27 8 5 9 6 10 2 11 1 12 7 13 8 14
REMARK SMILES IDX 13 15 14 16 15 17 16 18 17 19 18 21 19 22 20 23 21 24 22 25
REMARK SMILES IDX 26 26 23 27 25 28 24 29
REMARK H PARENT 12 2 16 20
ROOT
ATOM      1  N   UNL     1      10.202 -59.949 -23.855  1.00  0.00    -0.190 NA
ATOM      2  H   UNL     1       9.247 -59.975 -23.492  1.00  0.00     0.143 HD
ENDROOT
BRANCH   1   3
ATOM      3  C   UNL     1      10.639 -61.274 -24.342  1.00  0.00     0.102 C 
ATOM      4  C   UNL     1      10.381 -62.362 -23.297  1.00  0.00     0.031 C 
BRANCH   3   5
ATOM      5  C   UNL     1       9.946 -61.606 -25.659  1.00  0.00     0.016 A 
ATOM      6  C   UNL     1       8.238 -62.926 -26.817  1.00  0.00     0.119 A 
ATOM      7  C   UNL     1       8.580 -62.305 -28.013  1.00  0.00     0.050 A 
ATOM      8  C   UNL     1       8.922 -62.574 -25.650  1.00  0.00     0.055 A 
ATOM      9  C   UNL     1       9.597 -61.343 -28.044  1.00  0.00     0.050 A 
ATOM     10  C   UNL     1      10.285 -60.987 -26.879  1.00  0.00     0.123 A 
BRANCH   6  11
ATOM     11  O   UNL     1       7.273 -63.878 -26.647  1.00  0.00    -0.497 OA
ATOM     12  C   UNL     1       6.720 -64.009 -25.343  1.00  0.00     0.278 C 
ENDBRANCH   6  11
BRANCH  10  13
ATOM     13  O   UNL     1      11.296 -60.061 -26.833  1.00  0.00    -0.496 OA
ATOM     14  C   UNL     1      12.010 -59.801 -28.036  1.00  0.00     0.278 C 
ENDBRANCH  10  13
ENDBRANCH   3   5
ENDBRANCH   1   3
BRANCH   1  15
ATOM     15  S   UNL     1      11.221 -59.072 -22.874  1.00  0.00     0.304 S 
ATOM     16  O   UNL     1      12.563 -59.534 -23.111  1.00  0.00    -0.189 OA
ATOM     17  O   UNL     1      10.613 -59.077 -21.566  1.00  0.00    -0.189 OA
BRANCH  15  18
ATOM     18  N   UNL     1      10.965 -57.595 -23.543  1.00  0.00    -0.205 N 
ATOM     19  C   UNL     1      10.927 -56.430 -22.790  1.00  0.00     0.422 C 
ATOM     20  H   UNL     1      10.313 -57.618 -24.316  1.00  0.00     0.188 HD
ATOM     21  O   UNL     1      11.362 -56.315 -21.658  1.00  0.00    -0.223 OA
BRANCH  19  22
ATOM     22  O   UNL     1      10.323 -55.440 -23.494  1.00  0.00    -0.444 OA
BRANCH  22  23
ATOM     23  C   UNL     1      10.394 -54.136 -22.907  1.00  0.00     0.270 C 
BRANCH  23  24
ATOM     24  C   UNL     1      11.458 -53.330 -23.607  1.00  0.00    -0.011 A 
ATOM     25  C   UNL     1      11.790 -52.045 -23.155  1.00  0.00     0.007 A 
ATOM     26  C   UNL     1      12.099 -53.837 -24.746  1.00  0.00     0.007 A 
ATOM     27  C   UNL     1      12.760 -51.291 -23.817  1.00  0.00     0.000 A 
ATOM     28  C   UNL     1      13.067 -53.080 -25.407  1.00  0.00     0.000 A 
ATOM     29  C   UNL     1      13.398 -51.809 -24.942  1.00  0.00     0.000 A 
ENDBRANCH  23  24
ENDBRANCH  22  23
ENDBRANCH  19  22
ENDBRANCH  15  18
ENDBRANCH   1  15
TORSDOF 9
ENDMDL
MODEL 5
REMARK VINA RESULT:    -9.136      1.468      1.695
REMARK INTER + INTRA:         -15.553
REMARK INTER:                 -13.944
REMARK INTRA:                  -1.609
REMARK UNBOUND:                -1.609
REMARK SMILES COc1ccc(OC)c([C@H](C)NS(=O)(=O)NC(=O)OCc2ccccc2)c1
REMARK SMILES IDX 12 1 10 3 11 4 9 5 3 6 4 7 27 8 5 9 6 10 2 11 1 12 7 13 8 14
REMARK SMILES IDX 13 15 14 16 15 17 16 18 17 19 18 21 19 22 20 23 21 24 22 25
REMARK SMILES IDX 26 26 23 27 25 28 24 29
REMARK H PARENT 12 2 16 20
ROOT
ATOM      1  N   UNL     1       8.338 -60.555 -24.655  1.00  0.00    -0.190 NA
ATOM      2  H   UNL     1       7.414 -60.558 -25.090  1.00  0.00     0.143 HD
ENDROOT
BRANCH   1   3
ATOM      3  C   UNL     1       9.219 -61.591 -25.231  1.00  0.00     0.102 C 
ATOM      4  C   UNL     1       8.445 -62.521 -26.167  1.00  0.00     0.031 C 
BRANCH   3   5
ATOM      5  C   UNL     1      10.392 -60.940 -25.957  1.00  0.00     0.016 A 
ATOM      6  C   UNL     1      11.319 -60.139 -28.078  1.00  0.00     0.119 A 
ATOM      7  C   UNL     1      12.475 -59.743 -27.414  1.00  0.00     0.050 A 
ATOM      8  C   UNL     1      10.288 -60.734 -27.347  1.00  0.00     0.055 A 
ATOM      9  C   UNL     1      12.601 -59.943 -26.035  1.00  0.00     0.050 A 
ATOM     10  C   UNL     1      11.572 -60.538 -25.297  1.00  0.00     0.123 A 
BRANCH   6  11
ATOM     11  O   UNL     1      11.068 -60.006 -29.414  1.00  0.00    -0.497 OA
ATOM     12  C   UNL     1      11.800 -59.005 -30.111  1.00  0.00     0.278 C 
ENDBRANCH   6  11
BRANCH  10  13
ATOM     13  O   UNL     1      11.626 -60.773 -23.947  1.00  0.00    -0.496 OA
ATOM     14  C   UNL     1      12.503 -59.966 -23.171  1.00  0.00     0.278 C 
ENDBRANCH  10  13
ENDBRANCH   3   5
ENDBRANCH   1   3
BRANCH   1  15
ATOM     15  S   UNL     1       8.250 -60.398 -23.000  1.00  0.00     0.304 S 
ATOM     16  O   UNL     1       8.755 -61.612 -22.417  1.00  0.00    -0.189 OA
ATOM     17  O   UNL     1       6.930 -59.888 -22.720  1.00  0.00    -0.189 OA
BRANCH  15  18
ATOM     18  N   UNL     1       9.314 -59.160 -22.832  1.00  0.00    -0.205 N 
ATOM     19  C   UNL     1       9.176 -57.957 -23.511  1.00  0.00     0.422 C 
ATOM     20  H   UNL     1      10.271 -59.472 -22.721  1.00  0.00     0.188 HD
ATOM     21  O   UNL     1       8.149 -57.568 -24.039  1.00  0.00    -0.223 OA
BRANCH  19  22
ATOM     22  O   UNL     1      10.353 -57.284 -23.511  1.00  0.00    -0.444 OA
BRANCH  22  23
ATOM     23  C   UNL     1      10.750 -56.737 -22.249  1.00  0.00     0.270 C 
BRANCH  23  24
ATOM     24  C   UNL     1      10.932 -55.248 -22.384  1.00  0.00    -0.011 A 
ATOM     25  C   UNL     1      10.633 -54.393 -21.314  1.00  0.00     0.007 A 
ATOM     26  C   UNL     1      11.363 -54.693 -23.598  1.00  0.00     0.007 A 
ATOM     27  C   UNL     1      10.782 -53.012 -21.449  1.00  0.00     0.000 A 
ATOM     28  C   UNL     1      11.509 -53.311 -23.730  1.00  0.00     0.000 A 
ATOM     29  C   UNL     1      11.220 -52.472 -22.656  1.00  0.00     0.000 A 
ENDBRANCH  23  24
ENDBRANCH  22  23
ENDBRANCH  19  22
ENDBRANCH  15  18
ENDBRANCH   1  15
TORSDOF 9
ENDMDL
MODEL 6
REMARK VINA RESULT:    -8.782      4.821      8.410
REMARK INTER + INTRA:         -15.012
REMARK INTER:                 -13.904
REMARK INTRA:                  -1.108
REMARK UNBOUND:                -1.609
REMARK SMILES COc1ccc(OC)c([C@H](C)NS(=O)(=O)NC(=O)OCc2ccccc2)c1
REMARK SMILES IDX 12 1 10 3 11 4 9 5 3 6 4 7 27 8 5 9 6 10 2 11 1 12 7 13 8 14
REMARK SMILES IDX 13 15 14 16 15 17 16 18 17 19 18 21 19 22 20 23 21 24 22 25
REMARK SMILES IDX 26 26 23 27 25 28 24 29
REMARK H PARENT 12 2 16 20
ROOT
ATOM      1  N   UNL     1      11.732 -52.633 -22.225  1.00  0.00    -0.190 NA
ATOM      2  H   UNL     1      12.237 -52.377 -21.375  1.00  0.00     0.143 HD
ENDROOT
BRANCH   1   3
ATOM      3  C   UNL     1      11.435 -51.453 -23.063  1.00  0.00     0.102 C 
ATOM      4  C   UNL     1      11.323 -50.184 -22.216  1.00  0.00     0.031 C 
BRANCH   3   5
ATOM      5  C   UNL     1      12.498 -51.295 -24.146  1.00  0.00     0.016 A 
ATOM      6  C   UNL     1      14.100 -49.818 -25.263  1.00  0.00     0.119 A 
ATOM      7  C   UNL     1      14.477 -50.868 -26.093  1.00  0.00     0.050 A 
ATOM      8  C   UNL     1      13.115 -50.037 -24.298  1.00  0.00     0.055 A 
ATOM      9  C   UNL     1      13.874 -52.124 -25.961  1.00  0.00     0.050 A 
ATOM     10  C   UNL     1      12.886 -52.350 -24.996  1.00  0.00     0.123 A 
BRANCH   6  11
ATOM     11  O   UNL     1      14.603 -48.547 -25.287  1.00  0.00    -0.497 OA
ATOM     12  C   UNL     1      14.668 -47.904 -26.554  1.00  0.00     0.278 C 
ENDBRANCH   6  11
BRANCH  10  13
ATOM     13  O   UNL     1      12.246 -53.548 -24.813  1.00  0.00    -0.496 OA
ATOM     14  C   UNL     1      12.550 -54.605 -25.717  1.00  0.00     0.278 C 
ENDBRANCH  10  13
ENDBRANCH   3   5
ENDBRANCH   1   3
BRANCH   1  15
ATOM     15  S   UNL     1      10.524 -53.738 -21.926  1.00  0.00     0.304 S 
ATOM     16  O   UNL     1       9.458 -53.486 -22.861  1.00  0.00    -0.189 OA
ATOM     17  O   UNL     1      10.326 -53.732 -20.498  1.00  0.00    -0.189 OA
BRANCH  15  18
ATOM     18  N   UNL     1      11.357 -55.097 -22.315  1.00  0.00    -0.205 N 
ATOM     19  C   UNL     1      10.730 -56.268 -22.718  1.00  0.00     0.422 C 
ATOM     20  H   UNL     1      12.178 -55.237 -21.741  1.00  0.00     0.188 HD
ATOM     21  O   UNL     1       9.581 -56.344 -23.116  1.00  0.00    -0.223 OA
BRANCH  19  22
ATOM     22  O   UNL     1      11.580 -57.318 -22.594  1.00  0.00    -0.444 OA
BRANCH  22  23
ATOM     23  C   UNL     1      11.291 -58.221 -21.521  1.00  0.00     0.270 C 
BRANCH  23  24
ATOM     24  C   UNL     1      11.010 -59.590 -22.082  1.00  0.00    -0.011 A 
ATOM     25  C   UNL     1      10.102 -60.448 -21.446  1.00  0.00     0.007 A 
ATOM     26  C   UNL     1      11.685 -60.042 -23.225  1.00  0.00     0.007 A 
ATOM     27  C   UNL     1       9.859 -61.726 -21.954  1.00  0.00     0.000 A 
ATOM     28  C   UNL     1      11.442 -61.320 -23.730  1.00  0.00     0.000 A 
ATOM     29  C   UNL     1      10.528 -62.160 -23.096  1.00  0.00     0.000 A 
ENDBRANCH  23  24
ENDBRANCH  22  23
ENDBRANCH  19  22
ENDBRANCH  15  18
ENDBRANCH   1  15
TORSDOF 9
ENDMDL
MODEL 7
REMARK VINA RESULT:    -8.652      2.406      3.996
REMARK INTER + INTRA:         -14.813
REMARK INTER:                 -14.270
REMARK INTRA:                  -0.544
REMARK UNBOUND:                -1.609
REMARK SMILES COc1ccc(OC)c([C@H](C)NS(=O)(=O)NC(=O)OCc2ccccc2)c1
REMARK SMILES IDX 12 1 10 3 11 4 9 5 3 6 4 7 27 8 5 9 6 10 2 11 1 12 7 13 8 14
REMARK SMILES IDX 13 15 14 16 15 17 16 18 17 19 18 21 19 22 20 23 21 24 22 25
REMARK SMILES IDX 26 26 23 27 25 28 24 29
REMARK H PARENT 12 2 16 20
ROOT
ATOM      1  N   UNL     1      11.420 -61.111 -24.950  1.00  0.00    -0.190 NA
ATOM      2  H   UNL     1      12.038 -61.311 -25.739  1.00  0.00     0.143 HD
ENDROOT
BRANCH   1   3
ATOM      3  C   UNL     1      10.131 -60.542 -25.394  1.00  0.00     0.102 C 
ATOM      4  C   UNL     1      10.219 -60.021 -26.831  1.00  0.00     0.031 C 
BRANCH   3   5
ATOM      5  C   UNL     1       9.022 -61.579 -25.257  1.00  0.00     0.016 A 
ATOM      6  C   UNL     1       7.676 -63.316 -26.340  1.00  0.00     0.119 A 
ATOM      7  C   UNL     1       7.003 -63.531 -25.141  1.00  0.00     0.050 A 
ATOM      8  C   UNL     1       8.677 -62.344 -26.390  1.00  0.00     0.055 A 
ATOM      9  C   UNL     1       7.327 -62.779 -24.006  1.00  0.00     0.050 A 
ATOM     10  C   UNL     1       8.329 -61.804 -24.050  1.00  0.00     0.123 A 
BRANCH   6  11
ATOM     11  O   UNL     1       7.458 -63.973 -27.518  1.00  0.00    -0.497 OA
ATOM     12  C   UNL     1       8.370 -63.713 -28.578  1.00  0.00     0.278 C 
ENDBRANCH   6  11
BRANCH  10  13
ATOM     13  O   UNL     1       8.696 -61.025 -22.983  1.00  0.00    -0.496 OA
ATOM     14  C   UNL     1       8.095 -59.740 -22.866  1.00  0.00     0.278 C 
ENDBRANCH  10  13
ENDBRANCH   3   5
ENDBRANCH   1   3
BRANCH   1  15
ATOM     15  S   UNL     1      12.229 -60.392 -23.686  1.00  0.00     0.304 S 
ATOM     16  O   UNL     1      13.639 -60.589 -23.900  1.00  0.00    -0.189 OA
ATOM     17  O   UNL     1      11.554 -60.822 -22.488  1.00  0.00    -0.189 OA
BRANCH  15  18
ATOM     18  N   UNL     1      11.786 -58.841 -23.986  1.00  0.00    -0.205 N 
ATOM     19  C   UNL     1      11.433 -57.956 -22.976  1.00  0.00     0.422 C 
ATOM     20  H   UNL     1      11.252 -58.738 -24.839  1.00  0.00     0.188 HD
ATOM     21  O   UNL     1      11.693 -58.105 -21.795  1.00  0.00    -0.223 OA
BRANCH  19  22
ATOM     22  O   UNL     1      10.748 -56.907 -23.495  1.00  0.00    -0.444 OA
BRANCH  22  23
ATOM     23  C   UNL     1      11.551 -55.821 -23.971  1.00  0.00     0.270 C 
BRANCH  23  24
ATOM     24  C   UNL     1      11.307 -54.606 -23.115  1.00  0.00    -0.011 A 
ATOM     25  C   UNL     1      10.795 -54.740 -21.817  1.00  0.00     0.007 A 
ATOM     26  C   UNL     1      11.549 -53.321 -23.620  1.00  0.00     0.007 A 
ATOM     27  C   UNL     1      10.549 -53.612 -21.033  1.00  0.00     0.000 A 
ATOM     28  C   UNL     1      11.301 -52.194 -22.835  1.00  0.00     0.000 A 
ATOM     29  C   UNL     1      10.803 -52.340 -21.542  1.00  0.00     0.000 A 
ENDBRANCH  23  24
ENDBRANCH  22  23
ENDBRANCH  19  22
ENDBRANCH  15  18
ENDBRANCH   1  15
TORSDOF 9
ENDMDL
MODEL 8
REMARK VINA RESULT:    -8.622      3.264      7.574
REMARK INTER + INTRA:         -14.768
REMARK INTER:                 -14.416
REMARK INTRA:                  -0.352
REMARK UNBOUND:                -1.609
REMARK SMILES COc1ccc(OC)c([C@H](C)NS(=O)(=O)NC(=O)OCc2ccccc2)c1
REMARK SMILES IDX 12 1 10 3 11 4 9 5 3 6 4 7 27 8 5 9 6 10 2 11 1 12 7 13 8 14
REMARK SMILES IDX 13 15 14 16 15 17 16 18 17 19 18 21 19 22 20 23 21 24 22 25
REMARK SMILES IDX 26 26 23 27 25 28 24 29
REMARK H PARENT 12 2 16 20
ROOT
ATOM      1  N   UNL     1      11.376 -56.000 -23.344  1.00  0.00    -0.190 NA
ATOM      2  H   UNL     1      12.291 -55.993 -22.890  1.00  0.00     0.143 HD
ENDROOT
BRANCH   1   3
ATOM      3  C   UNL     1      10.746 -54.664 -23.329  1.00  0.00     0.102 C 
ATOM      4  C   UNL     1      10.342 -54.256 -21.910  1.00  0.00     0.031 C 
BRANCH   3   5
ATOM      5  C   UNL     1      11.684 -53.633 -23.947  1.00  0.00     0.016 A 
ATOM      6  C   UNL     1      12.789 -51.458 -23.732  1.00  0.00     0.119 A 
ATOM      7  C   UNL     1      13.399 -51.654 -24.966  1.00  0.00     0.050 A 
ATOM      8  C   UNL     1      11.937 -52.445 -23.232  1.00  0.00     0.055 A 
ATOM      9  C   UNL     1      13.158 -52.825 -25.694  1.00  0.00     0.050 A 
ATOM     10  C   UNL     1      12.306 -53.817 -25.199  1.00  0.00     0.123 A 
BRANCH   6  11
ATOM     11  O   UNL     1      12.934 -50.366 -22.923  1.00  0.00    -0.497 OA
ATOM     12  C   UNL     1      11.847 -50.054 -22.061  1.00  0.00     0.278 C 
ENDBRANCH   6  11
BRANCH  10  13
ATOM     13  O   UNL     1      12.015 -54.985 -25.858  1.00  0.00    -0.496 OA
ATOM     14  C   UNL     1      13.077 -55.637 -26.545  1.00  0.00     0.278 C 
ENDBRANCH  10  13
ENDBRANCH   3   5
ENDBRANCH   1   3
BRANCH   1  15
ATOM     15  S   UNL     1      10.470 -57.326 -22.906  1.00  0.00     0.304 S 
ATOM     16  O   UNL     1       9.087 -57.015 -23.158  1.00  0.00    -0.189 OA
ATOM     17  O   UNL     1      10.956 -57.727 -21.609  1.00  0.00    -0.189 OA
BRANCH  15  18
ATOM     18  N   UNL     1      11.061 -58.382 -24.014  1.00  0.00    -0.205 N 
ATOM     19  C   UNL     1      10.241 -59.205 -24.774  1.00  0.00     0.422 C 
ATOM     20  H   UNL     1      11.935 -58.806 -23.732  1.00  0.00     0.188 HD
ATOM     21  O   UNL     1       9.045 -59.040 -24.938  1.00  0.00    -0.223 OA
BRANCH  19  22
ATOM     22  O   UNL     1      10.964 -60.226 -25.299  1.00  0.00    -0.444 OA
BRANCH  22  23
ATOM     23  C   UNL     1      11.416 -61.207 -24.359  1.00  0.00     0.270 C 
BRANCH  23  24
ATOM     24  C   UNL     1      10.275 -62.124 -24.005  1.00  0.00    -0.011 A 
ATOM     25  C   UNL     1       9.242 -62.362 -24.922  1.00  0.00     0.007 A 
ATOM     26  C   UNL     1      10.208 -62.718 -22.737  1.00  0.00     0.007 A 
ATOM     27  C   UNL     1       8.173 -63.194 -24.585  1.00  0.00     0.000 A 
ATOM     28  C   UNL     1       9.138 -63.549 -22.402  1.00  0.00     0.000 A 
ATOM     29  C   UNL     1       8.123 -63.788 -23.326  1.00  0.00     0.000 A 
ENDBRANCH  23  24
ENDBRANCH  22  23
ENDBRANCH  19  22
ENDBRANCH  15  18
ENDBRANCH   1  15
TORSDOF 9
ENDMDL
MODEL 9
REMARK VINA RESULT:    -8.196      4.789      8.730
REMARK INTER + INTRA:         -14.118
REMARK INTER:                 -13.499
REMARK INTRA:                  -0.618
REMARK UNBOUND:                -1.609
REMARK SMILES COc1ccc(OC)c([C@H](C)NS(=O)(=O)NC(=O)OCc2ccccc2)c1
REMARK SMILES IDX 12 1 10 3 11 4 9 5 3 6 4 7 27 8 5 9 6 10 2 11 1 12 7 13 8 14
REMARK SMILES IDX 13 15 14 16 15 17 16 18 17 19 18 21 19 22 20 23 21 24 22 25
REMARK SMILES IDX 26 26 23 27 25 28 24 29
REMARK H PARENT 12 2 16 20
ROOT
ATOM      1  N   UNL     1      11.640 -52.909 -22.433  1.00  0.00    -0.190 NA
ATOM      2  H   UNL     1      12.579 -53.131 -22.100  1.00  0.00     0.143 HD
ENDROOT
BRANCH   1   3
ATOM      3  C   UNL     1      11.448 -51.454 -22.606  1.00  0.00     0.102 C 
ATOM      4  C   UNL     1      11.698 -50.702 -21.297  1.00  0.00     0.031 C 
BRANCH   3   5
ATOM      5  C   UNL     1      12.352 -50.933 -23.717  1.00  0.00     0.016 A 
ATOM      6  C   UNL     1      13.996 -51.455 -25.456  1.00  0.00     0.119 A 
ATOM      7  C   UNL     1      14.056 -50.108 -25.794  1.00  0.00     0.050 A 
ATOM      8  C   UNL     1      13.147 -51.858 -24.422  1.00  0.00     0.055 A 
ATOM      9  C   UNL     1      13.277 -49.172 -25.103  1.00  0.00     0.050 A 
ATOM     10  C   UNL     1      12.426 -49.569 -24.067  1.00  0.00     0.123 A 
BRANCH   6  11
ATOM     11  O   UNL     1      14.700 -52.468 -26.044  1.00  0.00    -0.497 OA
ATOM     12  C   UNL     1      14.210 -53.789 -25.852  1.00  0.00     0.278 C 
ENDBRANCH   6  11
BRANCH  10  13
ATOM     13  O   UNL     1      11.640 -48.710 -23.341  1.00  0.00    -0.496 OA
ATOM     14  C   UNL     1      11.482 -47.384 -23.833  1.00  0.00     0.278 C 
ENDBRANCH  10  13
ENDBRANCH   3   5
ENDBRANCH   1   3
BRANCH   1  15
ATOM     15  S   UNL     1      10.471 -53.790 -21.641  1.00  0.00     0.304 S 
ATOM     16  O   UNL     1       9.200 -53.466 -22.234  1.00  0.00    -0.189 OA
ATOM     17  O   UNL     1      10.739 -53.629 -20.233  1.00  0.00    -0.189 OA
BRANCH  15  18
ATOM     18  N   UNL     1      10.977 -55.288 -22.082  1.00  0.00    -0.205 N 
ATOM     19  C   UNL     1      11.127 -55.665 -23.409  1.00  0.00     0.422 C 
ATOM     20  H   UNL     1      10.630 -56.019 -21.474  1.00  0.00     0.188 HD
ATOM     21  O   UNL     1      11.204 -54.894 -24.350  1.00  0.00    -0.223 OA
BRANCH  19  22
ATOM     22  O   UNL     1      11.163 -57.017 -23.508  1.00  0.00    -0.444 OA
BRANCH  22  23
ATOM     23  C   UNL     1      11.191 -57.725 -22.263  1.00  0.00     0.270 C 
BRANCH  23  24
ATOM     24  C   UNL     1      10.963 -59.192 -22.517  1.00  0.00    -0.011 A 
ATOM     25  C   UNL     1      10.159 -59.948 -21.652  1.00  0.00     0.007 A 
ATOM     26  C   UNL     1      11.586 -59.831 -23.597  1.00  0.00     0.007 A 
ATOM     27  C   UNL     1       9.967 -61.312 -21.875  1.00  0.00     0.000 A 
ATOM     28  C   UNL     1      11.394 -61.196 -23.818  1.00  0.00     0.000 A 
ATOM     29  C   UNL     1      10.583 -61.935 -22.958  1.00  0.00     0.000 A 
ENDBRANCH  23  24
ENDBRANCH  22  23
ENDBRANCH  19  22
ENDBRANCH  15  18
ENDBRANCH   1  15
TORSDOF 9
ENDMDL
