MODEL 1
REMARK VINA RESULT:    -9.821      0.000      0.000
REMARK INTER + INTRA:         -10.108
REMARK INTER:                 -10.108
REMARK INTRA:                   0.000
REMARK UNBOUND:                 0.000
REMARK SMILES CC1=C[C@@H]2Cc3nc4cc(Cl)ccc4c(N)c3[C@H](C1)C2
REMARK SMILES IDX 15 1 17 2 6 3 7 4 8 5 9 6 10 7 11 8 12 9 13 10 14 11 5 12
REMARK SMILES IDX 4 13 3 14 2 15 1 16 19 17 18 18 20 19 16 20
REMARK H PARENT 16 21 16 22
ROOT
ATOM      1  C   UNL     1      11.953 -56.556 -24.429  1.00  0.00     0.046 A 
ATOM      2  C   UNL     1      11.790 -57.743 -23.691  1.00  0.00     0.001 A 
ATOM      3  C   UNL     1      11.253 -57.644 -22.403  1.00  0.00     0.047 A 
ATOM      4  N   UNL     1      10.949 -56.459 -21.822  1.00  0.00    -0.252 NA
ATOM      5  C   UNL     1      11.163 -55.326 -22.502  1.00  0.00     0.074 A 
ATOM      6  C   UNL     1      10.866 -54.132 -21.864  1.00  0.00     0.049 A 
ATOM      7  C   UNL     1      11.078 -52.906 -22.488  1.00  0.00     0.043 A 
ATOM      8  Cl  UNL     1      10.700 -51.445 -21.662  1.00  0.00    -0.084 Cl
ATOM      9  C   UNL     1      11.600 -52.856 -23.771  1.00  0.00     0.021 A 
ATOM     10  C   UNL     1      11.902 -54.047 -24.431  1.00  0.00     0.014 A 
ATOM     11  C   UNL     1      11.684 -55.304 -23.814  1.00  0.00     0.024 A 
ATOM     12  C   UNL     1      11.025 -58.862 -21.536  1.00  0.00     0.064 C 
ATOM     13  C   UNL     1      11.134 -60.194 -22.294  1.00  0.00     0.018 C 
ATOM     14  C   UNL     1       9.881 -60.461 -23.101  1.00  0.00    -0.024 C 
ATOM     15  C   UNL     1       9.792 -60.211 -24.421  1.00  0.00    -0.076 C 
ATOM     16  C   UNL     1       8.550 -60.498 -25.211  1.00  0.00     0.039 C 
ATOM     17  C   UNL     1      10.948 -59.603 -25.193  1.00  0.00     0.039 C 
ATOM     18  C   UNL     1      12.108 -59.107 -24.296  1.00  0.00     0.028 C 
ATOM     19  C   UNL     1      12.371 -60.142 -23.195  1.00  0.00     0.017 C 
ENDROOT
BRANCH   1  20
ATOM     20  N   UNL     1      12.584 -56.635 -25.698  1.00  0.00    -0.398 N 
ATOM     21  H   UNL     1      13.550 -56.323 -25.679  1.00  0.00     0.156 HD
ATOM     22  H   UNL     1      12.540 -57.590 -26.051  1.00  0.00     0.156 HD
ENDBRANCH   1  20
TORSDOF 1
ENDMDL
MODEL 2
REMARK VINA RESULT:    -9.217      2.036      3.086
REMARK INTER + INTRA:          -9.486
REMARK INTER:                  -9.486
REMARK INTRA:                   0.000
REMARK UNBOUND:                 0.000
REMARK SMILES CC1=C[C@@H]2Cc3nc4cc(Cl)ccc4c(N)c3[C@H](C1)C2
REMARK SMILES IDX 15 1 17 2 6 3 7 4 8 5 9 6 10 7 11 8 12 9 13 10 14 11 5 12
REMARK SMILES IDX 4 13 3 14 2 15 1 16 19 17 18 18 20 19 16 20
REMARK H PARENT 16 21 16 22
ROOT
ATOM      1  C   UNL     1      11.023 -59.112 -23.430  1.00  0.00     0.046 A 
ATOM      2  C   UNL     1       9.978 -60.046 -23.319  1.00  0.00     0.001 A 
ATOM      3  C   UNL     1       8.677 -59.556 -23.162  1.00  0.00     0.047 A 
ATOM      4  N   UNL     1       8.396 -58.237 -23.049  1.00  0.00    -0.252 NA
ATOM      5  C   UNL     1       9.399 -57.352 -23.093  1.00  0.00     0.074 A 
ATOM      6  C   UNL     1       9.076 -56.011 -22.946  1.00  0.00     0.049 A 
ATOM      7  C   UNL     1      10.058 -55.026 -22.957  1.00  0.00     0.043 A 
ATOM      8  Cl  UNL     1       9.617 -53.373 -22.768  1.00  0.00    -0.084 Cl
ATOM      9  C   UNL     1      11.392 -55.369 -23.112  1.00  0.00     0.021 A 
ATOM     10  C   UNL     1      11.737 -56.711 -23.265  1.00  0.00     0.014 A 
ATOM     11  C   UNL     1      10.749 -57.728 -23.266  1.00  0.00     0.024 A 
ATOM     12  C   UNL     1       7.484 -60.479 -23.048  1.00  0.00     0.064 C 
ATOM     13  C   UNL     1       7.786 -61.936 -23.428  1.00  0.00     0.018 C 
ATOM     14  C   UNL     1       7.844 -62.102 -24.932  1.00  0.00    -0.024 C 
ATOM     15  C   UNL     1       9.000 -62.133 -25.621  1.00  0.00    -0.076 C 
ATOM     16  C   UNL     1       9.043 -62.317 -27.109  1.00  0.00     0.039 C 
ATOM     17  C   UNL     1      10.341 -61.968 -24.931  1.00  0.00     0.039 C 
ATOM     18  C   UNL     1      10.232 -61.545 -23.446  1.00  0.00     0.028 C 
ATOM     19  C   UNL     1       9.109 -62.346 -22.776  1.00  0.00     0.017 C 
ENDROOT
BRANCH   1  20
ATOM     20  N   UNL     1      12.355 -59.598 -23.495  1.00  0.00    -0.398 N 
ATOM     21  H   UNL     1      12.427 -60.492 -23.969  1.00  0.00     0.156 HD
ATOM     22  H   UNL     1      12.954 -58.916 -23.957  1.00  0.00     0.156 HD
ENDBRANCH   1  20
TORSDOF 1
ENDMDL
MODEL 3
REMARK VINA RESULT:    -8.904      4.215      7.280
REMARK INTER + INTRA:          -9.164
REMARK INTER:                  -9.164
REMARK INTRA:                   0.000
REMARK UNBOUND:                 0.000
REMARK SMILES CC1=C[C@@H]2Cc3nc4cc(Cl)ccc4c(N)c3[C@H](C1)C2
REMARK SMILES IDX 15 1 17 2 6 3 7 4 8 5 9 6 10 7 11 8 12 9 13 10 14 11 5 12
REMARK SMILES IDX 4 13 3 14 2 15 1 16 19 17 18 18 20 19 16 20
REMARK H PARENT 16 21 16 22
ROOT
ATOM      1  C   UNL     1       9.302 -61.627 -23.890  1.00  0.00     0.046 A 
ATOM      2  C   UNL     1      10.414 -60.766 -23.908  1.00  0.00     0.001 A 
ATOM      3  C   UNL     1      10.964 -60.433 -25.151  1.00  0.00     0.047 A 
ATOM      4  N   UNL     1      10.513 -60.952 -26.318  1.00  0.00    -0.252 NA
ATOM      5  C   UNL     1       9.494 -61.820 -26.293  1.00  0.00     0.074 A 
ATOM      6  C   UNL     1       9.078 -62.351 -27.504  1.00  0.00     0.049 A 
ATOM      7  C   UNL     1       8.041 -63.277 -27.570  1.00  0.00     0.043 A 
ATOM      8  Cl  UNL     1       7.555 -63.916 -29.092  1.00  0.00    -0.084 Cl
ATOM      9  C   UNL     1       7.400 -63.692 -26.413  1.00  0.00     0.021 A 
ATOM     10  C   UNL     1       7.802 -63.166 -25.185  1.00  0.00     0.014 A 
ATOM     11  C   UNL     1       8.850 -62.215 -25.101  1.00  0.00     0.024 A 
ATOM     12  C   UNL     1      12.151 -59.504 -25.278  1.00  0.00     0.064 C 
ATOM     13  C   UNL     1      12.481 -58.738 -23.988  1.00  0.00     0.018 C 
ATOM     14  C   UNL     1      11.524 -57.582 -23.785  1.00  0.00    -0.024 C 
ATOM     15  C   UNL     1      10.459 -57.648 -22.964  1.00  0.00    -0.076 C 
ATOM     16  C   UNL     1       9.531 -56.489 -22.759  1.00  0.00     0.039 C 
ATOM     17  C   UNL     1      10.123 -58.916 -22.201  1.00  0.00     0.039 C 
ATOM     18  C   UNL     1      10.962 -60.144 -22.627  1.00  0.00     0.028 C 
ATOM     19  C   UNL     1      12.423 -59.716 -22.811  1.00  0.00     0.017 C 
ENDROOT
BRANCH   1  20
ATOM     20  N   UNL     1       8.797 -62.045 -22.631  1.00  0.00    -0.398 N 
ATOM     21  H   UNL     1       8.802 -63.054 -22.519  1.00  0.00     0.156 HD
ATOM     22  H   UNL     1       9.333 -61.614 -21.879  1.00  0.00     0.156 HD
ENDBRANCH   1  20
TORSDOF 1
ENDMDL
MODEL 4
REMARK VINA RESULT:    -8.762      4.006      8.253
REMARK INTER + INTRA:          -9.018
REMARK INTER:                  -9.018
REMARK INTRA:                   0.000
REMARK UNBOUND:                 0.000
REMARK SMILES CC1=C[C@@H]2Cc3nc4cc(Cl)ccc4c(N)c3[C@H](C1)C2
REMARK SMILES IDX 15 1 17 2 6 3 7 4 8 5 9 6 10 7 11 8 12 9 13 10 14 11 5 12
REMARK SMILES IDX 4 13 3 14 2 15 1 16 19 17 18 18 20 19 16 20
REMARK H PARENT 16 21 16 22
ROOT
ATOM      1  C   UNL     1      11.946 -51.369 -22.068  1.00  0.00     0.046 A 
ATOM      2  C   UNL     1      12.862 -50.844 -22.998  1.00  0.00     0.001 A 
ATOM      3  C   UNL     1      13.026 -51.523 -24.210  1.00  0.00     0.047 A 
ATOM      4  N   UNL     1      12.395 -52.688 -24.492  1.00  0.00    -0.252 NA
ATOM      5  C   UNL     1      11.571 -53.219 -23.581  1.00  0.00     0.074 A 
ATOM      6  C   UNL     1      10.964 -54.425 -23.894  1.00  0.00     0.049 A 
ATOM      7  C   UNL     1      10.110 -55.060 -22.997  1.00  0.00     0.043 A 
ATOM      8  Cl  UNL     1       9.378 -56.558 -23.422  1.00  0.00    -0.084 Cl
ATOM      9  C   UNL     1       9.851 -54.494 -21.759  1.00  0.00     0.021 A 
ATOM     10  C   UNL     1      10.449 -53.278 -21.427  1.00  0.00     0.014 A 
ATOM     11  C   UNL     1      11.314 -52.614 -22.332  1.00  0.00     0.024 A 
ATOM     12  C   UNL     1      13.976 -51.031 -25.279  1.00  0.00     0.064 C 
ATOM     13  C   UNL     1      14.481 -49.599 -25.051  1.00  0.00     0.018 C 
ATOM     14  C   UNL     1      13.426 -48.585 -25.439  1.00  0.00    -0.024 C 
ATOM     15  C   UNL     1      12.622 -47.985 -24.541  1.00  0.00    -0.076 C 
ATOM     16  C   UNL     1      11.593 -46.968 -24.938  1.00  0.00     0.039 C 
ATOM     17  C   UNL     1      12.697 -48.316 -23.063  1.00  0.00     0.039 C 
ATOM     18  C   UNL     1      13.597 -49.532 -22.738  1.00  0.00     0.028 C 
ATOM     19  C   UNL     1      14.876 -49.450 -23.579  1.00  0.00     0.017 C 
ENDROOT
BRANCH   1  20
ATOM     20  N   UNL     1      11.842 -50.742 -20.799  1.00  0.00    -0.398 N 
ATOM     21  H   UNL     1      12.597 -50.994 -20.170  1.00  0.00     0.156 HD
ATOM     22  H   UNL     1      11.813 -49.729 -20.912  1.00  0.00     0.156 HD
ENDBRANCH   1  20
TORSDOF 1
ENDMDL
MODEL 5
REMARK VINA RESULT:    -8.716      4.931      5.873
REMARK INTER + INTRA:          -8.971
REMARK INTER:                  -8.971
REMARK INTRA:                   0.000
REMARK UNBOUND:                 0.000
REMARK SMILES CC1=C[C@@H]2Cc3nc4cc(Cl)ccc4c(N)c3[C@H](C1)C2
REMARK SMILES IDX 15 1 17 2 6 3 7 4 8 5 9 6 10 7 11 8 12 9 13 10 14 11 5 12
REMARK SMILES IDX 4 13 3 14 2 15 1 16 19 17 18 18 20 19 16 20
REMARK H PARENT 16 21 16 22
ROOT
ATOM      1  C   UNL     1      11.630 -60.685 -24.841  1.00  0.00     0.046 A 
ATOM      2  C   UNL     1      10.387 -60.431 -24.234  1.00  0.00     0.001 A 
ATOM      3  C   UNL     1       9.358 -59.926 -25.037  1.00  0.00     0.047 A 
ATOM      4  N   UNL     1       9.529 -59.615 -26.343  1.00  0.00    -0.252 NA
ATOM      5  C   UNL     1      10.730 -59.799 -26.904  1.00  0.00     0.074 A 
ATOM      6  C   UNL     1      10.875 -59.443 -28.236  1.00  0.00     0.049 A 
ATOM      7  C   UNL     1      12.094 -59.580 -28.893  1.00  0.00     0.043 A 
ATOM      8  Cl  UNL     1      12.235 -59.124 -30.546  1.00  0.00    -0.084 Cl
ATOM      9  C   UNL     1      13.199 -60.075 -28.219  1.00  0.00     0.021 A 
ATOM     10  C   UNL     1      13.073 -60.442 -26.880  1.00  0.00     0.014 A 
ATOM     11  C   UNL     1      11.836 -60.319 -26.198  1.00  0.00     0.024 A 
ATOM     12  C   UNL     1       7.981 -59.634 -24.482  1.00  0.00     0.064 C 
ATOM     13  C   UNL     1       7.736 -60.222 -23.085  1.00  0.00     0.018 C 
ATOM     14  C   UNL     1       7.452 -61.707 -23.165  1.00  0.00    -0.024 C 
ATOM     15  C   UNL     1       8.387 -62.646 -22.927  1.00  0.00    -0.076 C 
ATOM     16  C   UNL     1       8.087 -64.114 -22.992  1.00  0.00     0.039 C 
ATOM     17  C   UNL     1       9.818 -62.273 -22.589  1.00  0.00     0.039 C 
ATOM     18  C   UNL     1      10.132 -60.768 -22.768  1.00  0.00     0.028 C 
ATOM     19  C   UNL     1       8.965 -59.941 -22.215  1.00  0.00     0.017 C 
ENDROOT
BRANCH   1  20
ATOM     20  N   UNL     1      12.706 -61.107 -24.017  1.00  0.00    -0.398 N 
ATOM     21  H   UNL     1      13.013 -62.052 -24.222  1.00  0.00     0.156 HD
ATOM     22  H   UNL     1      13.490 -60.463 -24.111  1.00  0.00     0.156 HD
ENDBRANCH   1  20
TORSDOF 1
ENDMDL
MODEL 6
REMARK VINA RESULT:    -8.491      4.271      8.713
REMARK INTER + INTRA:          -8.740
REMARK INTER:                  -8.740
REMARK INTRA:                   0.000
REMARK UNBOUND:                 0.000
REMARK SMILES CC1=C[C@@H]2Cc3nc4cc(Cl)ccc4c(N)c3[C@H](C1)C2
REMARK SMILES IDX 15 1 17 2 6 3 7 4 8 5 9 6 10 7 11 8 12 9 13 10 14 11 5 12
REMARK SMILES IDX 4 13 3 14 2 15 1 16 19 17 18 18 20 19 16 20
REMARK H PARENT 16 21 16 22
ROOT
ATOM      1  C   UNL     1      13.203 -51.366 -25.172  1.00  0.00     0.046 A 
ATOM      2  C   UNL     1      13.045 -50.095 -24.592  1.00  0.00     0.001 A 
ATOM      3  C   UNL     1      12.310 -50.005 -23.405  1.00  0.00     0.047 A 
ATOM      4  N   UNL     1      11.697 -51.069 -22.836  1.00  0.00    -0.252 NA
ATOM      5  C   UNL     1      11.796 -52.268 -23.423  1.00  0.00     0.074 A 
ATOM      6  C   UNL     1      11.133 -53.329 -22.827  1.00  0.00     0.049 A 
ATOM      7  C   UNL     1      11.164 -54.605 -23.381  1.00  0.00     0.043 A 
ATOM      8  Cl  UNL     1      10.325 -55.896 -22.612  1.00  0.00    -0.084 Cl
ATOM      9  C   UNL     1      11.862 -54.840 -24.555  1.00  0.00     0.021 A 
ATOM     10  C   UNL     1      12.539 -53.787 -25.169  1.00  0.00     0.014 A 
ATOM     11  C   UNL     1      12.526 -52.483 -24.612  1.00  0.00     0.024 A 
ATOM     12  C   UNL     1      12.096 -48.686 -22.696  1.00  0.00     0.064 C 
ATOM     13  C   UNL     1      12.996 -47.551 -23.208  1.00  0.00     0.018 C 
ATOM     14  C   UNL     1      14.400 -47.686 -22.659  1.00  0.00    -0.024 C 
ATOM     15  C   UNL     1      15.413 -48.227 -23.361  1.00  0.00    -0.076 C 
ATOM     16  C   UNL     1      16.804 -48.336 -22.811  1.00  0.00     0.039 C 
ATOM     17  C   UNL     1      15.204 -48.778 -24.759  1.00  0.00     0.039 C 
ATOM     18  C   UNL     1      13.718 -48.860 -25.183  1.00  0.00     0.028 C 
ATOM     19  C   UNL     1      12.996 -47.582 -24.739  1.00  0.00     0.017 C 
ENDROOT
BRANCH   1  20
ATOM     20  N   UNL     1      13.865 -51.456 -26.425  1.00  0.00    -0.398 N 
ATOM     21  H   UNL     1      14.354 -50.603 -26.675  1.00  0.00     0.156 HD
ATOM     22  H   UNL     1      14.520 -52.237 -26.418  1.00  0.00     0.156 HD
ENDBRANCH   1  20
TORSDOF 1
ENDMDL
MODEL 7
REMARK VINA RESULT:    -8.244      7.111      9.168
REMARK INTER + INTRA:          -8.485
REMARK INTER:                  -8.485
REMARK INTRA:                   0.000
REMARK UNBOUND:                 0.000
REMARK SMILES CC1=C[C@@H]2Cc3nc4cc(Cl)ccc4c(N)c3[C@H](C1)C2
REMARK SMILES IDX 15 1 17 2 6 3 7 4 8 5 9 6 10 7 11 8 12 9 13 10 14 11 5 12
REMARK SMILES IDX 4 13 3 14 2 15 1 16 19 17 18 18 20 19 16 20
REMARK H PARENT 16 21 16 22
ROOT
ATOM      1  C   UNL     1      11.782 -49.046 -23.119  1.00  0.00     0.046 A 
ATOM      2  C   UNL     1      12.582 -49.645 -24.108  1.00  0.00     0.001 A 
ATOM      3  C   UNL     1      13.181 -48.811 -25.059  1.00  0.00     0.047 A 
ATOM      4  N   UNL     1      12.970 -47.474 -25.102  1.00  0.00    -0.252 NA
ATOM      5  C   UNL     1      12.159 -46.914 -24.197  1.00  0.00     0.074 A 
ATOM      6  C   UNL     1      11.945 -45.547 -24.289  1.00  0.00     0.049 A 
ATOM      7  C   UNL     1      11.100 -44.885 -23.404  1.00  0.00     0.043 A 
ATOM      8  Cl  UNL     1      10.858 -43.188 -23.554  1.00  0.00    -0.084 Cl
ATOM      9  C   UNL     1      10.445 -45.589 -22.406  1.00  0.00     0.021 A 
ATOM     10  C   UNL     1      10.649 -46.964 -22.294  1.00  0.00     0.014 A 
ATOM     11  C   UNL     1      11.514 -47.652 -23.181  1.00  0.00     0.024 A 
ATOM     12  C   UNL     1      14.070 -49.357 -26.154  1.00  0.00     0.064 C 
ATOM     13  C   UNL     1      14.496 -50.817 -25.940  1.00  0.00     0.018 C 
ATOM     14  C   UNL     1      15.603 -50.912 -24.912  1.00  0.00    -0.024 C 
ATOM     15  C   UNL     1      15.382 -51.238 -23.624  1.00  0.00    -0.076 C 
ATOM     16  C   UNL     1      16.492 -51.347 -22.621  1.00  0.00     0.039 C 
ATOM     17  C   UNL     1      13.983 -51.501 -23.101  1.00  0.00     0.039 C 
ATOM     18  C   UNL     1      12.861 -51.145 -24.107  1.00  0.00     0.028 C 
ATOM     19  C   UNL     1      13.268 -51.624 -25.505  1.00  0.00     0.017 C 
ENDROOT
BRANCH   1  20
ATOM     20  N   UNL     1      11.094 -49.890 -22.208  1.00  0.00    -0.398 N 
ATOM     21  H   UNL     1      10.774 -50.753 -22.635  1.00  0.00     0.156 HD
ATOM     22  H   UNL     1      11.691 -50.103 -21.410  1.00  0.00     0.156 HD
ENDBRANCH   1  20
TORSDOF 1
ENDMDL
MODEL 8
REMARK VINA RESULT:    -8.170      4.773      9.394
REMARK INTER + INTRA:          -8.409
REMARK INTER:                  -8.409
REMARK INTRA:                   0.000
REMARK UNBOUND:                 0.000
REMARK SMILES CC1=C[C@@H]2Cc3nc4cc(Cl)ccc4c(N)c3[C@H](C1)C2
REMARK SMILES IDX 15 1 17 2 6 3 7 4 8 5 9 6 10 7 11 8 12 9 13 10 14 11 5 12
REMARK SMILES IDX 4 13 3 14 2 15 1 16 19 17 18 18 20 19 16 20
REMARK H PARENT 16 21 16 22
ROOT
ATOM      1  C   UNL     1      12.100 -50.702 -22.677  1.00  0.00     0.046 A 
ATOM      2  C   UNL     1      12.919 -49.589 -22.936  1.00  0.00     0.001 A 
ATOM      3  C   UNL     1      13.716 -49.616 -24.086  1.00  0.00     0.047 A 
ATOM      4  N   UNL     1      13.779 -50.686 -24.913  1.00  0.00    -0.252 NA
ATOM      5  C   UNL     1      13.045 -51.770 -24.631  1.00  0.00     0.074 A 
ATOM      6  C   UNL     1      13.156 -52.856 -25.486  1.00  0.00     0.049 A 
ATOM      7  C   UNL     1      12.447 -54.031 -25.256  1.00  0.00     0.043 A 
ATOM      8  Cl  UNL     1      12.614 -55.359 -26.338  1.00  0.00    -0.084 Cl
ATOM      9  C   UNL     1      11.612 -54.141 -24.156  1.00  0.00     0.021 A 
ATOM     10  C   UNL     1      11.484 -53.058 -23.287  1.00  0.00     0.014 A 
ATOM     11  C   UNL     1      12.191 -51.850 -23.510  1.00  0.00     0.024 A 
ATOM     12  C   UNL     1      14.620 -48.462 -24.459  1.00  0.00     0.064 C 
ATOM     13  C   UNL     1      14.349 -47.177 -23.663  1.00  0.00     0.018 C 
ATOM     14  C   UNL     1      13.121 -46.463 -24.189  1.00  0.00    -0.024 C 
ATOM     15  C   UNL     1      11.910 -46.565 -23.611  1.00  0.00    -0.076 C 
ATOM     16  C   UNL     1      10.707 -45.837 -24.133  1.00  0.00     0.039 C 
ATOM     17  C   UNL     1      11.683 -47.444 -22.395  1.00  0.00     0.039 C 
ATOM     18  C   UNL     1      12.886 -48.351 -22.044  1.00  0.00     0.028 C 
ATOM     19  C   UNL     1      14.183 -47.545 -22.186  1.00  0.00     0.017 C 
ENDROOT
BRANCH   1  20
ATOM     20  N   UNL     1      11.360 -50.725 -21.467  1.00  0.00    -0.398 N 
ATOM     21  H   UNL     1      10.424 -50.345 -21.568  1.00  0.00     0.156 HD
ATOM     22  H   UNL     1      11.306 -51.678 -21.108  1.00  0.00     0.156 HD
ENDBRANCH   1  20
TORSDOF 1
ENDMDL
MODEL 9
REMARK VINA RESULT:    -8.034      5.280      9.930
REMARK INTER + INTRA:          -8.269
REMARK INTER:                  -8.269
REMARK INTRA:                   0.000
REMARK UNBOUND:                 0.000
REMARK SMILES CC1=C[C@@H]2Cc3nc4cc(Cl)ccc4c(N)c3[C@H](C1)C2
REMARK SMILES IDX 15 1 17 2 6 3 7 4 8 5 9 6 10 7 11 8 12 9 13 10 14 11 5 12
REMARK SMILES IDX 4 13 3 14 2 15 1 16 19 17 18 18 20 19 16 20
REMARK H PARENT 16 21 16 22
ROOT
ATOM      1  C   UNL     1      12.645 -49.725 -23.990  1.00  0.00     0.046 A 
ATOM      2  C   UNL     1      12.149 -48.438 -23.714  1.00  0.00     0.001 A 
ATOM      3  C   UNL     1      11.053 -48.331 -22.850  1.00  0.00     0.047 A 
ATOM      4  N   UNL     1      10.419 -49.408 -22.329  1.00  0.00    -0.252 NA
ATOM      5  C   UNL     1      10.854 -50.634 -22.643  1.00  0.00     0.074 A 
ATOM      6  C   UNL     1      10.163 -51.712 -22.113  1.00  0.00     0.049 A 
ATOM      7  C   UNL     1      10.532 -53.022 -22.404  1.00  0.00     0.043 A 
ATOM      8  Cl  UNL     1       9.646 -54.334 -21.729  1.00  0.00    -0.084 Cl
ATOM      9  C   UNL     1      11.606 -53.276 -23.242  1.00  0.00     0.021 A 
ATOM     10  C   UNL     1      12.317 -52.204 -23.783  1.00  0.00     0.014 A 
ATOM     11  C   UNL     1      11.960 -50.864 -23.489  1.00  0.00     0.024 A 
ATOM     12  C   UNL     1      10.456 -46.992 -22.479  1.00  0.00     0.064 C 
ATOM     13  C   UNL     1      11.331 -45.791 -22.869  1.00  0.00     0.018 C 
ATOM     14  C   UNL     1      12.476 -45.617 -21.893  1.00  0.00    -0.024 C 
ATOM     15  C   UNL     1      13.723 -46.059 -22.140  1.00  0.00    -0.076 C 
ATOM     16  C   UNL     1      14.851 -45.862 -21.172  1.00  0.00     0.039 C 
ATOM     17  C   UNL     1      14.062 -46.803 -23.418  1.00  0.00     0.039 C 
ATOM     18  C   UNL     1      12.826 -47.187 -24.266  1.00  0.00     0.028 C 
ATOM     19  C   UNL     1      11.848 -46.007 -24.294  1.00  0.00     0.017 C 
ENDROOT
BRANCH   1  20
ATOM     20  N   UNL     1      13.694 -49.851 -24.938  1.00  0.00    -0.398 N 
ATOM     21  H   UNL     1      13.523 -49.327 -25.789  1.00  0.00     0.156 HD
ATOM     22  H   UNL     1      14.577 -49.554 -24.523  1.00  0.00     0.156 HD
ENDBRANCH   1  20
TORSDOF 1
ENDMDL
