MODEL 1
REMARK VINA RESULT:   -11.166      0.000      0.000
REMARK INTER + INTRA:         -17.080
REMARK INTER:                 -16.388
REMARK INTRA:                  -0.692
REMARK UNBOUND:                -0.692
REMARK SMILES C[N@@H+](CCC(=O)N1CC[NH+](CCNc2c3c(nc4ccccc24)CCCC3)CC1)C1CCCCC1
REMARK SMILES IDX 9 1 10 2 28 3 8 4 7 5 5 6 29 7 6 8 11 10 12 11 13 12 14 14
REMARK SMILES IDX 15 15 23 16 16 17 27 18 22 19 18 20 17 21 24 22 26 23 21 24
REMARK SMILES IDX 19 25 25 26 20 27 4 28 3 29 2 30 1 31 30 33 31 34 35 35
REMARK SMILES IDX 32 36 34 37 33 38
REMARK H PARENT 10 9 13 13 2 32
ROOT
ATOM      1  C   UNL     1      11.830 -56.629 -24.150  1.00  0.00     0.284 C 
ATOM      2  N   UNL     1      10.610 -57.102 -23.376  1.00  0.00    -0.331 N 
ATOM      3  C   UNL     1      10.464 -56.311 -22.088  1.00  0.00     0.284 C 
ATOM      4  C   UNL     1      11.676 -55.132 -24.476  1.00  0.00     0.181 C 
ATOM      5  N   UNL     1      11.431 -54.303 -23.281  1.00  0.00    -0.331 N 
ATOM      6  C   UNL     1      11.742 -52.948 -23.404  1.00  0.00     0.228 C 
ATOM      7  C   UNL     1      10.390 -54.797 -22.362  1.00  0.00     0.181 C 
ATOM      8  O   UNL     1      12.194 -52.483 -24.447  1.00  0.00    -0.275 OA
ATOM      9  H   UNL     1       9.793 -56.872 -23.958  1.00  0.00     0.348 HD
ENDROOT
BRANCH   2  10
ATOM     10  C   UNL     1      10.543 -58.619 -23.188  1.00  0.00     0.283 C 
BRANCH  10  11
ATOM     11  C   UNL     1      11.859 -59.276 -22.707  1.00  0.00     0.174 C 
BRANCH  11  12
ATOM     12  N   UNL     1      12.105 -60.530 -23.435  1.00  0.00    -0.379 N 
ATOM     13  H   UNL     1      12.316 -61.299 -22.789  1.00  0.00     0.160 HD
BRANCH  12  14
ATOM     14  C   UNL     1      11.092 -61.017 -24.313  1.00  0.00     0.049 A 
ATOM     15  C   UNL     1      10.070 -61.906 -23.921  1.00  0.00    -0.003 A 
ATOM     16  C   UNL     1      11.221 -60.684 -25.696  1.00  0.00     0.024 A 
ATOM     17  C   UNL     1       9.089 -62.218 -24.870  1.00  0.00     0.046 A 
ATOM     18  C   UNL     1      10.009 -62.539 -22.549  1.00  0.00     0.039 C 
ATOM     19  C   UNL     1      12.335 -59.997 -26.244  1.00  0.00     0.012 A 
ATOM     20  C   UNL     1      10.182 -61.068 -26.564  1.00  0.00     0.073 A 
ATOM     21  N   UNL     1       9.121 -61.761 -26.144  1.00  0.00    -0.252 NA
ATOM     22  C   UNL     1       7.964 -63.184 -24.585  1.00  0.00     0.056 C 
ATOM     23  C   UNL     1       9.119 -63.778 -22.467  1.00  0.00     0.005 C 
ATOM     24  C   UNL     1      12.406 -59.681 -27.603  1.00  0.00     0.001 A 
ATOM     25  C   UNL     1      10.261 -60.728 -27.909  1.00  0.00     0.029 A 
ATOM     26  C   UNL     1       7.769 -63.491 -23.105  1.00  0.00     0.007 C 
ATOM     27  C   UNL     1      11.358 -60.041 -28.437  1.00  0.00     0.002 A 
ENDBRANCH  12  14
ENDBRANCH  11  12
ENDBRANCH  10  11
ENDBRANCH   2  10
BRANCH   6  28
ATOM     28  C   UNL     1      11.597 -52.054 -22.182  1.00  0.00     0.161 C 
BRANCH  28  29
ATOM     29  C   UNL     1      12.021 -50.628 -22.545  1.00  0.00     0.272 C 
BRANCH  29  30
ATOM     30  N   UNL     1      10.963 -49.565 -22.274  1.00  0.00    -0.335 N 
ATOM     31  C   UNL     1       9.609 -50.155 -21.955  1.00  0.00     0.332 C 
ATOM     32  H   UNL     1      11.265 -49.197 -21.359  1.00  0.00     0.348 HD
BRANCH  30  33
ATOM     33  C   UNL     1      10.978 -48.339 -23.188  1.00  0.00     0.183 C 
ATOM     34  C   UNL     1      12.360 -48.235 -23.851  1.00  0.00     0.065 C 
ATOM     35  C   UNL     1      10.597 -47.047 -22.451  1.00  0.00     0.065 C 
ATOM     36  C   UNL     1      12.473 -47.001 -24.741  1.00  0.00     0.006 C 
ATOM     37  C   UNL     1      10.714 -45.826 -23.363  1.00  0.00     0.006 C 
ATOM     38  C   UNL     1      12.096 -45.722 -23.999  1.00  0.00     0.000 C 
ENDBRANCH  30  33
ENDBRANCH  29  30
ENDBRANCH  28  29
ENDBRANCH   6  28
TORSDOF 8
ENDMDL
MODEL 2
REMARK VINA RESULT:   -10.958      1.687      2.676
REMARK INTER + INTRA:         -16.775
REMARK INTER:                 -16.009
REMARK INTRA:                  -0.766
REMARK UNBOUND:                -0.692
REMARK SMILES C[N@@H+](CCC(=O)N1CC[NH+](CCNc2c3c(nc4ccccc24)CCCC3)CC1)C1CCCCC1
REMARK SMILES IDX 9 1 10 2 28 3 8 4 7 5 5 6 29 7 6 8 11 10 12 11 13 12 14 14
REMARK SMILES IDX 15 15 23 16 16 17 27 18 22 19 18 20 17 21 24 22 26 23 21 24
REMARK SMILES IDX 19 25 25 26 20 27 4 28 3 29 2 30 1 31 30 33 31 34 35 35
REMARK SMILES IDX 32 36 34 37 33 38
REMARK H PARENT 10 9 13 13 2 32
ROOT
ATOM      1  C   UNL     1       9.624 -56.656 -23.482  1.00  0.00     0.284 C 
ATOM      2  N   UNL     1      10.209 -57.533 -22.387  1.00  0.00    -0.331 N 
ATOM      3  C   UNL     1      11.397 -56.845 -21.740  1.00  0.00     0.284 C 
ATOM      4  C   UNL     1       9.177 -55.315 -22.874  1.00  0.00     0.181 C 
ATOM      5  N   UNL     1      10.255 -54.627 -22.139  1.00  0.00    -0.331 N 
ATOM      6  C   UNL     1      10.096 -53.250 -21.971  1.00  0.00     0.228 C 
ATOM      7  C   UNL     1      11.014 -55.458 -21.189  1.00  0.00     0.181 C 
ATOM      8  O   UNL     1       9.116 -52.655 -22.413  1.00  0.00    -0.275 OA
ATOM      9  H   UNL     1       9.483 -57.612 -21.662  1.00  0.00     0.348 HD
ENDROOT
BRANCH   2  10
ATOM     10  C   UNL     1      10.484 -58.974 -22.825  1.00  0.00     0.283 C 
BRANCH  10  11
ATOM     11  C   UNL     1      11.979 -59.371 -22.863  1.00  0.00     0.174 C 
BRANCH  11  12
ATOM     12  N   UNL     1      12.153 -60.658 -23.553  1.00  0.00    -0.379 N 
ATOM     13  H   UNL     1      12.295 -61.422 -22.883  1.00  0.00     0.160 HD
BRANCH  12  14
ATOM     14  C   UNL     1      11.128 -61.097 -24.442  1.00  0.00     0.049 A 
ATOM     15  C   UNL     1      10.082 -61.967 -24.070  1.00  0.00    -0.003 A 
ATOM     16  C   UNL     1      11.267 -60.737 -25.817  1.00  0.00     0.024 A 
ATOM     17  C   UNL     1       9.094 -62.231 -25.027  1.00  0.00     0.046 A 
ATOM     18  C   UNL     1      10.002 -62.629 -22.713  1.00  0.00     0.039 C 
ATOM     19  C   UNL     1      12.400 -60.068 -26.349  1.00  0.00     0.012 A 
ATOM     20  C   UNL     1      10.219 -61.073 -26.693  1.00  0.00     0.073 A 
ATOM     21  N   UNL     1       9.139 -61.747 -26.290  1.00  0.00    -0.252 NA
ATOM     22  C   UNL     1       7.943 -63.172 -24.764  1.00  0.00     0.056 C 
ATOM     23  C   UNL     1       9.079 -63.845 -22.659  1.00  0.00     0.005 C 
ATOM     24  C   UNL     1      12.481 -59.724 -27.700  1.00  0.00     0.001 A 
ATOM     25  C   UNL     1      10.309 -60.705 -28.031  1.00  0.00     0.029 A 
ATOM     26  C   UNL     1       7.738 -63.507 -23.292  1.00  0.00     0.007 C 
ATOM     27  C   UNL     1      11.425 -60.037 -28.543  1.00  0.00     0.002 A 
ENDBRANCH  12  14
ENDBRANCH  11  12
ENDBRANCH  10  11
ENDBRANCH   2  10
BRANCH   6  28
ATOM     28  C   UNL     1      11.213 -52.465 -21.300  1.00  0.00     0.161 C 
BRANCH  28  29
ATOM     29  C   UNL     1      11.221 -51.032 -21.841  1.00  0.00     0.272 C 
BRANCH  29  30
ATOM     30  N   UNL     1      12.594 -50.521 -22.259  1.00  0.00    -0.335 N 
ATOM     31  C   UNL     1      12.607 -49.035 -22.532  1.00  0.00     0.332 C 
ATOM     32  H   UNL     1      13.120 -50.588 -21.374  1.00  0.00     0.348 HD
BRANCH  30  33
ATOM     33  C   UNL     1      13.385 -51.404 -23.226  1.00  0.00     0.183 C 
ATOM     34  C   UNL     1      14.838 -50.907 -23.270  1.00  0.00     0.065 C 
ATOM     35  C   UNL     1      12.755 -51.461 -24.624  1.00  0.00     0.065 C 
ATOM     36  C   UNL     1      15.683 -51.707 -24.258  1.00  0.00     0.006 C 
ATOM     37  C   UNL     1      13.616 -52.271 -25.594  1.00  0.00     0.006 C 
ATOM     38  C   UNL     1      15.051 -51.755 -25.646  1.00  0.00     0.000 C 
ENDBRANCH  30  33
ENDBRANCH  29  30
ENDBRANCH  28  29
ENDBRANCH   6  28
TORSDOF 8
ENDMDL
MODEL 3
REMARK VINA RESULT:   -10.827      1.901     11.807
REMARK INTER + INTRA:         -16.583
REMARK INTER:                 -15.777
REMARK INTRA:                  -0.807
REMARK UNBOUND:                -0.692
REMARK SMILES C[N@@H+](CCC(=O)N1CC[NH+](CCNc2c3c(nc4ccccc24)CCCC3)CC1)C1CCCCC1
REMARK SMILES IDX 9 1 10 2 28 3 8 4 7 5 5 6 29 7 6 8 11 10 12 11 13 12 14 14
REMARK SMILES IDX 15 15 23 16 16 17 27 18 22 19 18 20 17 21 24 22 26 23 21 24
REMARK SMILES IDX 19 25 25 26 20 27 4 28 3 29 2 30 1 31 30 33 31 34 35 35
REMARK SMILES IDX 32 36 34 37 33 38
REMARK H PARENT 10 9 13 13 2 32
ROOT
ATOM      1  C   UNL     1      10.175 -53.399 -23.276  1.00  0.00     0.284 C 
ATOM      2  N   UNL     1      10.552 -52.937 -21.879  1.00  0.00    -0.331 N 
ATOM      3  C   UNL     1      10.390 -54.075 -20.886  1.00  0.00     0.284 C 
ATOM      4  C   UNL     1      11.081 -54.574 -23.685  1.00  0.00     0.181 C 
ATOM      5  N   UNL     1      11.056 -55.686 -22.716  1.00  0.00    -0.331 N 
ATOM      6  C   UNL     1      11.447 -56.933 -23.207  1.00  0.00     0.228 C 
ATOM      7  C   UNL     1      11.217 -55.307 -21.301  1.00  0.00     0.181 C 
ATOM      8  O   UNL     1      11.788 -57.086 -24.378  1.00  0.00    -0.275 OA
ATOM      9  H   UNL     1      11.556 -52.713 -21.910  1.00  0.00     0.348 HD
ENDROOT
BRANCH   2  10
ATOM     10  C   UNL     1       9.872 -51.634 -21.450  1.00  0.00     0.283 C 
BRANCH  10  11
ATOM     11  C   UNL     1      10.125 -50.428 -22.386  1.00  0.00     0.174 C 
BRANCH  11  12
ATOM     12  N   UNL     1      11.499 -49.930 -22.226  1.00  0.00    -0.379 N 
ATOM     13  H   UNL     1      12.149 -50.695 -22.015  1.00  0.00     0.160 HD
BRANCH  12  14
ATOM     14  C   UNL     1      12.086 -49.196 -23.298  1.00  0.00     0.049 A 
ATOM     15  C   UNL     1      11.913 -47.809 -23.492  1.00  0.00    -0.003 A 
ATOM     16  C   UNL     1      12.768 -49.951 -24.300  1.00  0.00     0.024 A 
ATOM     17  C   UNL     1      12.632 -47.211 -24.534  1.00  0.00     0.046 A 
ATOM     18  C   UNL     1      10.981 -46.968 -22.649  1.00  0.00     0.039 C 
ATOM     19  C   UNL     1      12.801 -51.369 -24.337  1.00  0.00     0.012 A 
ATOM     20  C   UNL     1      13.440 -49.242 -25.313  1.00  0.00     0.073 A 
ATOM     21  N   UNL     1      13.419 -47.909 -25.386  1.00  0.00    -0.252 NA
ATOM     22  C   UNL     1      12.506 -45.743 -24.866  1.00  0.00     0.056 C 
ATOM     23  C   UNL     1      10.598 -45.630 -23.279  1.00  0.00     0.005 C 
ATOM     24  C   UNL     1      13.497 -52.061 -25.331  1.00  0.00     0.001 A 
ATOM     25  C   UNL     1      14.143 -49.948 -26.283  1.00  0.00     0.029 A 
ATOM     26  C   UNL     1      11.845 -44.913 -23.773  1.00  0.00     0.007 C 
ATOM     27  C   UNL     1      14.178 -51.344 -26.303  1.00  0.00     0.002 A 
ENDBRANCH  12  14
ENDBRANCH  11  12
ENDBRANCH  10  11
ENDBRANCH   2  10
BRANCH   6  28
ATOM     28  C   UNL     1      11.360 -58.139 -22.285  1.00  0.00     0.161 C 
BRANCH  28  29
ATOM     29  C   UNL     1      10.608 -59.268 -22.996  1.00  0.00     0.272 C 
BRANCH  29  30
ATOM     30  N   UNL     1      11.406 -60.556 -23.157  1.00  0.00    -0.335 N 
ATOM     31  C   UNL     1      12.716 -60.346 -23.880  1.00  0.00     0.332 C 
ATOM     32  H   UNL     1      11.713 -60.734 -22.189  1.00  0.00     0.348 HD
BRANCH  30  33
ATOM     33  C   UNL     1      10.610 -61.809 -23.528  1.00  0.00     0.183 C 
ATOM     34  C   UNL     1       9.657 -61.465 -24.683  1.00  0.00     0.065 C 
ATOM     35  C   UNL     1       9.865 -62.412 -22.329  1.00  0.00     0.065 C 
ATOM     36  C   UNL     1       8.787 -62.655 -25.076  1.00  0.00     0.006 C 
ATOM     37  C   UNL     1       9.004 -63.604 -22.747  1.00  0.00     0.006 C 
ATOM     38  C   UNL     1       8.047 -63.245 -23.880  1.00  0.00     0.000 C 
ENDBRANCH  30  33
ENDBRANCH  29  30
ENDBRANCH  28  29
ENDBRANCH   6  28
TORSDOF 8
ENDMDL
MODEL 4
REMARK VINA RESULT:   -10.492      2.198     11.623
REMARK INTER + INTRA:         -16.092
REMARK INTER:                 -15.121
REMARK INTRA:                  -0.971
REMARK UNBOUND:                -0.692
REMARK SMILES C[N@@H+](CCC(=O)N1CC[NH+](CCNc2c3c(nc4ccccc24)CCCC3)CC1)C1CCCCC1
REMARK SMILES IDX 9 1 10 2 28 3 8 4 7 5 5 6 29 7 6 8 11 10 12 11 13 12 14 14
REMARK SMILES IDX 15 15 23 16 16 17 27 18 22 19 18 20 17 21 24 22 26 23 21 24
REMARK SMILES IDX 19 25 25 26 20 27 4 28 3 29 2 30 1 31 30 33 31 34 35 35
REMARK SMILES IDX 32 36 34 37 33 38
REMARK H PARENT 10 9 13 13 2 32
ROOT
ATOM      1  C   UNL     1      11.073 -54.074 -24.177  1.00  0.00     0.284 C 
ATOM      2  N   UNL     1      11.169 -53.403 -22.816  1.00  0.00    -0.331 N 
ATOM      3  C   UNL     1      10.490 -54.256 -21.760  1.00  0.00     0.284 C 
ATOM      4  C   UNL     1      11.752 -55.454 -24.112  1.00  0.00     0.181 C 
ATOM      5  N   UNL     1      11.213 -56.312 -23.039  1.00  0.00    -0.331 N 
ATOM      6  C   UNL     1      11.414 -57.684 -23.197  1.00  0.00     0.228 C 
ATOM      7  C   UNL     1      11.083 -55.677 -21.716  1.00  0.00     0.181 C 
ATOM      8  O   UNL     1      12.003 -58.142 -24.173  1.00  0.00    -0.275 OA
ATOM      9  H   UNL     1      12.169 -53.378 -22.577  1.00  0.00     0.348 HD
ENDROOT
BRANCH   2  10
ATOM     10  C   UNL     1      10.728 -51.937 -22.814  1.00  0.00     0.283 C 
BRANCH  10  11
ATOM     11  C   UNL     1      10.915 -51.201 -21.466  1.00  0.00     0.174 C 
BRANCH  11  12
ATOM     12  N   UNL     1      12.111 -50.347 -21.507  1.00  0.00    -0.379 N 
ATOM     13  H   UNL     1      12.944 -50.861 -21.198  1.00  0.00     0.160 HD
BRANCH  12  14
ATOM     14  C   UNL     1      12.463 -49.728 -22.742  1.00  0.00     0.049 A 
ATOM     15  C   UNL     1      13.442 -50.230 -23.625  1.00  0.00    -0.003 A 
ATOM     16  C   UNL     1      11.879 -48.453 -23.016  1.00  0.00     0.024 A 
ATOM     17  C   UNL     1      13.608 -49.567 -24.847  1.00  0.00     0.046 A 
ATOM     18  C   UNL     1      14.317 -51.419 -23.297  1.00  0.00     0.039 C 
ATOM     19  C   UNL     1      11.068 -47.741 -22.095  1.00  0.00     0.012 A 
ATOM     20  C   UNL     1      12.133 -47.870 -24.271  1.00  0.00     0.073 A 
ATOM     21  N   UNL     1      12.926 -48.445 -25.178  1.00  0.00    -0.252 NA
ATOM     22  C   UNL     1      14.647 -49.984 -25.860  1.00  0.00     0.056 C 
ATOM     23  C   UNL     1      15.579 -51.528 -24.151  1.00  0.00     0.005 C 
ATOM     24  C   UNL     1      10.507 -46.503 -22.417  1.00  0.00     0.001 A 
ATOM     25  C   UNL     1      11.551 -46.646 -24.580  1.00  0.00     0.029 A 
ATOM     26  C   UNL     1      15.225 -51.373 -25.621  1.00  0.00     0.007 C 
ATOM     27  C   UNL     1      10.744 -45.958 -23.670  1.00  0.00     0.002 A 
ENDBRANCH  12  14
ENDBRANCH  11  12
ENDBRANCH  10  11
ENDBRANCH   2  10
BRANCH   6  28
ATOM     28  C   UNL     1      10.807 -58.631 -22.172  1.00  0.00     0.161 C 
BRANCH  28  29
ATOM     29  C   UNL     1       9.402 -59.035 -22.627  1.00  0.00     0.272 C 
BRANCH  29  30
ATOM     30  N   UNL     1       9.353 -59.756 -23.968  1.00  0.00    -0.335 N 
ATOM     31  C   UNL     1       8.398 -59.111 -24.945  1.00  0.00     0.332 C 
ATOM     32  H   UNL     1      10.274 -59.517 -24.368  1.00  0.00     0.348 HD
BRANCH  30  33
ATOM     33  C   UNL     1       9.358 -61.285 -23.922  1.00  0.00     0.183 C 
ATOM     34  C   UNL     1       8.029 -61.801 -24.494  1.00  0.00     0.065 C 
ATOM     35  C   UNL     1       9.627 -61.833 -22.513  1.00  0.00     0.065 C 
ATOM     36  C   UNL     1       7.935 -63.322 -24.432  1.00  0.00     0.006 C 
ATOM     37  C   UNL     1       9.532 -63.358 -22.478  1.00  0.00     0.006 C 
ATOM     38  C   UNL     1       8.200 -63.857 -23.029  1.00  0.00     0.000 C 
ENDBRANCH  30  33
ENDBRANCH  29  30
ENDBRANCH  28  29
ENDBRANCH   6  28
TORSDOF 8
ENDMDL
MODEL 5
REMARK VINA RESULT:   -10.321      1.905      4.033
REMARK INTER + INTRA:         -15.840
REMARK INTER:                 -15.467
REMARK INTRA:                  -0.373
REMARK UNBOUND:                -0.692
REMARK SMILES C[N@@H+](CCC(=O)N1CC[NH+](CCNc2c3c(nc4ccccc24)CCCC3)CC1)C1CCCCC1
REMARK SMILES IDX 9 1 10 2 28 3 8 4 7 5 5 6 29 7 6 8 11 10 12 11 13 12 14 14
REMARK SMILES IDX 15 15 23 16 16 17 27 18 22 19 18 20 17 21 24 22 26 23 21 24
REMARK SMILES IDX 19 25 25 26 20 27 4 28 3 29 2 30 1 31 30 33 31 34 35 35
REMARK SMILES IDX 32 36 34 37 33 38
REMARK H PARENT 10 9 13 13 2 32
ROOT
ATOM      1  C   UNL     1       8.864 -57.186 -23.104  1.00  0.00     0.284 C 
ATOM      2  N   UNL     1      10.082 -58.003 -22.709  1.00  0.00    -0.331 N 
ATOM      3  C   UNL     1      11.351 -57.329 -23.200  1.00  0.00     0.284 C 
ATOM      4  C   UNL     1       8.973 -55.780 -22.487  1.00  0.00     0.181 C 
ATOM      5  N   UNL     1      10.231 -55.092 -22.838  1.00  0.00    -0.331 N 
ATOM      6  C   UNL     1      10.215 -53.700 -22.734  1.00  0.00     0.228 C 
ATOM      7  C   UNL     1      11.461 -55.885 -22.674  1.00  0.00     0.181 C 
ATOM      8  O   UNL     1       9.210 -53.093 -22.372  1.00  0.00    -0.275 OA
ATOM      9  H   UNL     1      10.120 -57.988 -21.681  1.00  0.00     0.348 HD
ENDROOT
BRANCH   2  10
ATOM     10  C   UNL     1       9.982 -59.486 -23.076  1.00  0.00     0.283 C 
BRANCH  10  11
ATOM     11  C   UNL     1      11.106 -60.380 -22.499  1.00  0.00     0.174 C 
BRANCH  11  12
ATOM     12  N   UNL     1      11.317 -61.557 -23.354  1.00  0.00    -0.379 N 
ATOM     13  H   UNL     1      11.068 -62.423 -22.862  1.00  0.00     0.160 HD
BRANCH  12  14
ATOM     14  C   UNL     1      10.651 -61.612 -24.614  1.00  0.00     0.049 A 
ATOM     15  C   UNL     1      11.052 -60.879 -25.750  1.00  0.00    -0.003 A 
ATOM     16  C   UNL     1       9.428 -62.347 -24.666  1.00  0.00     0.024 A 
ATOM     17  C   UNL     1      10.358 -61.112 -26.944  1.00  0.00     0.046 A 
ATOM     18  C   UNL     1      12.166 -59.856 -25.722  1.00  0.00     0.039 C 
ATOM     19  C   UNL     1       8.803 -62.926 -23.531  1.00  0.00     0.012 A 
ATOM     20  C   UNL     1       8.806 -62.499 -25.919  1.00  0.00     0.073 A 
ATOM     21  N   UNL     1       9.295 -61.946 -27.031  1.00  0.00    -0.252 NA
ATOM     22  C   UNL     1      10.668 -60.365 -28.220  1.00  0.00     0.056 C 
ATOM     23  C   UNL     1      12.151 -58.876 -26.894  1.00  0.00     0.005 C 
ATOM     24  C   UNL     1       7.614 -63.650 -23.638  1.00  0.00     0.001 A 
ATOM     25  C   UNL     1       7.632 -63.240 -26.009  1.00  0.00     0.029 A 
ATOM     26  C   UNL     1      12.005 -59.635 -28.203  1.00  0.00     0.007 C 
ATOM     27  C   UNL     1       7.031 -63.814 -24.886  1.00  0.00     0.002 A 
ENDBRANCH  12  14
ENDBRANCH  11  12
ENDBRANCH  10  11
ENDBRANCH   2  10
BRANCH   6  28
ATOM     28  C   UNL     1      11.449 -52.924 -23.165  1.00  0.00     0.161 C 
BRANCH  28  29
ATOM     29  C   UNL     1      11.750 -51.835 -22.131  1.00  0.00     0.272 C 
BRANCH  29  30
ATOM     30  N   UNL     1      12.761 -50.791 -22.587  1.00  0.00    -0.335 N 
ATOM     31  C   UNL     1      12.221 -49.382 -22.515  1.00  0.00     0.332 C 
ATOM     32  H   UNL     1      13.442 -50.806 -21.812  1.00  0.00     0.348 HD
BRANCH  30  33
ATOM     33  C   UNL     1      13.597 -51.143 -23.819  1.00  0.00     0.183 C 
ATOM     34  C   UNL     1      15.084 -51.089 -23.438  1.00  0.00     0.065 C 
ATOM     35  C   UNL     1      13.280 -50.247 -25.025  1.00  0.00     0.065 C 
ATOM     36  C   UNL     1      15.988 -51.378 -24.633  1.00  0.00     0.006 C 
ATOM     37  C   UNL     1      14.195 -50.557 -26.209  1.00  0.00     0.006 C 
ATOM     38  C   UNL     1      15.669 -50.480 -25.824  1.00  0.00     0.000 C 
ENDBRANCH  30  33
ENDBRANCH  29  30
ENDBRANCH  28  29
ENDBRANCH   6  28
TORSDOF 8
ENDMDL
MODEL 6
REMARK VINA RESULT:   -10.028      2.454     11.374
REMARK INTER + INTRA:         -15.411
REMARK INTER:                 -14.363
REMARK INTRA:                  -1.048
REMARK UNBOUND:                -0.692
REMARK SMILES C[N@@H+](CCC(=O)N1CC[NH+](CCNc2c3c(nc4ccccc24)CCCC3)CC1)C1CCCCC1
REMARK SMILES IDX 9 1 10 2 28 3 8 4 7 5 5 6 29 7 6 8 11 10 12 11 13 12 14 14
REMARK SMILES IDX 15 15 23 16 16 17 27 18 22 19 18 20 17 21 24 22 26 23 21 24
REMARK SMILES IDX 19 25 25 26 20 27 4 28 3 29 2 30 1 31 30 33 31 34 35 35
REMARK SMILES IDX 32 36 34 37 33 38
REMARK H PARENT 10 9 13 13 2 32
ROOT
ATOM      1  C   UNL     1      10.888 -53.925 -21.188  1.00  0.00     0.284 C 
ATOM      2  N   UNL     1       9.830 -53.469 -22.179  1.00  0.00    -0.331 N 
ATOM      3  C   UNL     1      10.053 -54.130 -23.528  1.00  0.00     0.284 C 
ATOM      4  C   UNL     1      10.814 -55.454 -21.033  1.00  0.00     0.181 C 
ATOM      5  N   UNL     1      10.923 -56.171 -22.318  1.00  0.00    -0.331 N 
ATOM      6  C   UNL     1      11.332 -57.503 -22.240  1.00  0.00     0.228 C 
ATOM      7  C   UNL     1      10.070 -55.666 -23.407  1.00  0.00     0.181 C 
ATOM      8  O   UNL     1      11.585 -58.039 -21.163  1.00  0.00    -0.275 OA
ATOM      9  H   UNL     1       8.931 -53.820 -21.824  1.00  0.00     0.348 HD
ENDROOT
BRANCH   2  10
ATOM     10  C   UNL     1       9.658 -51.950 -22.250  1.00  0.00     0.283 C 
BRANCH  10  11
ATOM     11  C   UNL     1      10.910 -51.131 -21.855  1.00  0.00     0.174 C 
BRANCH  11  12
ATOM     12  N   UNL     1      11.401 -50.354 -23.002  1.00  0.00    -0.379 N 
ATOM     13  H   UNL     1      11.000 -49.409 -23.009  1.00  0.00     0.160 HD
BRANCH  12  14
ATOM     14  C   UNL     1      12.808 -50.188 -23.160  1.00  0.00     0.049 A 
ATOM     15  C   UNL     1      13.536 -49.094 -22.647  1.00  0.00    -0.003 A 
ATOM     16  C   UNL     1      13.478 -51.122 -24.009  1.00  0.00     0.024 A 
ATOM     17  C   UNL     1      14.928 -49.119 -22.797  1.00  0.00     0.046 A 
ATOM     18  C   UNL     1      12.879 -47.909 -21.976  1.00  0.00     0.039 C 
ATOM     19  C   UNL     1      12.813 -52.119 -24.768  1.00  0.00     0.012 A 
ATOM     20  C   UNL     1      14.879 -51.039 -24.099  1.00  0.00     0.073 A 
ATOM     21  N   UNL     1      15.582 -50.101 -23.461  1.00  0.00    -0.252 NA
ATOM     22  C   UNL     1      15.814 -47.992 -22.323  1.00  0.00     0.056 C 
ATOM     23  C   UNL     1      13.758 -46.662 -21.898  1.00  0.00     0.005 C 
ATOM     24  C   UNL     1      13.515 -53.020 -25.571  1.00  0.00     0.001 A 
ATOM     25  C   UNL     1      15.563 -51.956 -24.889  1.00  0.00     0.029 A 
ATOM     26  C   UNL     1      15.132 -47.029 -21.359  1.00  0.00     0.007 C 
ATOM     27  C   UNL     1      14.899 -52.942 -25.624  1.00  0.00     0.002 A 
ENDBRANCH  12  14
ENDBRANCH  11  12
ENDBRANCH  10  11
ENDBRANCH   2  10
BRANCH   6  28
ATOM     28  C   UNL     1      11.550 -58.274 -23.533  1.00  0.00     0.161 C 
BRANCH  28  29
ATOM     29  C   UNL     1      12.002 -59.700 -23.203  1.00  0.00     0.272 C 
BRANCH  29  30
ATOM     30  N   UNL     1      11.956 -60.666 -24.380  1.00  0.00    -0.335 N 
ATOM     31  C   UNL     1      12.282 -60.001 -25.696  1.00  0.00     0.332 C 
ATOM     32  H   UNL     1      12.794 -61.243 -24.210  1.00  0.00     0.348 HD
BRANCH  30  33
ATOM     33  C   UNL     1      10.808 -61.678 -24.388  1.00  0.00     0.183 C 
ATOM     34  C   UNL     1       9.529 -60.970 -24.858  1.00  0.00     0.065 C 
ATOM     35  C   UNL     1      10.617 -62.365 -23.028  1.00  0.00     0.065 C 
ATOM     36  C   UNL     1       8.323 -61.904 -24.842  1.00  0.00     0.006 C 
ATOM     37  C   UNL     1       9.406 -63.298 -23.038  1.00  0.00     0.006 C 
ATOM     38  C   UNL     1       8.138 -62.578 -23.487  1.00  0.00     0.000 C 
ENDBRANCH  30  33
ENDBRANCH  29  30
ENDBRANCH  28  29
ENDBRANCH   6  28
TORSDOF 8
ENDMDL
MODEL 7
REMARK VINA RESULT:    -9.895      5.422      9.286
REMARK INTER + INTRA:         -15.215
REMARK INTER:                 -13.121
REMARK INTRA:                  -2.094
REMARK UNBOUND:                -0.692
REMARK SMILES C[N@@H+](CCC(=O)N1CC[NH+](CCNc2c3c(nc4ccccc24)CCCC3)CC1)C1CCCCC1
REMARK SMILES IDX 9 1 10 2 28 3 8 4 7 5 5 6 29 7 6 8 11 10 12 11 13 12 14 14
REMARK SMILES IDX 15 15 23 16 16 17 27 18 22 19 18 20 17 21 24 22 26 23 21 24
REMARK SMILES IDX 19 25 25 26 20 27 4 28 3 29 2 30 1 31 30 33 31 34 35 35
REMARK SMILES IDX 32 36 34 37 33 38
REMARK H PARENT 10 9 13 13 2 32
ROOT
ATOM      1  C   UNL     1      12.698 -46.329 -22.183  1.00  0.00     0.284 C 
ATOM      2  N   UNL     1      11.800 -47.142 -23.101  1.00  0.00    -0.331 N 
ATOM      3  C   UNL     1      11.598 -46.416 -24.418  1.00  0.00     0.284 C 
ATOM      4  C   UNL     1      14.059 -46.110 -22.867  1.00  0.00     0.181 C 
ATOM      5  N   UNL     1      13.942 -45.496 -24.203  1.00  0.00    -0.331 N 
ATOM      6  C   UNL     1      15.083 -44.847 -24.678  1.00  0.00     0.228 C 
ATOM      7  C   UNL     1      12.943 -46.101 -25.101  1.00  0.00     0.181 C 
ATOM      8  O   UNL     1      16.117 -44.794 -24.017  1.00  0.00    -0.275 OA
ATOM      9  H   UNL     1      12.314 -48.006 -23.316  1.00  0.00     0.348 HD
ENDROOT
BRANCH   2  10
ATOM     10  C   UNL     1      10.501 -47.612 -22.442  1.00  0.00     0.283 C 
BRANCH  10  11
ATOM     11  C   UNL     1      10.267 -49.142 -22.476  1.00  0.00     0.174 C 
BRANCH  11  12
ATOM     12  N   UNL     1      11.529 -49.861 -22.251  1.00  0.00    -0.379 N 
ATOM     13  H   UNL     1      11.630 -50.136 -21.267  1.00  0.00     0.160 HD
BRANCH  12  14
ATOM     14  C   UNL     1      11.790 -51.034 -23.018  1.00  0.00     0.049 A 
ATOM     15  C   UNL     1      11.364 -52.328 -22.650  1.00  0.00    -0.003 A 
ATOM     16  C   UNL     1      12.653 -50.890 -24.148  1.00  0.00     0.024 A 
ATOM     17  C   UNL     1      11.610 -53.368 -23.554  1.00  0.00     0.046 A 
ATOM     18  C   UNL     1      10.687 -52.629 -21.332  1.00  0.00     0.039 C 
ATOM     19  C   UNL     1      13.331 -49.688 -24.477  1.00  0.00     0.012 A 
ATOM     20  C   UNL     1      12.843 -52.011 -24.976  1.00  0.00     0.073 A 
ATOM     21  N   UNL     1      12.286 -53.196 -24.715  1.00  0.00    -0.252 NA
ATOM     22  C   UNL     1      11.235 -54.802 -23.261  1.00  0.00     0.056 C 
ATOM     23  C   UNL     1      10.711 -54.104 -20.934  1.00  0.00     0.005 C 
ATOM     24  C   UNL     1      14.152 -49.594 -25.602  1.00  0.00     0.001 A 
ATOM     25  C   UNL     1      13.649 -51.893 -26.103  1.00  0.00     0.029 A 
ATOM     26  C   UNL     1      10.258 -54.964 -22.103  1.00  0.00     0.007 C 
ATOM     27  C   UNL     1      14.304 -50.701 -26.423  1.00  0.00     0.002 A 
ENDBRANCH  12  14
ENDBRANCH  11  12
ENDBRANCH  10  11
ENDBRANCH   2  10
BRANCH   6  28
ATOM     28  C   UNL     1      15.003 -44.116 -26.010  1.00  0.00     0.161 C 
BRANCH  28  29
ATOM     29  C   UNL     1      15.989 -44.750 -26.995  1.00  0.00     0.272 C 
BRANCH  29  30
ATOM     30  N   UNL     1      16.065 -46.270 -26.925  1.00  0.00    -0.335 N 
ATOM     31  C   UNL     1      17.459 -46.773 -26.628  1.00  0.00     0.332 C 
ATOM     32  H   UNL     1      15.567 -46.464 -26.042  1.00  0.00     0.348 HD
BRANCH  30  33
ATOM     33  C   UNL     1      15.266 -47.043 -27.976  1.00  0.00     0.183 C 
ATOM     34  C   UNL     1      16.125 -48.208 -28.490  1.00  0.00     0.065 C 
ATOM     35  C   UNL     1      14.771 -46.146 -29.120  1.00  0.00     0.065 C 
ATOM     36  C   UNL     1      15.414 -48.998 -29.585  1.00  0.00     0.006 C 
ATOM     37  C   UNL     1      14.060 -46.959 -30.201  1.00  0.00     0.006 C 
ATOM     38  C   UNL     1      14.930 -48.100 -30.719  1.00  0.00     0.000 C 
ENDBRANCH  30  33
ENDBRANCH  29  30
ENDBRANCH  28  29
ENDBRANCH   6  28
TORSDOF 8
ENDMDL
MODEL 8
REMARK VINA RESULT:    -9.863      2.826     12.324
REMARK INTER + INTRA:         -15.168
REMARK INTER:                 -14.161
REMARK INTRA:                  -1.007
REMARK UNBOUND:                -0.692
REMARK SMILES C[N@@H+](CCC(=O)N1CC[NH+](CCNc2c3c(nc4ccccc24)CCCC3)CC1)C1CCCCC1
REMARK SMILES IDX 9 1 10 2 28 3 8 4 7 5 5 6 29 7 6 8 11 10 12 11 13 12 14 14
REMARK SMILES IDX 15 15 23 16 16 17 27 18 22 19 18 20 17 21 24 22 26 23 21 24
REMARK SMILES IDX 19 25 25 26 20 27 4 28 3 29 2 30 1 31 30 33 31 34 35 35
REMARK SMILES IDX 32 36 34 37 33 38
REMARK H PARENT 10 9 13 13 2 32
ROOT
ATOM      1  C   UNL     1      12.307 -51.799 -22.835  1.00  0.00     0.284 C 
ATOM      2  N   UNL     1      12.611 -51.825 -24.324  1.00  0.00    -0.331 N 
ATOM      3  C   UNL     1      12.774 -53.256 -24.803  1.00  0.00     0.284 C 
ATOM      4  C   UNL     1      11.010 -52.585 -22.567  1.00  0.00     0.181 C 
ATOM      5  N   UNL     1      11.052 -53.962 -23.093  1.00  0.00    -0.331 N 
ATOM      6  C   UNL     1      10.161 -54.865 -22.510  1.00  0.00     0.228 C 
ATOM      7  C   UNL     1      11.529 -54.104 -24.480  1.00  0.00     0.181 C 
ATOM      8  O   UNL     1       9.394 -54.525 -21.612  1.00  0.00    -0.275 OA
ATOM      9  H   UNL     1      11.777 -51.449 -24.795  1.00  0.00     0.348 HD
ENDROOT
BRANCH   2  10
ATOM     10  C   UNL     1      13.751 -50.893 -24.741  1.00  0.00     0.283 C 
BRANCH  10  11
ATOM     11  C   UNL     1      14.681 -50.442 -23.590  1.00  0.00     0.174 C 
BRANCH  11  12
ATOM     12  N   UNL     1      14.964 -49.002 -23.690  1.00  0.00    -0.379 N 
ATOM     13  H   UNL     1      14.711 -48.638 -24.615  1.00  0.00     0.160 HD
BRANCH  12  14
ATOM     14  C   UNL     1      14.363 -48.123 -22.741  1.00  0.00     0.049 A 
ATOM     15  C   UNL     1      13.100 -47.520 -22.916  1.00  0.00    -0.003 A 
ATOM     16  C   UNL     1      15.162 -47.734 -21.623  1.00  0.00     0.024 A 
ATOM     17  C   UNL     1      12.598 -46.759 -21.853  1.00  0.00     0.046 A 
ATOM     18  C   UNL     1      12.295 -47.644 -24.190  1.00  0.00     0.039 C 
ATOM     19  C   UNL     1      16.528 -48.086 -21.466  1.00  0.00     0.012 A 
ATOM     20  C   UNL     1      14.557 -46.950 -20.625  1.00  0.00     0.073 A 
ATOM     21  N   UNL     1      13.293 -46.529 -20.714  1.00  0.00    -0.252 NA
ATOM     22  C   UNL     1      11.275 -46.034 -21.929  1.00  0.00     0.056 C 
ATOM     23  C   UNL     1      11.204 -46.587 -24.351  1.00  0.00     0.005 C 
ATOM     24  C   UNL     1      17.263 -47.694 -20.346  1.00  0.00     0.001 A 
ATOM     25  C   UNL     1      15.299 -46.584 -19.507  1.00  0.00     0.029 A 
ATOM     26  C   UNL     1      10.382 -46.492 -23.076  1.00  0.00     0.007 C 
ATOM     27  C   UNL     1      16.641 -46.946 -19.357  1.00  0.00     0.002 A 
ENDBRANCH  12  14
ENDBRANCH  11  12
ENDBRANCH  10  11
ENDBRANCH   2  10
BRANCH   6  28
ATOM     28  C   UNL     1      10.213 -56.322 -22.944  1.00  0.00     0.161 C 
BRANCH  28  29
ATOM     29  C   UNL     1      11.311 -57.045 -22.159  1.00  0.00     0.272 C 
BRANCH  29  30
ATOM     30  N   UNL     1      11.980 -58.187 -22.913  1.00  0.00    -0.335 N 
ATOM     31  C   UNL     1      12.095 -57.921 -24.396  1.00  0.00     0.332 C 
ATOM     32  H   UNL     1      12.959 -58.103 -22.597  1.00  0.00     0.348 HD
BRANCH  30  33
ATOM     33  C   UNL     1      11.581 -59.605 -22.499  1.00  0.00     0.183 C 
ATOM     34  C   UNL     1      11.457 -60.471 -23.762  1.00  0.00     0.065 C 
ATOM     35  C   UNL     1      10.299 -59.635 -21.654  1.00  0.00     0.065 C 
ATOM     36  C   UNL     1      11.007 -61.892 -23.435  1.00  0.00     0.006 C 
ATOM     37  C   UNL     1       9.872 -61.068 -21.336  1.00  0.00     0.006 C 
ATOM     38  C   UNL     1       9.731 -61.912 -22.599  1.00  0.00     0.000 C 
ENDBRANCH  30  33
ENDBRANCH  29  30
ENDBRANCH  28  29
ENDBRANCH   6  28
TORSDOF 8
ENDMDL
MODEL 9
REMARK VINA RESULT:    -9.703      1.333      2.107
REMARK INTER + INTRA:         -14.933
REMARK INTER:                 -14.236
REMARK INTRA:                  -0.697
REMARK UNBOUND:                -0.692
REMARK SMILES C[N@@H+](CCC(=O)N1CC[NH+](CCNc2c3c(nc4ccccc24)CCCC3)CC1)C1CCCCC1
REMARK SMILES IDX 9 1 10 2 28 3 8 4 7 5 5 6 29 7 6 8 11 10 12 11 13 12 14 14
REMARK SMILES IDX 15 15 23 16 16 17 27 18 22 19 18 20 17 21 24 22 26 23 21 24
REMARK SMILES IDX 19 25 25 26 20 27 4 28 3 29 2 30 1 31 30 33 31 34 35 35
REMARK SMILES IDX 32 36 34 37 33 38
REMARK H PARENT 10 9 13 13 2 32
ROOT
ATOM      1  C   UNL     1       9.963 -54.750 -22.119  1.00  0.00     0.284 C 
ATOM      2  N   UNL     1      10.774 -55.760 -22.913  1.00  0.00    -0.331 N 
ATOM      3  C   UNL     1      11.290 -55.131 -24.194  1.00  0.00     0.284 C 
ATOM      4  C   UNL     1      10.852 -53.540 -21.778  1.00  0.00     0.181 C 
ATOM      5  N   UNL     1      11.474 -52.929 -22.967  1.00  0.00    -0.331 N 
ATOM      6  C   UNL     1      11.889 -51.604 -22.825  1.00  0.00     0.228 C 
ATOM      7  C   UNL     1      12.119 -53.864 -23.905  1.00  0.00     0.181 C 
ATOM      8  O   UNL     1      11.739 -50.990 -21.771  1.00  0.00    -0.275 OA
ATOM      9  H   UNL     1      11.599 -55.983 -22.340  1.00  0.00     0.348 HD
ENDROOT
BRANCH   2  10
ATOM     10  C   UNL     1      10.065 -57.102 -23.119  1.00  0.00     0.283 C 
BRANCH  10  11
ATOM     11  C   UNL     1      10.743 -58.311 -22.432  1.00  0.00     0.174 C 
BRANCH  11  12
ATOM     12  N   UNL     1      11.552 -59.067 -23.399  1.00  0.00    -0.379 N 
ATOM     13  H   UNL     1      12.292 -59.600 -22.927  1.00  0.00     0.160 HD
BRANCH  12  14
ATOM     14  C   UNL     1      10.893 -59.987 -24.266  1.00  0.00     0.049 A 
ATOM     15  C   UNL     1      10.128 -61.083 -23.817  1.00  0.00    -0.003 A 
ATOM     16  C   UNL     1      11.151 -59.855 -25.665  1.00  0.00     0.024 A 
ATOM     17  C   UNL     1       9.459 -61.841 -24.786  1.00  0.00     0.046 A 
ATOM     18  C   UNL     1      10.024 -61.476 -22.360  1.00  0.00     0.039 C 
ATOM     19  C   UNL     1      12.089 -58.942 -26.214  1.00  0.00     0.012 A 
ATOM     20  C   UNL     1      10.435 -60.685 -26.546  1.00  0.00     0.073 A 
ATOM     21  N   UNL     1       9.570 -61.607 -26.115  1.00  0.00    -0.252 NA
ATOM     22  C   UNL     1       8.638 -63.059 -24.437  1.00  0.00     0.056 C 
ATOM     23  C   UNL     1       9.539 -62.905 -22.126  1.00  0.00     0.005 C 
ATOM     24  C   UNL     1      12.293 -58.841 -27.592  1.00  0.00     0.001 A 
ATOM     25  C   UNL     1      10.638 -60.556 -27.915  1.00  0.00     0.029 A 
ATOM     26  C   UNL     1       8.294 -63.173 -22.957  1.00  0.00     0.007 C 
ATOM     27  C   UNL     1      11.556 -59.647 -28.446  1.00  0.00     0.002 A 
ENDBRANCH  12  14
ENDBRANCH  11  12
ENDBRANCH  10  11
ENDBRANCH   2  10
BRANCH   6  28
ATOM     28  C   UNL     1      12.458 -50.885 -24.039  1.00  0.00     0.161 C 
BRANCH  28  29
ATOM     29  C   UNL     1      13.539 -49.900 -23.584  1.00  0.00     0.272 C 
BRANCH  29  30
ATOM     30  N   UNL     1      13.287 -48.453 -23.990  1.00  0.00    -0.335 N 
ATOM     31  C   UNL     1      14.457 -47.839 -24.723  1.00  0.00     0.332 C 
ATOM     32  H   UNL     1      12.588 -48.564 -24.741  1.00  0.00     0.348 HD
BRANCH  30  33
ATOM     33  C   UNL     1      12.583 -47.568 -22.960  1.00  0.00     0.183 C 
ATOM     34  C   UNL     1      11.071 -47.601 -23.232  1.00  0.00     0.065 C 
ATOM     35  C   UNL     1      13.130 -46.133 -22.939  1.00  0.00     0.065 C 
ATOM     36  C   UNL     1      10.301 -46.696 -22.275  1.00  0.00     0.006 C 
ATOM     37  C   UNL     1      12.346 -45.248 -21.971  1.00  0.00     0.006 C 
ATOM     38  C   UNL     1      10.849 -45.273 -22.264  1.00  0.00     0.000 C 
ENDBRANCH  30  33
ENDBRANCH  29  30
ENDBRANCH  28  29
ENDBRANCH   6  28
TORSDOF 8
ENDMDL
