MODEL 1
REMARK VINA RESULT:    -9.807      0.000      0.000
REMARK INTER + INTRA:         -10.094
REMARK INTER:                 -10.094
REMARK INTRA:                   0.000
REMARK UNBOUND:                 0.000
REMARK SMILES CC1=C[C@@H]2Cc3nc4cc(Cl)ccc4c(N)c3[C@H](C1)C2
REMARK SMILES IDX 15 1 17 2 6 3 7 4 8 5 9 6 10 7 11 8 12 9 13 10 14 11 5 12
REMARK SMILES IDX 4 13 3 14 2 15 1 16 19 17 18 18 20 19 16 20
REMARK H PARENT 16 21 16 22
ROOT
ATOM      1  C   UNL     1      11.945 -56.548 -24.417  1.00  0.00     0.046 A 
ATOM      2  C   UNL     1      11.774 -57.730 -23.675  1.00  0.00     0.001 A 
ATOM      3  C   UNL     1      11.227 -57.624 -22.392  1.00  0.00     0.047 A 
ATOM      4  N   UNL     1      10.919 -56.436 -21.819  1.00  0.00    -0.252 NA
ATOM      5  C   UNL     1      11.140 -55.307 -22.503  1.00  0.00     0.074 A 
ATOM      6  C   UNL     1      10.839 -54.109 -21.874  1.00  0.00     0.049 A 
ATOM      7  C   UNL     1      11.058 -52.887 -22.503  1.00  0.00     0.043 A 
ATOM      8  Cl  UNL     1      10.674 -51.421 -21.688  1.00  0.00    -0.084 Cl
ATOM      9  C   UNL     1      11.590 -52.844 -23.782  1.00  0.00     0.021 A 
ATOM     10  C   UNL     1      11.897 -54.039 -24.433  1.00  0.00     0.014 A 
ATOM     11  C   UNL     1      11.672 -55.293 -23.811  1.00  0.00     0.024 A 
ATOM     12  C   UNL     1      10.990 -58.837 -21.520  1.00  0.00     0.064 C 
ATOM     13  C   UNL     1      11.104 -60.173 -22.269  1.00  0.00     0.018 C 
ATOM     14  C   UNL     1       9.858 -60.443 -23.086  1.00  0.00    -0.024 C 
ATOM     15  C   UNL     1       9.780 -60.200 -24.407  1.00  0.00    -0.076 C 
ATOM     16  C   UNL     1       8.545 -60.491 -25.206  1.00  0.00     0.039 C 
ATOM     17  C   UNL     1      10.943 -59.598 -25.173  1.00  0.00     0.039 C 
ATOM     18  C   UNL     1      12.096 -59.098 -24.269  1.00  0.00     0.028 C 
ATOM     19  C   UNL     1      12.349 -60.127 -23.161  1.00  0.00     0.017 C 
ENDROOT
BRANCH   1  20
ATOM     20  N   UNL     1      12.587 -56.635 -25.680  1.00  0.00    -0.398 N 
ATOM     21  H   UNL     1      13.304 -55.928 -25.808  1.00  0.00     0.156 HD
ATOM     22  H   UNL     1      12.992 -57.561 -25.803  1.00  0.00     0.156 HD
ENDBRANCH   1  20
TORSDOF 1
ENDMDL
MODEL 2
REMARK VINA RESULT:    -9.221      2.040      3.104
REMARK INTER + INTRA:          -9.491
REMARK INTER:                  -9.491
REMARK INTRA:                   0.000
REMARK UNBOUND:                 0.000
REMARK SMILES CC1=C[C@@H]2Cc3nc4cc(Cl)ccc4c(N)c3[C@H](C1)C2
REMARK SMILES IDX 15 1 17 2 6 3 7 4 8 5 9 6 10 7 11 8 12 9 13 10 14 11 5 12
REMARK SMILES IDX 4 13 3 14 2 15 1 16 19 17 18 18 20 19 16 20
REMARK H PARENT 16 21 16 22
ROOT
ATOM      1  C   UNL     1      11.018 -59.127 -23.392  1.00  0.00     0.046 A 
ATOM      2  C   UNL     1       9.972 -60.062 -23.302  1.00  0.00     0.001 A 
ATOM      3  C   UNL     1       8.668 -59.574 -23.163  1.00  0.00     0.047 A 
ATOM      4  N   UNL     1       8.384 -58.256 -23.046  1.00  0.00    -0.252 NA
ATOM      5  C   UNL     1       9.387 -57.370 -23.070  1.00  0.00     0.074 A 
ATOM      6  C   UNL     1       9.060 -56.030 -22.921  1.00  0.00     0.049 A 
ATOM      7  C   UNL     1      10.041 -55.044 -22.912  1.00  0.00     0.043 A 
ATOM      8  Cl  UNL     1       9.596 -53.392 -22.721  1.00  0.00    -0.084 Cl
ATOM      9  C   UNL     1      11.378 -55.385 -23.048  1.00  0.00     0.021 A 
ATOM     10  C   UNL     1      11.726 -56.726 -23.203  1.00  0.00     0.014 A 
ATOM     11  C   UNL     1      10.739 -57.744 -23.224  1.00  0.00     0.024 A 
ATOM     12  C   UNL     1       7.474 -60.499 -23.072  1.00  0.00     0.064 C 
ATOM     13  C   UNL     1       7.783 -61.954 -23.455  1.00  0.00     0.018 C 
ATOM     14  C   UNL     1       7.865 -62.111 -24.958  1.00  0.00    -0.024 C 
ATOM     15  C   UNL     1       9.031 -62.138 -25.630  1.00  0.00    -0.076 C 
ATOM     16  C   UNL     1       9.097 -62.314 -27.118  1.00  0.00     0.039 C 
ATOM     17  C   UNL     1      10.361 -61.975 -24.918  1.00  0.00     0.039 C 
ATOM     18  C   UNL     1      10.229 -61.561 -23.433  1.00  0.00     0.028 C 
ATOM     19  C   UNL     1       9.097 -62.366 -22.784  1.00  0.00     0.017 C 
ENDROOT
BRANCH   1  20
ATOM     20  N   UNL     1      12.351 -59.611 -23.438  1.00  0.00    -0.398 N 
ATOM     21  H   UNL     1      12.938 -59.223 -22.708  1.00  0.00     0.156 HD
ATOM     22  H   UNL     1      12.355 -60.629 -23.376  1.00  0.00     0.156 HD
ENDBRANCH   1  20
TORSDOF 1
ENDMDL
MODEL 3
REMARK VINA RESULT:    -8.938      4.216      7.290
REMARK INTER + INTRA:          -9.199
REMARK INTER:                  -9.199
REMARK INTRA:                   0.000
REMARK UNBOUND:                 0.000
REMARK SMILES CC1=C[C@@H]2Cc3nc4cc(Cl)ccc4c(N)c3[C@H](C1)C2
REMARK SMILES IDX 15 1 17 2 6 3 7 4 8 5 9 6 10 7 11 8 12 9 13 10 14 11 5 12
REMARK SMILES IDX 4 13 3 14 2 15 1 16 19 17 18 18 20 19 16 20
REMARK H PARENT 16 21 16 22
ROOT
ATOM      1  C   UNL     1       9.282 -61.609 -23.876  1.00  0.00     0.046 A 
ATOM      2  C   UNL     1      10.390 -60.744 -23.918  1.00  0.00     0.001 A 
ATOM      3  C   UNL     1      10.919 -60.418 -25.172  1.00  0.00     0.047 A 
ATOM      4  N   UNL     1      10.453 -60.948 -26.327  1.00  0.00    -0.252 NA
ATOM      5  C   UNL     1       9.439 -61.820 -26.281  1.00  0.00     0.074 A 
ATOM      6  C   UNL     1       9.007 -62.363 -27.482  1.00  0.00     0.049 A 
ATOM      7  C   UNL     1       7.974 -63.294 -27.524  1.00  0.00     0.043 A 
ATOM      8  Cl  UNL     1       7.469 -63.947 -29.034  1.00  0.00    -0.084 Cl
ATOM      9  C   UNL     1       7.353 -63.703 -26.355  1.00  0.00     0.021 A 
ATOM     10  C   UNL     1       7.770 -63.166 -25.137  1.00  0.00     0.014 A 
ATOM     11  C   UNL     1       8.815 -62.210 -25.076  1.00  0.00     0.024 A 
ATOM     12  C   UNL     1      12.099 -59.484 -25.323  1.00  0.00     0.064 C 
ATOM     13  C   UNL     1      12.445 -58.707 -24.044  1.00  0.00     0.018 C 
ATOM     14  C   UNL     1      11.486 -57.554 -23.836  1.00  0.00    -0.024 C 
ATOM     15  C   UNL     1      10.434 -57.619 -22.998  1.00  0.00    -0.076 C 
ATOM     16  C   UNL     1       9.503 -56.462 -22.788  1.00  0.00     0.039 C 
ATOM     17  C   UNL     1      10.115 -58.882 -22.221  1.00  0.00     0.039 C 
ATOM     18  C   UNL     1      10.954 -60.110 -22.650  1.00  0.00     0.028 C 
ATOM     19  C   UNL     1      12.409 -59.676 -22.859  1.00  0.00     0.017 C 
ENDROOT
BRANCH   1  20
ATOM     20  N   UNL     1       8.798 -62.021 -22.607  1.00  0.00    -0.398 N 
ATOM     21  H   UNL     1       7.926 -61.569 -22.351  1.00  0.00     0.156 HD
ATOM     22  H   UNL     1       8.677 -63.033 -22.591  1.00  0.00     0.156 HD
ENDBRANCH   1  20
TORSDOF 1
ENDMDL
MODEL 4
REMARK VINA RESULT:    -8.777      3.986      8.271
REMARK INTER + INTRA:          -9.034
REMARK INTER:                  -9.034
REMARK INTRA:                   0.000
REMARK UNBOUND:                 0.000
REMARK SMILES CC1=C[C@@H]2Cc3nc4cc(Cl)ccc4c(N)c3[C@H](C1)C2
REMARK SMILES IDX 15 1 17 2 6 3 7 4 8 5 9 6 10 7 11 8 12 9 13 10 14 11 5 12
REMARK SMILES IDX 4 13 3 14 2 15 1 16 19 17 18 18 20 19 16 20
REMARK H PARENT 16 21 16 22
ROOT
ATOM      1  C   UNL     1      11.956 -51.367 -22.089  1.00  0.00     0.046 A 
ATOM      2  C   UNL     1      12.852 -50.818 -23.023  1.00  0.00     0.001 A 
ATOM      3  C   UNL     1      13.009 -51.479 -24.246  1.00  0.00     0.047 A 
ATOM      4  N   UNL     1      12.389 -52.647 -24.536  1.00  0.00    -0.252 NA
ATOM      5  C   UNL     1      11.583 -53.201 -23.622  1.00  0.00     0.074 A 
ATOM      6  C   UNL     1      10.987 -54.411 -23.943  1.00  0.00     0.049 A 
ATOM      7  C   UNL     1      10.153 -55.068 -23.044  1.00  0.00     0.043 A 
ATOM      8  Cl  UNL     1       9.434 -56.569 -23.479  1.00  0.00    -0.084 Cl
ATOM      9  C   UNL     1       9.904 -54.522 -21.795  1.00  0.00     0.021 A 
ATOM     10  C   UNL     1      10.491 -53.303 -21.454  1.00  0.00     0.014 A 
ATOM     11  C   UNL     1      11.336 -52.616 -22.361  1.00  0.00     0.024 A 
ATOM     12  C   UNL     1      13.938 -50.961 -25.322  1.00  0.00     0.064 C 
ATOM     13  C   UNL     1      14.429 -49.526 -25.081  1.00  0.00     0.018 C 
ATOM     14  C   UNL     1      13.356 -48.520 -25.441  1.00  0.00    -0.024 C 
ATOM     15  C   UNL     1      12.556 -47.942 -24.525  1.00  0.00    -0.076 C 
ATOM     16  C   UNL     1      11.510 -46.933 -24.894  1.00  0.00     0.039 C 
ATOM     17  C   UNL     1      12.655 -48.292 -23.052  1.00  0.00     0.039 C 
ATOM     18  C   UNL     1      13.575 -49.501 -22.756  1.00  0.00     0.028 C 
ATOM     19  C   UNL     1      14.841 -49.391 -23.613  1.00  0.00     0.017 C 
ENDROOT
BRANCH   1  20
ATOM     20  N   UNL     1      11.861 -50.758 -20.811  1.00  0.00    -0.398 N 
ATOM     21  H   UNL     1      10.925 -50.425 -20.600  1.00  0.00     0.156 HD
ATOM     22  H   UNL     1      12.162 -51.411 -20.089  1.00  0.00     0.156 HD
ENDBRANCH   1  20
TORSDOF 1
ENDMDL
MODEL 5
REMARK VINA RESULT:    -8.479      4.259      8.697
REMARK INTER + INTRA:          -8.727
REMARK INTER:                  -8.727
REMARK INTRA:                   0.000
REMARK UNBOUND:                 0.000
REMARK SMILES CC1=C[C@@H]2Cc3nc4cc(Cl)ccc4c(N)c3[C@H](C1)C2
REMARK SMILES IDX 15 1 17 2 6 3 7 4 8 5 9 6 10 7 11 8 12 9 13 10 14 11 5 12
REMARK SMILES IDX 4 13 3 14 2 15 1 16 19 17 18 18 20 19 16 20
REMARK H PARENT 16 21 16 22
ROOT
ATOM      1  C   UNL     1      13.205 -51.394 -25.160  1.00  0.00     0.046 A 
ATOM      2  C   UNL     1      13.052 -50.115 -24.596  1.00  0.00     0.001 A 
ATOM      3  C   UNL     1      12.313 -50.005 -23.413  1.00  0.00     0.047 A 
ATOM      4  N   UNL     1      11.692 -51.059 -22.834  1.00  0.00    -0.252 NA
ATOM      5  C   UNL     1      11.787 -52.266 -23.405  1.00  0.00     0.074 A 
ATOM      6  C   UNL     1      11.115 -53.316 -22.798  1.00  0.00     0.049 A 
ATOM      7  C   UNL     1      11.141 -54.598 -23.337  1.00  0.00     0.043 A 
ATOM      8  Cl  UNL     1      10.291 -55.875 -22.555  1.00  0.00    -0.084 Cl
ATOM      9  C   UNL     1      11.842 -54.852 -24.505  1.00  0.00     0.021 A 
ATOM     10  C   UNL     1      12.527 -53.810 -25.129  1.00  0.00     0.014 A 
ATOM     11  C   UNL     1      12.520 -52.499 -24.589  1.00  0.00     0.024 A 
ATOM     12  C   UNL     1      12.104 -48.676 -22.721  1.00  0.00     0.064 C 
ATOM     13  C   UNL     1      13.012 -47.553 -23.244  1.00  0.00     0.018 C 
ATOM     14  C   UNL     1      14.414 -47.689 -22.688  1.00  0.00    -0.024 C 
ATOM     15  C   UNL     1      15.426 -48.244 -23.380  1.00  0.00    -0.076 C 
ATOM     16  C   UNL     1      16.814 -48.354 -22.823  1.00  0.00     0.039 C 
ATOM     17  C   UNL     1      15.219 -48.812 -24.771  1.00  0.00     0.039 C 
ATOM     18  C   UNL     1      13.734 -48.890 -25.200  1.00  0.00     0.028 C 
ATOM     19  C   UNL     1      13.018 -47.603 -24.775  1.00  0.00     0.017 C 
ENDROOT
BRANCH   1  20
ATOM     20  N   UNL     1      13.871 -51.503 -26.409  1.00  0.00    -0.398 N 
ATOM     21  H   UNL     1      14.820 -51.143 -26.383  1.00  0.00     0.156 HD
ATOM     22  H   UNL     1      13.882 -52.474 -26.715  1.00  0.00     0.156 HD
ENDBRANCH   1  20
TORSDOF 1
ENDMDL
MODEL 6
REMARK VINA RESULT:    -8.250      4.741      9.376
REMARK INTER + INTRA:          -8.491
REMARK INTER:                  -8.491
REMARK INTRA:                   0.000
REMARK UNBOUND:                 0.000
REMARK SMILES CC1=C[C@@H]2Cc3nc4cc(Cl)ccc4c(N)c3[C@H](C1)C2
REMARK SMILES IDX 15 1 17 2 6 3 7 4 8 5 9 6 10 7 11 8 12 9 13 10 14 11 5 12
REMARK SMILES IDX 4 13 3 14 2 15 1 16 19 17 18 18 20 19 16 20
REMARK H PARENT 16 21 16 22
ROOT
ATOM      1  C   UNL     1      12.251 -50.744 -22.790  1.00  0.00     0.046 A 
ATOM      2  C   UNL     1      13.015 -49.613 -23.128  1.00  0.00     0.001 A 
ATOM      3  C   UNL     1      13.714 -49.634 -24.340  1.00  0.00     0.047 A 
ATOM      4  N   UNL     1      13.735 -50.712 -25.159  1.00  0.00    -0.252 NA
ATOM      5  C   UNL     1      13.056 -51.810 -24.806  1.00  0.00     0.074 A 
ATOM      6  C   UNL     1      13.123 -52.903 -25.656  1.00  0.00     0.049 A 
ATOM      7  C   UNL     1      12.468 -54.094 -25.356  1.00  0.00     0.043 A 
ATOM      8  Cl  UNL     1      12.578 -55.429 -26.436  1.00  0.00    -0.084 Cl
ATOM      9  C   UNL     1      11.731 -54.211 -24.189  1.00  0.00     0.021 A 
ATOM     10  C   UNL     1      11.648 -53.122 -23.322  1.00  0.00     0.014 A 
ATOM     11  C   UNL     1      12.302 -51.899 -23.616  1.00  0.00     0.024 A 
ATOM     12  C   UNL     1      14.552 -48.461 -24.799  1.00  0.00     0.064 C 
ATOM     13  C   UNL     1      14.315 -47.174 -23.995  1.00  0.00     0.018 C 
ATOM     14  C   UNL     1      13.030 -46.498 -24.423  1.00  0.00    -0.024 C 
ATOM     15  C   UNL     1      11.874 -46.624 -23.744  1.00  0.00    -0.076 C 
ATOM     16  C   UNL     1      10.613 -45.933 -24.169  1.00  0.00     0.039 C 
ATOM     17  C   UNL     1      11.773 -47.494 -22.505  1.00  0.00     0.039 C 
ATOM     18  C   UNL     1      13.026 -48.366 -22.248  1.00  0.00     0.028 C 
ATOM     19  C   UNL     1      14.284 -47.529 -22.506  1.00  0.00     0.017 C 
ENDROOT
BRANCH   1  20
ATOM     20  N   UNL     1      11.616 -50.772 -21.521  1.00  0.00    -0.398 N 
ATOM     21  H   UNL     1      12.000 -51.479 -20.902  1.00  0.00     0.156 HD
ATOM     22  H   UNL     1      11.682 -49.856 -21.077  1.00  0.00     0.156 HD
ENDBRANCH   1  20
TORSDOF 1
ENDMDL
MODEL 7
REMARK VINA RESULT:    -8.232      7.129      9.177
REMARK INTER + INTRA:          -8.473
REMARK INTER:                  -8.473
REMARK INTRA:                   0.000
REMARK UNBOUND:                 0.000
REMARK SMILES CC1=C[C@@H]2Cc3nc4cc(Cl)ccc4c(N)c3[C@H](C1)C2
REMARK SMILES IDX 15 1 17 2 6 3 7 4 8 5 9 6 10 7 11 8 12 9 13 10 14 11 5 12
REMARK SMILES IDX 4 13 3 14 2 15 1 16 19 17 18 18 20 19 16 20
REMARK H PARENT 16 21 16 22
ROOT
ATOM      1  C   UNL     1      11.771 -49.053 -23.103  1.00  0.00     0.046 A 
ATOM      2  C   UNL     1      12.572 -49.631 -24.104  1.00  0.00     0.001 A 
ATOM      3  C   UNL     1      13.145 -48.781 -25.056  1.00  0.00     0.047 A 
ATOM      4  N   UNL     1      12.909 -47.448 -25.089  1.00  0.00    -0.252 NA
ATOM      5  C   UNL     1      12.096 -46.908 -24.172  1.00  0.00     0.074 A 
ATOM      6  C   UNL     1      11.856 -45.545 -24.254  1.00  0.00     0.049 A 
ATOM      7  C   UNL     1      11.008 -44.905 -23.357  1.00  0.00     0.043 A 
ATOM      8  Cl  UNL     1      10.733 -43.212 -23.493  1.00  0.00    -0.084 Cl
ATOM      9  C   UNL     1      10.376 -45.626 -22.356  1.00  0.00     0.021 A 
ATOM     10  C   UNL     1      10.608 -46.998 -22.254  1.00  0.00     0.014 A 
ATOM     11  C   UNL     1      11.476 -47.664 -23.155  1.00  0.00     0.024 A 
ATOM     12  C   UNL     1      14.033 -49.303 -26.163  1.00  0.00     0.064 C 
ATOM     13  C   UNL     1      14.488 -50.756 -25.962  1.00  0.00     0.018 C 
ATOM     14  C   UNL     1      15.608 -50.837 -24.946  1.00  0.00    -0.024 C 
ATOM     15  C   UNL     1      15.406 -51.174 -23.659  1.00  0.00    -0.076 C 
ATOM     16  C   UNL     1      16.528 -51.268 -22.668  1.00  0.00     0.039 C 
ATOM     17  C   UNL     1      14.017 -51.467 -23.123  1.00  0.00     0.039 C 
ATOM     18  C   UNL     1      12.879 -51.126 -24.115  1.00  0.00     0.028 C 
ATOM     19  C   UNL     1      13.281 -51.589 -25.520  1.00  0.00     0.017 C 
ENDROOT
BRANCH   1  20
ATOM     20  N   UNL     1      11.108 -49.916 -22.191  1.00  0.00    -0.398 N 
ATOM     21  H   UNL     1      11.434 -50.875 -22.247  1.00  0.00     0.156 HD
ATOM     22  H   UNL     1      11.222 -49.570 -21.239  1.00  0.00     0.156 HD
ENDBRANCH   1  20
TORSDOF 1
ENDMDL
MODEL 8
REMARK VINA RESULT:    -7.981      5.497     10.149
REMARK INTER + INTRA:          -8.214
REMARK INTER:                  -8.214
REMARK INTRA:                   0.000
REMARK UNBOUND:                 0.000
REMARK SMILES CC1=C[C@@H]2Cc3nc4cc(Cl)ccc4c(N)c3[C@H](C1)C2
REMARK SMILES IDX 15 1 17 2 6 3 7 4 8 5 9 6 10 7 11 8 12 9 13 10 14 11 5 12
REMARK SMILES IDX 4 13 3 14 2 15 1 16 19 17 18 18 20 19 16 20
REMARK H PARENT 16 21 16 22
ROOT
ATOM      1  C   UNL     1      12.583 -49.374 -23.915  1.00  0.00     0.046 A 
ATOM      2  C   UNL     1      11.986 -48.134 -23.624  1.00  0.00     0.001 A 
ATOM      3  C   UNL     1      10.883 -48.125 -22.763  1.00  0.00     0.047 A 
ATOM      4  N   UNL     1      10.335 -49.255 -22.257  1.00  0.00    -0.252 NA
ATOM      5  C   UNL     1      10.867 -50.439 -22.584  1.00  0.00     0.074 A 
ATOM      6  C   UNL     1      10.262 -51.575 -22.069  1.00  0.00     0.049 A 
ATOM      7  C   UNL     1      10.735 -52.848 -22.374  1.00  0.00     0.043 A 
ATOM      8  Cl  UNL     1       9.955 -54.234 -21.717  1.00  0.00    -0.084 Cl
ATOM      9  C   UNL     1      11.828 -53.005 -23.212  1.00  0.00     0.021 A 
ATOM     10  C   UNL     1      12.452 -51.874 -23.737  1.00  0.00     0.014 A 
ATOM     11  C   UNL     1      11.990 -50.570 -23.429  1.00  0.00     0.024 A 
ATOM     12  C   UNL     1      10.180 -46.842 -22.378  1.00  0.00     0.064 C 
ATOM     13  C   UNL     1      10.958 -45.571 -22.751  1.00  0.00     0.018 C 
ATOM     14  C   UNL     1      12.083 -45.318 -21.770  1.00  0.00    -0.024 C 
ATOM     15  C   UNL     1      13.362 -45.657 -22.018  1.00  0.00    -0.076 C 
ATOM     16  C   UNL     1      14.469 -45.382 -21.044  1.00  0.00     0.039 C 
ATOM     17  C   UNL     1      13.762 -46.356 -23.303  1.00  0.00     0.039 C 
ATOM     18  C   UNL     1      12.562 -46.827 -24.160  1.00  0.00     0.028 C 
ATOM     19  C   UNL     1      11.494 -45.728 -24.177  1.00  0.00     0.017 C 
ENDROOT
BRANCH   1  20
ATOM     20  N   UNL     1      13.641 -49.405 -24.860  1.00  0.00    -0.398 N 
ATOM     21  H   UNL     1      14.403 -48.778 -24.622  1.00  0.00     0.156 HD
ATOM     22  H   UNL     1      13.996 -50.355 -24.955  1.00  0.00     0.156 HD
ENDBRANCH   1  20
TORSDOF 1
ENDMDL
MODEL 9
REMARK VINA RESULT:    -7.966      4.688      6.258
REMARK INTER + INTRA:          -8.199
REMARK INTER:                  -8.199
REMARK INTRA:                   0.000
REMARK UNBOUND:                 0.000
REMARK SMILES CC1=C[C@@H]2Cc3nc4cc(Cl)ccc4c(N)c3[C@H](C1)C2
REMARK SMILES IDX 15 1 17 2 6 3 7 4 8 5 9 6 10 7 11 8 12 9 13 10 14 11 5 12
REMARK SMILES IDX 4 13 3 14 2 15 1 16 19 17 18 18 20 19 16 20
REMARK H PARENT 16 21 16 22
ROOT
ATOM      1  C   UNL     1       9.328 -61.688 -26.327  1.00  0.00     0.046 A 
ATOM      2  C   UNL     1       9.615 -61.409 -24.979  1.00  0.00     0.001 A 
ATOM      3  C   UNL     1      10.552 -60.408 -24.704  1.00  0.00     0.047 A 
ATOM      4  N   UNL     1      11.234 -59.751 -25.672  1.00  0.00    -0.252 NA
ATOM      5  C   UNL     1      11.004 -60.061 -26.954  1.00  0.00     0.074 A 
ATOM      6  C   UNL     1      11.741 -59.387 -27.916  1.00  0.00     0.049 A 
ATOM      7  C   UNL     1      11.583 -59.662 -29.271  1.00  0.00     0.043 A 
ATOM      8  Cl  UNL     1      12.518 -58.806 -30.435  1.00  0.00    -0.084 Cl
ATOM      9  C   UNL     1      10.681 -60.628 -29.688  1.00  0.00     0.021 A 
ATOM     10  C   UNL     1       9.928 -61.314 -28.735  1.00  0.00     0.014 A 
ATOM     11  C   UNL     1      10.069 -61.040 -27.352  1.00  0.00     0.024 A 
ATOM     12  C   UNL     1      10.919 -60.024 -23.287  1.00  0.00     0.064 C 
ATOM     13  C   UNL     1       9.967 -60.590 -22.223  1.00  0.00     0.018 C 
ATOM     14  C   UNL     1       8.681 -59.793 -22.169  1.00  0.00    -0.024 C 
ATOM     15  C   UNL     1       7.547 -60.189 -22.777  1.00  0.00    -0.076 C 
ATOM     16  C   UNL     1       6.275 -59.398 -22.698  1.00  0.00     0.039 C 
ATOM     17  C   UNL     1       7.491 -61.463 -23.598  1.00  0.00     0.039 C 
ATOM     18  C   UNL     1       8.874 -62.111 -23.845  1.00  0.00     0.028 C 
ATOM     19  C   UNL     1       9.692 -62.061 -22.549  1.00  0.00     0.017 C 
ENDROOT
BRANCH   1  20
ATOM     20  N   UNL     1       8.450 -62.764 -26.619  1.00  0.00    -0.398 N 
ATOM     21  H   UNL     1       8.886 -63.673 -26.501  1.00  0.00     0.156 HD
ATOM     22  H   UNL     1       7.618 -62.705 -26.033  1.00  0.00     0.156 HD
ENDBRANCH   1  20
TORSDOF 1
ENDMDL
