MODEL 1
REMARK VINA RESULT:   -11.613      0.000      0.000
REMARK INTER + INTRA:         -16.337
REMARK INTER:                 -15.686
REMARK INTRA:                  -0.651
REMARK UNBOUND:                -0.651
REMARK SMILES COc1cc2c(cc1OC)C(=O)[C@@H](C[C@H]1CC[N@@H+](Cc3ccccc3)CC1)C2
REMARK SMILES IDX 14 1 15 2 17 3 18 4 16 5 26 6 27 7 19 9 20 10 21 11 25 12
REMARK SMILES IDX 22 13 24 14 23 15 13 16 11 17 28 18 6 19 5 20 7 21 4 22 8 23
REMARK SMILES IDX 3 24 12 25 9 26 10 27 2 28 1 29
REMARK H PARENT 18 8
ROOT
ATOM      1  C   UNL     1      11.453 -56.515 -23.419  1.00  0.00     0.016 C 
ENDROOT
BRANCH   1   2
ATOM      2  C   UNL     1      10.619 -57.296 -22.369  1.00  0.00     0.001 C 
ATOM      3  C   UNL     1       9.768 -59.182 -23.890  1.00  0.00     0.262 C 
ATOM      4  N   UNL     1      10.536 -60.169 -23.049  1.00  0.00    -0.331 N 
ATOM      5  C   UNL     1       9.400 -57.964 -23.044  1.00  0.00     0.065 C 
ATOM      6  C   UNL     1      11.788 -59.560 -22.461  1.00  0.00     0.262 C 
ATOM      7  C   UNL     1      11.384 -58.375 -21.588  1.00  0.00     0.065 C 
ATOM      8  H   UNL     1       9.936 -60.413 -22.253  1.00  0.00     0.348 HD
BRANCH   4   9
ATOM      9  C   UNL     1      10.792 -61.491 -23.750  1.00  0.00     0.299 C 
BRANCH   9  10
ATOM     10  C   UNL     1       9.580 -62.332 -24.042  1.00  0.00     0.006 A 
ATOM     11  C   UNL     1       9.013 -63.137 -23.041  1.00  0.00     0.009 A 
ATOM     12  C   UNL     1       8.988 -62.325 -25.316  1.00  0.00     0.009 A 
ATOM     13  C   UNL     1       7.876 -63.903 -23.303  1.00  0.00     0.001 A 
ATOM     14  C   UNL     1       7.849 -63.091 -25.573  1.00  0.00     0.001 A 
ATOM     15  C   UNL     1       7.294 -63.877 -24.567  1.00  0.00     0.000 A 
ENDBRANCH   9  10
ENDBRANCH   4   9
ENDBRANCH   1   2
BRANCH   1  16
ATOM     16  C   UNL     1      11.080 -55.061 -23.741  1.00  0.00     0.066 C 
ATOM     17  C   UNL     1      12.008 -54.381 -24.728  1.00  0.00     0.166 C 
ATOM     18  C   UNL     1      10.998 -54.082 -22.550  1.00  0.00     0.048 C 
ATOM     19  C   UNL     1      12.183 -52.992 -24.332  1.00  0.00     0.025 A 
ATOM     20  C   UNL     1      11.584 -52.813 -23.094  1.00  0.00    -0.033 A 
ATOM     21  C   UNL     1      12.840 -51.981 -24.999  1.00  0.00     0.062 A 
ATOM     22  C   UNL     1      11.633 -51.571 -22.476  1.00  0.00     0.055 A 
ATOM     23  C   UNL     1      12.874 -50.719 -24.397  1.00  0.00     0.161 A 
ATOM     24  C   UNL     1      12.288 -50.507 -23.122  1.00  0.00     0.161 A 
ATOM     25  O   UNL     1      12.551 -54.903 -25.687  1.00  0.00    -0.294 OA
BRANCH  23  26
ATOM     26  O   UNL     1      13.568 -49.786 -25.129  1.00  0.00    -0.493 OA
ATOM     27  C   UNL     1      14.071 -50.239 -26.383  1.00  0.00     0.278 C 
ENDBRANCH  23  26
BRANCH  24  28
ATOM     28  O   UNL     1      12.436 -49.263 -22.568  1.00  0.00    -0.493 OA
ATOM     29  C   UNL     1      11.378 -48.326 -22.722  1.00  0.00     0.278 C 
ENDBRANCH  24  28
ENDBRANCH   1  16
TORSDOF 6
ENDMDL
MODEL 2
REMARK VINA RESULT:   -10.591      1.321      2.581
REMARK INTER + INTRA:         -14.957
REMARK INTER:                 -14.299
REMARK INTRA:                  -0.658
REMARK UNBOUND:                -0.651
REMARK SMILES COc1cc2c(cc1OC)C(=O)[C@@H](C[C@H]1CC[N@@H+](Cc3ccccc3)CC1)C2
REMARK SMILES IDX 14 1 15 2 17 3 18 4 16 5 26 6 27 7 19 9 20 10 21 11 25 12
REMARK SMILES IDX 22 13 24 14 23 15 13 16 11 17 28 18 6 19 5 20 7 21 4 22 8 23
REMARK SMILES IDX 3 24 12 25 9 26 10 27 2 28 1 29
REMARK H PARENT 18 8
ROOT
ATOM      1  C   UNL     1       9.931 -56.008 -23.459  1.00  0.00     0.016 C 
ENDROOT
BRANCH   1   2
ATOM      2  C   UNL     1       9.772 -57.226 -22.511  1.00  0.00     0.001 C 
ATOM      3  C   UNL     1       9.163 -58.996 -24.270  1.00  0.00     0.262 C 
ATOM      4  N   UNL     1      10.435 -59.730 -23.931  1.00  0.00    -0.331 N 
ATOM      5  C   UNL     1       8.697 -58.192 -23.058  1.00  0.00     0.065 C 
ATOM      6  C   UNL     1      11.534 -58.790 -23.490  1.00  0.00     0.262 C 
ATOM      7  C   UNL     1      11.053 -58.034 -22.253  1.00  0.00     0.065 C 
ATOM      8  H   UNL     1      10.228 -60.327 -23.122  1.00  0.00     0.348 HD
BRANCH   4   9
ATOM      9  C   UNL     1      10.882 -60.698 -25.012  1.00  0.00     0.299 C 
BRANCH   9  10
ATOM     10  C   UNL     1       9.807 -61.560 -25.616  1.00  0.00     0.006 A 
ATOM     11  C   UNL     1       9.623 -61.598 -27.007  1.00  0.00     0.009 A 
ATOM     12  C   UNL     1       8.974 -62.347 -24.804  1.00  0.00     0.009 A 
ATOM     13  C   UNL     1       8.640 -62.412 -27.572  1.00  0.00     0.001 A 
ATOM     14  C   UNL     1       7.995 -63.162 -25.374  1.00  0.00     0.001 A 
ATOM     15  C   UNL     1       7.829 -63.196 -26.756  1.00  0.00     0.000 A 
ENDBRANCH   9  10
ENDBRANCH   4   9
ENDBRANCH   1   2
BRANCH   1  16
ATOM     16  C   UNL     1      11.075 -55.014 -23.217  1.00  0.00     0.066 C 
ATOM     17  C   UNL     1      10.670 -53.769 -22.453  1.00  0.00     0.166 C 
ATOM     18  C   UNL     1      11.812 -54.480 -24.464  1.00  0.00     0.048 C 
ATOM     19  C   UNL     1      11.391 -52.627 -22.996  1.00  0.00     0.025 A 
ATOM     20  C   UNL     1      12.065 -53.039 -24.136  1.00  0.00    -0.033 A 
ATOM     21  C   UNL     1      11.423 -51.328 -22.535  1.00  0.00     0.062 A 
ATOM     22  C   UNL     1      12.813 -52.124 -24.864  1.00  0.00     0.055 A 
ATOM     23  C   UNL     1      12.194 -50.404 -23.247  1.00  0.00     0.161 A 
ATOM     24  C   UNL     1      12.880 -50.788 -24.428  1.00  0.00     0.161 A 
ATOM     25  O   UNL     1       9.855 -53.709 -21.548  1.00  0.00    -0.294 OA
BRANCH  23  26
ATOM     26  O   UNL     1      12.146 -49.136 -22.721  1.00  0.00    -0.493 OA
ATOM     27  C   UNL     1      10.887 -48.475 -22.825  1.00  0.00     0.278 C 
ENDBRANCH  23  26
BRANCH  24  28
ATOM     28  O   UNL     1      13.546 -49.804 -25.109  1.00  0.00    -0.493 OA
ATOM     29  C   UNL     1      14.125 -50.128 -26.367  1.00  0.00     0.278 C 
ENDBRANCH  24  28
ENDBRANCH   1  16
TORSDOF 6
ENDMDL
MODEL 3
REMARK VINA RESULT:   -10.409      1.331      2.383
REMARK INTER + INTRA:         -14.711
REMARK INTER:                 -14.038
REMARK INTRA:                  -0.673
REMARK UNBOUND:                -0.651
REMARK SMILES COc1cc2c(cc1OC)C(=O)[C@@H](C[C@H]1CC[N@@H+](Cc3ccccc3)CC1)C2
REMARK SMILES IDX 14 1 15 2 17 3 18 4 16 5 26 6 27 7 19 9 20 10 21 11 25 12
REMARK SMILES IDX 22 13 24 14 23 15 13 16 11 17 28 18 6 19 5 20 7 21 4 22 8 23
REMARK SMILES IDX 3 24 12 25 9 26 10 27 2 28 1 29
REMARK H PARENT 18 8
ROOT
ATOM      1  C   UNL     1      10.379 -55.280 -23.523  1.00  0.00     0.016 C 
ENDROOT
BRANCH   1   2
ATOM      2  C   UNL     1      10.084 -56.313 -22.404  1.00  0.00     0.001 C 
ATOM      3  C   UNL     1       9.158 -58.206 -23.873  1.00  0.00     0.262 C 
ATOM      4  N   UNL     1      10.324 -59.064 -23.453  1.00  0.00    -0.331 N 
ATOM      5  C   UNL     1       8.860 -57.177 -22.784  1.00  0.00     0.065 C 
ATOM      6  C   UNL     1      11.562 -58.243 -23.174  1.00  0.00     0.262 C 
ATOM      7  C   UNL     1      11.244 -57.257 -22.053  1.00  0.00     0.065 C 
ATOM      8  H   UNL     1      10.065 -59.503 -22.561  1.00  0.00     0.348 HD
BRANCH   4   9
ATOM      9  C   UNL     1      10.584 -60.232 -24.387  1.00  0.00     0.299 C 
BRANCH   9  10
ATOM     10  C   UNL     1       9.824 -61.497 -24.096  1.00  0.00     0.006 A 
ATOM     11  C   UNL     1      10.179 -62.305 -23.004  1.00  0.00     0.009 A 
ATOM     12  C   UNL     1       8.744 -61.890 -24.903  1.00  0.00     0.009 A 
ATOM     13  C   UNL     1       9.463 -63.469 -22.719  1.00  0.00     0.001 A 
ATOM     14  C   UNL     1       8.029 -63.053 -24.612  1.00  0.00     0.001 A 
ATOM     15  C   UNL     1       8.387 -63.841 -23.522  1.00  0.00     0.000 A 
ENDBRANCH   9  10
ENDBRANCH   4   9
ENDBRANCH   1   2
BRANCH   1  16
ATOM     16  C   UNL     1      11.496 -54.248 -23.315  1.00  0.00     0.066 C 
ATOM     17  C   UNL     1      11.076 -53.021 -22.532  1.00  0.00     0.166 C 
ATOM     18  C   UNL     1      12.171 -53.685 -24.584  1.00  0.00     0.048 C 
ATOM     19  C   UNL     1      11.739 -51.853 -23.094  1.00  0.00     0.025 A 
ATOM     20  C   UNL     1      12.387 -52.237 -24.258  1.00  0.00    -0.033 A 
ATOM     21  C   UNL     1      11.743 -50.556 -22.627  1.00  0.00     0.062 A 
ATOM     22  C   UNL     1      13.078 -51.295 -25.007  1.00  0.00     0.055 A 
ATOM     23  C   UNL     1      12.457 -49.603 -23.360  1.00  0.00     0.161 A 
ATOM     24  C   UNL     1      13.115 -49.960 -24.567  1.00  0.00     0.161 A 
ATOM     25  O   UNL     1      10.291 -52.992 -21.599  1.00  0.00    -0.294 OA
BRANCH  23  26
ATOM     26  O   UNL     1      12.385 -48.340 -22.827  1.00  0.00    -0.493 OA
ATOM     27  C   UNL     1      11.173 -47.633 -23.084  1.00  0.00     0.278 C 
ENDBRANCH  23  26
BRANCH  24  28
ATOM     28  O   UNL     1      13.723 -48.951 -25.265  1.00  0.00    -0.493 OA
ATOM     29  C   UNL     1      14.378 -49.275 -26.485  1.00  0.00     0.278 C 
ENDBRANCH  24  28
ENDBRANCH   1  16
TORSDOF 6
ENDMDL
MODEL 4
REMARK VINA RESULT:   -10.321      1.876      2.666
REMARK INTER + INTRA:         -14.593
REMARK INTER:                 -14.058
REMARK INTRA:                  -0.534
REMARK UNBOUND:                -0.651
REMARK SMILES COc1cc2c(cc1OC)C(=O)[C@@H](C[C@H]1CC[N@@H+](Cc3ccccc3)CC1)C2
REMARK SMILES IDX 14 1 15 2 17 3 18 4 16 5 26 6 27 7 19 9 20 10 21 11 25 12
REMARK SMILES IDX 22 13 24 14 23 15 13 16 11 17 28 18 6 19 5 20 7 21 4 22 8 23
REMARK SMILES IDX 3 24 12 25 9 26 10 27 2 28 1 29
REMARK H PARENT 18 8
ROOT
ATOM      1  C   UNL     1      11.338 -57.269 -22.567  1.00  0.00     0.016 C 
ENDROOT
BRANCH   1   2
ATOM      2  C   UNL     1      10.295 -58.258 -21.982  1.00  0.00     0.001 C 
ATOM      3  C   UNL     1       9.450 -59.263 -24.189  1.00  0.00     0.262 C 
ATOM      4  N   UNL     1       9.991 -60.601 -23.754  1.00  0.00    -0.331 N 
ATOM      5  C   UNL     1       9.109 -58.423 -22.959  1.00  0.00     0.065 C 
ATOM      6  C   UNL     1      11.214 -60.462 -22.877  1.00  0.00     0.262 C 
ATOM      7  C   UNL     1      10.830 -59.656 -21.639  1.00  0.00     0.065 C 
ATOM      8  H   UNL     1       9.268 -61.038 -23.170  1.00  0.00     0.348 HD
BRANCH   4   9
ATOM      9  C   UNL     1      10.190 -61.575 -24.901  1.00  0.00     0.299 C 
BRANCH   9  10
ATOM     10  C   UNL     1      10.683 -60.985 -26.195  1.00  0.00     0.006 A 
ATOM     11  C   UNL     1      10.047 -61.296 -27.407  1.00  0.00     0.009 A 
ATOM     12  C   UNL     1      11.780 -60.109 -26.215  1.00  0.00     0.009 A 
ATOM     13  C   UNL     1      10.488 -60.735 -28.606  1.00  0.00     0.001 A 
ATOM     14  C   UNL     1      12.216 -59.548 -27.416  1.00  0.00     0.001 A 
ATOM     15  C   UNL     1      11.570 -59.859 -28.609  1.00  0.00     0.000 A 
ENDBRANCH   9  10
ENDBRANCH   4   9
ENDBRANCH   1   2
BRANCH   1  16
ATOM     16  C   UNL     1      10.871 -55.893 -23.062  1.00  0.00     0.066 C 
ATOM     17  C   UNL     1      11.761 -55.274 -24.121  1.00  0.00     0.166 C 
ATOM     18  C   UNL     1      10.709 -54.787 -21.997  1.00  0.00     0.048 C 
ATOM     19  C   UNL     1      11.837 -53.838 -23.894  1.00  0.00     0.025 A 
ATOM     20  C   UNL     1      11.213 -53.554 -22.688  1.00  0.00    -0.033 A 
ATOM     21  C   UNL     1      12.431 -52.871 -24.676  1.00  0.00     0.062 A 
ATOM     22  C   UNL     1      11.170 -52.247 -22.224  1.00  0.00     0.055 A 
ATOM     23  C   UNL     1      12.372 -51.547 -24.230  1.00  0.00     0.161 A 
ATOM     24  C   UNL     1      11.758 -51.225 -22.991  1.00  0.00     0.161 A 
ATOM     25  O   UNL     1      12.350 -55.868 -25.008  1.00  0.00    -0.294 OA
BRANCH  23  26
ATOM     26  O   UNL     1      13.009 -50.663 -25.065  1.00  0.00    -0.493 OA
ATOM     27  C   UNL     1      13.746 -51.250 -26.135  1.00  0.00     0.278 C 
ENDBRANCH  23  26
BRANCH  24  28
ATOM     28  O   UNL     1      11.815 -49.917 -22.590  1.00  0.00    -0.493 OA
ATOM     29  C   UNL     1      10.602 -49.180 -22.521  1.00  0.00     0.278 C 
ENDBRANCH  24  28
ENDBRANCH   1  16
TORSDOF 6
ENDMDL
MODEL 5
REMARK VINA RESULT:   -10.031      3.177     10.258
REMARK INTER + INTRA:         -14.200
REMARK INTER:                 -13.524
REMARK INTRA:                  -0.677
REMARK UNBOUND:                -0.651
REMARK SMILES COc1cc2c(cc1OC)C(=O)[C@@H](C[C@H]1CC[N@@H+](Cc3ccccc3)CC1)C2
REMARK SMILES IDX 14 1 15 2 17 3 18 4 16 5 26 6 27 7 19 9 20 10 21 11 25 12
REMARK SMILES IDX 22 13 24 14 23 15 13 16 11 17 28 18 6 19 5 20 7 21 4 22 8 23
REMARK SMILES IDX 3 24 12 25 9 26 10 27 2 28 1 29
REMARK H PARENT 18 8
ROOT
ATOM      1  C   UNL     1      11.360 -56.382 -22.545  1.00  0.00     0.016 C 
ENDROOT
BRANCH   1   2
ATOM      2  C   UNL     1      10.351 -55.337 -23.088  1.00  0.00     0.001 C 
ATOM      3  C   UNL     1      11.008 -53.361 -21.584  1.00  0.00     0.262 C 
ATOM      4  N   UNL     1      11.446 -52.608 -22.814  1.00  0.00    -0.331 N 
ATOM      5  C   UNL     1       9.924 -54.370 -21.960  1.00  0.00     0.065 C 
ATOM      6  C   UNL     1      11.962 -53.532 -23.893  1.00  0.00     0.262 C 
ATOM      7  C   UNL     1      10.844 -54.497 -24.276  1.00  0.00     0.065 C 
ATOM      8  H   UNL     1      10.609 -52.156 -23.200  1.00  0.00     0.348 HD
BRANCH   4   9
ATOM      9  C   UNL     1      12.392 -51.458 -22.515  1.00  0.00     0.299 C 
BRANCH   9  10
ATOM     10  C   UNL     1      11.925 -50.090 -22.930  1.00  0.00     0.006 A 
ATOM     11  C   UNL     1      10.733 -49.557 -22.413  1.00  0.00     0.009 A 
ATOM     12  C   UNL     1      12.672 -49.317 -23.833  1.00  0.00     0.009 A 
ATOM     13  C   UNL     1      10.307 -48.279 -22.780  1.00  0.00     0.001 A 
ATOM     14  C   UNL     1      12.244 -48.039 -24.195  1.00  0.00     0.001 A 
ATOM     15  C   UNL     1      11.065 -47.520 -23.668  1.00  0.00     0.000 A 
ENDBRANCH   9  10
ENDBRANCH   4   9
ENDBRANCH   1   2
BRANCH   1  16
ATOM     16  C   UNL     1      10.984 -57.870 -22.569  1.00  0.00     0.066 C 
ATOM     17  C   UNL     1      11.459 -58.615 -23.801  1.00  0.00     0.166 C 
ATOM     18  C   UNL     1       9.483 -58.213 -22.464  1.00  0.00     0.048 C 
ATOM     19  C   UNL     1      10.441 -59.580 -24.190  1.00  0.00     0.025 A 
ATOM     20  C   UNL     1       9.316 -59.366 -23.408  1.00  0.00    -0.033 A 
ATOM     21  C   UNL     1      10.498 -60.546 -25.172  1.00  0.00     0.062 A 
ATOM     22  C   UNL     1       8.183 -60.144 -23.601  1.00  0.00     0.055 A 
ATOM     23  C   UNL     1       9.371 -61.353 -25.357  1.00  0.00     0.161 A 
ATOM     24  C   UNL     1       8.197 -61.147 -24.587  1.00  0.00     0.161 A 
ATOM     25  O   UNL     1      12.505 -58.431 -24.399  1.00  0.00    -0.294 OA
BRANCH  23  26
ATOM     26  O   UNL     1       9.519 -62.269 -26.369  1.00  0.00    -0.493 OA
ATOM     27  C   UNL     1       9.235 -61.788 -27.681  1.00  0.00     0.278 C 
ENDBRANCH  23  26
BRANCH  24  28
ATOM     28  O   UNL     1       7.112 -61.926 -24.887  1.00  0.00    -0.493 OA
ATOM     29  C   UNL     1       7.171 -63.312 -24.577  1.00  0.00     0.278 C 
ENDBRANCH  24  28
ENDBRANCH   1  16
TORSDOF 6
ENDMDL
MODEL 6
REMARK VINA RESULT:    -9.930      1.478      2.049
REMARK INTER + INTRA:         -14.065
REMARK INTER:                 -13.581
REMARK INTRA:                  -0.484
REMARK UNBOUND:                -0.651
REMARK SMILES COc1cc2c(cc1OC)C(=O)[C@@H](C[C@H]1CC[N@@H+](Cc3ccccc3)CC1)C2
REMARK SMILES IDX 14 1 15 2 17 3 18 4 16 5 26 6 27 7 19 9 20 10 21 11 25 12
REMARK SMILES IDX 22 13 24 14 23 15 13 16 11 17 28 18 6 19 5 20 7 21 4 22 8 23
REMARK SMILES IDX 3 24 12 25 9 26 10 27 2 28 1 29
REMARK H PARENT 18 8
ROOT
ATOM      1  C   UNL     1      11.606 -55.870 -23.564  1.00  0.00     0.016 C 
ENDROOT
BRANCH   1   2
ATOM      2  C   UNL     1      10.712 -56.273 -22.362  1.00  0.00     0.001 C 
ATOM      3  C   UNL     1       9.388 -58.161 -23.494  1.00  0.00     0.262 C 
ATOM      4  N   UNL     1      10.001 -59.135 -22.520  1.00  0.00    -0.331 N 
ATOM      5  C   UNL     1       9.337 -56.770 -22.863  1.00  0.00     0.065 C 
ATOM      6  C   UNL     1      11.390 -58.716 -22.096  1.00  0.00     0.262 C 
ATOM      7  C   UNL     1      11.298 -57.345 -21.432  1.00  0.00     0.065 C 
ATOM      8  H   UNL     1       9.423 -59.112 -21.672  1.00  0.00     0.348 HD
BRANCH   4   9
ATOM      9  C   UNL     1       9.933 -60.579 -22.985  1.00  0.00     0.299 C 
BRANCH   9  10
ATOM     10  C   UNL     1       9.952 -60.799 -24.473  1.00  0.00     0.006 A 
ATOM     11  C   UNL     1       8.997 -61.628 -25.083  1.00  0.00     0.009 A 
ATOM     12  C   UNL     1      10.917 -60.176 -25.281  1.00  0.00     0.009 A 
ATOM     13  C   UNL     1       9.000 -61.818 -26.466  1.00  0.00     0.001 A 
ATOM     14  C   UNL     1      10.914 -60.366 -26.664  1.00  0.00     0.001 A 
ATOM     15  C   UNL     1       9.956 -61.185 -27.255  1.00  0.00     0.000 A 
ENDBRANCH   9  10
ENDBRANCH   4   9
ENDBRANCH   1   2
BRANCH   1  16
ATOM     16  C   UNL     1      11.426 -54.486 -24.203  1.00  0.00     0.066 C 
ATOM     17  C   UNL     1      12.455 -54.146 -25.262  1.00  0.00     0.166 C 
ATOM     18  C   UNL     1      11.434 -53.271 -23.250  1.00  0.00     0.048 C 
ATOM     19  C   UNL     1      12.791 -52.733 -25.157  1.00  0.00     0.025 A 
ATOM     20  C   UNL     1      12.186 -52.225 -24.017  1.00  0.00    -0.033 A 
ATOM     21  C   UNL     1      13.585 -51.972 -25.987  1.00  0.00     0.062 A 
ATOM     22  C   UNL     1      12.373 -50.893 -23.672  1.00  0.00     0.055 A 
ATOM     23  C   UNL     1      13.760 -50.623 -25.663  1.00  0.00     0.161 A 
ATOM     24  C   UNL     1      13.171 -50.076 -24.492  1.00  0.00     0.161 A 
ATOM     25  O   UNL     1      12.955 -54.921 -26.060  1.00  0.00    -0.294 OA
BRANCH  23  26
ATOM     26  O   UNL     1      14.582 -49.955 -26.536  1.00  0.00    -0.493 OA
ATOM     27  C   UNL     1      15.978 -50.049 -26.260  1.00  0.00     0.278 C 
ENDBRANCH  23  26
BRANCH  24  28
ATOM     28  O   UNL     1      13.458 -48.768 -24.205  1.00  0.00    -0.493 OA
ATOM     29  C   UNL     1      14.385 -48.495 -23.162  1.00  0.00     0.278 C 
ENDBRANCH  24  28
ENDBRANCH   1  16
TORSDOF 6
ENDMDL
MODEL 7
REMARK VINA RESULT:    -9.836      3.086      9.835
REMARK INTER + INTRA:         -13.938
REMARK INTER:                 -13.334
REMARK INTRA:                  -0.604
REMARK UNBOUND:                -0.651
REMARK SMILES COc1cc2c(cc1OC)C(=O)[C@@H](C[C@H]1CC[N@@H+](Cc3ccccc3)CC1)C2
REMARK SMILES IDX 14 1 15 2 17 3 18 4 16 5 26 6 27 7 19 9 20 10 21 11 25 12
REMARK SMILES IDX 22 13 24 14 23 15 13 16 11 17 28 18 6 19 5 20 7 21 4 22 8 23
REMARK SMILES IDX 3 24 12 25 9 26 10 27 2 28 1 29
REMARK H PARENT 18 8
ROOT
ATOM      1  C   UNL     1      11.332 -56.378 -22.359  1.00  0.00     0.016 C 
ENDROOT
BRANCH   1   2
ATOM      2  C   UNL     1      10.266 -55.403 -22.926  1.00  0.00     0.001 C 
ATOM      3  C   UNL     1      10.910 -53.314 -21.578  1.00  0.00     0.262 C 
ATOM      4  N   UNL     1      11.275 -52.628 -22.870  1.00  0.00    -0.331 N 
ATOM      5  C   UNL     1       9.849 -54.380 -21.846  1.00  0.00     0.065 C 
ATOM      6  C   UNL     1      11.781 -53.602 -23.908  1.00  0.00     0.262 C 
ATOM      7  C   UNL     1      10.684 -54.626 -24.185  1.00  0.00     0.065 C 
ATOM      8  H   UNL     1      10.408 -52.229 -23.251  1.00  0.00     0.348 HD
BRANCH   4   9
ATOM      9  C   UNL     1      12.190 -51.431 -22.683  1.00  0.00     0.299 C 
BRANCH   9  10
ATOM     10  C   UNL     1      13.281 -51.264 -23.706  1.00  0.00     0.006 A 
ATOM     11  C   UNL     1      14.627 -51.439 -23.347  1.00  0.00     0.009 A 
ATOM     12  C   UNL     1      12.976 -50.936 -25.037  1.00  0.00     0.009 A 
ATOM     13  C   UNL     1      15.640 -51.305 -24.298  1.00  0.00     0.001 A 
ATOM     14  C   UNL     1      13.991 -50.805 -25.985  1.00  0.00     0.001 A 
ATOM     15  C   UNL     1      15.321 -50.990 -25.617  1.00  0.00     0.000 A 
ENDBRANCH   9  10
ENDBRANCH   4   9
ENDBRANCH   1   2
BRANCH   1  16
ATOM     16  C   UNL     1      11.099 -57.891 -22.472  1.00  0.00     0.066 C 
ATOM     17  C   UNL     1      11.535 -58.494 -23.793  1.00  0.00     0.166 C 
ATOM     18  C   UNL     1       9.652 -58.391 -22.277  1.00  0.00     0.048 C 
ATOM     19  C   UNL     1      10.585 -59.527 -24.176  1.00  0.00     0.025 A 
ATOM     20  C   UNL     1       9.515 -59.485 -23.294  1.00  0.00    -0.033 A 
ATOM     21  C   UNL     1      10.650 -60.410 -25.233  1.00  0.00     0.062 A 
ATOM     22  C   UNL     1       8.450 -60.359 -23.458  1.00  0.00     0.055 A 
ATOM     23  C   UNL     1       9.593 -61.312 -25.393  1.00  0.00     0.161 A 
ATOM     24  C   UNL     1       8.475 -61.282 -24.519  1.00  0.00     0.161 A 
ATOM     25  O   UNL     1      12.504 -58.161 -24.454  1.00  0.00    -0.294 OA
BRANCH  23  26
ATOM     26  O   UNL     1       9.741 -62.134 -26.483  1.00  0.00    -0.493 OA
ATOM     27  C   UNL     1       9.241 -61.618 -27.714  1.00  0.00     0.278 C 
ENDBRANCH  23  26
BRANCH  24  28
ATOM     28  O   UNL     1       7.448 -62.145 -24.794  1.00  0.00    -0.493 OA
ATOM     29  C   UNL     1       7.259 -63.264 -23.937  1.00  0.00     0.278 C 
ENDBRANCH  24  28
ENDBRANCH   1  16
TORSDOF 6
ENDMDL
MODEL 8
REMARK VINA RESULT:    -9.810      3.270     10.576
REMARK INTER + INTRA:         -13.902
REMARK INTER:                 -14.114
REMARK INTRA:                   0.212
REMARK UNBOUND:                -0.651
REMARK SMILES COc1cc2c(cc1OC)C(=O)[C@@H](C[C@H]1CC[N@@H+](Cc3ccccc3)CC1)C2
REMARK SMILES IDX 14 1 15 2 17 3 18 4 16 5 26 6 27 7 19 9 20 10 21 11 25 12
REMARK SMILES IDX 22 13 24 14 23 15 13 16 11 17 28 18 6 19 5 20 7 21 4 22 8 23
REMARK SMILES IDX 3 24 12 25 9 26 10 27 2 28 1 29
REMARK H PARENT 18 8
ROOT
ATOM      1  C   UNL     1      10.953 -55.239 -21.776  1.00  0.00     0.016 C 
ENDROOT
BRANCH   1   2
ATOM      2  C   UNL     1      10.119 -54.156 -22.512  1.00  0.00     0.001 C 
ATOM      3  C   UNL     1      11.316 -52.075 -21.599  1.00  0.00     0.262 C 
ATOM      4  N   UNL     1      11.760 -51.750 -23.002  1.00  0.00    -0.331 N 
ATOM      5  C   UNL     1      10.018 -52.880 -21.646  1.00  0.00     0.065 C 
ATOM      6  C   UNL     1      11.962 -52.994 -23.837  1.00  0.00     0.262 C 
ATOM      7  C   UNL     1      10.639 -53.752 -23.900  1.00  0.00     0.065 C 
ATOM      8  H   UNL     1      10.994 -51.230 -23.445  1.00  0.00     0.348 HD
BRANCH   4   9
ATOM      9  C   UNL     1      12.943 -50.800 -23.058  1.00  0.00     0.299 C 
BRANCH   9  10
ATOM     10  C   UNL     1      12.659 -49.417 -23.577  1.00  0.00     0.006 A 
ATOM     11  C   UNL     1      13.517 -48.818 -24.513  1.00  0.00     0.009 A 
ATOM     12  C   UNL     1      11.531 -48.702 -23.144  1.00  0.00     0.009 A 
ATOM     13  C   UNL     1      13.246 -47.543 -25.013  1.00  0.00     0.001 A 
ATOM     14  C   UNL     1      11.262 -47.428 -23.648  1.00  0.00     0.001 A 
ATOM     15  C   UNL     1      12.117 -46.851 -24.582  1.00  0.00     0.000 A 
ENDBRANCH   9  10
ENDBRANCH   4   9
ENDBRANCH   1   2
BRANCH   1  16
ATOM     16  C   UNL     1      11.048 -56.648 -22.377  1.00  0.00     0.066 C 
ATOM     17  C   UNL     1       9.786 -57.118 -23.073  1.00  0.00     0.166 C 
ATOM     18  C   UNL     1      11.407 -57.796 -21.409  1.00  0.00     0.048 C 
ATOM     19  C   UNL     1       9.604 -58.538 -22.813  1.00  0.00     0.025 A 
ATOM     20  C   UNL     1      10.548 -58.934 -21.876  1.00  0.00    -0.033 A 
ATOM     21  C   UNL     1       8.665 -59.399 -23.339  1.00  0.00     0.062 A 
ATOM     22  C   UNL     1      10.571 -60.249 -21.433  1.00  0.00     0.055 A 
ATOM     23  C   UNL     1       8.696 -60.732 -22.918  1.00  0.00     0.161 A 
ATOM     24  C   UNL     1       9.636 -61.165 -21.948  1.00  0.00     0.161 A 
ATOM     25  O   UNL     1       9.021 -56.428 -23.725  1.00  0.00    -0.294 OA
BRANCH  23  26
ATOM     26  O   UNL     1       7.710 -61.504 -23.484  1.00  0.00    -0.493 OA
ATOM     27  C   UNL     1       7.897 -61.829 -24.859  1.00  0.00     0.278 C 
ENDBRANCH  23  26
BRANCH  24  28
ATOM     28  O   UNL     1       9.546 -62.466 -21.531  1.00  0.00    -0.493 OA
ATOM     29  C   UNL     1       9.935 -63.492 -22.435  1.00  0.00     0.278 C 
ENDBRANCH  24  28
ENDBRANCH   1  16
TORSDOF 6
ENDMDL
MODEL 9
REMARK VINA RESULT:    -9.739      2.434      4.072
REMARK INTER + INTRA:         -13.806
REMARK INTER:                 -13.007
REMARK INTRA:                  -0.799
REMARK UNBOUND:                -0.651
REMARK SMILES COc1cc2c(cc1OC)C(=O)[C@@H](C[C@H]1CC[N@@H+](Cc3ccccc3)CC1)C2
REMARK SMILES IDX 14 1 15 2 17 3 18 4 16 5 26 6 27 7 19 9 20 10 21 11 25 12
REMARK SMILES IDX 22 13 24 14 23 15 13 16 11 17 28 18 6 19 5 20 7 21 4 22 8 23
REMARK SMILES IDX 3 24 12 25 9 26 10 27 2 28 1 29
REMARK H PARENT 18 8
ROOT
ATOM      1  C   UNL     1      11.811 -52.365 -22.230  1.00  0.00     0.016 C 
ENDROOT
BRANCH   1   2
ATOM      2  C   UNL     1      10.472 -52.941 -21.698  1.00  0.00     0.001 C 
ATOM      3  C   UNL     1      10.044 -54.672 -23.546  1.00  0.00     0.262 C 
ATOM      4  N   UNL     1      10.167 -55.763 -22.513  1.00  0.00    -0.331 N 
ATOM      5  C   UNL     1       9.574 -53.382 -22.875  1.00  0.00     0.065 C 
ATOM      6  C   UNL     1      11.121 -55.389 -21.402  1.00  0.00     0.262 C 
ATOM      7  C   UNL     1      10.601 -54.123 -20.725  1.00  0.00     0.065 C 
ATOM      8  H   UNL     1       9.244 -55.864 -22.075  1.00  0.00     0.348 HD
BRANCH   4   9
ATOM      9  C   UNL     1      10.455 -57.130 -23.107  1.00  0.00     0.299 C 
BRANCH   9  10
ATOM     10  C   UNL     1       9.303 -58.097 -23.137  1.00  0.00     0.006 A 
ATOM     11  C   UNL     1       9.484 -59.431 -22.737  1.00  0.00     0.009 A 
ATOM     12  C   UNL     1       8.028 -57.686 -23.555  1.00  0.00     0.009 A 
ATOM     13  C   UNL     1       8.412 -60.326 -22.744  1.00  0.00     0.001 A 
ATOM     14  C   UNL     1       6.959 -58.583 -23.558  1.00  0.00     0.001 A 
ATOM     15  C   UNL     1       7.151 -59.901 -23.152  1.00  0.00     0.000 A 
ENDBRANCH   9  10
ENDBRANCH   4   9
ENDBRANCH   1   2
BRANCH   1  16
ATOM     16  C   UNL     1      11.804 -51.503 -23.501  1.00  0.00     0.066 C 
ATOM     17  C   UNL     1      12.720 -52.002 -24.600  1.00  0.00     0.166 C 
ATOM     18  C   UNL     1      12.172 -50.013 -23.336  1.00  0.00     0.048 C 
ATOM     19  C   UNL     1      13.324 -50.858 -25.266  1.00  0.00     0.025 A 
ATOM     20  C   UNL     1      12.991 -49.714 -24.556  1.00  0.00    -0.033 A 
ATOM     21  C   UNL     1      14.123 -50.836 -26.389  1.00  0.00     0.062 A 
ATOM     22  C   UNL     1      13.469 -48.479 -24.972  1.00  0.00     0.055 A 
ATOM     23  C   UNL     1      14.589 -49.594 -26.832  1.00  0.00     0.161 A 
ATOM     24  C   UNL     1      14.282 -48.407 -26.117  1.00  0.00     0.161 A 
ATOM     25  O   UNL     1      12.949 -53.167 -24.877  1.00  0.00    -0.294 OA
BRANCH  23  26
ATOM     26  O   UNL     1      15.391 -49.678 -27.943  1.00  0.00    -0.493 OA
ATOM     27  C   UNL     1      16.792 -49.748 -27.687  1.00  0.00     0.278 C 
ENDBRANCH  23  26
BRANCH  24  28
ATOM     28  O   UNL     1      14.845 -47.244 -26.571  1.00  0.00    -0.493 OA
ATOM     29  C   UNL     1      15.782 -46.577 -25.735  1.00  0.00     0.278 C 
ENDBRANCH  24  28
ENDBRANCH   1  16
TORSDOF 6
ENDMDL
