MODEL 1
REMARK VINA RESULT:   -11.137      0.000      0.000
REMARK INTER + INTRA:         -17.379
REMARK INTER:                 -16.671
REMARK INTRA:                  -0.708
REMARK UNBOUND:                -0.708
REMARK SMILES COc1cc2c(cc1OC)S[C@@H](C(O)=CCc1cc[n+](Cc3ccc(F)cc3)cc1)C2
REMARK SMILES IDX 15 1 13 2 14 3 12 5 31 6 11 7 5 8 6 9 4 10 7 11 3 12 8 13
REMARK SMILES IDX 2 14 1 15 9 16 10 17 16 18 17 19 18 20 30 21 19 22 29 23
REMARK SMILES IDX 20 24 21 25 22 26 23 27 28 28 24 29 27 30 25 31 26 32
REMARK H PARENT 14 4
ROOT
ATOM      1  C   UNL     1      10.299 -54.929 -22.485  1.00  0.00     0.020 C 
ENDROOT
BRANCH   1   2
ATOM      2  C   UNL     1      10.379 -53.589 -22.422  1.00  0.00     0.102 C 
BRANCH   2   3
ATOM      3  O   UNL     1       9.286 -52.882 -21.935  1.00  0.00    -0.511 OA
ATOM      4  H   UNL     1       8.617 -52.865 -22.654  1.00  0.00     0.293 HD
ENDBRANCH   2   3
BRANCH   2   5
ATOM      5  C   UNL     1      11.592 -52.764 -22.821  1.00  0.00     0.121 C 
ATOM      6  C   UNL     1      12.132 -52.949 -24.256  1.00  0.00     0.059 C 
ATOM      7  S   UNL     1      11.229 -50.968 -22.669  1.00  0.00    -0.114 SA
ATOM      8  C   UNL     1      12.840 -51.676 -24.626  1.00  0.00    -0.029 A 
ATOM      9  C   UNL     1      12.430 -50.556 -23.899  1.00  0.00     0.015 A 
ATOM     10  C   UNL     1      13.768 -51.543 -25.652  1.00  0.00     0.055 A 
ATOM     11  C   UNL     1      12.952 -49.298 -24.157  1.00  0.00     0.065 A 
ATOM     12  C   UNL     1      14.289 -50.276 -25.931  1.00  0.00     0.161 A 
ATOM     13  C   UNL     1      13.917 -49.162 -25.158  1.00  0.00     0.161 A 
BRANCH  12  14
ATOM     14  O   UNL     1      15.184 -50.191 -26.966  1.00  0.00    -0.493 OA
ATOM     15  C   UNL     1      16.521 -50.316 -26.474  1.00  0.00     0.278 C 
ENDBRANCH  12  14
BRANCH  13  16
ATOM     16  O   UNL     1      14.406 -47.895 -25.341  1.00  0.00    -0.493 OA
ATOM     17  C   UNL     1      14.123 -47.026 -24.244  1.00  0.00     0.278 C 
ENDBRANCH  13  16
ENDBRANCH   2   5
ENDBRANCH   1   2
BRANCH   1  18
ATOM     18  C   UNL     1      11.062 -55.873 -21.599  1.00  0.00     0.067 C 
BRANCH  18  19
ATOM     19  C   UNL     1      11.284 -57.219 -22.248  1.00  0.00    -0.032 A 
ATOM     20  C   UNL     1      11.138 -58.390 -21.501  1.00  0.00     0.075 A 
ATOM     21  C   UNL     1      11.665 -57.327 -23.585  1.00  0.00     0.075 A 
ATOM     22  C   UNL     1      11.359 -59.624 -22.098  1.00  0.00     0.308 A 
ATOM     23  C   UNL     1      11.873 -58.584 -24.142  1.00  0.00     0.308 A 
ATOM     24  N   UNL     1      11.713 -59.706 -23.401  1.00  0.00    -0.201 N 
BRANCH  24  25
ATOM     25  C   UNL     1      11.950 -61.033 -24.019  1.00  0.00     0.393 C 
BRANCH  25  26
ATOM     26  C   UNL     1      10.703 -61.883 -23.992  1.00  0.00     0.017 A 
ATOM     27  C   UNL     1      10.429 -62.725 -22.900  1.00  0.00     0.013 A 
ATOM     28  C   UNL     1       9.802 -61.852 -25.071  1.00  0.00     0.013 A 
ATOM     29  C   UNL     1       9.270 -63.505 -22.883  1.00  0.00     0.040 A 
ATOM     30  C   UNL     1       8.645 -62.634 -25.049  1.00  0.00     0.040 A 
ATOM     31  C   UNL     1       8.389 -63.451 -23.955  1.00  0.00     0.123 A 
ATOM     32  F   UNL     1       7.279 -64.198 -23.935  1.00  0.00    -0.207 F 
ENDBRANCH  25  26
ENDBRANCH  24  25
ENDBRANCH  18  19
ENDBRANCH   1  18
TORSDOF 9
ENDMDL
MODEL 2
REMARK VINA RESULT:   -10.922      0.957      2.196
REMARK INTER + INTRA:         -17.057
REMARK INTER:                 -16.349
REMARK INTRA:                  -0.708
REMARK UNBOUND:                -0.708
REMARK SMILES COc1cc2c(cc1OC)S[C@@H](C(O)=CCc1cc[n+](Cc3ccc(F)cc3)cc1)C2
REMARK SMILES IDX 15 1 13 2 14 3 12 5 31 6 11 7 5 8 6 9 4 10 7 11 3 12 8 13
REMARK SMILES IDX 2 14 1 15 9 16 10 17 16 18 17 19 18 20 30 21 19 22 29 23
REMARK SMILES IDX 20 24 21 25 22 26 23 27 28 28 24 29 27 30 25 31 26 32
REMARK H PARENT 14 4
ROOT
ATOM      1  C   UNL     1      10.688 -55.296 -22.423  1.00  0.00     0.020 C 
ENDROOT
BRANCH   1   2
ATOM      2  C   UNL     1      10.739 -53.971 -22.207  1.00  0.00     0.102 C 
BRANCH   2   3
ATOM      3  O   UNL     1      10.509 -53.499 -20.921  1.00  0.00    -0.511 OA
ATOM      4  H   UNL     1       9.538 -53.386 -20.831  1.00  0.00     0.293 HD
ENDBRANCH   2   3
BRANCH   2   5
ATOM      5  C   UNL     1      11.058 -52.924 -23.262  1.00  0.00     0.121 C 
ATOM      6  C   UNL     1      11.703 -51.607 -22.778  1.00  0.00     0.059 C 
ATOM      7  S   UNL     1      12.222 -53.601 -24.513  1.00  0.00    -0.114 SA
ATOM      8  C   UNL     1      12.478 -51.046 -23.937  1.00  0.00    -0.029 A 
ATOM      9  C   UNL     1      12.848 -51.993 -24.896  1.00  0.00     0.015 A 
ATOM     10  C   UNL     1      12.897 -49.726 -24.059  1.00  0.00     0.055 A 
ATOM     11  C   UNL     1      13.609 -51.642 -26.000  1.00  0.00     0.065 A 
ATOM     12  C   UNL     1      13.679 -49.365 -25.161  1.00  0.00     0.161 A 
ATOM     13  C   UNL     1      13.998 -50.309 -26.154  1.00  0.00     0.161 A 
BRANCH  12  14
ATOM     14  O   UNL     1      14.086 -48.058 -25.226  1.00  0.00    -0.493 OA
ATOM     15  C   UNL     1      15.054 -47.791 -24.207  1.00  0.00     0.278 C 
ENDBRANCH  12  14
BRANCH  13  16
ATOM     16  O   UNL     1      14.728 -50.031 -27.279  1.00  0.00    -0.493 OA
ATOM     17  C   UNL     1      16.132 -49.950 -27.026  1.00  0.00     0.278 C 
ENDBRANCH  13  16
ENDBRANCH   2   5
ENDBRANCH   1   2
BRANCH   1  18
ATOM     18  C   UNL     1      11.113 -56.341 -21.429  1.00  0.00     0.067 C 
BRANCH  18  19
ATOM     19  C   UNL     1      11.244 -57.710 -22.054  1.00  0.00    -0.032 A 
ATOM     20  C   UNL     1      11.674 -57.839 -23.377  1.00  0.00     0.075 A 
ATOM     21  C   UNL     1      10.914 -58.866 -21.347  1.00  0.00     0.075 A 
ATOM     22  C   UNL     1      11.777 -59.098 -23.951  1.00  0.00     0.308 A 
ATOM     23  C   UNL     1      11.034 -60.107 -21.963  1.00  0.00     0.308 A 
ATOM     24  N   UNL     1      11.466 -60.208 -23.243  1.00  0.00    -0.201 N 
BRANCH  24  25
ATOM     25  C   UNL     1      11.577 -61.544 -23.876  1.00  0.00     0.393 C 
BRANCH  25  26
ATOM     26  C   UNL     1      10.219 -62.108 -24.212  1.00  0.00     0.017 A 
ATOM     27  C   UNL     1       9.594 -61.803 -25.435  1.00  0.00     0.013 A 
ATOM     28  C   UNL     1       9.551 -62.940 -23.296  1.00  0.00     0.013 A 
ATOM     29  C   UNL     1       8.338 -62.333 -25.738  1.00  0.00     0.040 A 
ATOM     30  C   UNL     1       8.294 -63.466 -23.604  1.00  0.00     0.040 A 
ATOM     31  C   UNL     1       7.701 -63.160 -24.822  1.00  0.00     0.123 A 
ATOM     32  F   UNL     1       6.498 -63.667 -25.116  1.00  0.00    -0.207 F 
ENDBRANCH  25  26
ENDBRANCH  24  25
ENDBRANCH  18  19
ENDBRANCH   1  18
TORSDOF 9
ENDMDL
MODEL 3
REMARK VINA RESULT:   -10.823      1.642      2.125
REMARK INTER + INTRA:         -16.910
REMARK INTER:                 -16.111
REMARK INTRA:                  -0.799
REMARK UNBOUND:                -0.708
REMARK SMILES COc1cc2c(cc1OC)S[C@@H](C(O)=CCc1cc[n+](Cc3ccc(F)cc3)cc1)C2
REMARK SMILES IDX 15 1 13 2 14 3 12 5 31 6 11 7 5 8 6 9 4 10 7 11 3 12 8 13
REMARK SMILES IDX 2 14 1 15 9 16 10 17 16 18 17 19 18 20 30 21 19 22 29 23
REMARK SMILES IDX 20 24 21 25 22 26 23 27 28 28 24 29 27 30 25 31 26 32
REMARK H PARENT 14 4
ROOT
ATOM      1  C   UNL     1      10.346 -55.368 -22.398  1.00  0.00     0.020 C 
ENDROOT
BRANCH   1   2
ATOM      2  C   UNL     1      10.817 -54.406 -23.209  1.00  0.00     0.102 C 
BRANCH   2   3
ATOM      3  O   UNL     1      10.763 -54.611 -24.582  1.00  0.00    -0.511 OA
ATOM      4  H   UNL     1      11.548 -55.149 -24.819  1.00  0.00     0.293 HD
ENDBRANCH   2   3
BRANCH   2   5
ATOM      5  C   UNL     1      11.395 -53.077 -22.748  1.00  0.00     0.121 C 
ATOM      6  C   UNL     1      12.324 -52.331 -23.731  1.00  0.00     0.059 C 
ATOM      7  S   UNL     1      10.048 -51.888 -22.360  1.00  0.00    -0.114 SA
ATOM      8  C   UNL     1      12.248 -50.871 -23.384  1.00  0.00    -0.029 A 
ATOM      9  C   UNL     1      11.087 -50.500 -22.702  1.00  0.00     0.015 A 
ATOM     10  C   UNL     1      13.179 -49.908 -23.757  1.00  0.00     0.055 A 
ATOM     11  C   UNL     1      10.845 -49.179 -22.355  1.00  0.00     0.065 A 
ATOM     12  C   UNL     1      12.936 -48.572 -23.427  1.00  0.00     0.161 A 
ATOM     13  C   UNL     1      11.795 -48.211 -22.688  1.00  0.00     0.161 A 
BRANCH  12  14
ATOM     14  O   UNL     1      13.871 -47.656 -23.835  1.00  0.00    -0.493 OA
ATOM     15  C   UNL     1      13.601 -47.241 -25.178  1.00  0.00     0.278 C 
ENDBRANCH  12  14
BRANCH  13  16
ATOM     16  O   UNL     1      11.501 -46.932 -22.293  1.00  0.00    -0.493 OA
ATOM     17  C   UNL     1      10.666 -46.241 -23.224  1.00  0.00     0.278 C 
ENDBRANCH  13  16
ENDBRANCH   2   5
ENDBRANCH   1   2
BRANCH   1  18
ATOM     18  C   UNL     1      11.204 -56.304 -21.594  1.00  0.00     0.067 C 
BRANCH  18  19
ATOM     19  C   UNL     1      11.276 -57.685 -22.203  1.00  0.00    -0.032 A 
ATOM     20  C   UNL     1      10.905 -58.803 -21.452  1.00  0.00     0.075 A 
ATOM     21  C   UNL     1      11.738 -57.882 -23.504  1.00  0.00     0.075 A 
ATOM     22  C   UNL     1      10.988 -60.071 -22.011  1.00  0.00     0.308 A 
ATOM     23  C   UNL     1      11.803 -59.170 -24.023  1.00  0.00     0.308 A 
ATOM     24  N   UNL     1      11.426 -60.237 -23.280  1.00  0.00    -0.201 N 
BRANCH  24  25
ATOM     25  C   UNL     1      11.513 -61.601 -23.858  1.00  0.00     0.393 C 
BRANCH  25  26
ATOM     26  C   UNL     1      10.145 -62.149 -24.184  1.00  0.00     0.017 A 
ATOM     27  C   UNL     1       9.465 -62.977 -23.274  1.00  0.00     0.013 A 
ATOM     28  C   UNL     1       9.537 -61.847 -25.415  1.00  0.00     0.013 A 
ATOM     29  C   UNL     1       8.197 -63.475 -23.584  1.00  0.00     0.040 A 
ATOM     30  C   UNL     1       8.270 -62.349 -25.721  1.00  0.00     0.040 A 
ATOM     31  C   UNL     1       7.612 -63.156 -24.802  1.00  0.00     0.123 A 
ATOM     32  F   UNL     1       6.397 -63.635 -25.096  1.00  0.00    -0.207 F 
ENDBRANCH  25  26
ENDBRANCH  24  25
ENDBRANCH  18  19
ENDBRANCH   1  18
TORSDOF 9
ENDMDL
MODEL 4
REMARK VINA RESULT:    -9.751      5.125     11.020
REMARK INTER + INTRA:         -15.305
REMARK INTER:                 -14.858
REMARK INTRA:                  -0.447
REMARK UNBOUND:                -0.708
REMARK SMILES COc1cc2c(cc1OC)S[C@@H](C(O)=CCc1cc[n+](Cc3ccc(F)cc3)cc1)C2
REMARK SMILES IDX 15 1 13 2 14 3 12 5 31 6 11 7 5 8 6 9 4 10 7 11 3 12 8 13
REMARK SMILES IDX 2 14 1 15 9 16 10 17 16 18 17 19 18 20 30 21 19 22 29 23
REMARK SMILES IDX 20 24 21 25 22 26 23 27 28 28 24 29 27 30 25 31 26 32
REMARK H PARENT 14 4
ROOT
ATOM      1  C   UNL     1      11.188 -57.591 -22.107  1.00  0.00     0.020 C 
ENDROOT
BRANCH   1   2
ATOM      2  C   UNL     1      10.974 -58.861 -21.725  1.00  0.00     0.102 C 
BRANCH   2   3
ATOM      3  O   UNL     1      10.953 -59.151 -20.366  1.00  0.00    -0.511 OA
ATOM      4  H   UNL     1      11.796 -59.611 -20.162  1.00  0.00     0.293 HD
ENDBRANCH   2   3
BRANCH   2   5
ATOM      5  C   UNL     1      10.721 -60.028 -22.666  1.00  0.00     0.121 C 
ATOM      6  C   UNL     1       9.281 -60.583 -22.734  1.00  0.00     0.059 C 
ATOM      7  S   UNL     1      11.142 -59.566 -24.395  1.00  0.00    -0.114 SA
ATOM      8  C   UNL     1       9.120 -61.221 -24.085  1.00  0.00    -0.029 A 
ATOM      9  C   UNL     1      10.005 -60.747 -25.056  1.00  0.00     0.015 A 
ATOM     10  C   UNL     1       8.137 -62.144 -24.424  1.00  0.00     0.055 A 
ATOM     11  C   UNL     1       9.950 -61.200 -26.365  1.00  0.00     0.065 A 
ATOM     12  C   UNL     1       8.063 -62.595 -25.745  1.00  0.00     0.161 A 
ATOM     13  C   UNL     1       8.994 -62.160 -26.706  1.00  0.00     0.161 A 
BRANCH  12  14
ATOM     14  O   UNL     1       7.064 -63.488 -26.037  1.00  0.00    -0.493 OA
ATOM     15  C   UNL     1       6.781 -64.302 -24.896  1.00  0.00     0.278 C 
ENDBRANCH  12  14
BRANCH  13  16
ATOM     16  O   UNL     1       9.013 -62.578 -28.010  1.00  0.00    -0.493 OA
ATOM     17  C   UNL     1       9.596 -61.619 -28.893  1.00  0.00     0.278 C 
ENDBRANCH  13  16
ENDBRANCH   2   5
ENDBRANCH   1   2
BRANCH   1  18
ATOM     18  C   UNL     1      10.120 -56.653 -22.595  1.00  0.00     0.067 C 
BRANCH  18  19
ATOM     19  C   UNL     1      10.601 -55.223 -22.672  1.00  0.00    -0.032 A 
ATOM     20  C   UNL     1      11.320 -54.784 -23.786  1.00  0.00     0.075 A 
ATOM     21  C   UNL     1      10.371 -54.322 -21.633  1.00  0.00     0.075 A 
ATOM     22  C   UNL     1      11.774 -53.473 -23.845  1.00  0.00     0.308 A 
ATOM     23  C   UNL     1      10.843 -53.018 -21.735  1.00  0.00     0.308 A 
ATOM     24  N   UNL     1      11.526 -52.612 -22.832  1.00  0.00    -0.201 N 
BRANCH  24  25
ATOM     25  C   UNL     1      12.024 -51.217 -22.910  1.00  0.00     0.393 C 
BRANCH  25  26
ATOM     26  C   UNL     1      13.250 -51.119 -23.784  1.00  0.00     0.017 A 
ATOM     27  C   UNL     1      13.132 -50.913 -25.170  1.00  0.00     0.013 A 
ATOM     28  C   UNL     1      14.533 -51.248 -23.222  1.00  0.00     0.013 A 
ATOM     29  C   UNL     1      14.274 -50.821 -25.970  1.00  0.00     0.040 A 
ATOM     30  C   UNL     1      15.670 -51.156 -24.027  1.00  0.00     0.040 A 
ATOM     31  C   UNL     1      15.530 -50.941 -25.392  1.00  0.00     0.123 A 
ATOM     32  F   UNL     1      16.622 -50.851 -26.161  1.00  0.00    -0.207 F 
ENDBRANCH  25  26
ENDBRANCH  24  25
ENDBRANCH  18  19
ENDBRANCH   1  18
TORSDOF 9
ENDMDL
MODEL 5
REMARK VINA RESULT:    -9.714      2.242      2.793
REMARK INTER + INTRA:         -15.249
REMARK INTER:                 -14.390
REMARK INTRA:                  -0.860
REMARK UNBOUND:                -0.708
REMARK SMILES COc1cc2c(cc1OC)S[C@@H](C(O)=CCc1cc[n+](Cc3ccc(F)cc3)cc1)C2
REMARK SMILES IDX 15 1 13 2 14 3 12 5 31 6 11 7 5 8 6 9 4 10 7 11 3 12 8 13
REMARK SMILES IDX 2 14 1 15 9 16 10 17 16 18 17 19 18 20 30 21 19 22 29 23
REMARK SMILES IDX 20 24 21 25 22 26 23 27 28 28 24 29 27 30 25 31 26 32
REMARK H PARENT 14 4
ROOT
ATOM      1  C   UNL     1      10.314 -53.990 -22.874  1.00  0.00     0.020 C 
ENDROOT
BRANCH   1   2
ATOM      2  C   UNL     1      10.967 -53.040 -22.185  1.00  0.00     0.102 C 
BRANCH   2   3
ATOM      3  O   UNL     1      10.671 -52.875 -20.837  1.00  0.00    -0.511 OA
ATOM      4  H   UNL     1       9.788 -53.276 -20.691  1.00  0.00     0.293 HD
ENDBRANCH   2   3
BRANCH   2   5
ATOM      5  C   UNL     1      12.042 -52.127 -22.755  1.00  0.00     0.121 C 
ATOM      6  C   UNL     1      12.432 -52.334 -24.235  1.00  0.00     0.059 C 
ATOM      7  S   UNL     1      11.524 -50.367 -22.635  1.00  0.00    -0.114 SA
ATOM      8  C   UNL     1      12.966 -51.022 -24.736  1.00  0.00    -0.029 A 
ATOM      9  C   UNL     1      12.533 -49.909 -24.012  1.00  0.00     0.015 A 
ATOM     10  C   UNL     1      13.756 -50.856 -25.868  1.00  0.00     0.055 A 
ATOM     11  C   UNL     1      12.897 -48.623 -24.379  1.00  0.00     0.065 A 
ATOM     12  C   UNL     1      14.115 -49.562 -26.257  1.00  0.00     0.161 A 
ATOM     13  C   UNL     1      13.726 -48.449 -25.490  1.00  0.00     0.161 A 
BRANCH  12  14
ATOM     14  O   UNL     1      14.875 -49.447 -27.392  1.00  0.00    -0.493 OA
ATOM     15  C   UNL     1      16.256 -49.663 -27.085  1.00  0.00     0.278 C 
ENDBRANCH  12  14
BRANCH  13  16
ATOM     16  O   UNL     1      14.064 -47.154 -25.780  1.00  0.00    -0.493 OA
ATOM     17  C   UNL     1      14.824 -46.532 -24.743  1.00  0.00     0.278 C 
ENDBRANCH  13  16
ENDBRANCH   2   5
ENDBRANCH   1   2
BRANCH   1  18
ATOM     18  C   UNL     1       9.568 -55.136 -22.250  1.00  0.00     0.067 C 
BRANCH  18  19
ATOM     19  C   UNL     1      10.005 -56.474 -22.801  1.00  0.00    -0.032 A 
ATOM     20  C   UNL     1       9.057 -57.461 -23.078  1.00  0.00     0.075 A 
ATOM     21  C   UNL     1      11.351 -56.767 -23.015  1.00  0.00     0.075 A 
ATOM     22  C   UNL     1       9.465 -58.694 -23.569  1.00  0.00     0.308 A 
ATOM     23  C   UNL     1      11.714 -58.015 -23.509  1.00  0.00     0.308 A 
ATOM     24  N   UNL     1      10.775 -58.952 -23.783  1.00  0.00    -0.201 N 
BRANCH  24  25
ATOM     25  C   UNL     1      11.192 -60.278 -24.302  1.00  0.00     0.393 C 
BRANCH  25  26
ATOM     26  C   UNL     1      11.228 -60.290 -25.811  1.00  0.00     0.017 A 
ATOM     27  C   UNL     1      12.328 -59.762 -26.510  1.00  0.00     0.013 A 
ATOM     28  C   UNL     1      10.150 -60.822 -26.540  1.00  0.00     0.013 A 
ATOM     29  C   UNL     1      12.353 -59.782 -27.906  1.00  0.00     0.040 A 
ATOM     30  C   UNL     1      10.180 -60.838 -27.936  1.00  0.00     0.040 A 
ATOM     31  C   UNL     1      11.282 -60.321 -28.605  1.00  0.00     0.123 A 
ATOM     32  F   UNL     1      11.310 -60.340 -29.944  1.00  0.00    -0.207 F 
ENDBRANCH  25  26
ENDBRANCH  24  25
ENDBRANCH  18  19
ENDBRANCH   1  18
TORSDOF 9
ENDMDL
MODEL 6
REMARK VINA RESULT:    -9.539      2.007      2.854
REMARK INTER + INTRA:         -14.987
REMARK INTER:                 -14.224
REMARK INTRA:                  -0.763
REMARK UNBOUND:                -0.708
REMARK SMILES COc1cc2c(cc1OC)S[C@@H](C(O)=CCc1cc[n+](Cc3ccc(F)cc3)cc1)C2
REMARK SMILES IDX 15 1 13 2 14 3 12 5 31 6 11 7 5 8 6 9 4 10 7 11 3 12 8 13
REMARK SMILES IDX 2 14 1 15 9 16 10 17 16 18 17 19 18 20 30 21 19 22 29 23
REMARK SMILES IDX 20 24 21 25 22 26 23 27 28 28 24 29 27 30 25 31 26 32
REMARK H PARENT 14 4
ROOT
ATOM      1  C   UNL     1      10.566 -55.313 -23.059  1.00  0.00     0.020 C 
ENDROOT
BRANCH   1   2
ATOM      2  C   UNL     1      11.370 -54.783 -23.994  1.00  0.00     0.102 C 
BRANCH   2   3
ATOM      3  O   UNL     1      12.097 -55.643 -24.809  1.00  0.00    -0.511 OA
ATOM      4  H   UNL     1      11.563 -56.460 -24.905  1.00  0.00     0.293 HD
ENDBRANCH   2   3
BRANCH   2   5
ATOM      5  C   UNL     1      11.541 -53.295 -24.262  1.00  0.00     0.121 C 
ATOM      6  C   UNL     1      11.604 -52.359 -23.036  1.00  0.00     0.059 C 
ATOM      7  S   UNL     1      13.097 -52.981 -25.190  1.00  0.00    -0.114 SA
ATOM      8  C   UNL     1      12.376 -51.140 -23.454  1.00  0.00    -0.029 A 
ATOM      9  C   UNL     1      13.227 -51.342 -24.543  1.00  0.00     0.015 A 
ATOM     10  C   UNL     1      12.356 -49.913 -22.799  1.00  0.00     0.055 A 
ATOM     11  C   UNL     1      14.045 -50.327 -25.017  1.00  0.00     0.065 A 
ATOM     12  C   UNL     1      13.188 -48.889 -23.260  1.00  0.00     0.161 A 
ATOM     13  C   UNL     1      13.999 -49.078 -24.394  1.00  0.00     0.161 A 
BRANCH  12  14
ATOM     14  O   UNL     1      13.150 -47.705 -22.570  1.00  0.00    -0.493 OA
ATOM     15  C   UNL     1      14.020 -47.767 -21.436  1.00  0.00     0.278 C 
ENDBRANCH  12  14
BRANCH  13  16
ATOM     16  O   UNL     1      14.816 -48.118 -24.930  1.00  0.00    -0.493 OA
ATOM     17  C   UNL     1      14.316 -47.585 -26.157  1.00  0.00     0.278 C 
ENDBRANCH  13  16
ENDBRANCH   2   5
ENDBRANCH   1   2
BRANCH   1  18
ATOM     18  C   UNL     1      11.017 -56.254 -21.977  1.00  0.00     0.067 C 
BRANCH  18  19
ATOM     19  C   UNL     1      10.737 -57.699 -22.317  1.00  0.00    -0.032 A 
ATOM     20  C   UNL     1       9.531 -58.055 -22.924  1.00  0.00     0.075 A 
ATOM     21  C   UNL     1      11.649 -58.708 -22.010  1.00  0.00     0.075 A 
ATOM     22  C   UNL     1       9.271 -59.386 -23.221  1.00  0.00     0.308 A 
ATOM     23  C   UNL     1      11.348 -60.028 -22.327  1.00  0.00     0.308 A 
ATOM     24  N   UNL     1      10.177 -60.347 -22.928  1.00  0.00    -0.201 N 
BRANCH  24  25
ATOM     25  C   UNL     1       9.879 -61.765 -23.247  1.00  0.00     0.393 C 
BRANCH  25  26
ATOM     26  C   UNL     1       9.474 -61.930 -24.691  1.00  0.00     0.017 A 
ATOM     27  C   UNL     1       8.390 -62.752 -25.046  1.00  0.00     0.013 A 
ATOM     28  C   UNL     1      10.189 -61.270 -25.706  1.00  0.00     0.013 A 
ATOM     29  C   UNL     1       8.021 -62.895 -26.386  1.00  0.00     0.040 A 
ATOM     30  C   UNL     1       9.816 -61.418 -27.044  1.00  0.00     0.040 A 
ATOM     31  C   UNL     1       8.736 -62.227 -27.371  1.00  0.00     0.123 A 
ATOM     32  F   UNL     1       8.379 -62.365 -28.653  1.00  0.00    -0.207 F 
ENDBRANCH  25  26
ENDBRANCH  24  25
ENDBRANCH  18  19
ENDBRANCH   1  18
TORSDOF 9
ENDMDL
MODEL 7
REMARK VINA RESULT:    -9.504      5.130     11.239
REMARK INTER + INTRA:         -14.935
REMARK INTER:                 -14.006
REMARK INTRA:                  -0.929
REMARK UNBOUND:                -0.708
REMARK SMILES COc1cc2c(cc1OC)S[C@@H](C(O)=CCc1cc[n+](Cc3ccc(F)cc3)cc1)C2
REMARK SMILES IDX 15 1 13 2 14 3 12 5 31 6 11 7 5 8 6 9 4 10 7 11 3 12 8 13
REMARK SMILES IDX 2 14 1 15 9 16 10 17 16 18 17 19 18 20 30 21 19 22 29 23
REMARK SMILES IDX 20 24 21 25 22 26 23 27 28 28 24 29 27 30 25 31 26 32
REMARK H PARENT 14 4
ROOT
ATOM      1  C   UNL     1      11.380 -55.014 -22.555  1.00  0.00     0.020 C 
ENDROOT
BRANCH   1   2
ATOM      2  C   UNL     1      11.187 -56.205 -23.146  1.00  0.00     0.102 C 
BRANCH   2   3
ATOM      3  O   UNL     1      12.031 -56.575 -24.186  1.00  0.00    -0.511 OA
ATOM      4  H   UNL     1      11.515 -56.483 -25.015  1.00  0.00     0.293 HD
ENDBRANCH   2   3
BRANCH   2   5
ATOM      5  C   UNL     1      10.119 -57.215 -22.754  1.00  0.00     0.121 C 
ATOM      6  C   UNL     1       8.665 -56.902 -23.168  1.00  0.00     0.059 C 
ATOM      7  S   UNL     1      10.487 -58.860 -23.485  1.00  0.00    -0.114 SA
ATOM      8  C   UNL     1       7.945 -58.218 -23.268  1.00  0.00    -0.029 A 
ATOM      9  C   UNL     1       8.780 -59.318 -23.477  1.00  0.00     0.015 A 
ATOM     10  C   UNL     1       6.564 -58.380 -23.249  1.00  0.00     0.055 A 
ATOM     11  C   UNL     1       8.264 -60.594 -23.640  1.00  0.00     0.065 A 
ATOM     12  C   UNL     1       6.033 -59.661 -23.429  1.00  0.00     0.161 A 
ATOM     13  C   UNL     1       6.880 -60.774 -23.579  1.00  0.00     0.161 A 
BRANCH  12  14
ATOM     14  O   UNL     1       4.667 -59.769 -23.425  1.00  0.00    -0.493 OA
ATOM     15  C   UNL     1       4.091 -58.710 -22.654  1.00  0.00     0.278 C 
ENDBRANCH  12  14
BRANCH  13  16
ATOM     16  O   UNL     1       6.443 -62.064 -23.725  1.00  0.00    -0.493 OA
ATOM     17  C   UNL     1       7.405 -62.909 -24.359  1.00  0.00     0.278 C 
ENDBRANCH  13  16
ENDBRANCH   2   5
ENDBRANCH   1   2
BRANCH   1  18
ATOM     18  C   UNL     1      10.742 -53.727 -22.997  1.00  0.00     0.067 C 
BRANCH  18  19
ATOM     19  C   UNL     1      11.757 -52.719 -23.484  1.00  0.00    -0.032 A 
ATOM     20  C   UNL     1      11.943 -51.521 -22.792  1.00  0.00     0.075 A 
ATOM     21  C   UNL     1      12.504 -52.942 -24.641  1.00  0.00     0.075 A 
ATOM     22  C   UNL     1      12.865 -50.591 -23.253  1.00  0.00     0.308 A 
ATOM     23  C   UNL     1      13.418 -51.983 -25.064  1.00  0.00     0.308 A 
ATOM     24  N   UNL     1      13.590 -50.834 -24.368  1.00  0.00    -0.201 N 
BRANCH  24  25
ATOM     25  C   UNL     1      14.567 -49.825 -24.848  1.00  0.00     0.393 C 
BRANCH  25  26
ATOM     26  C   UNL     1      15.960 -50.400 -24.921  1.00  0.00     0.017 A 
ATOM     27  C   UNL     1      16.662 -50.436 -26.139  1.00  0.00     0.013 A 
ATOM     28  C   UNL     1      16.571 -50.923 -23.768  1.00  0.00     0.013 A 
ATOM     29  C   UNL     1      17.953 -50.967 -26.194  1.00  0.00     0.040 A 
ATOM     30  C   UNL     1      17.861 -51.454 -23.830  1.00  0.00     0.040 A 
ATOM     31  C   UNL     1      18.540 -51.469 -25.041  1.00  0.00     0.123 A 
ATOM     32  F   UNL     1      19.778 -51.977 -25.098  1.00  0.00    -0.207 F 
ENDBRANCH  25  26
ENDBRANCH  24  25
ENDBRANCH  18  19
ENDBRANCH   1  18
TORSDOF 9
ENDMDL
MODEL 8
REMARK VINA RESULT:    -9.430      5.164     10.963
REMARK INTER + INTRA:         -14.823
REMARK INTER:                 -14.237
REMARK INTRA:                  -0.587
REMARK UNBOUND:                -0.708
REMARK SMILES COc1cc2c(cc1OC)S[C@@H](C(O)=CCc1cc[n+](Cc3ccc(F)cc3)cc1)C2
REMARK SMILES IDX 15 1 13 2 14 3 12 5 31 6 11 7 5 8 6 9 4 10 7 11 3 12 8 13
REMARK SMILES IDX 2 14 1 15 9 16 10 17 16 18 17 19 18 20 30 21 19 22 29 23
REMARK SMILES IDX 20 24 21 25 22 26 23 27 28 28 24 29 27 30 25 31 26 32
REMARK H PARENT 14 4
ROOT
ATOM      1  C   UNL     1      10.846 -57.079 -22.124  1.00  0.00     0.020 C 
ENDROOT
BRANCH   1   2
ATOM      2  C   UNL     1      10.719 -58.399 -22.334  1.00  0.00     0.102 C 
BRANCH   2   3
ATOM      3  O   UNL     1      11.397 -59.273 -21.493  1.00  0.00    -0.511 OA
ATOM      4  H   UNL     1      12.154 -59.629 -22.005  1.00  0.00     0.293 HD
ENDBRANCH   2   3
BRANCH   2   5
ATOM      5  C   UNL     1       9.863 -59.036 -23.418  1.00  0.00     0.121 C 
ATOM      6  C   UNL     1      10.586 -59.534 -24.688  1.00  0.00     0.059 C 
ATOM      7  S   UNL     1       8.975 -60.504 -22.760  1.00  0.00    -0.114 SA
ATOM      8  C   UNL     1       9.739 -60.627 -25.275  1.00  0.00    -0.029 A 
ATOM      9  C   UNL     1       8.882 -61.246 -24.362  1.00  0.00     0.015 A 
ATOM     10  C   UNL     1       9.817 -61.089 -26.584  1.00  0.00     0.055 A 
ATOM     11  C   UNL     1       8.072 -62.307 -24.737  1.00  0.00     0.065 A 
ATOM     12  C   UNL     1       9.016 -62.168 -26.968  1.00  0.00     0.161 A 
ATOM     13  C   UNL     1       8.112 -62.749 -26.062  1.00  0.00     0.161 A 
BRANCH  12  14
ATOM     14  O   UNL     1       9.145 -62.602 -28.263  1.00  0.00    -0.493 OA
ATOM     15  C   UNL     1       9.740 -61.581 -29.068  1.00  0.00     0.278 C 
ENDBRANCH  12  14
BRANCH  13  16
ATOM     16  O   UNL     1       7.268 -63.784 -26.366  1.00  0.00    -0.493 OA
ATOM     17  C   UNL     1       6.521 -64.244 -25.238  1.00  0.00     0.278 C 
ENDBRANCH  13  16
ENDBRANCH   2   5
ENDBRANCH   1   2
BRANCH   1  18
ATOM     18  C   UNL     1       9.970 -56.026 -22.744  1.00  0.00     0.067 C 
BRANCH  18  19
ATOM     19  C   UNL     1      10.742 -54.783 -23.120  1.00  0.00    -0.032 A 
ATOM     20  C   UNL     1      10.729 -53.669 -22.279  1.00  0.00     0.075 A 
ATOM     21  C   UNL     1      11.455 -54.704 -24.316  1.00  0.00     0.075 A 
ATOM     22  C   UNL     1      11.427 -52.523 -22.636  1.00  0.00     0.308 A 
ATOM     23  C   UNL     1      12.141 -53.537 -24.632  1.00  0.00     0.308 A 
ATOM     24  N   UNL     1      12.124 -52.473 -23.794  1.00  0.00    -0.201 N 
BRANCH  24  25
ATOM     25  C   UNL     1      12.859 -51.238 -24.161  1.00  0.00     0.393 C 
BRANCH  25  26
ATOM     26  C   UNL     1      14.347 -51.481 -24.221  1.00  0.00     0.017 A 
ATOM     27  C   UNL     1      14.932 -52.091 -25.345  1.00  0.00     0.013 A 
ATOM     28  C   UNL     1      15.169 -51.111 -23.143  1.00  0.00     0.013 A 
ATOM     29  C   UNL     1      16.311 -52.308 -25.392  1.00  0.00     0.040 A 
ATOM     30  C   UNL     1      16.547 -51.332 -23.195  1.00  0.00     0.040 A 
ATOM     31  C   UNL     1      17.105 -51.926 -24.319  1.00  0.00     0.123 A 
ATOM     32  F   UNL     1      18.426 -52.134 -24.368  1.00  0.00    -0.207 F 
ENDBRANCH  25  26
ENDBRANCH  24  25
ENDBRANCH  18  19
ENDBRANCH   1  18
TORSDOF 9
ENDMDL
MODEL 9
REMARK VINA RESULT:    -9.400      5.043     11.475
REMARK INTER + INTRA:         -14.779
REMARK INTER:                 -14.179
REMARK INTRA:                  -0.600
REMARK UNBOUND:                -0.708
REMARK SMILES COc1cc2c(cc1OC)S[C@@H](C(O)=CCc1cc[n+](Cc3ccc(F)cc3)cc1)C2
REMARK SMILES IDX 15 1 13 2 14 3 12 5 31 6 11 7 5 8 6 9 4 10 7 11 3 12 8 13
REMARK SMILES IDX 2 14 1 15 9 16 10 17 16 18 17 19 18 20 30 21 19 22 29 23
REMARK SMILES IDX 20 24 21 25 22 26 23 27 28 28 24 29 27 30 25 31 26 32
REMARK H PARENT 14 4
ROOT
ATOM      1  C   UNL     1      10.456 -54.468 -23.618  1.00  0.00     0.020 C 
ENDROOT
BRANCH   1   2
ATOM      2  C   UNL     1      10.408 -55.176 -22.477  1.00  0.00     0.102 C 
BRANCH   2   3
ATOM      3  O   UNL     1      10.794 -54.556 -21.295  1.00  0.00    -0.511 OA
ATOM      4  H   UNL     1      11.725 -54.270 -21.416  1.00  0.00     0.293 HD
ENDBRANCH   2   3
BRANCH   2   5
ATOM      5  C   UNL     1       9.936 -56.617 -22.359  1.00  0.00     0.121 C 
ATOM      6  C   UNL     1       9.105 -57.186 -23.530  1.00  0.00     0.059 C 
ATOM      7  S   UNL     1      11.370 -57.754 -22.188  1.00  0.00    -0.114 SA
ATOM      8  C   UNL     1       9.298 -58.676 -23.521  1.00  0.00    -0.029 A 
ATOM      9  C   UNL     1      10.467 -59.103 -22.887  1.00  0.00     0.015 A 
ATOM     10  C   UNL     1       8.466 -59.597 -24.148  1.00  0.00     0.055 A 
ATOM     11  C   UNL     1      10.813 -60.444 -22.839  1.00  0.00     0.065 A 
ATOM     12  C   UNL     1       8.815 -60.950 -24.119  1.00  0.00     0.161 A 
ATOM     13  C   UNL     1       9.962 -61.382 -23.428  1.00  0.00     0.161 A 
BRANCH  12  14
ATOM     14  O   UNL     1       7.976 -61.818 -24.770  1.00  0.00    -0.493 OA
ATOM     15  C   UNL     1       8.551 -62.217 -26.018  1.00  0.00     0.278 C 
ENDBRANCH  12  14
BRANCH  13  16
ATOM     16  O   UNL     1      10.355 -62.689 -23.322  1.00  0.00    -0.493 OA
ATOM     17  C   UNL     1       9.547 -63.441 -22.414  1.00  0.00     0.278 C 
ENDBRANCH  13  16
ENDBRANCH   2   5
ENDBRANCH   1   2
BRANCH   1  18
ATOM     18  C   UNL     1      11.696 -54.257 -24.441  1.00  0.00     0.067 C 
BRANCH  18  19
ATOM     19  C   UNL     1      12.295 -52.885 -24.238  1.00  0.00    -0.032 A 
ATOM     20  C   UNL     1      12.035 -52.173 -23.065  1.00  0.00     0.075 A 
ATOM     21  C   UNL     1      13.089 -52.287 -25.216  1.00  0.00     0.075 A 
ATOM     22  C   UNL     1      12.575 -50.906 -22.890  1.00  0.00     0.308 A 
ATOM     23  C   UNL     1      13.609 -51.016 -24.997  1.00  0.00     0.308 A 
ATOM     24  N   UNL     1      13.354 -50.351 -23.846  1.00  0.00    -0.201 N 
BRANCH  24  25
ATOM     25  C   UNL     1      13.917 -48.993 -23.643  1.00  0.00     0.393 C 
BRANCH  25  26
ATOM     26  C   UNL     1      12.827 -47.974 -23.420  1.00  0.00     0.017 A 
ATOM     27  C   UNL     1      12.654 -47.368 -22.163  1.00  0.00     0.013 A 
ATOM     28  C   UNL     1      11.957 -47.626 -24.468  1.00  0.00     0.013 A 
ATOM     29  C   UNL     1      11.644 -46.422 -21.968  1.00  0.00     0.040 A 
ATOM     30  C   UNL     1      10.949 -46.681 -24.267  1.00  0.00     0.040 A 
ATOM     31  C   UNL     1      10.803 -46.087 -23.020  1.00  0.00     0.123 A 
ATOM     32  F   UNL     1       9.837 -45.180 -22.830  1.00  0.00    -0.207 F 
ENDBRANCH  25  26
ENDBRANCH  24  25
ENDBRANCH  18  19
ENDBRANCH   1  18
TORSDOF 9
ENDMDL
