MODEL 1
REMARK VINA RESULT:   -11.132      0.000      0.000
REMARK INTER + INTRA:         -17.964
REMARK INTER:                 -17.314
REMARK INTRA:                  -0.650
REMARK UNBOUND:                -0.650
REMARK SMILES COc1cc2cc(C(O)=CCc3cc[n+](Cc4ccc([N+](=O)[O-])o4)cc3)sc2cc1OC
REMARK SMILES IDX 11 1 10 2 8 3 9 4 7 6 6 7 27 8 5 9 28 10 4 11 29 12 3 13
REMARK SMILES IDX 30 14 2 15 1 16 31 17 32 18 12 19 13 20 26 21 14 22 25 23
REMARK SMILES IDX 15 24 16 25 17 26 18 27 24 28 19 29 20 30 21 31 22 32 23 33
REMARK H PARENT 9 5
ROOT
ATOM      1  C   UNL     1      11.041 -55.994 -21.594  1.00  0.00     0.067 C 
ENDROOT
BRANCH   1   2
ATOM      2  C   UNL     1      11.034 -54.902 -22.623  1.00  0.00     0.025 C 
BRANCH   2   3
ATOM      3  C   UNL     1      10.948 -53.594 -22.342  1.00  0.00     0.129 C 
BRANCH   3   4
ATOM      4  O   UNL     1      10.145 -53.138 -21.318  1.00  0.00    -0.507 OA
ATOM      5  H   UNL     1      10.551 -52.322 -20.970  1.00  0.00     0.293 HD
ENDBRANCH   3   4
BRANCH   3   6
ATOM      6  C   UNL     1      11.623 -52.598 -23.108  1.00  0.00     0.070 A 
ATOM      7  C   UNL     1      12.372 -52.767 -24.258  1.00  0.00     0.032 A 
ATOM      8  S   UNL     1      11.546 -50.932 -22.693  1.00  0.00    -0.132 S 
ATOM      9  C   UNL     1      12.904 -51.547 -24.792  1.00  0.00    -0.003 A 
ATOM     10  C   UNL     1      12.526 -50.451 -24.023  1.00  0.00     0.039 A 
ATOM     11  C   UNL     1      13.712 -51.313 -25.926  1.00  0.00     0.060 A 
ATOM     12  C   UNL     1      12.937 -49.140 -24.346  1.00  0.00     0.070 A 
ATOM     13  C   UNL     1      14.110 -50.014 -26.273  1.00  0.00     0.161 A 
ATOM     14  C   UNL     1      13.746 -48.924 -25.472  1.00  0.00     0.162 A 
BRANCH  13  15
ATOM     15  O   UNL     1      14.901 -49.975 -27.395  1.00  0.00    -0.493 OA
ATOM     16  C   UNL     1      16.306 -49.929 -27.165  1.00  0.00     0.278 C 
ENDBRANCH  13  15
BRANCH  14  17
ATOM     17  O   UNL     1      14.232 -47.692 -25.824  1.00  0.00    -0.493 OA
ATOM     18  C   UNL     1      14.013 -46.602 -24.937  1.00  0.00     0.278 C 
ENDBRANCH  14  17
ENDBRANCH   3   6
ENDBRANCH   2   3
ENDBRANCH   1   2
BRANCH   1  19
ATOM     19  C   UNL     1      11.271 -57.351 -22.220  1.00  0.00    -0.032 A 
ATOM     20  C   UNL     1      11.082 -58.512 -21.467  1.00  0.00     0.075 A 
ATOM     21  C   UNL     1      11.638 -57.478 -23.559  1.00  0.00     0.075 A 
ATOM     22  C   UNL     1      11.269 -59.756 -22.057  1.00  0.00     0.309 A 
ATOM     23  C   UNL     1      11.814 -58.743 -24.108  1.00  0.00     0.309 A 
ATOM     24  N   UNL     1      11.625 -59.855 -23.358  1.00  0.00    -0.198 N 
BRANCH  24  25
ATOM     25  C   UNL     1      11.818 -61.194 -23.969  1.00  0.00     0.432 C 
BRANCH  25  26
ATOM     26  C   UNL     1      10.615 -62.039 -23.746  1.00  0.00     0.176 A 
ATOM     27  C   UNL     1      10.225 -62.914 -22.747  1.00  0.00     0.060 A 
ATOM     28  O   UNL     1       9.643 -61.968 -24.706  1.00  0.00    -0.399 OA
ATOM     29  C   UNL     1       8.945 -63.412 -23.116  1.00  0.00     0.134 A 
ATOM     30  C   UNL     1       8.644 -62.806 -24.312  1.00  0.00     0.433 A 
BRANCH  30  31
ATOM     31  N   UNL     1       7.517 -62.899 -25.185  1.00  0.00     0.102 N 
ATOM     32  O   UNL     1       7.756 -63.175 -26.365  1.00  0.00    -0.256 OA
ATOM     33  O   UNL     1       6.403 -62.688 -24.689  1.00  0.00    -0.256 OA
ENDBRANCH  30  31
ENDBRANCH  25  26
ENDBRANCH  24  25
ENDBRANCH   1  19
TORSDOF 10
ENDMDL
MODEL 2
REMARK VINA RESULT:   -11.045      0.810      1.803
REMARK INTER + INTRA:         -17.829
REMARK INTER:                 -17.255
REMARK INTRA:                  -0.574
REMARK UNBOUND:                -0.650
REMARK SMILES COc1cc2cc(C(O)=CCc3cc[n+](Cc4ccc([N+](=O)[O-])o4)cc3)sc2cc1OC
REMARK SMILES IDX 11 1 10 2 8 3 9 4 7 6 6 7 27 8 5 9 28 10 4 11 29 12 3 13
REMARK SMILES IDX 30 14 2 15 1 16 31 17 32 18 12 19 13 20 26 21 14 22 25 23
REMARK SMILES IDX 15 24 16 25 17 26 18 27 24 28 19 29 20 30 21 31 22 32 23 33
REMARK H PARENT 9 5
ROOT
ATOM      1  C   UNL     1      11.087 -56.310 -21.559  1.00  0.00     0.067 C 
ENDROOT
BRANCH   1   2
ATOM      2  C   UNL     1      10.792 -55.266 -22.596  1.00  0.00     0.025 C 
BRANCH   2   3
ATOM      3  C   UNL     1      10.832 -53.944 -22.377  1.00  0.00     0.129 C 
BRANCH   3   4
ATOM      4  O   UNL     1      10.122 -53.374 -21.341  1.00  0.00    -0.507 OA
ATOM      5  H   UNL     1       9.340 -52.939 -21.728  1.00  0.00     0.293 HD
ENDBRANCH   3   4
BRANCH   3   6
ATOM      6  C   UNL     1      11.552 -53.047 -23.220  1.00  0.00     0.070 A 
ATOM      7  C   UNL     1      11.787 -51.698 -23.027  1.00  0.00     0.032 A 
ATOM      8  S   UNL     1      12.314 -53.579 -24.666  1.00  0.00    -0.132 S 
ATOM      9  C   UNL     1      12.568 -51.089 -24.065  1.00  0.00    -0.003 A 
ATOM     10  C   UNL     1      12.926 -52.015 -25.038  1.00  0.00     0.039 A 
ATOM     11  C   UNL     1      13.001 -49.754 -24.229  1.00  0.00     0.060 A 
ATOM     12  C   UNL     1      13.691 -51.648 -26.167  1.00  0.00     0.070 A 
ATOM     13  C   UNL     1      13.780 -49.379 -25.333  1.00  0.00     0.161 A 
ATOM     14  C   UNL     1      14.107 -50.318 -26.320  1.00  0.00     0.162 A 
BRANCH  13  15
ATOM     15  O   UNL     1      14.099 -48.044 -25.337  1.00  0.00    -0.493 OA
ATOM     16  C   UNL     1      14.914 -47.594 -24.258  1.00  0.00     0.278 C 
ENDBRANCH  13  15
BRANCH  14  17
ATOM     17  O   UNL     1      14.805 -49.868 -27.411  1.00  0.00    -0.493 OA
ATOM     18  C   UNL     1      16.211 -49.692 -27.287  1.00  0.00     0.278 C 
ENDBRANCH  14  17
ENDBRANCH   3   6
ENDBRANCH   2   3
ENDBRANCH   1   2
BRANCH   1  19
ATOM     19  C   UNL     1      11.235 -57.684 -22.174  1.00  0.00    -0.032 A 
ATOM     20  C   UNL     1      10.902 -58.822 -21.436  1.00  0.00     0.075 A 
ATOM     21  C   UNL     1      11.666 -57.845 -23.490  1.00  0.00     0.075 A 
ATOM     22  C   UNL     1      11.015 -60.079 -22.017  1.00  0.00     0.309 A 
ATOM     23  C   UNL     1      11.763 -59.122 -24.031  1.00  0.00     0.309 A 
ATOM     24  N   UNL     1      11.436 -60.212 -23.295  1.00  0.00    -0.198 N 
BRANCH  24  25
ATOM     25  C   UNL     1      11.547 -61.564 -23.897  1.00  0.00     0.432 C 
BRANCH  25  26
ATOM     26  C   UNL     1      10.313 -62.349 -23.632  1.00  0.00     0.176 A 
ATOM     27  C   UNL     1       9.879 -63.133 -22.577  1.00  0.00     0.060 A 
ATOM     28  O   UNL     1       9.356 -62.315 -24.609  1.00  0.00    -0.399 OA
ATOM     29  C   UNL     1       8.587 -63.613 -22.928  1.00  0.00     0.134 A 
ATOM     30  C   UNL     1       8.323 -63.087 -24.169  1.00  0.00     0.433 A 
BRANCH  30  31
ATOM     31  N   UNL     1       7.204 -63.205 -25.050  1.00  0.00     0.102 N 
ATOM     32  O   UNL     1       6.147 -62.692 -24.668  1.00  0.00    -0.256 OA
ATOM     33  O   UNL     1       7.386 -63.814 -26.112  1.00  0.00    -0.256 OA
ENDBRANCH  30  31
ENDBRANCH  25  26
ENDBRANCH  24  25
ENDBRANCH   1  19
TORSDOF 10
ENDMDL
MODEL 3
REMARK VINA RESULT:   -10.383      1.807      2.423
REMARK INTER + INTRA:         -16.800
REMARK INTER:                 -16.394
REMARK INTRA:                  -0.406
REMARK UNBOUND:                -0.650
REMARK SMILES COc1cc2cc(C(O)=CCc3cc[n+](Cc4ccc([N+](=O)[O-])o4)cc3)sc2cc1OC
REMARK SMILES IDX 11 1 10 2 8 3 9 4 7 6 6 7 27 8 5 9 28 10 4 11 29 12 3 13
REMARK SMILES IDX 30 14 2 15 1 16 31 17 32 18 12 19 13 20 26 21 14 22 25 23
REMARK SMILES IDX 15 24 16 25 17 26 18 27 24 28 19 29 20 30 21 31 22 32 23 33
REMARK H PARENT 9 5
ROOT
ATOM      1  C   UNL     1      11.366 -56.272 -21.783  1.00  0.00     0.067 C 
ENDROOT
BRANCH   1   2
ATOM      2  C   UNL     1      10.657 -55.381 -22.759  1.00  0.00     0.025 C 
BRANCH   2   3
ATOM      3  C   UNL     1      11.269 -54.614 -23.673  1.00  0.00     0.129 C 
BRANCH   3   4
ATOM      4  O   UNL     1      11.772 -55.158 -24.836  1.00  0.00    -0.507 OA
ATOM      5  H   UNL     1      11.175 -55.884 -25.100  1.00  0.00     0.293 HD
ENDBRANCH   3   4
BRANCH   3   6
ATOM      6  C   UNL     1      11.490 -53.218 -23.481  1.00  0.00     0.070 A 
ATOM      7  C   UNL     1      12.389 -52.398 -24.139  1.00  0.00     0.032 A 
ATOM      8  S   UNL     1      10.567 -52.302 -22.357  1.00  0.00    -0.132 S 
ATOM      9  C   UNL     1      12.344 -51.028 -23.715  1.00  0.00    -0.003 A 
ATOM     10  C   UNL     1      11.381 -50.834 -22.731  1.00  0.00     0.039 A 
ATOM     11  C   UNL     1      13.099 -49.910 -24.133  1.00  0.00     0.060 A 
ATOM     12  C   UNL     1      11.158 -49.567 -22.150  1.00  0.00     0.070 A 
ATOM     13  C   UNL     1      12.874 -48.640 -23.582  1.00  0.00     0.161 A 
ATOM     14  C   UNL     1      11.921 -48.467 -22.571  1.00  0.00     0.162 A 
BRANCH  13  15
ATOM     15  O   UNL     1      13.704 -47.675 -24.097  1.00  0.00    -0.493 OA
ATOM     16  C   UNL     1      15.029 -47.649 -23.571  1.00  0.00     0.278 C 
ENDBRANCH  13  15
BRANCH  14  17
ATOM     17  O   UNL     1      11.804 -47.216 -22.022  1.00  0.00    -0.493 OA
ATOM     18  C   UNL     1      10.649 -46.447 -22.334  1.00  0.00     0.278 C 
ENDBRANCH  14  17
ENDBRANCH   3   6
ENDBRANCH   2   3
ENDBRANCH   1   2
BRANCH   1  19
ATOM     19  C   UNL     1      11.310 -57.723 -22.207  1.00  0.00    -0.032 A 
ATOM     20  C   UNL     1      10.825 -58.692 -21.326  1.00  0.00     0.075 A 
ATOM     21  C   UNL     1      11.702 -58.119 -23.484  1.00  0.00     0.075 A 
ATOM     22  C   UNL     1      10.751 -60.019 -21.732  1.00  0.00     0.309 A 
ATOM     23  C   UNL     1      11.609 -59.458 -23.848  1.00  0.00     0.309 A 
ATOM     24  N   UNL     1      11.136 -60.381 -22.977  1.00  0.00    -0.198 N 
BRANCH  24  25
ATOM     25  C   UNL     1      11.047 -61.803 -23.391  1.00  0.00     0.432 C 
BRANCH  25  26
ATOM     26  C   UNL     1      10.153 -61.941 -24.570  1.00  0.00     0.176 A 
ATOM     27  C   UNL     1      10.201 -61.478 -25.874  1.00  0.00     0.060 A 
ATOM     28  O   UNL     1       9.022 -62.687 -24.384  1.00  0.00    -0.399 OA
ATOM     29  C   UNL     1       9.033 -61.963 -26.524  1.00  0.00     0.134 A 
ATOM     30  C   UNL     1       8.355 -62.687 -25.572  1.00  0.00     0.433 A 
BRANCH  30  31
ATOM     31  N   UNL     1       7.121 -63.407 -25.604  1.00  0.00     0.102 N 
ATOM     32  O   UNL     1       6.331 -63.185 -24.680  1.00  0.00    -0.256 OA
ATOM     33  O   UNL     1       6.952 -64.192 -26.546  1.00  0.00    -0.256 OA
ENDBRANCH  30  31
ENDBRANCH  25  26
ENDBRANCH  24  25
ENDBRANCH   1  19
TORSDOF 10
ENDMDL
MODEL 4
REMARK VINA RESULT:   -10.295      1.255      1.508
REMARK INTER + INTRA:         -16.662
REMARK INTER:                 -15.849
REMARK INTRA:                  -0.813
REMARK UNBOUND:                -0.650
REMARK SMILES COc1cc2cc(C(O)=CCc3cc[n+](Cc4ccc([N+](=O)[O-])o4)cc3)sc2cc1OC
REMARK SMILES IDX 11 1 10 2 8 3 9 4 7 6 6 7 27 8 5 9 28 10 4 11 29 12 3 13
REMARK SMILES IDX 30 14 2 15 1 16 31 17 32 18 12 19 13 20 26 21 14 22 25 23
REMARK SMILES IDX 15 24 16 25 17 26 18 27 24 28 19 29 20 30 21 31 22 32 23 33
REMARK H PARENT 9 5
ROOT
ATOM      1  C   UNL     1      11.077 -56.094 -21.504  1.00  0.00     0.067 C 
ENDROOT
BRANCH   1   2
ATOM      2  C   UNL     1      11.093 -54.984 -22.513  1.00  0.00     0.025 C 
BRANCH   2   3
ATOM      3  C   UNL     1      10.586 -53.761 -22.306  1.00  0.00     0.129 C 
BRANCH   3   4
ATOM      4  O   UNL     1       9.384 -53.591 -21.651  1.00  0.00    -0.507 OA
ATOM      5  H   UNL     1       8.759 -53.192 -22.285  1.00  0.00     0.293 HD
ENDBRANCH   3   4
BRANCH   3   6
ATOM      6  C   UNL     1      11.214 -52.576 -22.792  1.00  0.00     0.070 A 
ATOM      7  C   UNL     1      12.103 -52.451 -23.845  1.00  0.00     0.032 A 
ATOM      8  S   UNL     1      10.885 -51.033 -22.111  1.00  0.00    -0.132 S 
ATOM      9  C   UNL     1      12.535 -51.105 -24.085  1.00  0.00    -0.003 A 
ATOM     10  C   UNL     1      11.941 -50.216 -23.196  1.00  0.00     0.039 A 
ATOM     11  C   UNL     1      13.431 -50.583 -25.044  1.00  0.00     0.060 A 
ATOM     12  C   UNL     1      12.219 -48.833 -23.231  1.00  0.00     0.070 A 
ATOM     13  C   UNL     1      13.701 -49.208 -25.106  1.00  0.00     0.161 A 
ATOM     14  C   UNL     1      13.117 -48.330 -24.185  1.00  0.00     0.162 A 
BRANCH  13  15
ATOM     15  O   UNL     1      14.602 -48.881 -26.089  1.00  0.00    -0.493 OA
ATOM     16  C   UNL     1      15.562 -49.883 -26.413  1.00  0.00     0.278 C 
ENDBRANCH  13  15
BRANCH  14  17
ATOM     17  O   UNL     1      13.482 -47.011 -24.252  1.00  0.00    -0.493 OA
ATOM     18  C   UNL     1      12.704 -46.135 -25.057  1.00  0.00     0.278 C 
ENDBRANCH  14  17
ENDBRANCH   3   6
ENDBRANCH   2   3
ENDBRANCH   1   2
BRANCH   1  19
ATOM     19  C   UNL     1      11.260 -57.446 -22.155  1.00  0.00    -0.032 A 
ATOM     20  C   UNL     1      11.077 -58.614 -21.411  1.00  0.00     0.075 A 
ATOM     21  C   UNL     1      11.577 -57.560 -23.508  1.00  0.00     0.075 A 
ATOM     22  C   UNL     1      11.221 -59.853 -22.023  1.00  0.00     0.309 A 
ATOM     23  C   UNL     1      11.710 -58.821 -24.080  1.00  0.00     0.309 A 
ATOM     24  N   UNL     1      11.529 -59.940 -23.338  1.00  0.00    -0.198 N 
BRANCH  24  25
ATOM     25  C   UNL     1      11.676 -61.273 -23.973  1.00  0.00     0.432 C 
BRANCH  25  26
ATOM     26  C   UNL     1      10.383 -61.706 -24.565  1.00  0.00     0.176 A 
ATOM     27  C   UNL     1       9.185 -62.154 -24.038  1.00  0.00     0.060 A 
ATOM     28  O   UNL     1      10.302 -61.664 -25.930  1.00  0.00    -0.399 OA
ATOM     29  C   UNL     1       8.321 -62.406 -25.139  1.00  0.00     0.134 A 
ATOM     30  C   UNL     1       9.052 -62.093 -26.259  1.00  0.00     0.433 A 
BRANCH  30  31
ATOM     31  N   UNL     1       8.748 -62.142 -27.655  1.00  0.00     0.102 N 
ATOM     32  O   UNL     1       8.015 -63.064 -28.026  1.00  0.00    -0.256 OA
ATOM     33  O   UNL     1       9.249 -61.265 -28.370  1.00  0.00    -0.256 OA
ENDBRANCH  30  31
ENDBRANCH  25  26
ENDBRANCH  24  25
ENDBRANCH   1  19
TORSDOF 10
ENDMDL
MODEL 5
REMARK VINA RESULT:   -10.011      2.453      3.180
REMARK INTER + INTRA:         -16.221
REMARK INTER:                 -15.735
REMARK INTRA:                  -0.486
REMARK UNBOUND:                -0.650
REMARK SMILES COc1cc2cc(C(O)=CCc3cc[n+](Cc4ccc([N+](=O)[O-])o4)cc3)sc2cc1OC
REMARK SMILES IDX 11 1 10 2 8 3 9 4 7 6 6 7 27 8 5 9 28 10 4 11 29 12 3 13
REMARK SMILES IDX 30 14 2 15 1 16 31 17 32 18 12 19 13 20 26 21 14 22 25 23
REMARK SMILES IDX 15 24 16 25 17 26 18 27 24 28 19 29 20 30 21 31 22 32 23 33
REMARK H PARENT 9 5
ROOT
ATOM      1  C   UNL     1      11.022 -57.832 -21.616  1.00  0.00     0.067 C 
ENDROOT
BRANCH   1   2
ATOM      2  C   UNL     1      11.444 -56.744 -22.558  1.00  0.00     0.025 C 
BRANCH   2   3
ATOM      3  C   UNL     1      10.644 -55.757 -22.987  1.00  0.00     0.129 C 
BRANCH   3   4
ATOM      4  O   UNL     1       9.341 -56.009 -23.361  1.00  0.00    -0.507 OA
ATOM      5  H   UNL     1       8.822 -56.135 -22.545  1.00  0.00     0.293 HD
ENDBRANCH   3   4
BRANCH   3   6
ATOM      6  C   UNL     1      11.096 -54.412 -23.137  1.00  0.00     0.070 A 
ATOM      7  C   UNL     1      11.910 -53.890 -24.126  1.00  0.00     0.032 A 
ATOM      8  S   UNL     1      10.613 -53.169 -22.053  1.00  0.00    -0.132 S 
ATOM      9  C   UNL     1      12.161 -52.484 -23.993  1.00  0.00    -0.003 A 
ATOM     10  C   UNL     1      11.505 -51.956 -22.885  1.00  0.00     0.039 A 
ATOM     11  C   UNL     1      12.937 -51.608 -24.783  1.00  0.00     0.060 A 
ATOM     12  C   UNL     1      11.609 -50.591 -22.543  1.00  0.00     0.070 A 
ATOM     13  C   UNL     1      13.031 -50.245 -24.469  1.00  0.00     0.161 A 
ATOM     14  C   UNL     1      12.389 -49.734 -23.333  1.00  0.00     0.162 A 
BRANCH  13  15
ATOM     15  O   UNL     1      13.835 -49.547 -25.336  1.00  0.00    -0.493 OA
ATOM     16  C   UNL     1      14.196 -50.227 -26.535  1.00  0.00     0.278 C 
ENDBRANCH  13  15
BRANCH  14  17
ATOM     17  O   UNL     1      12.585 -48.410 -23.040  1.00  0.00    -0.493 OA
ATOM     18  C   UNL     1      11.466 -47.640 -22.619  1.00  0.00     0.278 C 
ENDBRANCH  14  17
ENDBRANCH   3   6
ENDBRANCH   2   3
ENDBRANCH   1   2
BRANCH   1  19
ATOM     19  C   UNL     1      10.537 -59.057 -22.357  1.00  0.00    -0.032 A 
ATOM     20  C   UNL     1       9.200 -59.157 -22.748  1.00  0.00     0.075 A 
ATOM     21  C   UNL     1      11.410 -60.090 -22.698  1.00  0.00     0.075 A 
ATOM     22  C   UNL     1       8.767 -60.274 -23.453  1.00  0.00     0.309 A 
ATOM     23  C   UNL     1      10.933 -61.188 -23.405  1.00  0.00     0.309 A 
ATOM     24  N   UNL     1       9.632 -61.264 -23.773  1.00  0.00    -0.198 N 
BRANCH  24  25
ATOM     25  C   UNL     1       9.150 -62.447 -24.528  1.00  0.00     0.432 C 
BRANCH  25  26
ATOM     26  C   UNL     1       9.221 -62.188 -25.990  1.00  0.00     0.176 A 
ATOM     27  C   UNL     1       8.621 -62.759 -27.099  1.00  0.00     0.060 A 
ATOM     28  O   UNL     1      10.038 -61.164 -26.380  1.00  0.00    -0.399 OA
ATOM     29  C   UNL     1       9.101 -62.050 -28.234  1.00  0.00     0.134 A 
ATOM     30  C   UNL     1       9.957 -61.097 -27.738  1.00  0.00     0.433 A 
BRANCH  30  31
ATOM     31  N   UNL     1      10.751 -60.090 -28.370  1.00  0.00     0.102 N 
ATOM     32  O   UNL     1      11.136 -60.334 -29.518  1.00  0.00    -0.256 OA
ATOM     33  O   UNL     1      10.991 -59.069 -27.713  1.00  0.00    -0.256 OA
ENDBRANCH  30  31
ENDBRANCH  25  26
ENDBRANCH  24  25
ENDBRANCH   1  19
TORSDOF 10
ENDMDL
MODEL 6
REMARK VINA RESULT:    -9.987      1.636      1.955
REMARK INTER + INTRA:         -16.183
REMARK INTER:                 -15.881
REMARK INTRA:                  -0.303
REMARK UNBOUND:                -0.650
REMARK SMILES COc1cc2cc(C(O)=CCc3cc[n+](Cc4ccc([N+](=O)[O-])o4)cc3)sc2cc1OC
REMARK SMILES IDX 11 1 10 2 8 3 9 4 7 6 6 7 27 8 5 9 28 10 4 11 29 12 3 13
REMARK SMILES IDX 30 14 2 15 1 16 31 17 32 18 12 19 13 20 26 21 14 22 25 23
REMARK SMILES IDX 15 24 16 25 17 26 18 27 24 28 19 29 20 30 21 31 22 32 23 33
REMARK H PARENT 9 5
ROOT
ATOM      1  C   UNL     1      10.188 -54.756 -23.358  1.00  0.00     0.067 C 
ENDROOT
BRANCH   1   2
ATOM      2  C   UNL     1       9.832 -53.782 -22.274  1.00  0.00     0.025 C 
BRANCH   2   3
ATOM      3  C   UNL     1      10.028 -52.458 -22.347  1.00  0.00     0.129 C 
BRANCH   3   4
ATOM      4  O   UNL     1       9.058 -51.571 -21.930  1.00  0.00    -0.507 OA
ATOM      5  H   UNL     1       8.269 -52.093 -21.692  1.00  0.00     0.293 HD
ENDBRANCH   3   4
BRANCH   3   6
ATOM      6  C   UNL     1      11.210 -51.886 -22.905  1.00  0.00     0.070 A 
ATOM      7  C   UNL     1      12.140 -52.486 -23.735  1.00  0.00     0.032 A 
ATOM      8  S   UNL     1      11.635 -50.243 -22.633  1.00  0.00    -0.132 S 
ATOM      9  C   UNL     1      13.210 -51.619 -24.134  1.00  0.00    -0.003 A 
ATOM     10  C   UNL     1      13.058 -50.347 -23.594  1.00  0.00     0.039 A 
ATOM     11  C   UNL     1      14.335 -51.862 -24.952  1.00  0.00     0.060 A 
ATOM     12  C   UNL     1      13.995 -49.320 -23.839  1.00  0.00     0.070 A 
ATOM     13  C   UNL     1      15.263 -50.846 -25.223  1.00  0.00     0.161 A 
ATOM     14  C   UNL     1      15.112 -49.577 -24.648  1.00  0.00     0.162 A 
BRANCH  13  15
ATOM     15  O   UNL     1      16.297 -51.261 -26.024  1.00  0.00    -0.493 OA
ATOM     16  C   UNL     1      17.246 -52.133 -25.415  1.00  0.00     0.278 C 
ENDBRANCH  13  15
BRANCH  14  17
ATOM     17  O   UNL     1      16.094 -48.653 -24.891  1.00  0.00    -0.493 OA
ATOM     18  C   UNL     1      17.190 -48.580 -23.987  1.00  0.00     0.278 C 
ENDBRANCH  14  17
ENDBRANCH   3   6
ENDBRANCH   2   3
ENDBRANCH   1   2
BRANCH   1  19
ATOM     19  C   UNL     1      10.215 -56.179 -22.846  1.00  0.00    -0.032 A 
ATOM     20  C   UNL     1       9.222 -57.082 -23.231  1.00  0.00     0.075 A 
ATOM     21  C   UNL     1      11.241 -56.629 -22.016  1.00  0.00     0.075 A 
ATOM     22  C   UNL     1       9.269 -58.395 -22.778  1.00  0.00     0.309 A 
ATOM     23  C   UNL     1      11.249 -57.951 -21.587  1.00  0.00     0.309 A 
ATOM     24  N   UNL     1      10.274 -58.810 -21.973  1.00  0.00    -0.198 N 
BRANCH  24  25
ATOM     25  C   UNL     1      10.307 -60.217 -21.502  1.00  0.00     0.432 C 
BRANCH  25  26
ATOM     26  C   UNL     1      10.002 -61.143 -22.624  1.00  0.00     0.176 A 
ATOM     27  C   UNL     1      10.772 -61.785 -23.578  1.00  0.00     0.060 A 
ATOM     28  O   UNL     1       8.686 -61.474 -22.790  1.00  0.00    -0.399 OA
ATOM     29  C   UNL     1       9.879 -62.549 -24.378  1.00  0.00     0.134 A 
ATOM     30  C   UNL     1       8.629 -62.321 -23.856  1.00  0.00     0.433 A 
BRANCH  30  31
ATOM     31  N   UNL     1       7.329 -62.790 -24.221  1.00  0.00     0.102 N 
ATOM     32  O   UNL     1       7.242 -63.983 -24.531  1.00  0.00    -0.256 OA
ATOM     33  O   UNL     1       6.408 -61.964 -24.203  1.00  0.00    -0.256 OA
ENDBRANCH  30  31
ENDBRANCH  25  26
ENDBRANCH  24  25
ENDBRANCH   1  19
TORSDOF 10
ENDMDL
MODEL 7
REMARK VINA RESULT:    -9.807      2.588      3.847
REMARK INTER + INTRA:         -15.904
REMARK INTER:                 -15.681
REMARK INTRA:                  -0.223
REMARK UNBOUND:                -0.650
REMARK SMILES COc1cc2cc(C(O)=CCc3cc[n+](Cc4ccc([N+](=O)[O-])o4)cc3)sc2cc1OC
REMARK SMILES IDX 11 1 10 2 8 3 9 4 7 6 6 7 27 8 5 9 28 10 4 11 29 12 3 13
REMARK SMILES IDX 30 14 2 15 1 16 31 17 32 18 12 19 13 20 26 21 14 22 25 23
REMARK SMILES IDX 15 24 16 25 17 26 18 27 24 28 19 29 20 30 21 31 22 32 23 33
REMARK H PARENT 9 5
ROOT
ATOM      1  C   UNL     1      10.894 -58.466 -21.457  1.00  0.00     0.067 C 
ENDROOT
BRANCH   1   2
ATOM      2  C   UNL     1      11.380 -57.298 -22.264  1.00  0.00     0.025 C 
BRANCH   2   3
ATOM      3  C   UNL     1      10.585 -56.355 -22.791  1.00  0.00     0.129 C 
BRANCH   3   4
ATOM      4  O   UNL     1       9.289 -56.644 -23.165  1.00  0.00    -0.507 OA
ATOM      5  H   UNL     1       9.269 -56.685 -24.139  1.00  0.00     0.293 HD
ENDBRANCH   3   4
BRANCH   3   6
ATOM      6  C   UNL     1      11.036 -55.027 -23.050  1.00  0.00     0.070 A 
ATOM      7  C   UNL     1      10.857 -53.897 -22.272  1.00  0.00     0.032 A 
ATOM      8  S   UNL     1      11.969 -54.644 -24.442  1.00  0.00    -0.132 S 
ATOM      9  C   UNL     1      11.458 -52.714 -22.816  1.00  0.00    -0.003 A 
ATOM     10  C   UNL     1      12.105 -52.982 -24.018  1.00  0.00     0.039 A 
ATOM     11  C   UNL     1      11.483 -51.388 -22.332  1.00  0.00     0.060 A 
ATOM     12  C   UNL     1      12.765 -51.970 -24.748  1.00  0.00     0.070 A 
ATOM     13  C   UNL     1      12.154 -50.376 -23.034  1.00  0.00     0.161 A 
ATOM     14  C   UNL     1      12.776 -50.656 -24.257  1.00  0.00     0.162 A 
BRANCH  13  15
ATOM     15  O   UNL     1      12.065 -49.149 -22.424  1.00  0.00    -0.493 OA
ATOM     16  C   UNL     1      10.902 -48.384 -22.729  1.00  0.00     0.278 C 
ENDBRANCH  13  15
BRANCH  14  17
ATOM     17  O   UNL     1      13.346 -49.606 -24.930  1.00  0.00    -0.493 OA
ATOM     18  C   UNL     1      14.738 -49.370 -24.756  1.00  0.00     0.278 C 
ENDBRANCH  14  17
ENDBRANCH   3   6
ENDBRANCH   2   3
ENDBRANCH   1   2
BRANCH   1  19
ATOM     19  C   UNL     1      10.336 -59.561 -22.338  1.00  0.00    -0.032 A 
ATOM     20  C   UNL     1      11.199 -60.421 -23.020  1.00  0.00     0.075 A 
ATOM     21  C   UNL     1       8.962 -59.760 -22.460  1.00  0.00     0.075 A 
ATOM     22  C   UNL     1      10.679 -61.442 -23.805  1.00  0.00     0.309 A 
ATOM     23  C   UNL     1       8.485 -60.796 -23.257  1.00  0.00     0.309 A 
ATOM     24  N   UNL     1       9.342 -61.617 -23.910  1.00  0.00    -0.198 N 
BRANCH  24  25
ATOM     25  C   UNL     1       8.806 -62.715 -24.753  1.00  0.00     0.432 C 
BRANCH  25  26
ATOM     26  C   UNL     1       8.988 -62.394 -26.193  1.00  0.00     0.176 A 
ATOM     27  C   UNL     1       8.492 -62.930 -27.369  1.00  0.00     0.060 A 
ATOM     28  O   UNL     1       9.810 -61.338 -26.475  1.00  0.00    -0.399 OA
ATOM     29  C   UNL     1       9.044 -62.165 -28.432  1.00  0.00     0.134 A 
ATOM     30  C   UNL     1       9.836 -61.216 -27.831  1.00  0.00     0.433 A 
BRANCH  30  31
ATOM     31  N   UNL     1      10.655 -60.168 -28.355  1.00  0.00     0.102 N 
ATOM     32  O   UNL     1      11.094 -60.333 -29.499  1.00  0.00    -0.256 OA
ATOM     33  O   UNL     1      10.859 -59.194 -27.621  1.00  0.00    -0.256 OA
ENDBRANCH  30  31
ENDBRANCH  25  26
ENDBRANCH  24  25
ENDBRANCH   1  19
TORSDOF 10
ENDMDL
MODEL 8
REMARK VINA RESULT:    -9.553      2.901      4.027
REMARK INTER + INTRA:         -15.509
REMARK INTER:                 -14.791
REMARK INTRA:                  -0.717
REMARK UNBOUND:                -0.650
REMARK SMILES COc1cc2cc(C(O)=CCc3cc[n+](Cc4ccc([N+](=O)[O-])o4)cc3)sc2cc1OC
REMARK SMILES IDX 11 1 10 2 8 3 9 4 7 6 6 7 27 8 5 9 28 10 4 11 29 12 3 13
REMARK SMILES IDX 30 14 2 15 1 16 31 17 32 18 12 19 13 20 26 21 14 22 25 23
REMARK SMILES IDX 15 24 16 25 17 26 18 27 24 28 19 29 20 30 21 31 22 32 23 33
REMARK H PARENT 9 5
ROOT
ATOM      1  C   UNL     1      10.645 -54.392 -21.302  1.00  0.00     0.067 C 
ENDROOT
BRANCH   1   2
ATOM      2  C   UNL     1      10.793 -53.291 -22.312  1.00  0.00     0.025 C 
BRANCH   2   3
ATOM      3  C   UNL     1      10.074 -52.160 -22.313  1.00  0.00     0.129 C 
BRANCH   3   4
ATOM      4  O   UNL     1       8.707 -52.185 -22.134  1.00  0.00    -0.507 OA
ATOM      5  H   UNL     1       8.460 -51.367 -21.663  1.00  0.00     0.293 HD
ENDBRANCH   3   4
BRANCH   3   6
ATOM      6  C   UNL     1      10.657 -50.880 -22.554  1.00  0.00     0.070 A 
ATOM      7  C   UNL     1      10.128 -49.634 -22.270  1.00  0.00     0.032 A 
ATOM      8  S   UNL     1      12.226 -50.714 -23.236  1.00  0.00    -0.132 S 
ATOM      9  C   UNL     1      10.987 -48.542 -22.626  1.00  0.00    -0.003 A 
ATOM     10  C   UNL     1      12.182 -48.996 -23.174  1.00  0.00     0.039 A 
ATOM     11  C   UNL     1      10.802 -47.147 -22.505  1.00  0.00     0.060 A 
ATOM     12  C   UNL     1      13.186 -48.104 -23.609  1.00  0.00     0.070 A 
ATOM     13  C   UNL     1      11.798 -46.249 -22.913  1.00  0.00     0.161 A 
ATOM     14  C   UNL     1      12.984 -46.721 -23.490  1.00  0.00     0.162 A 
BRANCH  13  15
ATOM     15  O   UNL     1      11.443 -44.934 -22.734  1.00  0.00    -0.493 OA
ATOM     16  C   UNL     1      10.478 -44.420 -23.648  1.00  0.00     0.278 C 
ENDBRANCH  13  15
BRANCH  14  17
ATOM     17  O   UNL     1      13.883 -45.788 -23.937  1.00  0.00    -0.493 OA
ATOM     18  C   UNL     1      14.924 -46.216 -24.806  1.00  0.00     0.278 C 
ENDBRANCH  14  17
ENDBRANCH   3   6
ENDBRANCH   2   3
ENDBRANCH   1   2
BRANCH   1  19
ATOM     19  C   UNL     1      10.487 -55.742 -21.965  1.00  0.00    -0.032 A 
ATOM     20  C   UNL     1      11.356 -56.787 -21.643  1.00  0.00     0.075 A 
ATOM     21  C   UNL     1       9.460 -55.985 -22.875  1.00  0.00     0.075 A 
ATOM     22  C   UNL     1      11.187 -58.032 -22.235  1.00  0.00     0.309 A 
ATOM     23  C   UNL     1       9.328 -57.247 -23.443  1.00  0.00     0.309 A 
ATOM     24  N   UNL     1      10.183 -58.246 -23.117  1.00  0.00    -0.198 N 
BRANCH  24  25
ATOM     25  C   UNL     1      10.020 -59.584 -23.737  1.00  0.00     0.432 C 
BRANCH  25  26
ATOM     26  C   UNL     1      11.002 -59.765 -24.837  1.00  0.00     0.176 A 
ATOM     27  C   UNL     1      12.373 -59.949 -24.883  1.00  0.00     0.060 A 
ATOM     28  O   UNL     1      10.491 -59.767 -26.106  1.00  0.00    -0.399 OA
ATOM     29  C   UNL     1      12.725 -60.066 -26.256  1.00  0.00     0.134 A 
ATOM     30  C   UNL     1      11.545 -59.946 -26.950  1.00  0.00     0.433 A 
BRANCH  30  31
ATOM     31  N   UNL     1      11.239 -59.968 -28.346  1.00  0.00     0.102 N 
ATOM     32  O   UNL     1      10.293 -60.685 -28.690  1.00  0.00    -0.256 OA
ATOM     33  O   UNL     1      11.949 -59.278 -29.088  1.00  0.00    -0.256 OA
ENDBRANCH  30  31
ENDBRANCH  25  26
ENDBRANCH  24  25
ENDBRANCH   1  19
TORSDOF 10
ENDMDL
MODEL 9
REMARK VINA RESULT:    -9.546      4.024     12.063
REMARK INTER + INTRA:         -15.498
REMARK INTER:                 -14.635
REMARK INTRA:                  -0.863
REMARK UNBOUND:                -0.650
REMARK SMILES COc1cc2cc(C(O)=CCc3cc[n+](Cc4ccc([N+](=O)[O-])o4)cc3)sc2cc1OC
REMARK SMILES IDX 11 1 10 2 8 3 9 4 7 6 6 7 27 8 5 9 28 10 4 11 29 12 3 13
REMARK SMILES IDX 30 14 2 15 1 16 31 17 32 18 12 19 13 20 26 21 14 22 25 23
REMARK SMILES IDX 15 24 16 25 17 26 18 27 24 28 19 29 20 30 21 31 22 32 23 33
REMARK H PARENT 9 5
ROOT
ATOM      1  C   UNL     1      11.617 -53.998 -24.313  1.00  0.00     0.067 C 
ENDROOT
BRANCH   1   2
ATOM      2  C   UNL     1      10.428 -54.288 -23.444  1.00  0.00     0.025 C 
BRANCH   2   3
ATOM      3  C   UNL     1      10.407 -55.203 -22.465  1.00  0.00     0.129 C 
BRANCH   3   4
ATOM      4  O   UNL     1      10.624 -54.843 -21.151  1.00  0.00    -0.507 OA
ATOM      5  H   UNL     1      11.581 -54.926 -20.980  1.00  0.00     0.293 HD
ENDBRANCH   3   4
BRANCH   3   6
ATOM      6  C   UNL     1      10.220 -56.594 -22.717  1.00  0.00     0.070 A 
ATOM      7  C   UNL     1       9.170 -57.209 -23.376  1.00  0.00     0.032 A 
ATOM      8  S   UNL     1      11.383 -57.765 -22.238  1.00  0.00    -0.132 S 
ATOM      9  C   UNL     1       9.299 -58.634 -23.475  1.00  0.00    -0.003 A 
ATOM     10  C   UNL     1      10.477 -59.077 -22.884  1.00  0.00     0.039 A 
ATOM     11  C   UNL     1       8.445 -59.597 -24.054  1.00  0.00     0.060 A 
ATOM     12  C   UNL     1      10.820 -60.446 -22.848  1.00  0.00     0.070 A 
ATOM     13  C   UNL     1       8.782 -60.959 -24.046  1.00  0.00     0.161 A 
ATOM     14  C   UNL     1       9.958 -61.393 -23.421  1.00  0.00     0.162 A 
BRANCH  13  15
ATOM     15  O   UNL     1       7.833 -61.752 -24.642  1.00  0.00    -0.493 OA
ATOM     16  C   UNL     1       6.707 -62.088 -23.836  1.00  0.00     0.278 C 
ENDBRANCH  13  15
BRANCH  14  17
ATOM     17  O   UNL     1      10.190 -62.743 -23.382  1.00  0.00    -0.493 OA
ATOM     18  C   UNL     1       9.605 -63.497 -22.328  1.00  0.00     0.278 C 
ENDBRANCH  14  17
ENDBRANCH   3   6
ENDBRANCH   2   3
ENDBRANCH   1   2
BRANCH   1  19
ATOM     19  C   UNL     1      12.238 -52.659 -23.983  1.00  0.00    -0.032 A 
ATOM     20  C   UNL     1      13.294 -52.167 -24.753  1.00  0.00     0.075 A 
ATOM     21  C   UNL     1      11.753 -51.875 -22.937  1.00  0.00     0.075 A 
ATOM     22  C   UNL     1      13.841 -50.924 -24.461  1.00  0.00     0.309 A 
ATOM     23  C   UNL     1      12.330 -50.636 -22.681  1.00  0.00     0.309 A 
ATOM     24  N   UNL     1      13.355 -50.180 -23.441  1.00  0.00    -0.198 N 
BRANCH  24  25
ATOM     25  C   UNL     1      13.953 -48.854 -23.147  1.00  0.00     0.432 C 
BRANCH  25  26
ATOM     26  C   UNL     1      13.043 -47.768 -23.597  1.00  0.00     0.176 A 
ATOM     27  C   UNL     1      12.736 -47.217 -24.829  1.00  0.00     0.060 A 
ATOM     28  O   UNL     1      12.316 -47.148 -22.618  1.00  0.00    -0.399 OA
ATOM     29  C   UNL     1      11.771 -46.199 -24.594  1.00  0.00     0.134 A 
ATOM     30  C   UNL     1      11.557 -46.201 -23.237  1.00  0.00     0.433 A 
BRANCH  30  31
ATOM     31  N   UNL     1      10.717 -45.413 -22.391  1.00  0.00     0.102 N 
ATOM     32  O   UNL     1       9.863 -46.024 -21.741  1.00  0.00    -0.256 OA
ATOM     33  O   UNL     1      10.910 -44.191 -22.388  1.00  0.00    -0.256 OA
ENDBRANCH  30  31
ENDBRANCH  25  26
ENDBRANCH  24  25
ENDBRANCH   1  19
TORSDOF 10
ENDMDL
