MODEL 1
REMARK VINA RESULT:   -12.195      0.000      0.000
REMARK INTER + INTRA:         -16.450
REMARK INTER:                 -15.760
REMARK INTRA:                  -0.690
REMARK UNBOUND:                -0.690
REMARK SMILES O=C1CC(=NCCN=c2c3c([nH]c4cc(Cl)ccc24)CCCC3)C(=O)c2ccccc21
REMARK SMILES IDX 7 1 8 2 9 3 12 4 11 5 13 6 10 7 20 8 14 9 19 10 23 11 21 12
REMARK SMILES IDX 15 13 18 14 22 15 17 16 16 18 6 19 5 20 4 21 3 22 24 23 2 24
REMARK SMILES IDX 26 25 31 26 27 27 30 28 28 29 29 30 25 31 1 32
REMARK H PARENT 12 17
ROOT
ATOM      1  C   UNL     1      11.636 -59.437 -22.773  1.00  0.00     0.166 C 
ENDROOT
BRANCH   1   2
ATOM      2  N   UNL     1      11.761 -60.368 -23.875  1.00  0.00    -0.282 NA
BRANCH   2   3
ATOM      3  C   UNL     1      10.885 -60.762 -24.721  1.00  0.00     0.072 A 
ATOM      4  N   UNL     1       9.498 -61.877 -26.943  1.00  0.00    -0.358 N 
ATOM      5  C   UNL     1       9.065 -62.144 -25.660  1.00  0.00     0.021 A 
ATOM      6  C   UNL     1      10.415 -60.852 -27.192  1.00  0.00     0.049 A 
ATOM      7  C   UNL     1       9.658 -61.646 -24.550  1.00  0.00    -0.003 A 
ATOM      8  C   UNL     1       7.834 -63.032 -25.589  1.00  0.00     0.054 C 
ATOM      9  C   UNL     1      10.691 -60.450 -28.505  1.00  0.00     0.047 A 
ATOM     10  C   UNL     1      11.124 -60.274 -26.132  1.00  0.00     0.024 A 
ATOM     11  C   UNL     1       9.078 -61.888 -23.182  1.00  0.00     0.039 C 
ATOM     12  C   UNL     1       7.471 -63.511 -24.188  1.00  0.00     0.007 C 
ATOM     13  C   UNL     1      11.634 -59.452 -28.750  1.00  0.00     0.043 A 
ATOM     14  C   UNL     1      12.074 -59.271 -26.390  1.00  0.00     0.014 A 
ATOM     15  C   UNL     1       7.630 -62.380 -23.190  1.00  0.00     0.005 C 
ATOM     16  C   UNL     1      12.323 -58.856 -27.698  1.00  0.00     0.021 A 
ATOM     17  H   UNL     1       8.867 -62.124 -27.698  1.00  0.00     0.166 HD
ATOM     18  Cl  UNL     1      11.950 -58.956 -30.368  1.00  0.00    -0.084 Cl
ENDBRANCH   2   3
ENDBRANCH   1   2
BRANCH   1  19
ATOM     19  C   UNL     1      10.801 -58.221 -23.202  1.00  0.00     0.166 C 
BRANCH  19  20
ATOM     20  N   UNL     1      11.681 -57.086 -23.480  1.00  0.00    -0.283 NA
BRANCH  20  21
ATOM     21  C   UNL     1      11.205 -55.889 -23.492  1.00  0.00     0.091 C 
ATOM     22  C   UNL     1      10.125 -55.329 -22.622  1.00  0.00     0.141 C 
ATOM     23  C   UNL     1      11.777 -54.919 -24.502  1.00  0.00     0.207 C 
ATOM     24  C   UNL     1      10.379 -53.924 -22.148  1.00  0.00     0.169 C 
ATOM     25  C   UNL     1      11.966 -53.532 -24.052  1.00  0.00     0.035 A 
ATOM     26  C   UNL     1      11.322 -53.066 -22.907  1.00  0.00     0.029 A 
ATOM     27  C   UNL     1      12.804 -52.683 -24.787  1.00  0.00     0.013 A 
ATOM     28  C   UNL     1      11.532 -51.746 -22.486  1.00  0.00     0.012 A 
ATOM     29  C   UNL     1      13.009 -51.370 -24.364  1.00  0.00     0.001 A 
ATOM     30  C   UNL     1      12.377 -50.903 -23.212  1.00  0.00     0.001 A 
ATOM     31  O   UNL     1      12.064 -55.282 -25.630  1.00  0.00    -0.287 OA
ATOM     32  O   UNL     1       9.780 -53.461 -21.180  1.00  0.00    -0.294 OA
ENDBRANCH  20  21
ENDBRANCH  19  20
ENDBRANCH   1  19
TORSDOF 5
ENDMDL
MODEL 2
REMARK VINA RESULT:   -12.048      2.023      3.860
REMARK INTER + INTRA:         -16.260
REMARK INTER:                 -15.756
REMARK INTRA:                  -0.504
REMARK UNBOUND:                -0.690
REMARK SMILES O=C1CC(=NCCN=c2c3c([nH]c4cc(Cl)ccc24)CCCC3)C(=O)c2ccccc21
REMARK SMILES IDX 7 1 8 2 9 3 12 4 11 5 13 6 10 7 20 8 14 9 19 10 23 11 21 12
REMARK SMILES IDX 15 13 18 14 22 15 17 16 16 18 6 19 5 20 4 21 3 22 24 23 2 24
REMARK SMILES IDX 26 25 31 26 27 27 30 28 28 29 29 30 25 31 1 32
REMARK H PARENT 12 17
ROOT
ATOM      1  C   UNL     1      11.687 -58.941 -22.597  1.00  0.00     0.166 C 
ENDROOT
BRANCH   1   2
ATOM      2  N   UNL     1      12.137 -59.908 -23.576  1.00  0.00    -0.282 NA
BRANCH   2   3
ATOM      3  C   UNL     1      11.498 -60.470 -24.532  1.00  0.00     0.072 A 
ATOM      4  N   UNL     1       9.519 -61.531 -26.282  1.00  0.00    -0.358 N 
ATOM      5  C   UNL     1      10.542 -60.758 -26.792  1.00  0.00     0.021 A 
ATOM      6  C   UNL     1       9.585 -62.043 -24.982  1.00  0.00     0.049 A 
ATOM      7  C   UNL     1      11.529 -60.226 -26.033  1.00  0.00    -0.003 A 
ATOM      8  C   UNL     1      10.491 -60.571 -28.298  1.00  0.00     0.054 C 
ATOM      9  C   UNL     1       8.652 -62.991 -24.545  1.00  0.00     0.047 A 
ATOM     10  C   UNL     1      10.540 -61.551 -24.084  1.00  0.00     0.024 A 
ATOM     11  C   UNL     1      12.675 -59.478 -26.660  1.00  0.00     0.039 C 
ATOM     12  C   UNL     1      11.481 -59.551 -28.851  1.00  0.00     0.007 C 
ATOM     13  C   UNL     1       8.700 -63.471 -23.236  1.00  0.00     0.043 A 
ATOM     14  C   UNL     1      10.579 -62.040 -22.767  1.00  0.00     0.014 A 
ATOM     15  C   UNL     1      12.826 -59.703 -28.165  1.00  0.00     0.005 C 
ATOM     16  C   UNL     1       9.663 -63.004 -22.346  1.00  0.00     0.021 A 
ATOM     17  H   UNL     1       8.959 -62.048 -26.952  1.00  0.00     0.166 HD
ATOM     18  Cl  UNL     1       7.558 -64.649 -22.717  1.00  0.00    -0.084 Cl
ENDBRANCH   2   3
ENDBRANCH   1   2
BRANCH   1  19
ATOM     19  C   UNL     1      10.845 -57.853 -23.280  1.00  0.00     0.166 C 
BRANCH  19  20
ATOM     20  N   UNL     1      11.707 -56.747 -23.698  1.00  0.00    -0.283 NA
BRANCH  20  21
ATOM     21  C   UNL     1      11.283 -55.534 -23.618  1.00  0.00     0.091 C 
ATOM     22  C   UNL     1      10.314 -54.971 -22.628  1.00  0.00     0.141 C 
ATOM     23  C   UNL     1      11.797 -54.544 -24.639  1.00  0.00     0.207 C 
ATOM     24  C   UNL     1      10.670 -53.598 -22.126  1.00  0.00     0.169 C 
ATOM     25  C   UNL     1      12.087 -53.185 -24.156  1.00  0.00     0.035 A 
ATOM     26  C   UNL     1      11.573 -52.745 -22.937  1.00  0.00     0.029 A 
ATOM     27  C   UNL     1      12.886 -52.339 -24.934  1.00  0.00     0.013 A 
ATOM     28  C   UNL     1      11.877 -51.453 -22.487  1.00  0.00     0.012 A 
ATOM     29  C   UNL     1      13.185 -51.054 -24.482  1.00  0.00     0.001 A 
ATOM     30  C   UNL     1      12.684 -50.612 -23.257  1.00  0.00     0.001 A 
ATOM     31  O   UNL     1      11.962 -54.869 -25.803  1.00  0.00    -0.287 OA
ATOM     32  O   UNL     1      10.184 -53.154 -21.088  1.00  0.00    -0.294 OA
ENDBRANCH  20  21
ENDBRANCH  19  20
ENDBRANCH   1  19
TORSDOF 5
ENDMDL
MODEL 3
REMARK VINA RESULT:   -10.988      2.152      4.311
REMARK INTER + INTRA:         -14.891
REMARK INTER:                 -14.685
REMARK INTRA:                  -0.206
REMARK UNBOUND:                -0.690
REMARK SMILES O=C1CC(=NCCN=c2c3c([nH]c4cc(Cl)ccc24)CCCC3)C(=O)c2ccccc21
REMARK SMILES IDX 7 1 8 2 9 3 12 4 11 5 13 6 10 7 20 8 14 9 19 10 23 11 21 12
REMARK SMILES IDX 15 13 18 14 22 15 17 16 16 18 6 19 5 20 4 21 3 22 24 23 2 24
REMARK SMILES IDX 26 25 31 26 27 27 30 28 28 29 29 30 25 31 1 32
REMARK H PARENT 12 17
ROOT
ATOM      1  C   UNL     1      11.580 -57.826 -23.396  1.00  0.00     0.166 C 
ENDROOT
BRANCH   1   2
ATOM      2  N   UNL     1      11.549 -59.268 -23.517  1.00  0.00    -0.282 NA
BRANCH   2   3
ATOM      3  C   UNL     1      11.127 -60.004 -24.476  1.00  0.00     0.072 A 
ATOM      4  N   UNL     1       9.569 -61.525 -26.309  1.00  0.00    -0.358 N 
ATOM      5  C   UNL     1      10.501 -60.626 -26.783  1.00  0.00     0.021 A 
ATOM      6  C   UNL     1       9.567 -61.917 -24.967  1.00  0.00     0.049 A 
ATOM      7  C   UNL     1      11.292 -59.873 -25.982  1.00  0.00    -0.003 A 
ATOM      8  C   UNL     1      10.597 -60.566 -28.298  1.00  0.00     0.054 C 
ATOM      9  C   UNL     1       8.758 -62.978 -24.539  1.00  0.00     0.047 A 
ATOM     10  C   UNL     1      10.315 -61.199 -24.027  1.00  0.00     0.024 A 
ATOM     11  C   UNL     1      12.363 -58.986 -26.558  1.00  0.00     0.039 C 
ATOM     12  C   UNL     1      11.461 -59.433 -28.841  1.00  0.00     0.007 C 
ATOM     13  C   UNL     1       8.733 -63.341 -23.192  1.00  0.00     0.043 A 
ATOM     14  C   UNL     1      10.281 -61.571 -22.673  1.00  0.00     0.014 A 
ATOM     15  C   UNL     1      12.723 -59.295 -28.011  1.00  0.00     0.005 C 
ATOM     16  C   UNL     1       9.495 -62.647 -22.257  1.00  0.00     0.021 A 
ATOM     17  H   UNL     1       9.184 -62.181 -26.981  1.00  0.00     0.166 HD
ATOM     18  Cl  UNL     1       7.749 -64.658 -22.683  1.00  0.00    -0.084 Cl
ENDBRANCH   2   3
ENDBRANCH   1   2
BRANCH   1  19
ATOM     19  C   UNL     1      10.197 -57.301 -22.982  1.00  0.00     0.166 C 
BRANCH  19  20
ATOM     20  N   UNL     1       9.999 -55.951 -23.507  1.00  0.00    -0.283 NA
BRANCH  20  21
ATOM     21  C   UNL     1      10.971 -55.106 -23.497  1.00  0.00     0.091 C 
ATOM     22  C   UNL     1      12.056 -54.953 -24.515  1.00  0.00     0.141 C 
ATOM     23  C   UNL     1      11.058 -54.154 -22.325  1.00  0.00     0.207 C 
ATOM     24  C   UNL     1      12.419 -53.526 -24.822  1.00  0.00     0.169 C 
ATOM     25  C   UNL     1      11.472 -52.774 -22.623  1.00  0.00     0.035 A 
ATOM     26  C   UNL     1      12.094 -52.469 -23.832  1.00  0.00     0.029 A 
ATOM     27  C   UNL     1      11.232 -51.770 -21.677  1.00  0.00     0.013 A 
ATOM     28  C   UNL     1      12.463 -51.144 -24.103  1.00  0.00     0.012 A 
ATOM     29  C   UNL     1      11.602 -50.453 -21.952  1.00  0.00     0.001 A 
ATOM     30  C   UNL     1      12.213 -50.140 -23.166  1.00  0.00     0.001 A 
ATOM     31  O   UNL     1      10.793 -54.524 -21.193  1.00  0.00    -0.287 OA
ATOM     32  O   UNL     1      13.024 -53.231 -25.850  1.00  0.00    -0.294 OA
ENDBRANCH  20  21
ENDBRANCH  19  20
ENDBRANCH   1  19
TORSDOF 5
ENDMDL
MODEL 4
REMARK VINA RESULT:   -10.686      3.938      9.309
REMARK INTER + INTRA:         -14.500
REMARK INTER:                 -14.197
REMARK INTRA:                  -0.303
REMARK UNBOUND:                -0.690
REMARK SMILES O=C1CC(=NCCN=c2c3c([nH]c4cc(Cl)ccc24)CCCC3)C(=O)c2ccccc21
REMARK SMILES IDX 7 1 8 2 9 3 12 4 11 5 13 6 10 7 20 8 14 9 19 10 23 11 21 12
REMARK SMILES IDX 15 13 18 14 22 15 17 16 16 18 6 19 5 20 4 21 3 22 24 23 2 24
REMARK SMILES IDX 26 25 31 26 27 27 30 28 28 29 29 30 25 31 1 32
REMARK H PARENT 12 17
ROOT
ATOM      1  C   UNL     1       9.738 -54.198 -22.113  1.00  0.00     0.166 C 
ENDROOT
BRANCH   1   2
ATOM      2  N   UNL     1      10.697 -53.117 -22.025  1.00  0.00    -0.282 NA
BRANCH   2   3
ATOM      3  C   UNL     1      11.318 -52.490 -22.953  1.00  0.00     0.072 A 
ATOM      4  N   UNL     1      12.981 -50.756 -24.478  1.00  0.00    -0.358 N 
ATOM      5  C   UNL     1      12.964 -52.107 -24.755  1.00  0.00     0.021 A 
ATOM      6  C   UNL     1      12.000 -50.176 -23.669  1.00  0.00     0.049 A 
ATOM      7  C   UNL     1      12.194 -52.999 -24.088  1.00  0.00    -0.003 A 
ATOM      8  C   UNL     1      13.867 -52.521 -25.904  1.00  0.00     0.054 C 
ATOM      9  C   UNL     1      11.901 -48.783 -23.561  1.00  0.00     0.047 A 
ATOM     10  C   UNL     1      11.159 -50.988 -22.898  1.00  0.00     0.024 A 
ATOM     11  C   UNL     1      12.140 -54.445 -24.504  1.00  0.00     0.039 C 
ATOM     12  C   UNL     1      14.026 -54.027 -26.084  1.00  0.00     0.007 C 
ATOM     13  C   UNL     1      10.944 -48.210 -22.724  1.00  0.00     0.043 A 
ATOM     14  C   UNL     1      10.200 -50.401 -22.055  1.00  0.00     0.014 A 
ATOM     15  C   UNL     1      12.687 -54.719 -25.905  1.00  0.00     0.005 C 
ATOM     16  C   UNL     1      10.088 -49.012 -21.974  1.00  0.00     0.021 A 
ATOM     17  H   UNL     1      13.426 -50.155 -25.164  1.00  0.00     0.166 HD
ATOM     18  Cl  UNL     1      10.822 -46.497 -22.615  1.00  0.00    -0.084 Cl
ENDBRANCH   2   3
ENDBRANCH   1   2
BRANCH   1  19
ATOM     19  C   UNL     1      10.463 -55.551 -22.068  1.00  0.00     0.166 C 
BRANCH  19  20
ATOM     20  N   UNL     1       9.568 -56.611 -22.530  1.00  0.00    -0.283 NA
BRANCH  20  21
ATOM     21  C   UNL     1      10.040 -57.614 -23.185  1.00  0.00     0.091 C 
ATOM     22  C   UNL     1      11.477 -57.940 -23.440  1.00  0.00     0.141 C 
ATOM     23  C   UNL     1       9.050 -58.585 -23.789  1.00  0.00     0.207 C 
ATOM     24  C   UNL     1      11.808 -59.404 -23.334  1.00  0.00     0.169 C 
ATOM     25  C   UNL     1       9.406 -60.011 -23.736  1.00  0.00     0.035 A 
ATOM     26  C   UNL     1      10.720 -60.403 -23.487  1.00  0.00     0.029 A 
ATOM     27  C   UNL     1       8.407 -60.972 -23.939  1.00  0.00     0.013 A 
ATOM     28  C   UNL     1      11.033 -61.767 -23.423  1.00  0.00     0.012 A 
ATOM     29  C   UNL     1       8.725 -62.329 -23.875  1.00  0.00     0.001 A 
ATOM     30  C   UNL     1      10.036 -62.726 -23.613  1.00  0.00     0.001 A 
ATOM     31  O   UNL     1       8.009 -58.192 -24.289  1.00  0.00    -0.287 OA
ATOM     32  O   UNL     1      12.965 -59.786 -23.178  1.00  0.00    -0.294 OA
ENDBRANCH  20  21
ENDBRANCH  19  20
ENDBRANCH   1  19
TORSDOF 5
ENDMDL
MODEL 5
REMARK VINA RESULT:   -10.435      0.938      2.037
REMARK INTER + INTRA:         -14.175
REMARK INTER:                 -13.502
REMARK INTRA:                  -0.673
REMARK UNBOUND:                -0.690
REMARK SMILES O=C1CC(=NCCN=c2c3c([nH]c4cc(Cl)ccc24)CCCC3)C(=O)c2ccccc21
REMARK SMILES IDX 7 1 8 2 9 3 12 4 11 5 13 6 10 7 20 8 14 9 19 10 23 11 21 12
REMARK SMILES IDX 15 13 18 14 22 15 17 16 16 18 6 19 5 20 4 21 3 22 24 23 2 24
REMARK SMILES IDX 26 25 31 26 27 27 30 28 28 29 29 30 25 31 1 32
REMARK H PARENT 12 17
ROOT
ATOM      1  C   UNL     1      10.135 -59.362 -22.836  1.00  0.00     0.166 C 
ENDROOT
BRANCH   1   2
ATOM      2  N   UNL     1      10.650 -60.273 -23.836  1.00  0.00    -0.282 NA
BRANCH   2   3
ATOM      3  C   UNL     1      10.079 -60.766 -24.871  1.00  0.00     0.072 A 
ATOM      4  N   UNL     1       9.465 -62.029 -27.347  1.00  0.00    -0.358 N 
ATOM      5  C   UNL     1       8.745 -62.352 -26.216  1.00  0.00     0.021 A 
ATOM      6  C   UNL     1      10.289 -60.900 -27.375  1.00  0.00     0.049 A 
ATOM      7  C   UNL     1       8.962 -61.791 -25.003  1.00  0.00    -0.003 A 
ATOM      8  C   UNL     1       7.651 -63.381 -26.445  1.00  0.00     0.054 C 
ATOM      9  C   UNL     1      10.851 -60.462 -28.582  1.00  0.00     0.047 A 
ATOM     10  C   UNL     1      10.622 -60.246 -26.183  1.00  0.00     0.024 A 
ATOM     11  C   UNL     1       8.076 -62.108 -23.828  1.00  0.00     0.039 C 
ATOM     12  C   UNL     1       6.991 -63.907 -25.175  1.00  0.00     0.007 C 
ATOM     13  C   UNL     1      11.702 -59.357 -28.598  1.00  0.00     0.043 A 
ATOM     14  C   UNL     1      11.482 -59.135 -26.211  1.00  0.00     0.014 A 
ATOM     15  C   UNL     1       6.749 -62.769 -24.201  1.00  0.00     0.005 C 
ATOM     16  C   UNL     1      12.016 -58.687 -27.419  1.00  0.00     0.021 A 
ATOM     17  H   UNL     1       9.088 -62.346 -28.234  1.00  0.00     0.166 HD
ATOM     18  Cl  UNL     1      12.371 -58.818 -30.090  1.00  0.00    -0.084 Cl
ENDBRANCH   2   3
ENDBRANCH   1   2
BRANCH   1  19
ATOM     19  C   UNL     1       9.406 -58.192 -23.514  1.00  0.00     0.166 C 
BRANCH  19  20
ATOM     20  N   UNL     1       9.690 -56.948 -22.799  1.00  0.00    -0.283 NA
BRANCH  20  21
ATOM     21  C   UNL     1      10.740 -56.262 -23.092  1.00  0.00     0.091 C 
ATOM     22  C   UNL     1      11.765 -56.567 -24.138  1.00  0.00     0.141 C 
ATOM     23  C   UNL     1      11.000 -55.004 -22.293  1.00  0.00     0.207 C 
ATOM     24  C   UNL     1      12.248 -55.362 -24.900  1.00  0.00     0.169 C 
ATOM     25  C   UNL     1      11.529 -53.848 -23.032  1.00  0.00     0.035 A 
ATOM     26  C   UNL     1      12.097 -54.016 -24.294  1.00  0.00     0.029 A 
ATOM     27  C   UNL     1      11.454 -52.575 -22.454  1.00  0.00     0.013 A 
ATOM     28  C   UNL     1      12.577 -52.898 -24.989  1.00  0.00     0.012 A 
ATOM     29  C   UNL     1      11.935 -51.466 -23.149  1.00  0.00     0.001 A 
ATOM     30  C   UNL     1      12.492 -51.626 -24.418  1.00  0.00     0.001 A 
ATOM     31  O   UNL     1      10.776 -54.963 -21.094  1.00  0.00    -0.287 OA
ATOM     32  O   UNL     1      12.810 -55.481 -25.987  1.00  0.00    -0.294 OA
ENDBRANCH  20  21
ENDBRANCH  19  20
ENDBRANCH   1  19
TORSDOF 5
ENDMDL
MODEL 6
REMARK VINA RESULT:   -10.342      5.828      9.554
REMARK INTER + INTRA:         -14.055
REMARK INTER:                 -12.456
REMARK INTRA:                  -1.599
REMARK UNBOUND:                -0.690
REMARK SMILES O=C1CC(=NCCN=c2c3c([nH]c4cc(Cl)ccc24)CCCC3)C(=O)c2ccccc21
REMARK SMILES IDX 7 1 8 2 9 3 12 4 11 5 13 6 10 7 20 8 14 9 19 10 23 11 21 12
REMARK SMILES IDX 15 13 18 14 22 15 17 16 16 18 6 19 5 20 4 21 3 22 24 23 2 24
REMARK SMILES IDX 26 25 31 26 27 27 30 28 28 29 29 30 25 31 1 32
REMARK H PARENT 12 17
ROOT
ATOM      1  C   UNL     1       9.881 -49.812 -22.013  1.00  0.00     0.166 C 
ENDROOT
BRANCH   1   2
ATOM      2  N   UNL     1      11.090 -50.604 -21.922  1.00  0.00    -0.282 NA
BRANCH   2   3
ATOM      3  C   UNL     1      11.682 -51.306 -22.814  1.00  0.00     0.072 A 
ATOM      4  N   UNL     1      12.354 -53.097 -24.922  1.00  0.00    -0.358 N 
ATOM      5  C   UNL     1      12.849 -51.810 -24.932  1.00  0.00     0.021 A 
ATOM      6  C   UNL     1      11.770 -53.632 -23.770  1.00  0.00     0.049 A 
ATOM      7  C   UNL     1      12.591 -50.899 -23.964  1.00  0.00    -0.003 A 
ATOM      8  C   UNL     1      13.747 -51.496 -26.117  1.00  0.00     0.054 C 
ATOM      9  C   UNL     1      11.459 -54.997 -23.701  1.00  0.00     0.047 A 
ATOM     10  C   UNL     1      11.419 -52.791 -22.708  1.00  0.00     0.024 A 
ATOM     11  C   UNL     1      13.244 -49.543 -23.977  1.00  0.00     0.039 C 
ATOM     12  C   UNL     1      14.128 -50.027 -26.260  1.00  0.00     0.007 C 
ATOM     13  C   UNL     1      10.844 -55.519 -22.563  1.00  0.00     0.043 A 
ATOM     14  C   UNL     1      10.797 -53.327 -21.567  1.00  0.00     0.014 A 
ATOM     15  C   UNL     1      14.458 -49.437 -24.901  1.00  0.00     0.005 C 
ATOM     16  C   UNL     1      10.516 -54.692 -21.493  1.00  0.00     0.021 A 
ATOM     17  H   UNL     1      12.772 -53.753 -25.574  1.00  0.00     0.166 HD
ATOM     18  Cl  UNL     1      10.484 -57.200 -22.484  1.00  0.00    -0.084 Cl
ENDBRANCH   2   3
ENDBRANCH   1   2
BRANCH   1  19
ATOM     19  C   UNL     1      10.144 -48.542 -22.836  1.00  0.00     0.166 C 
BRANCH  19  20
ATOM     20  N   UNL     1      10.437 -47.422 -21.942  1.00  0.00    -0.283 NA
BRANCH  20  21
ATOM     21  C   UNL     1      11.444 -46.655 -22.178  1.00  0.00     0.091 C 
ATOM     22  C   UNL     1      12.569 -46.318 -21.252  1.00  0.00     0.141 C 
ATOM     23  C   UNL     1      11.517 -45.994 -23.536  1.00  0.00     0.207 C 
ATOM     24  C   UNL     1      13.920 -46.267 -21.913  1.00  0.00     0.169 C 
ATOM     25  C   UNL     1      12.849 -45.892 -24.151  1.00  0.00     0.035 A 
ATOM     26  C   UNL     1      13.998 -46.055 -23.379  1.00  0.00     0.029 A 
ATOM     27  C   UNL     1      12.950 -45.631 -25.524  1.00  0.00     0.013 A 
ATOM     28  C   UNL     1      15.257 -45.973 -23.990  1.00  0.00     0.012 A 
ATOM     29  C   UNL     1      14.205 -45.550 -26.126  1.00  0.00     0.001 A 
ATOM     30  C   UNL     1      15.358 -45.725 -25.361  1.00  0.00     0.001 A 
ATOM     31  O   UNL     1      10.513 -45.572 -24.085  1.00  0.00    -0.287 OA
ATOM     32  O   UNL     1      14.954 -46.343 -21.253  1.00  0.00    -0.294 OA
ENDBRANCH  20  21
ENDBRANCH  19  20
ENDBRANCH   1  19
TORSDOF 5
ENDMDL
MODEL 7
REMARK VINA RESULT:    -9.834      6.131     10.527
REMARK INTER + INTRA:         -13.398
REMARK INTER:                 -12.992
REMARK INTRA:                  -0.406
REMARK UNBOUND:                -0.690
REMARK SMILES O=C1CC(=NCCN=c2c3c([nH]c4cc(Cl)ccc24)CCCC3)C(=O)c2ccccc21
REMARK SMILES IDX 7 1 8 2 9 3 12 4 11 5 13 6 10 7 20 8 14 9 19 10 23 11 21 12
REMARK SMILES IDX 15 13 18 14 22 15 17 16 16 18 6 19 5 20 4 21 3 22 24 23 2 24
REMARK SMILES IDX 26 25 31 26 27 27 30 28 28 29 29 30 25 31 1 32
REMARK H PARENT 12 17
ROOT
ATOM      1  C   UNL     1      10.320 -49.065 -22.601  1.00  0.00     0.166 C 
ENDROOT
BRANCH   1   2
ATOM      2  N   UNL     1      11.232 -50.154 -22.321  1.00  0.00    -0.282 NA
BRANCH   2   3
ATOM      3  C   UNL     1      11.824 -50.958 -23.122  1.00  0.00     0.072 A 
ATOM      4  N   UNL     1      12.491 -52.975 -25.017  1.00  0.00    -0.358 N 
ATOM      5  C   UNL     1      13.016 -51.706 -25.153  1.00  0.00     0.021 A 
ATOM      6  C   UNL     1      11.875 -53.374 -23.827  1.00  0.00     0.049 A 
ATOM      7  C   UNL     1      12.761 -50.694 -24.291  1.00  0.00    -0.003 A 
ATOM      8  C   UNL     1      13.941 -51.538 -26.346  1.00  0.00     0.054 C 
ATOM      9  C   UNL     1      11.533 -54.716 -23.621  1.00  0.00     0.047 A 
ATOM     10  C   UNL     1      11.525 -52.418 -22.866  1.00  0.00     0.024 A 
ATOM     11  C   UNL     1      13.446 -49.360 -24.433  1.00  0.00     0.039 C 
ATOM     12  C   UNL     1      14.358 -50.100 -26.635  1.00  0.00     0.007 C 
ATOM     13  C   UNL     1      10.886 -55.103 -22.447  1.00  0.00     0.043 A 
ATOM     14  C   UNL     1      10.872 -52.818 -21.688  1.00  0.00     0.014 A 
ATOM     15  C   UNL     1      14.677 -49.377 -25.339  1.00  0.00     0.005 C 
ATOM     16  C   UNL     1      10.558 -54.161 -21.476  1.00  0.00     0.021 A 
ATOM     17  H   UNL     1      12.906 -53.704 -25.588  1.00  0.00     0.166 HD
ATOM     18  Cl  UNL     1      10.487 -56.759 -22.199  1.00  0.00    -0.084 Cl
ENDBRANCH   2   3
ENDBRANCH   1   2
BRANCH   1  19
ATOM     19  C   UNL     1      11.062 -47.723 -22.524  1.00  0.00     0.166 C 
BRANCH  19  20
ATOM     20  N   UNL     1      10.911 -46.997 -23.785  1.00  0.00    -0.283 NA
BRANCH  20  21
ATOM     21  C   UNL     1      11.657 -45.978 -24.036  1.00  0.00     0.091 C 
ATOM     22  C   UNL     1      12.776 -45.890 -25.026  1.00  0.00     0.141 C 
ATOM     23  C   UNL     1      11.405 -44.714 -23.245  1.00  0.00     0.207 C 
ATOM     24  C   UNL     1      12.831 -44.590 -25.782  1.00  0.00     0.169 C 
ATOM     25  C   UNL     1      11.520 -43.443 -23.975  1.00  0.00     0.035 A 
ATOM     26  C   UNL     1      12.174 -43.391 -25.205  1.00  0.00     0.029 A 
ATOM     27  C   UNL     1      10.962 -42.284 -23.421  1.00  0.00     0.013 A 
ATOM     28  C   UNL     1      12.255 -42.172 -25.892  1.00  0.00     0.012 A 
ATOM     29  C   UNL     1      11.046 -41.074 -24.109  1.00  0.00     0.001 A 
ATOM     30  C   UNL     1      11.688 -41.019 -25.345  1.00  0.00     0.001 A 
ATOM     31  O   UNL     1      11.120 -44.761 -22.060  1.00  0.00    -0.287 OA
ATOM     32  O   UNL     1      13.453 -44.494 -26.837  1.00  0.00    -0.294 OA
ENDBRANCH  20  21
ENDBRANCH  19  20
ENDBRANCH   1  19
TORSDOF 5
ENDMDL
MODEL 8
REMARK VINA RESULT:    -9.575      6.487     10.882
REMARK INTER + INTRA:         -13.063
REMARK INTER:                 -12.370
REMARK INTRA:                  -0.693
REMARK UNBOUND:                -0.690
REMARK SMILES O=C1CC(=NCCN=c2c3c([nH]c4cc(Cl)ccc24)CCCC3)C(=O)c2ccccc21
REMARK SMILES IDX 7 1 8 2 9 3 12 4 11 5 13 6 10 7 20 8 14 9 19 10 23 11 21 12
REMARK SMILES IDX 15 13 18 14 22 15 17 16 16 18 6 19 5 20 4 21 3 22 24 23 2 24
REMARK SMILES IDX 26 25 31 26 27 27 30 28 28 29 29 30 25 31 1 32
REMARK H PARENT 12 17
ROOT
ATOM      1  C   UNL     1      15.500 -51.569 -25.714  1.00  0.00     0.166 C 
ENDROOT
BRANCH   1   2
ATOM      2  N   UNL     1      14.075 -51.345 -25.835  1.00  0.00    -0.282 NA
BRANCH   2   3
ATOM      3  C   UNL     1      13.214 -51.029 -24.942  1.00  0.00     0.072 A 
ATOM      4  N   UNL     1      11.643 -50.801 -22.579  1.00  0.00    -0.358 N 
ATOM      5  C   UNL     1      12.108 -49.663 -23.206  1.00  0.00     0.021 A 
ATOM      6  C   UNL     1      11.678 -52.041 -23.224  1.00  0.00     0.049 A 
ATOM      7  C   UNL     1      12.849 -49.681 -24.339  1.00  0.00    -0.003 A 
ATOM      8  C   UNL     1      11.692 -48.366 -22.534  1.00  0.00     0.054 C 
ATOM      9  C   UNL     1      11.020 -53.147 -22.671  1.00  0.00     0.047 A 
ATOM     10  C   UNL     1      12.439 -52.203 -24.388  1.00  0.00     0.024 A 
ATOM     11  C   UNL     1      13.240 -48.404 -25.034  1.00  0.00     0.039 C 
ATOM     12  C   UNL     1      12.370 -47.114 -23.082  1.00  0.00     0.007 C 
ATOM     13  C   UNL     1      11.088 -54.390 -23.299  1.00  0.00     0.043 A 
ATOM     14  C   UNL     1      12.503 -53.461 -25.012  1.00  0.00     0.014 A 
ATOM     15  C   UNL     1      12.437 -47.178 -24.597  1.00  0.00     0.005 C 
ATOM     16  C   UNL     1      11.822 -54.552 -24.470  1.00  0.00     0.021 A 
ATOM     17  H   UNL     1      10.931 -50.672 -21.867  1.00  0.00     0.166 HD
ATOM     18  Cl  UNL     1      10.260 -55.737 -22.618  1.00  0.00    -0.084 Cl
ENDBRANCH   2   3
ENDBRANCH   1   2
BRANCH   1  19
ATOM     19  C   UNL     1      16.269 -50.305 -26.127  1.00  0.00     0.166 C 
BRANCH  19  20
ATOM     20  N   UNL     1      15.605 -49.667 -27.264  1.00  0.00    -0.283 NA
BRANCH  20  21
ATOM     21  C   UNL     1      16.285 -49.335 -28.305  1.00  0.00     0.091 C 
ATOM     22  C   UNL     1      17.733 -49.604 -28.571  1.00  0.00     0.141 C 
ATOM     23  C   UNL     1      15.568 -48.573 -29.397  1.00  0.00     0.207 C 
ATOM     24  C   UNL     1      18.038 -49.997 -29.991  1.00  0.00     0.169 C 
ATOM     25  C   UNL     1      15.915 -48.920 -30.783  1.00  0.00     0.035 A 
ATOM     26  C   UNL     1      17.081 -49.630 -31.063  1.00  0.00     0.029 A 
ATOM     27  C   UNL     1      15.057 -48.529 -31.820  1.00  0.00     0.013 A 
ATOM     28  C   UNL     1      17.382 -49.966 -32.390  1.00  0.00     0.012 A 
ATOM     29  C   UNL     1      15.362 -48.866 -33.138  1.00  0.00     0.001 A 
ATOM     30  C   UNL     1      16.521 -49.587 -33.423  1.00  0.00     0.001 A 
ATOM     31  O   UNL     1      14.743 -47.716 -29.127  1.00  0.00    -0.287 OA
ATOM     32  O   UNL     1      19.087 -50.568 -30.281  1.00  0.00    -0.294 OA
ENDBRANCH  20  21
ENDBRANCH  19  20
ENDBRANCH   1  19
TORSDOF 5
ENDMDL
MODEL 9
REMARK VINA RESULT:    -9.460      6.196     11.688
REMARK INTER + INTRA:         -12.915
REMARK INTER:                 -12.072
REMARK INTRA:                  -0.843
REMARK UNBOUND:                -0.690
REMARK SMILES O=C1CC(=NCCN=c2c3c([nH]c4cc(Cl)ccc24)CCCC3)C(=O)c2ccccc21
REMARK SMILES IDX 7 1 8 2 9 3 12 4 11 5 13 6 10 7 20 8 14 9 19 10 23 11 21 12
REMARK SMILES IDX 15 13 18 14 22 15 17 16 16 18 6 19 5 20 4 21 3 22 24 23 2 24
REMARK SMILES IDX 26 25 31 26 27 27 30 28 28 29 29 30 25 31 1 32
REMARK H PARENT 12 17
ROOT
ATOM      1  C   UNL     1      16.414 -50.509 -25.984  1.00  0.00     0.166 C 
ENDROOT
BRANCH   1   2
ATOM      2  N   UNL     1      15.323 -49.947 -26.752  1.00  0.00    -0.282 NA
BRANCH   2   3
ATOM      3  C   UNL     1      15.207 -48.792 -27.293  1.00  0.00     0.072 A 
ATOM      4  N   UNL     1      15.194 -46.007 -27.881  1.00  0.00    -0.358 N 
ATOM      5  C   UNL     1      15.743 -46.895 -28.782  1.00  0.00     0.021 A 
ATOM      6  C   UNL     1      14.393 -46.457 -26.827  1.00  0.00     0.049 A 
ATOM      7  C   UNL     1      15.779 -48.234 -28.588  1.00  0.00    -0.003 A 
ATOM      8  C   UNL     1      16.286 -46.248 -30.045  1.00  0.00     0.054 C 
ATOM      9  C   UNL     1      13.673 -45.545 -26.044  1.00  0.00     0.047 A 
ATOM     10  C   UNL     1      14.369 -47.817 -26.498  1.00  0.00     0.024 A 
ATOM     11  C   UNL     1      16.298 -49.162 -29.654  1.00  0.00     0.039 C 
ATOM     12  C   UNL     1      17.085 -47.179 -30.950  1.00  0.00     0.007 C 
ATOM     13  C   UNL     1      12.904 -45.996 -24.971  1.00  0.00     0.043 A 
ATOM     14  C   UNL     1      13.593 -48.261 -25.413  1.00  0.00     0.014 A 
ATOM     15  C   UNL     1      16.401 -48.530 -31.043  1.00  0.00     0.005 C 
ATOM     16  C   UNL     1      12.856 -47.351 -24.654  1.00  0.00     0.021 A 
ATOM     17  H   UNL     1      15.030 -45.062 -28.212  1.00  0.00     0.166 HD
ATOM     18  Cl  UNL     1      12.011 -44.867 -24.028  1.00  0.00    -0.084 Cl
ENDBRANCH   2   3
ENDBRANCH   1   2
BRANCH   1  19
ATOM     19  C   UNL     1      15.910 -51.687 -25.137  1.00  0.00     0.166 C 
BRANCH  19  20
ATOM     20  N   UNL     1      14.702 -51.296 -24.410  1.00  0.00    -0.283 NA
BRANCH  20  21
ATOM     21  C   UNL     1      13.596 -51.925 -24.611  1.00  0.00     0.091 C 
ATOM     22  C   UNL     1      13.261 -52.838 -25.748  1.00  0.00     0.141 C 
ATOM     23  C   UNL     1      12.485 -51.726 -23.605  1.00  0.00     0.207 C 
ATOM     24  C   UNL     1      12.476 -54.058 -25.350  1.00  0.00     0.169 C 
ATOM     25  C   UNL     1      11.681 -52.909 -23.265  1.00  0.00     0.035 A 
ATOM     26  C   UNL     1      11.703 -54.037 -24.083  1.00  0.00     0.029 A 
ATOM     27  C   UNL     1      10.894 -52.891 -22.106  1.00  0.00     0.013 A 
ATOM     28  C   UNL     1      10.944 -55.161 -23.730  1.00  0.00     0.012 A 
ATOM     29  C   UNL     1      10.140 -54.012 -21.759  1.00  0.00     0.001 A 
ATOM     30  C   UNL     1      10.168 -55.148 -22.569  1.00  0.00     0.001 A 
ATOM     31  O   UNL     1      12.277 -50.632 -23.106  1.00  0.00    -0.287 OA
ATOM     32  O   UNL     1      12.423 -55.046 -26.079  1.00  0.00    -0.294 OA
ENDBRANCH  20  21
ENDBRANCH  19  20
ENDBRANCH   1  19
TORSDOF 5
ENDMDL
