MODEL 1
REMARK VINA RESULT:   -12.684      0.000      0.000
REMARK INTER + INTRA:         -18.029
REMARK INTER:                 -17.504
REMARK INTRA:                  -0.525
REMARK UNBOUND:                -0.525
REMARK SMILES O=C(CC[C@H]1CC[N@H+](Cc2ccccc2O)CC1)c1cc2c3c(ccn3C(=O)CC2)c1
REMARK SMILES IDX 7 1 8 2 17 3 6 4 5 5 18 6 9 8 10 9 11 10 15 11 12 12 14 13
REMARK SMILES IDX 13 14 16 15 4 17 3 18 2 19 1 20 19 21 20 22 31 23 21 24
REMARK SMILES IDX 23 25 22 26 30 27 24 28 26 29 29 30 25 31 27 32 28 33
REMARK H PARENT 8 7 16 16
ROOT
ATOM      1  C   UNL     1       9.431 -59.576 -23.751  1.00  0.00     0.262 C 
ATOM      2  N   UNL     1      10.741 -60.224 -23.424  1.00  0.00    -0.331 N 
ATOM      3  C   UNL     1      11.010 -60.128 -21.959  1.00  0.00     0.262 C 
ATOM      4  C   UNL     1       9.572 -58.077 -23.547  1.00  0.00     0.065 C 
ATOM      5  C   UNL     1      10.289 -57.652 -22.250  1.00  0.00     0.000 C 
ATOM      6  C   UNL     1      11.251 -58.674 -21.598  1.00  0.00     0.065 C 
ATOM      7  H   UNL     1      11.475 -59.654 -23.895  1.00  0.00     0.348 HD
ENDROOT
BRANCH   2   8
ATOM      8  C   UNL     1      10.892 -61.611 -24.001  1.00  0.00     0.302 C 
BRANCH   8   9
ATOM      9  C   UNL     1       9.616 -62.376 -24.235  1.00  0.00     0.048 A 
ATOM     10  C   UNL     1       8.971 -62.313 -25.482  1.00  0.00     0.013 A 
ATOM     11  C   UNL     1       9.036 -63.158 -23.229  1.00  0.00     0.124 A 
ATOM     12  C   UNL     1       7.791 -63.022 -25.711  1.00  0.00     0.001 A 
ATOM     13  C   UNL     1       7.857 -63.869 -23.452  1.00  0.00     0.046 A 
ATOM     14  C   UNL     1       7.238 -63.801 -24.698  1.00  0.00     0.004 A 
BRANCH  11  15
ATOM     15  O   UNL     1       9.645 -63.219 -22.007  1.00  0.00    -0.507 OA
ATOM     16  H   UNL     1       9.204 -63.910 -21.477  1.00  0.00     0.293 HD
ENDBRANCH  11  15
ENDBRANCH   8   9
ENDBRANCH   2   8
BRANCH   5  17
ATOM     17  C   UNL     1      10.992 -56.279 -22.385  1.00  0.00     0.012 C 
BRANCH  17  18
ATOM     18  C   UNL     1      10.137 -55.004 -22.517  1.00  0.00     0.081 C 
BRANCH  18  19
ATOM     19  C   UNL     1      10.669 -53.726 -21.869  1.00  0.00     0.162 C 
ATOM     20  O   UNL     1      10.602 -53.515 -20.654  1.00  0.00    -0.294 OA
BRANCH  19  21
ATOM     21  C   UNL     1      11.346 -52.716 -22.731  1.00  0.00     0.019 A 
ATOM     22  C   UNL     1      11.296 -51.367 -22.336  1.00  0.00     0.017 A 
ATOM     23  C   UNL     1      12.060 -53.110 -23.883  1.00  0.00     0.022 A 
ATOM     24  C   UNL     1      11.911 -50.376 -23.104  1.00  0.00    -0.022 A 
ATOM     25  C   UNL     1      12.701 -52.121 -24.651  1.00  0.00     0.001 A 
ATOM     26  C   UNL     1      12.585 -50.805 -24.245  1.00  0.00     0.059 A 
ATOM     27  C   UNL     1      12.003 -48.923 -22.753  1.00  0.00     0.047 C 
ATOM     28  C   UNL     1      13.524 -52.106 -25.810  1.00  0.00     0.029 A 
ATOM     29  N   UNL     1      13.263 -49.993 -25.126  1.00  0.00    -0.287 N 
ATOM     30  C   UNL     1      12.246 -48.064 -24.008  1.00  0.00     0.106 C 
ATOM     31  C   UNL     1      13.877 -50.794 -26.062  1.00  0.00     0.095 A 
ATOM     32  C   UNL     1      13.271 -48.597 -25.004  1.00  0.00     0.231 C 
ATOM     33  O   UNL     1      13.972 -47.923 -25.746  1.00  0.00    -0.274 OA
ENDBRANCH  19  21
ENDBRANCH  18  19
ENDBRANCH  17  18
ENDBRANCH   5  17
TORSDOF 7
ENDMDL
MODEL 2
REMARK VINA RESULT:   -12.659      0.372      1.801
REMARK INTER + INTRA:         -17.994
REMARK INTER:                 -17.436
REMARK INTRA:                  -0.558
REMARK UNBOUND:                -0.525
REMARK SMILES O=C(CC[C@H]1CC[N@H+](Cc2ccccc2O)CC1)c1cc2c3c(ccn3C(=O)CC2)c1
REMARK SMILES IDX 7 1 8 2 17 3 6 4 5 5 18 6 9 8 10 9 11 10 15 11 12 12 14 13
REMARK SMILES IDX 13 14 16 15 4 17 3 18 2 19 1 20 19 21 20 22 31 23 21 24
REMARK SMILES IDX 23 25 22 26 30 27 24 28 26 29 29 30 25 31 27 32 28 33
REMARK H PARENT 8 7 16 16
ROOT
ATOM      1  C   UNL     1       9.424 -59.571 -23.739  1.00  0.00     0.262 C 
ATOM      2  N   UNL     1      10.733 -60.221 -23.415  1.00  0.00    -0.331 N 
ATOM      3  C   UNL     1      11.011 -60.115 -21.953  1.00  0.00     0.262 C 
ATOM      4  C   UNL     1       9.571 -58.071 -23.546  1.00  0.00     0.065 C 
ATOM      5  C   UNL     1      10.297 -57.639 -22.257  1.00  0.00     0.000 C 
ATOM      6  C   UNL     1      11.259 -58.660 -21.603  1.00  0.00     0.065 C 
ATOM      7  H   UNL     1      11.467 -59.657 -23.895  1.00  0.00     0.348 HD
ENDROOT
BRANCH   2   8
ATOM      8  C   UNL     1      10.876 -61.612 -23.983  1.00  0.00     0.302 C 
BRANCH   8   9
ATOM      9  C   UNL     1       9.595 -62.369 -24.217  1.00  0.00     0.048 A 
ATOM     10  C   UNL     1       8.977 -62.340 -25.479  1.00  0.00     0.013 A 
ATOM     11  C   UNL     1       8.985 -63.110 -23.198  1.00  0.00     0.124 A 
ATOM     12  C   UNL     1       7.792 -63.042 -25.709  1.00  0.00     0.001 A 
ATOM     13  C   UNL     1       7.802 -63.813 -23.422  1.00  0.00     0.046 A 
ATOM     14  C   UNL     1       7.208 -63.780 -24.682  1.00  0.00     0.004 A 
BRANCH  11  15
ATOM     15  O   UNL     1       9.568 -63.136 -21.963  1.00  0.00    -0.507 OA
ATOM     16  H   UNL     1       9.725 -62.216 -21.676  1.00  0.00     0.293 HD
ENDBRANCH  11  15
ENDBRANCH   8   9
ENDBRANCH   2   8
BRANCH   5  17
ATOM     17  C   UNL     1      11.005 -56.270 -22.406  1.00  0.00     0.012 C 
BRANCH  17  18
ATOM     18  C   UNL     1      10.153 -54.988 -22.502  1.00  0.00     0.081 C 
BRANCH  18  19
ATOM     19  C   UNL     1      10.632 -53.762 -21.725  1.00  0.00     0.162 C 
ATOM     20  O   UNL     1      10.557 -53.680 -20.494  1.00  0.00    -0.294 OA
BRANCH  19  21
ATOM     21  C   UNL     1      11.266 -52.642 -22.476  1.00  0.00     0.019 A 
ATOM     22  C   UNL     1      11.986 -52.953 -23.644  1.00  0.00     0.017 A 
ATOM     23  C   UNL     1      11.106 -51.306 -22.056  1.00  0.00     0.022 A 
ATOM     24  C   UNL     1      12.603 -51.946 -24.390  1.00  0.00    -0.022 A 
ATOM     25  C   UNL     1      11.705 -50.282 -22.812  1.00  0.00     0.001 A 
ATOM     26  C   UNL     1      12.439 -50.643 -23.927  1.00  0.00     0.059 A 
ATOM     27  C   UNL     1      13.324 -52.131 -25.689  1.00  0.00     0.047 C 
ATOM     28  C   UNL     1      11.745 -48.862 -22.755  1.00  0.00     0.029 A 
ATOM     29  N   UNL     1      12.955 -49.513 -24.521  1.00  0.00    -0.287 N 
ATOM     30  C   UNL     1      14.306 -50.974 -25.949  1.00  0.00     0.106 C 
ATOM     31  C   UNL     1      12.493 -48.416 -23.828  1.00  0.00     0.095 A 
ATOM     32  C   UNL     1      13.795 -49.570 -25.640  1.00  0.00     0.231 C 
ATOM     33  O   UNL     1      14.142 -48.539 -26.197  1.00  0.00    -0.274 OA
ENDBRANCH  19  21
ENDBRANCH  18  19
ENDBRANCH  17  18
ENDBRANCH   5  17
TORSDOF 7
ENDMDL
MODEL 3
REMARK VINA RESULT:   -12.501      1.162      1.579
REMARK INTER + INTRA:         -17.776
REMARK INTER:                 -16.930
REMARK INTRA:                  -0.846
REMARK UNBOUND:                -0.525
REMARK SMILES O=C(CC[C@H]1CC[N@H+](Cc2ccccc2O)CC1)c1cc2c3c(ccn3C(=O)CC2)c1
REMARK SMILES IDX 7 1 8 2 17 3 6 4 5 5 18 6 9 8 10 9 11 10 15 11 12 12 14 13
REMARK SMILES IDX 13 14 16 15 4 17 3 18 2 19 1 20 19 21 20 22 31 23 21 24
REMARK SMILES IDX 23 25 22 26 30 27 24 28 26 29 29 30 25 31 27 32 28 33
REMARK H PARENT 8 7 16 16
ROOT
ATOM      1  C   UNL     1      11.168 -59.988 -21.942  1.00  0.00     0.262 C 
ATOM      2  N   UNL     1      11.160 -60.155 -23.431  1.00  0.00    -0.331 N 
ATOM      3  C   UNL     1      12.186 -59.268 -24.053  1.00  0.00     0.262 C 
ATOM      4  C   UNL     1      10.640 -58.602 -21.611  1.00  0.00     0.065 C 
ATOM      5  C   UNL     1      11.206 -57.456 -22.475  1.00  0.00     0.000 C 
ATOM      6  C   UNL     1      11.763 -57.823 -23.871  1.00  0.00     0.065 C 
ATOM      7  H   UNL     1      10.234 -59.807 -23.759  1.00  0.00     0.348 HD
ENDROOT
BRANCH   2   8
ATOM      8  C   UNL     1      11.218 -61.595 -23.879  1.00  0.00     0.302 C 
BRANCH   8   9
ATOM      9  C   UNL     1       9.899 -62.319 -23.961  1.00  0.00     0.048 A 
ATOM     10  C   UNL     1       9.501 -63.183 -22.926  1.00  0.00     0.013 A 
ATOM     11  C   UNL     1       9.045 -62.163 -25.058  1.00  0.00     0.124 A 
ATOM     12  C   UNL     1       8.280 -63.856 -22.990  1.00  0.00     0.001 A 
ATOM     13  C   UNL     1       7.823 -62.832 -25.127  1.00  0.00     0.046 A 
ATOM     14  C   UNL     1       7.442 -63.677 -24.087  1.00  0.00     0.004 A 
BRANCH  11  15
ATOM     15  O   UNL     1       9.425 -61.336 -26.078  1.00  0.00    -0.507 OA
ATOM     16  H   UNL     1       8.814 -61.470 -26.828  1.00  0.00     0.293 HD
ENDBRANCH  11  15
ENDBRANCH   8   9
ENDBRANCH   2   8
BRANCH   5  17
ATOM     17  C   UNL     1      10.225 -56.265 -22.595  1.00  0.00     0.012 C 
BRANCH  17  18
ATOM     18  C   UNL     1      10.655 -55.009 -23.378  1.00  0.00     0.081 C 
BRANCH  18  19
ATOM     19  C   UNL     1      11.023 -53.764 -22.570  1.00  0.00     0.162 C 
ATOM     20  O   UNL     1      10.858 -53.688 -21.348  1.00  0.00    -0.294 OA
BRANCH  19  21
ATOM     21  C   UNL     1      11.658 -52.616 -23.277  1.00  0.00     0.019 A 
ATOM     22  C   UNL     1      11.524 -51.335 -22.713  1.00  0.00     0.017 A 
ATOM     23  C   UNL     1      12.415 -52.817 -24.450  1.00  0.00     0.022 A 
ATOM     24  C   UNL     1      12.097 -50.221 -23.330  1.00  0.00    -0.022 A 
ATOM     25  C   UNL     1      13.014 -51.704 -25.067  1.00  0.00     0.001 A 
ATOM     26  C   UNL     1      12.815 -50.460 -24.498  1.00  0.00     0.059 A 
ATOM     27  C   UNL     1      12.100 -48.823 -22.792  1.00  0.00     0.047 C 
ATOM     28  C   UNL     1      13.857 -51.494 -26.193  1.00  0.00     0.029 A 
ATOM     29  N   UNL     1      13.463 -49.505 -25.249  1.00  0.00    -0.287 N 
ATOM     30  C   UNL     1      12.318 -47.796 -23.918  1.00  0.00     0.106 C 
ATOM     31  C   UNL     1      14.140 -50.143 -26.264  1.00  0.00     0.095 A 
ATOM     32  C   UNL     1      13.390 -48.139 -24.948  1.00  0.00     0.231 C 
ATOM     33  O   UNL     1      14.066 -47.338 -25.577  1.00  0.00    -0.274 OA
ENDBRANCH  19  21
ENDBRANCH  18  19
ENDBRANCH  17  18
ENDBRANCH   5  17
TORSDOF 7
ENDMDL
MODEL 4
REMARK VINA RESULT:   -12.033      2.180     11.164
REMARK INTER + INTRA:         -17.130
REMARK INTER:                 -16.403
REMARK INTRA:                  -0.727
REMARK UNBOUND:                -0.525
REMARK SMILES O=C(CC[C@H]1CC[N@H+](Cc2ccccc2O)CC1)c1cc2c3c(ccn3C(=O)CC2)c1
REMARK SMILES IDX 7 1 8 2 17 3 6 4 5 5 18 6 9 8 10 9 11 10 15 11 12 12 14 13
REMARK SMILES IDX 13 14 16 15 4 17 3 18 2 19 1 20 19 21 20 22 31 23 21 24
REMARK SMILES IDX 23 25 22 26 30 27 24 28 26 29 29 30 25 31 27 32 28 33
REMARK H PARENT 8 7 16 16
ROOT
ATOM      1  C   UNL     1      10.724 -53.925 -20.865  1.00  0.00     0.262 C 
ATOM      2  N   UNL     1      10.901 -53.121 -22.115  1.00  0.00    -0.331 N 
ATOM      3  C   UNL     1       9.841 -53.471 -23.105  1.00  0.00     0.262 C 
ATOM      4  C   UNL     1      11.044 -55.377 -21.178  1.00  0.00     0.065 C 
ATOM      5  C   UNL     1      10.431 -55.920 -22.484  1.00  0.00     0.000 C 
ATOM      6  C   UNL     1      10.065 -54.894 -23.582  1.00  0.00     0.065 C 
ATOM      7  H   UNL     1      11.806 -53.425 -22.534  1.00  0.00     0.348 HD
ENDROOT
BRANCH   2   8
ATOM      8  C   UNL     1      11.064 -51.641 -21.866  1.00  0.00     0.302 C 
BRANCH   8   9
ATOM      9  C   UNL     1      11.820 -50.869 -22.915  1.00  0.00     0.048 A 
ATOM     10  C   UNL     1      12.621 -51.545 -23.851  1.00  0.00     0.013 A 
ATOM     11  C   UNL     1      11.756 -49.472 -22.986  1.00  0.00     0.124 A 
ATOM     12  C   UNL     1      13.323 -50.841 -24.830  1.00  0.00     0.001 A 
ATOM     13  C   UNL     1      12.454 -48.763 -23.963  1.00  0.00     0.046 A 
ATOM     14  C   UNL     1      13.236 -49.452 -24.887  1.00  0.00     0.004 A 
BRANCH  11  15
ATOM     15  O   UNL     1      10.991 -48.801 -22.074  1.00  0.00    -0.507 OA
ATOM     16  H   UNL     1      11.532 -48.088 -21.683  1.00  0.00     0.293 HD
ENDBRANCH  11  15
ENDBRANCH   8   9
ENDBRANCH   2   8
BRANCH   5  17
ATOM     17  C   UNL     1      11.267 -57.071 -23.096  1.00  0.00     0.012 C 
BRANCH  17  18
ATOM     18  C   UNL     1      11.497 -58.355 -22.275  1.00  0.00     0.081 C 
BRANCH  18  19
ATOM     19  C   UNL     1      12.008 -59.589 -23.020  1.00  0.00     0.162 C 
ATOM     20  O   UNL     1      13.199 -59.916 -23.033  1.00  0.00    -0.294 OA
BRANCH  19  21
ATOM     21  C   UNL     1      11.021 -60.464 -23.713  1.00  0.00     0.019 A 
ATOM     22  C   UNL     1      10.142 -61.227 -22.923  1.00  0.00     0.017 A 
ATOM     23  C   UNL     1      10.936 -60.486 -25.121  1.00  0.00     0.022 A 
ATOM     24  C   UNL     1       9.196 -62.066 -23.516  1.00  0.00    -0.022 A 
ATOM     25  C   UNL     1       9.972 -61.312 -25.727  1.00  0.00     0.001 A 
ATOM     26  C   UNL     1       9.163 -62.076 -24.907  1.00  0.00     0.059 A 
ATOM     27  C   UNL     1       8.153 -62.862 -22.794  1.00  0.00     0.047 C 
ATOM     28  C   UNL     1       9.551 -61.578 -27.059  1.00  0.00     0.029 A 
ATOM     29  N   UNL     1       8.301 -62.821 -25.682  1.00  0.00    -0.287 N 
ATOM     30  C   UNL     1       7.661 -64.040 -23.655  1.00  0.00     0.106 C 
ATOM     31  C   UNL     1       8.508 -62.484 -27.000  1.00  0.00     0.095 A 
ATOM     32  C   UNL     1       7.400 -63.739 -25.128  1.00  0.00     0.231 C 
ATOM     33  O   UNL     1       6.582 -64.300 -25.843  1.00  0.00    -0.274 OA
ENDBRANCH  19  21
ENDBRANCH  18  19
ENDBRANCH  17  18
ENDBRANCH   5  17
TORSDOF 7
ENDMDL
MODEL 5
REMARK VINA RESULT:   -11.935      2.613      9.500
REMARK INTER + INTRA:         -16.995
REMARK INTER:                 -16.550
REMARK INTRA:                  -0.445
REMARK UNBOUND:                -0.525
REMARK SMILES O=C(CC[C@H]1CC[N@H+](Cc2ccccc2O)CC1)c1cc2c3c(ccn3C(=O)CC2)c1
REMARK SMILES IDX 7 1 8 2 17 3 6 4 5 5 18 6 9 8 10 9 11 10 15 11 12 12 14 13
REMARK SMILES IDX 13 14 16 15 4 17 3 18 2 19 1 20 19 21 20 22 31 23 21 24
REMARK SMILES IDX 23 25 22 26 30 27 24 28 26 29 29 30 25 31 27 32 28 33
REMARK H PARENT 8 7 16 16
ROOT
ATOM      1  C   UNL     1       9.211 -57.031 -23.373  1.00  0.00     0.262 C 
ATOM      2  N   UNL     1       9.907 -56.203 -22.337  1.00  0.00    -0.331 N 
ATOM      3  C   UNL     1      11.357 -56.552 -22.289  1.00  0.00     0.262 C 
ATOM      4  C   UNL     1       9.179 -58.472 -22.894  1.00  0.00     0.065 C 
ATOM      5  C   UNL     1      10.504 -59.003 -22.309  1.00  0.00     0.000 C 
ATOM      6  C   UNL     1      11.505 -57.963 -21.752  1.00  0.00     0.065 C 
ATOM      7  H   UNL     1       9.506 -56.486 -21.418  1.00  0.00     0.348 HD
ENDROOT
BRANCH   2   8
ATOM      8  C   UNL     1       9.620 -54.725 -22.450  1.00  0.00     0.302 C 
BRANCH   8   9
ATOM      9  C   UNL     1      10.716 -53.877 -23.040  1.00  0.00     0.048 A 
ATOM     10  C   UNL     1      11.331 -54.255 -24.246  1.00  0.00     0.013 A 
ATOM     11  C   UNL     1      11.156 -52.707 -22.411  1.00  0.00     0.124 A 
ATOM     12  C   UNL     1      12.345 -53.475 -24.804  1.00  0.00     0.001 A 
ATOM     13  C   UNL     1      12.168 -51.923 -22.965  1.00  0.00     0.046 A 
ATOM     14  C   UNL     1      12.759 -52.309 -24.166  1.00  0.00     0.004 A 
BRANCH  11  15
ATOM     15  O   UNL     1      10.576 -52.334 -21.232  1.00  0.00    -0.507 OA
ATOM     16  H   UNL     1      10.921 -52.911 -20.523  1.00  0.00     0.293 HD
ENDBRANCH  11  15
ENDBRANCH   8   9
ENDBRANCH   2   8
BRANCH   5  17
ATOM     17  C   UNL     1      10.283 -60.130 -21.271  1.00  0.00     0.012 C 
BRANCH  17  18
ATOM     18  C   UNL     1       9.348 -61.304 -21.621  1.00  0.00     0.081 C 
BRANCH  18  19
ATOM     19  C   UNL     1       9.865 -62.348 -22.611  1.00  0.00     0.162 C 
ATOM     20  O   UNL     1      10.139 -63.506 -22.278  1.00  0.00    -0.294 OA
BRANCH  19  21
ATOM     21  C   UNL     1       9.990 -61.971 -24.047  1.00  0.00     0.019 A 
ATOM     22  C   UNL     1      11.076 -61.162 -24.427  1.00  0.00     0.017 A 
ATOM     23  C   UNL     1       9.073 -62.454 -25.004  1.00  0.00     0.022 A 
ATOM     24  C   UNL     1      11.245 -60.776 -25.758  1.00  0.00    -0.022 A 
ATOM     25  C   UNL     1       9.248 -62.087 -26.352  1.00  0.00     0.001 A 
ATOM     26  C   UNL     1      10.306 -61.255 -26.667  1.00  0.00     0.059 A 
ATOM     27  C   UNL     1      12.398 -59.992 -26.305  1.00  0.00     0.047 C 
ATOM     28  C   UNL     1       8.597 -62.383 -27.580  1.00  0.00     0.029 A 
ATOM     29  N   UNL     1      10.300 -61.001 -28.020  1.00  0.00    -0.287 N 
ATOM     30  C   UNL     1      12.019 -59.301 -27.628  1.00  0.00     0.106 C 
ATOM     31  C   UNL     1       9.278 -61.728 -28.589  1.00  0.00     0.095 A 
ATOM     32  C   UNL     1      11.222 -60.136 -28.624  1.00  0.00     0.231 C 
ATOM     33  O   UNL     1      11.246 -60.023 -29.842  1.00  0.00    -0.274 OA
ENDBRANCH  19  21
ENDBRANCH  18  19
ENDBRANCH  17  18
ENDBRANCH   5  17
TORSDOF 7
ENDMDL
MODEL 6
REMARK VINA RESULT:   -11.813      3.218      9.259
REMARK INTER + INTRA:         -16.827
REMARK INTER:                 -15.729
REMARK INTRA:                  -1.098
REMARK UNBOUND:                -0.525
REMARK SMILES O=C(CC[C@H]1CC[N@H+](Cc2ccccc2O)CC1)c1cc2c3c(ccn3C(=O)CC2)c1
REMARK SMILES IDX 7 1 8 2 17 3 6 4 5 5 18 6 9 8 10 9 11 10 15 11 12 12 14 13
REMARK SMILES IDX 13 14 16 15 4 17 3 18 2 19 1 20 19 21 20 22 31 23 21 24
REMARK SMILES IDX 23 25 22 26 30 27 24 28 26 29 29 30 25 31 27 32 28 33
REMARK H PARENT 8 7 16 16
ROOT
ATOM      1  C   UNL     1      10.053 -58.840 -22.014  1.00  0.00     0.262 C 
ATOM      2  N   UNL     1      10.063 -58.046 -23.284  1.00  0.00    -0.331 N 
ATOM      3  C   UNL     1       8.786 -57.287 -23.425  1.00  0.00     0.262 C 
ATOM      4  C   UNL     1       9.029 -59.955 -22.152  1.00  0.00     0.065 C 
ATOM      5  C   UNL     1       7.675 -59.535 -22.758  1.00  0.00     0.000 C 
ATOM      6  C   UNL     1       7.652 -58.270 -23.649  1.00  0.00     0.065 C 
ATOM      7  H   UNL     1      10.080 -58.739 -24.062  1.00  0.00     0.348 HD
ENDROOT
BRANCH   2   8
ATOM      8  C   UNL     1      11.310 -57.217 -23.470  1.00  0.00     0.302 C 
BRANCH   8   9
ATOM      9  C   UNL     1      11.220 -55.774 -23.046  1.00  0.00     0.048 A 
ATOM     10  C   UNL     1      10.866 -55.446 -21.726  1.00  0.00     0.013 A 
ATOM     11  C   UNL     1      11.475 -54.730 -23.943  1.00  0.00     0.124 A 
ATOM     12  C   UNL     1      10.784 -54.113 -21.321  1.00  0.00     0.001 A 
ATOM     13  C   UNL     1      11.395 -53.396 -23.544  1.00  0.00     0.046 A 
ATOM     14  C   UNL     1      11.052 -53.091 -22.228  1.00  0.00     0.004 A 
BRANCH  11  15
ATOM     15  O   UNL     1      11.808 -55.035 -25.233  1.00  0.00    -0.507 OA
ATOM     16  H   UNL     1      11.441 -54.344 -25.817  1.00  0.00     0.293 HD
ENDBRANCH  11  15
ENDBRANCH   8   9
ENDBRANCH   2   8
BRANCH   5  17
ATOM     17  C   UNL     1       6.965 -60.704 -23.485  1.00  0.00     0.012 C 
BRANCH  17  18
ATOM     18  C   UNL     1       7.276 -62.153 -23.063  1.00  0.00     0.081 C 
BRANCH  18  19
ATOM     19  C   UNL     1       8.513 -62.816 -23.670  1.00  0.00     0.162 C 
ATOM     20  O   UNL     1       9.030 -63.830 -23.190  1.00  0.00    -0.294 OA
BRANCH  19  21
ATOM     21  C   UNL     1       9.085 -62.249 -24.923  1.00  0.00     0.019 A 
ATOM     22  C   UNL     1      10.202 -61.400 -24.816  1.00  0.00     0.017 A 
ATOM     23  C   UNL     1       8.554 -62.594 -26.183  1.00  0.00     0.022 A 
ATOM     24  C   UNL     1      10.781 -60.837 -25.955  1.00  0.00    -0.022 A 
ATOM     25  C   UNL     1       9.144 -62.049 -27.338  1.00  0.00     0.001 A 
ATOM     26  C   UNL     1      10.212 -61.185 -27.176  1.00  0.00     0.059 A 
ATOM     27  C   UNL     1      12.016 -59.991 -25.986  1.00  0.00     0.047 C 
ATOM     28  C   UNL     1       8.944 -62.174 -28.740  1.00  0.00     0.029 A 
ATOM     29  N   UNL     1      10.639 -60.751 -28.412  1.00  0.00    -0.287 N 
ATOM     30  C   UNL     1      12.064 -59.125 -27.259  1.00  0.00     0.106 C 
ATOM     31  C   UNL     1       9.890 -61.391 -29.374  1.00  0.00     0.095 A 
ATOM     32  C   UNL     1      11.671 -59.816 -28.561  1.00  0.00     0.231 C 
ATOM     33  O   UNL     1      12.088 -59.539 -29.677  1.00  0.00    -0.274 OA
ENDBRANCH  19  21
ENDBRANCH  18  19
ENDBRANCH  17  18
ENDBRANCH   5  17
TORSDOF 7
ENDMDL
MODEL 7
REMARK VINA RESULT:   -11.688      2.117     11.736
REMARK INTER + INTRA:         -16.655
REMARK INTER:                 -16.144
REMARK INTRA:                  -0.511
REMARK UNBOUND:                -0.525
REMARK SMILES O=C(CC[C@H]1CC[N@H+](Cc2ccccc2O)CC1)c1cc2c3c(ccn3C(=O)CC2)c1
REMARK SMILES IDX 7 1 8 2 17 3 6 4 5 5 18 6 9 8 10 9 11 10 15 11 12 12 14 13
REMARK SMILES IDX 13 14 16 15 4 17 3 18 2 19 1 20 19 21 20 22 31 23 21 24
REMARK SMILES IDX 23 25 22 26 30 27 24 28 26 29 29 30 25 31 27 32 28 33
REMARK H PARENT 8 7 16 16
ROOT
ATOM      1  C   UNL     1      10.711 -49.866 -22.366  1.00  0.00     0.262 C 
ATOM      2  N   UNL     1      12.202 -49.995 -22.426  1.00  0.00    -0.331 N 
ATOM      3  C   UNL     1      12.594 -50.915 -23.534  1.00  0.00     0.262 C 
ATOM      4  C   UNL     1      10.133 -51.193 -21.904  1.00  0.00     0.065 C 
ATOM      5  C   UNL     1      10.728 -52.444 -22.580  1.00  0.00     0.000 C 
ATOM      6  C   UNL     1      12.146 -52.322 -23.187  1.00  0.00     0.065 C 
ATOM      7  H   UNL     1      12.492 -50.462 -21.540  1.00  0.00     0.348 HD
ENDROOT
BRANCH   2   8
ATOM      8  C   UNL     1      12.925 -48.670 -22.423  1.00  0.00     0.302 C 
BRANCH   8   9
ATOM      9  C   UNL     1      12.117 -47.471 -22.844  1.00  0.00     0.048 A 
ATOM     10  C   UNL     1      11.710 -47.327 -24.182  1.00  0.00     0.013 A 
ATOM     11  C   UNL     1      11.757 -46.472 -21.932  1.00  0.00     0.124 A 
ATOM     12  C   UNL     1      10.957 -46.222 -24.583  1.00  0.00     0.001 A 
ATOM     13  C   UNL     1      11.004 -45.367 -22.326  1.00  0.00     0.046 A 
ATOM     14  C   UNL     1      10.602 -45.246 -23.655  1.00  0.00     0.004 A 
BRANCH  11  15
ATOM     15  O   UNL     1      12.157 -46.593 -20.631  1.00  0.00    -0.507 OA
ATOM     16  H   UNL     1      11.798 -45.837 -20.126  1.00  0.00     0.293 HD
ENDBRANCH  11  15
ENDBRANCH   8   9
ENDBRANCH   2   8
BRANCH   5  17
ATOM     17  C   UNL     1      10.648 -53.700 -21.678  1.00  0.00     0.012 C 
BRANCH  17  18
ATOM     18  C   UNL     1       9.768 -54.888 -22.115  1.00  0.00     0.081 C 
BRANCH  18  19
ATOM     19  C   UNL     1      10.382 -55.906 -23.077  1.00  0.00     0.162 C 
ATOM     20  O   UNL     1      11.366 -55.651 -23.779  1.00  0.00    -0.294 OA
BRANCH  19  21
ATOM     21  C   UNL     1       9.804 -57.278 -23.128  1.00  0.00     0.019 A 
ATOM     22  C   UNL     1      10.670 -58.369 -22.930  1.00  0.00     0.017 A 
ATOM     23  C   UNL     1       8.421 -57.474 -23.321  1.00  0.00     0.022 A 
ATOM     24  C   UNL     1      10.186 -59.679 -22.968  1.00  0.00    -0.022 A 
ATOM     25  C   UNL     1       7.921 -58.789 -23.339  1.00  0.00     0.001 A 
ATOM     26  C   UNL     1       8.819 -59.828 -23.183  1.00  0.00     0.059 A 
ATOM     27  C   UNL     1      10.981 -60.917 -22.690  1.00  0.00     0.047 C 
ATOM     28  C   UNL     1       6.638 -59.390 -23.458  1.00  0.00     0.029 A 
ATOM     29  N   UNL     1       8.146 -61.028 -23.244  1.00  0.00    -0.287 N 
ATOM     30  C   UNL     1      10.320 -62.154 -23.324  1.00  0.00     0.106 C 
ATOM     31  C   UNL     1       6.801 -60.759 -23.368  1.00  0.00     0.095 A 
ATOM     32  C   UNL     1       8.805 -62.262 -23.177  1.00  0.00     0.231 C 
ATOM     33  O   UNL     1       8.159 -63.298 -23.129  1.00  0.00    -0.274 OA
ENDBRANCH  19  21
ENDBRANCH  18  19
ENDBRANCH  17  18
ENDBRANCH   5  17
TORSDOF 7
ENDMDL
MODEL 8
REMARK VINA RESULT:   -11.331      2.852      4.796
REMARK INTER + INTRA:         -16.162
REMARK INTER:                 -15.476
REMARK INTRA:                  -0.687
REMARK UNBOUND:                -0.525
REMARK SMILES O=C(CC[C@H]1CC[N@H+](Cc2ccccc2O)CC1)c1cc2c3c(ccn3C(=O)CC2)c1
REMARK SMILES IDX 7 1 8 2 17 3 6 4 5 5 18 6 9 8 10 9 11 10 15 11 12 12 14 13
REMARK SMILES IDX 13 14 16 15 4 17 3 18 2 19 1 20 19 21 20 22 31 23 21 24
REMARK SMILES IDX 23 25 22 26 30 27 24 28 26 29 29 30 25 31 27 32 28 33
REMARK H PARENT 8 7 16 16
ROOT
ATOM      1  C   UNL     1      11.672 -54.821 -24.332  1.00  0.00     0.262 C 
ATOM      2  N   UNL     1      11.302 -55.856 -23.315  1.00  0.00    -0.331 N 
ATOM      3  C   UNL     1       9.878 -55.684 -22.902  1.00  0.00     0.262 C 
ATOM      4  C   UNL     1      11.697 -53.464 -23.649  1.00  0.00     0.065 C 
ATOM      5  C   UNL     1      10.504 -53.173 -22.716  1.00  0.00     0.000 C 
ATOM      6  C   UNL     1       9.744 -54.386 -22.128  1.00  0.00     0.065 C 
ATOM      7  H   UNL     1      11.879 -55.657 -22.471  1.00  0.00     0.348 HD
ENDROOT
BRANCH   2   8
ATOM      8  C   UNL     1      11.673 -57.262 -23.720  1.00  0.00     0.302 C 
BRANCH   8   9
ATOM      9  C   UNL     1      11.074 -58.372 -22.896  1.00  0.00     0.048 A 
ATOM     10  C   UNL     1      11.340 -58.453 -21.518  1.00  0.00     0.013 A 
ATOM     11  C   UNL     1      10.251 -59.348 -23.469  1.00  0.00     0.124 A 
ATOM     12  C   UNL     1      10.787 -59.474 -20.744  1.00  0.00     0.001 A 
ATOM     13  C   UNL     1       9.695 -60.370 -22.700  1.00  0.00     0.046 A 
ATOM     14  C   UNL     1       9.963 -60.428 -21.334  1.00  0.00     0.004 A 
BRANCH  11  15
ATOM     15  O   UNL     1       9.995 -59.289 -24.810  1.00  0.00    -0.507 OA
ATOM     16  H   UNL     1      10.155 -58.375 -25.115  1.00  0.00     0.293 HD
ENDBRANCH  11  15
ENDBRANCH   8   9
ENDBRANCH   2   8
BRANCH   5  17
ATOM     17  C   UNL     1      10.866 -52.180 -21.584  1.00  0.00     0.012 C 
BRANCH  17  18
ATOM     18  C   UNL     1      11.468 -50.809 -21.949  1.00  0.00     0.081 C 
BRANCH  18  19
ATOM     19  C   UNL     1      10.495 -49.664 -22.238  1.00  0.00     0.162 C 
ATOM     20  O   UNL     1       9.307 -49.697 -21.901  1.00  0.00    -0.294 OA
BRANCH  19  21
ATOM     21  C   UNL     1      11.014 -48.437 -22.903  1.00  0.00     0.019 A 
ATOM     22  C   UNL     1      10.451 -47.199 -22.542  1.00  0.00     0.017 A 
ATOM     23  C   UNL     1      12.073 -48.509 -23.832  1.00  0.00     0.022 A 
ATOM     24  C   UNL     1      10.896 -46.014 -23.132  1.00  0.00    -0.022 A 
ATOM     25  C   UNL     1      12.543 -47.319 -24.416  1.00  0.00     0.001 A 
ATOM     26  C   UNL     1      11.927 -46.133 -24.060  1.00  0.00     0.059 A 
ATOM     27  C   UNL     1      10.443 -44.632 -22.777  1.00  0.00     0.047 C 
ATOM     28  C   UNL     1      13.577 -46.969 -25.326  1.00  0.00     0.029 A 
ATOM     29  N   UNL     1      12.513 -45.091 -24.742  1.00  0.00    -0.287 N 
ATOM     30  C   UNL     1      10.706 -43.648 -23.932  1.00  0.00     0.106 C 
ATOM     31  C   UNL     1      13.555 -45.597 -25.487  1.00  0.00     0.095 A 
ATOM     32  C   UNL     1      12.057 -43.771 -24.630  1.00  0.00     0.231 C 
ATOM     33  O   UNL     1      12.673 -42.864 -25.171  1.00  0.00    -0.274 OA
ENDBRANCH  19  21
ENDBRANCH  18  19
ENDBRANCH  17  18
ENDBRANCH   5  17
TORSDOF 7
ENDMDL
MODEL 9
REMARK VINA RESULT:   -11.282      2.020     11.661
REMARK INTER + INTRA:         -16.094
REMARK INTER:                 -15.498
REMARK INTRA:                  -0.596
REMARK UNBOUND:                -0.525
REMARK SMILES O=C(CC[C@H]1CC[N@H+](Cc2ccccc2O)CC1)c1cc2c3c(ccn3C(=O)CC2)c1
REMARK SMILES IDX 7 1 8 2 17 3 6 4 5 5 18 6 9 8 10 9 11 10 15 11 12 12 14 13
REMARK SMILES IDX 13 14 16 15 4 17 3 18 2 19 1 20 19 21 20 22 31 23 21 24
REMARK SMILES IDX 23 25 22 26 30 27 24 28 26 29 29 30 25 31 27 32 28 33
REMARK H PARENT 8 7 16 16
ROOT
ATOM      1  C   UNL     1      13.326 -50.974 -24.097  1.00  0.00     0.262 C 
ATOM      2  N   UNL     1      12.409 -49.835 -23.772  1.00  0.00    -0.331 N 
ATOM      3  C   UNL     1      12.023 -49.882 -22.331  1.00  0.00     0.262 C 
ATOM      4  C   UNL     1      12.533 -52.267 -24.018  1.00  0.00     0.065 C 
ATOM      5  C   UNL     1      11.613 -52.403 -22.788  1.00  0.00     0.000 C 
ATOM      6  C   UNL     1      11.149 -51.100 -22.095  1.00  0.00     0.065 C 
ATOM      7  H   UNL     1      11.535 -49.998 -24.315  1.00  0.00     0.348 HD
ENDROOT
BRANCH   2   8
ATOM      8  C   UNL     1      12.917 -48.494 -24.243  1.00  0.00     0.302 C 
BRANCH   8   9
ATOM      9  C   UNL     1      12.293 -47.283 -23.601  1.00  0.00     0.048 A 
ATOM     10  C   UNL     1      11.081 -46.768 -24.091  1.00  0.00     0.013 A 
ATOM     11  C   UNL     1      12.896 -46.637 -22.516  1.00  0.00     0.124 A 
ATOM     12  C   UNL     1      10.491 -45.649 -23.501  1.00  0.00     0.001 A 
ATOM     13  C   UNL     1      12.311 -45.519 -21.921  1.00  0.00     0.046 A 
ATOM     14  C   UNL     1      11.104 -45.029 -22.416  1.00  0.00     0.004 A 
BRANCH  11  15
ATOM     15  O   UNL     1      14.082 -47.119 -22.037  1.00  0.00    -0.507 OA
ATOM     16  H   UNL     1      13.888 -47.802 -21.366  1.00  0.00     0.293 HD
ENDBRANCH  11  15
ENDBRANCH   8   9
ENDBRANCH   2   8
BRANCH   5  17
ATOM     17  C   UNL     1      10.393 -53.318 -23.059  1.00  0.00     0.012 C 
BRANCH  17  18
ATOM     18  C   UNL     1      10.628 -54.784 -23.474  1.00  0.00     0.081 C 
BRANCH  18  19
ATOM     19  C   UNL     1      10.760 -55.822 -22.359  1.00  0.00     0.162 C 
ATOM     20  O   UNL     1      11.348 -55.591 -21.298  1.00  0.00    -0.294 OA
BRANCH  19  21
ATOM     21  C   UNL     1      10.104 -57.148 -22.537  1.00  0.00     0.019 A 
ATOM     22  C   UNL     1       8.787 -57.175 -23.029  1.00  0.00     0.017 A 
ATOM     23  C   UNL     1      10.803 -58.343 -22.267  1.00  0.00     0.022 A 
ATOM     24  C   UNL     1       8.120 -58.388 -23.215  1.00  0.00    -0.022 A 
ATOM     25  C   UNL     1      10.148 -59.571 -22.472  1.00  0.00     0.001 A 
ATOM     26  C   UNL     1       8.838 -59.542 -22.915  1.00  0.00     0.059 A 
ATOM     27  C   UNL     1       6.756 -58.558 -23.808  1.00  0.00     0.047 C 
ATOM     28  C   UNL     1      10.499 -60.944 -22.365  1.00  0.00     0.029 A 
ATOM     29  N   UNL     1       8.370 -60.831 -23.040  1.00  0.00    -0.287 N 
ATOM     30  C   UNL     1       6.130 -59.899 -23.382  1.00  0.00     0.106 C 
ATOM     31  C   UNL     1       9.402 -61.693 -22.746  1.00  0.00     0.095 A 
ATOM     32  C   UNL     1       7.050 -61.116 -23.414  1.00  0.00     0.231 C 
ATOM     33  O   UNL     1       6.708 -62.272 -23.615  1.00  0.00    -0.274 OA
ENDBRANCH  19  21
ENDBRANCH  18  19
ENDBRANCH  17  18
ENDBRANCH   5  17
TORSDOF 7
ENDMDL
