MODEL 1
REMARK VINA RESULT:   -10.410      0.000      0.000
REMARK INTER + INTRA:         -16.022
REMARK INTER:                 -15.278
REMARK INTRA:                  -0.744
REMARK UNBOUND:                -0.744
REMARK SMILES C[N@H+](CCC(=O)N1CC[NH+](CCNc2c3c(nc4ccccc24)CCCC3)CC1)C1CCCCC1
REMARK SMILES IDX 9 1 10 2 28 3 8 4 7 5 5 6 29 7 6 8 11 10 12 11 13 12 14 14
REMARK SMILES IDX 15 15 23 16 16 17 27 18 22 19 18 20 17 21 24 22 26 23 21 24
REMARK SMILES IDX 19 25 25 26 20 27 4 28 3 29 2 30 1 31 30 33 31 34 35 35
REMARK SMILES IDX 32 36 34 37 33 38
REMARK H PARENT 10 9 13 13 2 32
ROOT
ATOM      1  C   UNL     1      10.356 -53.735 -23.866  1.00  0.00     0.284 C 
ATOM      2  N   UNL     1      10.030 -53.297 -22.459  1.00  0.00    -0.331 N 
ATOM      3  C   UNL     1       9.541 -54.461 -21.626  1.00  0.00     0.284 C 
ATOM      4  C   UNL     1      11.381 -54.886 -23.874  1.00  0.00     0.181 C 
ATOM      5  N   UNL     1      11.022 -55.999 -22.977  1.00  0.00    -0.331 N 
ATOM      6  C   UNL     1      11.497 -57.298 -23.129  1.00  0.00     0.228 C 
ATOM      7  C   UNL     1      10.553 -55.617 -21.632  1.00  0.00     0.181 C 
ATOM      8  O   UNL     1      11.322 -58.162 -22.266  1.00  0.00    -0.275 OA
ATOM      9  H   UNL     1       9.230 -52.628 -22.519  1.00  0.00     0.348 HD
ENDROOT
BRANCH   2  10
ATOM     10  C   UNL     1      11.081 -52.409 -21.798  1.00  0.00     0.283 C 
BRANCH  10  11
ATOM     11  C   UNL     1      10.666 -50.931 -21.966  1.00  0.00     0.174 C 
BRANCH  11  12
ATOM     12  N   UNL     1      11.860 -50.065 -21.734  1.00  0.00    -0.379 N 
ATOM     13  H   UNL     1      12.690 -50.667 -21.643  1.00  0.00     0.160 HD
BRANCH  12  14
ATOM     14  C   UNL     1      12.146 -49.293 -22.925  1.00  0.00     0.049 A 
ATOM     15  C   UNL     1      12.952 -49.867 -23.929  1.00  0.00    -0.003 A 
ATOM     16  C   UNL     1      11.670 -47.950 -23.066  1.00  0.00     0.024 A 
ATOM     17  C   UNL     1      13.239 -49.085 -25.048  1.00  0.00     0.046 A 
ATOM     18  C   UNL     1      13.399 -51.305 -23.868  1.00  0.00     0.039 C 
ATOM     19  C   UNL     1      10.838 -47.273 -22.133  1.00  0.00     0.012 A 
ATOM     20  C   UNL     1      12.059 -47.256 -24.228  1.00  0.00     0.073 A 
ATOM     21  N   UNL     1      12.827 -47.805 -25.175  1.00  0.00    -0.252 NA
ATOM     22  C   UNL     1      14.079 -49.597 -26.190  1.00  0.00     0.056 C 
ATOM     23  C   UNL     1      14.469 -51.683 -24.892  1.00  0.00     0.005 C 
ATOM     24  C   UNL     1      10.425 -45.956 -22.344  1.00  0.00     0.001 A 
ATOM     25  C   UNL     1      11.638 -45.947 -24.417  1.00  0.00     0.029 A 
ATOM     26  C   UNL     1      14.124 -51.118 -26.261  1.00  0.00     0.007 C 
ATOM     27  C   UNL     1      10.829 -45.290 -23.490  1.00  0.00     0.002 A 
ENDBRANCH  12  14
ENDBRANCH  11  12
ENDBRANCH  10  11
ENDBRANCH   2  10
BRANCH   6  28
ATOM     28  C   UNL     1      12.175 -57.685 -24.430  1.00  0.00     0.161 C 
BRANCH  28  29
ATOM     29  C   UNL     1      12.082 -59.193 -24.709  1.00  0.00     0.272 C 
BRANCH  29  30
ATOM     30  N   UNL     1      10.765 -59.625 -25.334  1.00  0.00    -0.335 N 
ATOM     31  C   UNL     1      10.900 -60.069 -26.768  1.00  0.00     0.332 C 
ATOM     32  H   UNL     1      10.181 -58.764 -25.352  1.00  0.00     0.348 HD
BRANCH  30  33
ATOM     33  C   UNL     1       9.936 -60.620 -24.514  1.00  0.00     0.183 C 
ATOM     34  C   UNL     1       9.127 -61.568 -25.406  1.00  0.00     0.065 C 
ATOM     35  C   UNL     1      10.835 -61.380 -23.530  1.00  0.00     0.065 C 
ATOM     36  C   UNL     1       8.315 -62.547 -24.557  1.00  0.00     0.006 C 
ATOM     37  C   UNL     1      10.015 -62.362 -22.693  1.00  0.00     0.006 C 
ATOM     38  C   UNL     1       9.200 -63.309 -23.572  1.00  0.00     0.000 C 
ENDBRANCH  30  33
ENDBRANCH  29  30
ENDBRANCH  28  29
ENDBRANCH   6  28
TORSDOF 8
ENDMDL
MODEL 2
REMARK VINA RESULT:   -10.393      1.821     11.267
REMARK INTER + INTRA:         -15.998
REMARK INTER:                 -15.538
REMARK INTRA:                  -0.460
REMARK UNBOUND:                -0.744
REMARK SMILES C[N@H+](CCC(=O)N1CC[NH+](CCNc2c3c(nc4ccccc24)CCCC3)CC1)C1CCCCC1
REMARK SMILES IDX 9 1 10 2 28 3 8 4 7 5 5 6 29 7 6 8 11 10 12 11 13 12 14 14
REMARK SMILES IDX 15 15 23 16 16 17 27 18 22 19 18 20 17 21 24 22 26 23 21 24
REMARK SMILES IDX 19 25 25 26 20 27 4 28 3 29 2 30 1 31 30 33 31 34 35 35
REMARK SMILES IDX 32 36 34 37 33 38
REMARK H PARENT 10 9 13 13 2 32
ROOT
ATOM      1  C   UNL     1      11.006 -57.151 -21.216  1.00  0.00     0.284 C 
ATOM      2  N   UNL     1      10.488 -57.909 -22.414  1.00  0.00    -0.331 N 
ATOM      3  C   UNL     1       9.303 -57.203 -23.034  1.00  0.00     0.284 C 
ATOM      4  C   UNL     1      11.361 -55.696 -21.580  1.00  0.00     0.181 C 
ATOM      5  N   UNL     1      10.287 -54.993 -22.306  1.00  0.00    -0.331 N 
ATOM      6  C   UNL     1      10.160 -53.608 -22.344  1.00  0.00     0.228 C 
ATOM      7  C   UNL     1       9.644 -55.749 -23.396  1.00  0.00     0.181 C 
ATOM      8  O   UNL     1       9.361 -53.047 -23.099  1.00  0.00    -0.275 OA
ATOM      9  H   UNL     1      10.130 -58.827 -22.070  1.00  0.00     0.348 HD
ENDROOT
BRANCH   2  10
ATOM     10  C   UNL     1      11.560 -58.381 -23.393  1.00  0.00     0.283 C 
BRANCH  10  11
ATOM     11  C   UNL     1      12.203 -59.674 -22.847  1.00  0.00     0.174 C 
BRANCH  11  12
ATOM     12  N   UNL     1      12.701 -60.489 -23.994  1.00  0.00    -0.379 N 
ATOM     13  H   UNL     1      13.113 -61.357 -23.627  1.00  0.00     0.160 HD
BRANCH  12  14
ATOM     14  C   UNL     1      11.581 -60.967 -24.779  1.00  0.00     0.049 A 
ATOM     15  C   UNL     1      11.448 -60.526 -26.111  1.00  0.00    -0.003 A 
ATOM     16  C   UNL     1      10.591 -61.827 -24.204  1.00  0.00     0.024 A 
ATOM     17  C   UNL     1      10.339 -60.976 -26.829  1.00  0.00     0.046 A 
ATOM     18  C   UNL     1      12.508 -59.696 -26.786  1.00  0.00     0.039 C 
ATOM     19  C   UNL     1      10.627 -62.351 -22.883  1.00  0.00     0.012 A 
ATOM     20  C   UNL     1       9.502 -62.182 -25.024  1.00  0.00     0.073 A 
ATOM     21  N   UNL     1       9.380 -61.758 -26.286  1.00  0.00    -0.252 NA
ATOM     22  C   UNL     1      10.099 -60.581 -28.264  1.00  0.00     0.056 C 
ATOM     23  C   UNL     1      12.087 -59.093 -28.127  1.00  0.00     0.005 C 
ATOM     24  C   UNL     1       9.613 -63.179 -22.397  1.00  0.00     0.001 A 
ATOM     25  C   UNL     1       8.505 -63.005 -24.520  1.00  0.00     0.029 A 
ATOM     26  C   UNL     1      11.366 -60.128 -28.977  1.00  0.00     0.007 C 
ATOM     27  C   UNL     1       8.547 -63.505 -23.219  1.00  0.00     0.002 A 
ENDBRANCH  12  14
ENDBRANCH  11  12
ENDBRANCH  10  11
ENDBRANCH   2  10
BRANCH   6  28
ATOM     28  C   UNL     1      10.963 -52.768 -21.368  1.00  0.00     0.161 C 
BRANCH  28  29
ATOM     29  C   UNL     1      10.908 -51.270 -21.707  1.00  0.00     0.272 C 
BRANCH  29  30
ATOM     30  N   UNL     1      12.216 -50.710 -22.240  1.00  0.00    -0.335 N 
ATOM     31  C   UNL     1      12.859 -51.581 -23.290  1.00  0.00     0.332 C 
ATOM     32  H   UNL     1      12.863 -50.717 -21.425  1.00  0.00     0.348 HD
BRANCH  30  33
ATOM     33  C   UNL     1      12.181 -49.240 -22.675  1.00  0.00     0.183 C 
ATOM     34  C   UNL     1      12.842 -49.028 -24.041  1.00  0.00     0.065 C 
ATOM     35  C   UNL     1      10.742 -48.710 -22.642  1.00  0.00     0.065 C 
ATOM     36  C   UNL     1      12.787 -47.554 -24.445  1.00  0.00     0.006 C 
ATOM     37  C   UNL     1      10.696 -47.239 -23.056  1.00  0.00     0.006 C 
ATOM     38  C   UNL     1      11.358 -47.014 -24.414  1.00  0.00     0.000 C 
ENDBRANCH  30  33
ENDBRANCH  29  30
ENDBRANCH  28  29
ENDBRANCH   6  28
TORSDOF 8
ENDMDL
MODEL 3
REMARK VINA RESULT:   -10.129      2.161     11.816
REMARK INTER + INTRA:         -15.611
REMARK INTER:                 -15.021
REMARK INTRA:                  -0.589
REMARK UNBOUND:                -0.744
REMARK SMILES C[N@H+](CCC(=O)N1CC[NH+](CCNc2c3c(nc4ccccc24)CCCC3)CC1)C1CCCCC1
REMARK SMILES IDX 9 1 10 2 28 3 8 4 7 5 5 6 29 7 6 8 11 10 12 11 13 12 14 14
REMARK SMILES IDX 15 15 23 16 16 17 27 18 22 19 18 20 17 21 24 22 26 23 21 24
REMARK SMILES IDX 19 25 25 26 20 27 4 28 3 29 2 30 1 31 30 33 31 34 35 35
REMARK SMILES IDX 32 36 34 37 33 38
REMARK H PARENT 10 9 13 13 2 32
ROOT
ATOM      1  C   UNL     1      10.044 -54.298 -23.025  1.00  0.00     0.284 C 
ATOM      2  N   UNL     1      10.820 -55.276 -23.874  1.00  0.00    -0.331 N 
ATOM      3  C   UNL     1      11.566 -54.564 -24.980  1.00  0.00     0.284 C 
ATOM      4  C   UNL     1      10.959 -53.199 -22.452  1.00  0.00     0.181 C 
ATOM      5  N   UNL     1      11.810 -52.554 -23.469  1.00  0.00    -0.331 N 
ATOM      6  C   UNL     1      12.360 -51.284 -23.322  1.00  0.00     0.228 C 
ATOM      7  C   UNL     1      12.478 -53.461 -24.420  1.00  0.00     0.181 C 
ATOM      8  O   UNL     1      13.207 -50.845 -24.106  1.00  0.00    -0.275 OA
ATOM      9  H   UNL     1      10.127 -55.897 -24.346  1.00  0.00     0.348 HD
ENDROOT
BRANCH   2  10
ATOM     10  C   UNL     1      11.628 -56.310 -23.094  1.00  0.00     0.283 C 
BRANCH  10  11
ATOM     11  C   UNL     1      10.980 -57.698 -23.282  1.00  0.00     0.174 C 
BRANCH  11  12
ATOM     12  N   UNL     1      11.991 -58.629 -23.865  1.00  0.00    -0.379 N 
ATOM     13  H   UNL     1      12.461 -59.126 -23.098  1.00  0.00     0.160 HD
BRANCH  12  14
ATOM     14  C   UNL     1      11.321 -59.695 -24.581  1.00  0.00     0.049 A 
ATOM     15  C   UNL     1      11.321 -59.671 -25.990  1.00  0.00    -0.003 A 
ATOM     16  C   UNL     1      10.620 -60.728 -23.880  1.00  0.00     0.024 A 
ATOM     17  C   UNL     1      10.636 -60.692 -26.650  1.00  0.00     0.046 A 
ATOM     18  C   UNL     1      12.118 -58.659 -26.771  1.00  0.00     0.039 C 
ATOM     19  C   UNL     1      10.564 -60.867 -22.466  1.00  0.00     0.012 A 
ATOM     20  C   UNL     1       9.940 -61.681 -24.663  1.00  0.00     0.073 A 
ATOM     21  N   UNL     1       9.941 -61.651 -26.000  1.00  0.00    -0.252 NA
ATOM     22  C   UNL     1      10.578 -60.777 -28.154  1.00  0.00     0.056 C 
ATOM     23  C   UNL     1      11.800 -58.614 -28.266  1.00  0.00     0.005 C 
ATOM     24  C   UNL     1       9.850 -61.902 -21.861  1.00  0.00     0.001 A 
ATOM     25  C   UNL     1       9.234 -62.701 -24.041  1.00  0.00     0.029 A 
ATOM     26  C   UNL     1      11.709 -60.020 -28.838  1.00  0.00     0.007 C 
ATOM     27  C   UNL     1       9.180 -62.822 -22.652  1.00  0.00     0.002 A 
ENDBRANCH  12  14
ENDBRANCH  11  12
ENDBRANCH  10  11
ENDBRANCH   2  10
BRANCH   6  28
ATOM     28  C   UNL     1      11.842 -50.381 -22.219  1.00  0.00     0.161 C 
BRANCH  28  29
ATOM     29  C   UNL     1      11.541 -48.961 -22.722  1.00  0.00     0.272 C 
BRANCH  29  30
ATOM     30  N   UNL     1      12.355 -47.877 -22.035  1.00  0.00    -0.335 N 
ATOM     31  C   UNL     1      13.814 -48.227 -21.885  1.00  0.00     0.332 C 
ATOM     32  H   UNL     1      11.971 -47.823 -21.070  1.00  0.00     0.348 HD
BRANCH  30  33
ATOM     33  C   UNL     1      12.173 -46.459 -22.589  1.00  0.00     0.183 C 
ATOM     34  C   UNL     1      10.787 -46.256 -23.209  1.00  0.00     0.065 C 
ATOM     35  C   UNL     1      12.475 -45.420 -21.501  1.00  0.00     0.065 C 
ATOM     36  C   UNL     1      10.638 -44.833 -23.748  1.00  0.00     0.006 C 
ATOM     37  C   UNL     1      12.314 -44.001 -22.046  1.00  0.00     0.006 C 
ATOM     38  C   UNL     1      10.938 -43.789 -22.674  1.00  0.00     0.000 C 
ENDBRANCH  30  33
ENDBRANCH  29  30
ENDBRANCH  28  29
ENDBRANCH   6  28
TORSDOF 8
ENDMDL
MODEL 4
REMARK VINA RESULT:   -10.087      0.860      3.320
REMARK INTER + INTRA:         -15.549
REMARK INTER:                 -14.911
REMARK INTRA:                  -0.638
REMARK UNBOUND:                -0.744
REMARK SMILES C[N@H+](CCC(=O)N1CC[NH+](CCNc2c3c(nc4ccccc24)CCCC3)CC1)C1CCCCC1
REMARK SMILES IDX 9 1 10 2 28 3 8 4 7 5 5 6 29 7 6 8 11 10 12 11 13 12 14 14
REMARK SMILES IDX 15 15 23 16 16 17 27 18 22 19 18 20 17 21 24 22 26 23 21 24
REMARK SMILES IDX 19 25 25 26 20 27 4 28 3 29 2 30 1 31 30 33 31 34 35 35
REMARK SMILES IDX 32 36 34 37 33 38
REMARK H PARENT 10 9 13 13 2 32
ROOT
ATOM      1  C   UNL     1      10.329 -54.186 -23.907  1.00  0.00     0.284 C 
ATOM      2  N   UNL     1      10.373 -53.276 -22.704  1.00  0.00    -0.331 N 
ATOM      3  C   UNL     1      10.029 -54.029 -21.438  1.00  0.00     0.284 C 
ATOM      4  C   UNL     1      11.253 -55.406 -23.724  1.00  0.00     0.181 C 
ATOM      5  N   UNL     1      11.052 -56.109 -22.444  1.00  0.00    -0.331 N 
ATOM      6  C   UNL     1      11.400 -57.440 -22.230  1.00  0.00     0.228 C 
ATOM      7  C   UNL     1      10.940 -55.252 -21.249  1.00  0.00     0.181 C 
ATOM      8  O   UNL     1      11.385 -57.945 -21.105  1.00  0.00    -0.275 OA
ATOM      9  H   UNL     1       9.624 -52.560 -22.827  1.00  0.00     0.348 HD
ENDROOT
BRANCH   2  10
ATOM     10  C   UNL     1      11.602 -52.375 -22.620  1.00  0.00     0.283 C 
BRANCH  10  11
ATOM     11  C   UNL     1      11.141 -50.918 -22.398  1.00  0.00     0.174 C 
BRANCH  11  12
ATOM     12  N   UNL     1      12.334 -50.074 -22.092  1.00  0.00    -0.379 N 
ATOM     13  H   UNL     1      13.166 -50.678 -22.068  1.00  0.00     0.160 HD
BRANCH  12  14
ATOM     14  C   UNL     1      12.606 -49.188 -23.205  1.00  0.00     0.049 A 
ATOM     15  C   UNL     1      11.987 -47.923 -23.232  1.00  0.00    -0.003 A 
ATOM     16  C   UNL     1      13.443 -49.603 -24.290  1.00  0.00     0.024 A 
ATOM     17  C   UNL     1      12.241 -47.106 -24.335  1.00  0.00     0.046 A 
ATOM     18  C   UNL     1      11.174 -47.407 -22.074  1.00  0.00     0.039 C 
ATOM     19  C   UNL     1      14.134 -50.843 -24.366  1.00  0.00     0.012 A 
ATOM     20  C   UNL     1      13.592 -48.699 -25.360  1.00  0.00     0.073 A 
ATOM     21  N   UNL     1      12.999 -47.500 -25.381  1.00  0.00    -0.252 NA
ATOM     22  C   UNL     1      11.645 -45.728 -24.467  1.00  0.00     0.056 C 
ATOM     23  C   UNL     1      10.368 -46.143 -22.373  1.00  0.00     0.005 C 
ATOM     24  C   UNL     1      14.925 -51.173 -25.468  1.00  0.00     0.001 A 
ATOM     25  C   UNL     1      14.382 -49.048 -26.446  1.00  0.00     0.029 A 
ATOM     26  C   UNL     1      11.217 -45.134 -23.132  1.00  0.00     0.007 C 
ATOM     27  C   UNL     1      15.048 -50.271 -26.513  1.00  0.00     0.002 A 
ENDBRANCH  12  14
ENDBRANCH  11  12
ENDBRANCH  10  11
ENDBRANCH   2  10
BRANCH   6  28
ATOM     28  C   UNL     1      11.725 -58.316 -23.425  1.00  0.00     0.161 C 
BRANCH  28  29
ATOM     29  C   UNL     1      10.544 -59.213 -23.827  1.00  0.00     0.272 C 
BRANCH  29  30
ATOM     30  N   UNL     1      10.926 -60.362 -24.746  1.00  0.00    -0.335 N 
ATOM     31  C   UNL     1      12.413 -60.497 -24.950  1.00  0.00     0.332 C 
ATOM     32  H   UNL     1      10.530 -60.107 -25.674  1.00  0.00     0.348 HD
BRANCH  30  33
ATOM     33  C   UNL     1      10.278 -61.713 -24.423  1.00  0.00     0.183 C 
ATOM     34  C   UNL     1      10.308 -62.023 -22.923  1.00  0.00     0.065 C 
ATOM     35  C   UNL     1       8.856 -61.772 -24.996  1.00  0.00     0.065 C 
ATOM     36  C   UNL     1       9.653 -63.375 -22.637  1.00  0.00     0.006 C 
ATOM     37  C   UNL     1       8.206 -63.123 -24.697  1.00  0.00     0.006 C 
ATOM     38  C   UNL     1       8.237 -63.446 -23.204  1.00  0.00     0.000 C 
ENDBRANCH  30  33
ENDBRANCH  29  30
ENDBRANCH  28  29
ENDBRANCH   6  28
TORSDOF 8
ENDMDL
MODEL 5
REMARK VINA RESULT:   -10.061      2.721      5.603
REMARK INTER + INTRA:         -15.510
REMARK INTER:                 -15.306
REMARK INTRA:                  -0.204
REMARK UNBOUND:                -0.744
REMARK SMILES C[N@H+](CCC(=O)N1CC[NH+](CCNc2c3c(nc4ccccc24)CCCC3)CC1)C1CCCCC1
REMARK SMILES IDX 9 1 10 2 28 3 8 4 7 5 5 6 29 7 6 8 11 10 12 11 13 12 14 14
REMARK SMILES IDX 15 15 23 16 16 17 27 18 22 19 18 20 17 21 24 22 26 23 21 24
REMARK SMILES IDX 19 25 25 26 20 27 4 28 3 29 2 30 1 31 30 33 31 34 35 35
REMARK SMILES IDX 32 36 34 37 33 38
REMARK H PARENT 10 9 13 13 2 32
ROOT
ATOM      1  C   UNL     1      12.518 -59.670 -25.010  1.00  0.00     0.284 C 
ATOM      2  N   UNL     1      12.589 -58.397 -25.817  1.00  0.00    -0.331 N 
ATOM      3  C   UNL     1      12.158 -58.634 -27.247  1.00  0.00     0.284 C 
ATOM      4  C   UNL     1      11.109 -60.292 -25.063  1.00  0.00     0.181 C 
ATOM      5  N   UNL     1      10.579 -60.430 -26.432  1.00  0.00    -0.331 N 
ATOM      6  C   UNL     1       9.585 -61.337 -26.788  1.00  0.00     0.228 C 
ATOM      7  C   UNL     1      10.756 -59.261 -27.312  1.00  0.00     0.181 C 
ATOM      8  O   UNL     1       9.040 -61.306 -27.894  1.00  0.00    -0.275 OA
ATOM      9  H   UNL     1      13.593 -58.112 -25.861  1.00  0.00     0.348 HD
ENDROOT
BRANCH   2  10
ATOM     10  C   UNL     1      11.985 -57.168 -25.142  1.00  0.00     0.283 C 
BRANCH  10  11
ATOM     11  C   UNL     1      12.874 -55.943 -25.444  1.00  0.00     0.174 C 
BRANCH  11  12
ATOM     12  N   UNL     1      12.001 -54.796 -25.833  1.00  0.00    -0.379 N 
ATOM     13  H   UNL     1      11.018 -55.093 -25.763  1.00  0.00     0.160 HD
BRANCH  12  14
ATOM     14  C   UNL     1      12.095 -53.748 -24.838  1.00  0.00     0.049 A 
ATOM     15  C   UNL     1      11.406 -53.906 -23.619  1.00  0.00    -0.003 A 
ATOM     16  C   UNL     1      12.826 -52.545 -25.100  1.00  0.00     0.024 A 
ATOM     17  C   UNL     1      11.487 -52.863 -22.695  1.00  0.00     0.046 A 
ATOM     18  C   UNL     1      10.700 -55.188 -23.261  1.00  0.00     0.039 C 
ATOM     19  C   UNL     1      13.574 -52.280 -26.280  1.00  0.00     0.012 A 
ATOM     20  C   UNL     1      12.802 -51.554 -24.099  1.00  0.00     0.073 A 
ATOM     21  N   UNL     1      12.143 -51.709 -22.946  1.00  0.00    -0.252 NA
ATOM     22  C   UNL     1      10.802 -52.924 -21.354  1.00  0.00     0.056 C 
ATOM     23  C   UNL     1       9.796 -55.096 -22.032  1.00  0.00     0.005 C 
ATOM     24  C   UNL     1      14.253 -51.074 -26.459  1.00  0.00     0.001 A 
ATOM     25  C   UNL     1      13.483 -50.362 -24.299  1.00  0.00     0.029 A 
ATOM     26  C   UNL     1      10.494 -54.348 -20.907  1.00  0.00     0.007 C 
ATOM     27  C   UNL     1      14.205 -50.110 -25.465  1.00  0.00     0.002 A 
ENDBRANCH  12  14
ENDBRANCH  11  12
ENDBRANCH  10  11
ENDBRANCH   2  10
BRANCH   6  28
ATOM     28  C   UNL     1       9.221 -62.447 -25.820  1.00  0.00     0.161 C 
BRANCH  28  29
ATOM     29  C   UNL     1       7.954 -62.124 -25.013  1.00  0.00     0.272 C 
BRANCH  29  30
ATOM     30  N   UNL     1       8.103 -62.340 -23.516  1.00  0.00    -0.335 N 
ATOM     31  C   UNL     1       8.944 -63.541 -23.165  1.00  0.00     0.332 C 
ATOM     32  H   UNL     1       7.142 -62.553 -23.178  1.00  0.00     0.348 HD
BRANCH  30  33
ATOM     33  C   UNL     1       8.519 -61.107 -22.705  1.00  0.00     0.183 C 
ATOM     34  C   UNL     1       9.895 -61.282 -22.056  1.00  0.00     0.065 C 
ATOM     35  C   UNL     1       8.449 -59.848 -23.578  1.00  0.00     0.065 C 
ATOM     36  C   UNL     1      10.279 -60.035 -21.258  1.00  0.00     0.006 C 
ATOM     37  C   UNL     1       8.843 -58.608 -22.775  1.00  0.00     0.006 C 
ATOM     38  C   UNL     1      10.211 -58.774 -22.117  1.00  0.00     0.000 C 
ENDBRANCH  30  33
ENDBRANCH  29  30
ENDBRANCH  28  29
ENDBRANCH   6  28
TORSDOF 8
ENDMDL
MODEL 6
REMARK VINA RESULT:    -9.941      2.500     10.641
REMARK INTER + INTRA:         -15.334
REMARK INTER:                 -14.967
REMARK INTRA:                  -0.367
REMARK UNBOUND:                -0.744
REMARK SMILES C[N@H+](CCC(=O)N1CC[NH+](CCNc2c3c(nc4ccccc24)CCCC3)CC1)C1CCCCC1
REMARK SMILES IDX 9 1 10 2 28 3 8 4 7 5 5 6 29 7 6 8 11 10 12 11 13 12 14 14
REMARK SMILES IDX 15 15 23 16 16 17 27 18 22 19 18 20 17 21 24 22 26 23 21 24
REMARK SMILES IDX 19 25 25 26 20 27 4 28 3 29 2 30 1 31 30 33 31 34 35 35
REMARK SMILES IDX 32 36 34 37 33 38
REMARK H PARENT 10 9 13 13 2 32
ROOT
ATOM      1  C   UNL     1      10.828 -57.882 -21.487  1.00  0.00     0.284 C 
ATOM      2  N   UNL     1      10.320 -58.441 -22.794  1.00  0.00    -0.331 N 
ATOM      3  C   UNL     1       9.129 -57.656 -23.296  1.00  0.00     0.284 C 
ATOM      4  C   UNL     1      11.169 -56.384 -21.609  1.00  0.00     0.181 C 
ATOM      5  N   UNL     1      10.088 -55.583 -22.215  1.00  0.00    -0.331 N 
ATOM      6  C   UNL     1       9.946 -54.212 -22.028  1.00  0.00     0.228 C 
ATOM      7  C   UNL     1       9.455 -56.159 -23.415  1.00  0.00     0.181 C 
ATOM      8  O   UNL     1       9.144 -53.544 -22.686  1.00  0.00    -0.275 OA
ATOM      9  H   UNL     1       9.972 -59.406 -22.604  1.00  0.00     0.348 HD
ENDROOT
BRANCH   2  10
ATOM     10  C   UNL     1      11.398 -58.737 -23.833  1.00  0.00     0.283 C 
BRANCH  10  11
ATOM     11  C   UNL     1      12.535 -59.538 -23.162  1.00  0.00     0.174 C 
BRANCH  11  12
ATOM     12  N   UNL     1      12.693 -60.842 -23.872  1.00  0.00    -0.379 N 
ATOM     13  H   UNL     1      12.596 -61.603 -23.187  1.00  0.00     0.160 HD
BRANCH  12  14
ATOM     14  C   UNL     1      11.567 -61.057 -24.757  1.00  0.00     0.049 A 
ATOM     15  C   UNL     1      10.466 -61.800 -24.287  1.00  0.00    -0.003 A 
ATOM     16  C   UNL     1      11.587 -60.577 -26.106  1.00  0.00     0.024 A 
ATOM     17  C   UNL     1       9.413 -62.022 -25.176  1.00  0.00     0.046 A 
ATOM     18  C   UNL     1      10.359 -62.247 -22.853  1.00  0.00     0.039 C 
ATOM     19  C   UNL     1      12.629 -59.803 -26.686  1.00  0.00     0.012 A 
ATOM     20  C   UNL     1      10.477 -60.896 -26.912  1.00  0.00     0.073 A 
ATOM     21  N   UNL     1       9.436 -61.605 -26.461  1.00  0.00    -0.252 NA
ATOM     22  C   UNL     1       8.178 -62.791 -24.781  1.00  0.00     0.056 C 
ATOM     23  C   UNL     1       9.241 -63.253 -22.580  1.00  0.00     0.005 C 
ATOM     24  C   UNL     1      12.573 -59.381 -28.016  1.00  0.00     0.001 A 
ATOM     25  C   UNL     1      10.442 -60.468 -28.232  1.00  0.00     0.029 A 
ATOM     26  C   UNL     1       7.956 -62.829 -23.275  1.00  0.00     0.007 C 
ATOM     27  C   UNL     1      11.475 -59.717 -28.792  1.00  0.00     0.002 A 
ENDBRANCH  12  14
ENDBRANCH  11  12
ENDBRANCH  10  11
ENDBRANCH   2  10
BRANCH   6  28
ATOM     28  C   UNL     1      10.739 -53.533 -20.927  1.00  0.00     0.161 C 
BRANCH  28  29
ATOM     29  C   UNL     1      11.777 -52.546 -21.481  1.00  0.00     0.272 C 
BRANCH  29  30
ATOM     30  N   UNL     1      11.301 -51.766 -22.696  1.00  0.00    -0.335 N 
ATOM     31  C   UNL     1      10.655 -50.449 -22.347  1.00  0.00     0.332 C 
ATOM     32  H   UNL     1      10.551 -52.353 -23.114  1.00  0.00     0.348 HD
BRANCH  30  33
ATOM     33  C   UNL     1      12.324 -51.608 -23.826  1.00  0.00     0.183 C 
ATOM     34  C   UNL     1      13.682 -51.120 -23.310  1.00  0.00     0.065 C 
ATOM     35  C   UNL     1      12.446 -52.914 -24.621  1.00  0.00     0.065 C 
ATOM     36  C   UNL     1      14.678 -50.976 -24.461  1.00  0.00     0.006 C 
ATOM     37  C   UNL     1      13.450 -52.763 -25.763  1.00  0.00     0.006 C 
ATOM     38  C   UNL     1      14.806 -52.270 -25.262  1.00  0.00     0.000 C 
ENDBRANCH  30  33
ENDBRANCH  29  30
ENDBRANCH  28  29
ENDBRANCH   6  28
TORSDOF 8
ENDMDL
MODEL 7
REMARK VINA RESULT:    -9.925      2.746      5.574
REMARK INTER + INTRA:         -15.311
REMARK INTER:                 -14.861
REMARK INTRA:                  -0.450
REMARK UNBOUND:                -0.744
REMARK SMILES C[N@H+](CCC(=O)N1CC[NH+](CCNc2c3c(nc4ccccc24)CCCC3)CC1)C1CCCCC1
REMARK SMILES IDX 9 1 10 2 28 3 8 4 7 5 5 6 29 7 6 8 11 10 12 11 13 12 14 14
REMARK SMILES IDX 15 15 23 16 16 17 27 18 22 19 18 20 17 21 24 22 26 23 21 24
REMARK SMILES IDX 19 25 25 26 20 27 4 28 3 29 2 30 1 31 30 33 31 34 35 35
REMARK SMILES IDX 32 36 34 37 33 38
REMARK H PARENT 10 9 13 13 2 32
ROOT
ATOM      1  C   UNL     1      12.490 -59.580 -25.088  1.00  0.00     0.284 C 
ATOM      2  N   UNL     1      12.571 -58.344 -25.950  1.00  0.00    -0.331 N 
ATOM      3  C   UNL     1      12.179 -58.649 -27.379  1.00  0.00     0.284 C 
ATOM      4  C   UNL     1      11.088 -60.218 -25.149  1.00  0.00     0.181 C 
ATOM      5  N   UNL     1      10.596 -60.423 -26.524  1.00  0.00    -0.331 N 
ATOM      6  C   UNL     1       9.620 -61.355 -26.864  1.00  0.00     0.228 C 
ATOM      7  C   UNL     1      10.785 -59.293 -27.451  1.00  0.00     0.181 C 
ATOM      8  O   UNL     1       9.104 -61.380 -27.984  1.00  0.00    -0.275 OA
ATOM      9  H   UNL     1      13.572 -58.051 -25.981  1.00  0.00     0.348 HD
ENDROOT
BRANCH   2  10
ATOM     10  C   UNL     1      11.938 -57.092 -25.347  1.00  0.00     0.283 C 
BRANCH  10  11
ATOM     11  C   UNL     1      12.917 -55.909 -25.507  1.00  0.00     0.174 C 
BRANCH  11  12
ATOM     12  N   UNL     1      12.153 -54.705 -25.947  1.00  0.00    -0.379 N 
ATOM     13  H   UNL     1      11.162 -54.963 -26.049  1.00  0.00     0.160 HD
BRANCH  12  14
ATOM     14  C   UNL     1      12.124 -53.725 -24.882  1.00  0.00     0.049 A 
ATOM     15  C   UNL     1      12.902 -52.556 -25.013  1.00  0.00    -0.003 A 
ATOM     16  C   UNL     1      11.369 -53.954 -23.687  1.00  0.00     0.024 A 
ATOM     17  C   UNL     1      12.882 -51.648 -23.954  1.00  0.00     0.046 A 
ATOM     18  C   UNL     1      13.640 -52.228 -26.285  1.00  0.00     0.039 C 
ATOM     19  C   UNL     1      10.536 -55.081 -23.448  1.00  0.00     0.012 A 
ATOM     20  C   UNL     1      11.460 -52.975 -22.678  1.00  0.00     0.073 A 
ATOM     21  N   UNL     1      12.202 -51.871 -22.808  1.00  0.00    -0.252 NA
ATOM     22  C   UNL     1      13.663 -50.359 -23.987  1.00  0.00     0.056 C 
ATOM     23  C   UNL     1      14.631 -51.070 -26.166  1.00  0.00     0.005 C 
ATOM     24  C   UNL     1       9.837 -55.232 -22.249  1.00  0.00     0.001 A 
ATOM     25  C   UNL     1      10.758 -53.147 -21.493  1.00  0.00     0.029 A 
ATOM     26  C   UNL     1      14.011 -49.911 -25.401  1.00  0.00     0.007 C 
ATOM     27  C   UNL     1       9.951 -54.261 -21.267  1.00  0.00     0.002 A 
ENDBRANCH  12  14
ENDBRANCH  11  12
ENDBRANCH  10  11
ENDBRANCH   2  10
BRANCH   6  28
ATOM     28  C   UNL     1       9.241 -62.424 -25.856  1.00  0.00     0.161 C 
BRANCH  28  29
ATOM     29  C   UNL     1       7.946 -62.083 -25.104  1.00  0.00     0.272 C 
BRANCH  29  30
ATOM     30  N   UNL     1       8.016 -62.334 -23.607  1.00  0.00    -0.335 N 
ATOM     31  C   UNL     1       8.775 -63.586 -23.244  1.00  0.00     0.332 C 
ATOM     32  H   UNL     1       7.031 -62.500 -23.315  1.00  0.00     0.348 HD
BRANCH  30  33
ATOM     33  C   UNL     1       8.461 -61.141 -22.753  1.00  0.00     0.183 C 
ATOM     34  C   UNL     1       9.833 -61.372 -22.111  1.00  0.00     0.065 C 
ATOM     35  C   UNL     1       8.423 -59.850 -23.581  1.00  0.00     0.065 C 
ATOM     36  C   UNL     1      10.247 -60.164 -21.270  1.00  0.00     0.006 C 
ATOM     37  C   UNL     1       8.846 -58.650 -22.735  1.00  0.00     0.006 C 
ATOM     38  C   UNL     1      10.210 -58.871 -22.084  1.00  0.00     0.000 C 
ENDBRANCH  30  33
ENDBRANCH  29  30
ENDBRANCH  28  29
ENDBRANCH   6  28
TORSDOF 8
ENDMDL
MODEL 8
REMARK VINA RESULT:    -9.684      1.891      2.153
REMARK INTER + INTRA:         -14.957
REMARK INTER:                 -13.885
REMARK INTRA:                  -1.072
REMARK UNBOUND:                -0.744
REMARK SMILES C[N@H+](CCC(=O)N1CC[NH+](CCNc2c3c(nc4ccccc24)CCCC3)CC1)C1CCCCC1
REMARK SMILES IDX 9 1 10 2 28 3 8 4 7 5 5 6 29 7 6 8 11 10 12 11 13 12 14 14
REMARK SMILES IDX 15 15 23 16 16 17 27 18 22 19 18 20 17 21 24 22 26 23 21 24
REMARK SMILES IDX 19 25 25 26 20 27 4 28 3 29 2 30 1 31 30 33 31 34 35 35
REMARK SMILES IDX 32 36 34 37 33 38
REMARK H PARENT 10 9 13 13 2 32
ROOT
ATOM      1  C   UNL     1      10.462 -54.253 -23.887  1.00  0.00     0.284 C 
ATOM      2  N   UNL     1      10.511 -53.377 -22.659  1.00  0.00    -0.331 N 
ATOM      3  C   UNL     1      10.125 -54.154 -21.420  1.00  0.00     0.284 C 
ATOM      4  C   UNL     1      11.349 -55.503 -23.723  1.00  0.00     0.181 C 
ATOM      5  N   UNL     1      11.107 -56.234 -22.466  1.00  0.00    -0.331 N 
ATOM      6  C   UNL     1      11.415 -57.579 -22.284  1.00  0.00     0.228 C 
ATOM      7  C   UNL     1      10.999 -55.407 -21.250  1.00  0.00     0.181 C 
ATOM      8  O   UNL     1      11.366 -58.114 -21.173  1.00  0.00    -0.275 OA
ATOM      9  H   UNL     1       9.783 -52.638 -22.774  1.00  0.00     0.348 HD
ENDROOT
BRANCH   2  10
ATOM     10  C   UNL     1      11.763 -52.513 -22.530  1.00  0.00     0.283 C 
BRANCH  10  11
ATOM     11  C   UNL     1      11.353 -51.025 -22.590  1.00  0.00     0.174 C 
BRANCH  11  12
ATOM     12  N   UNL     1      12.123 -50.355 -23.679  1.00  0.00    -0.379 N 
ATOM     13  H   UNL     1      11.466 -49.829 -24.270  1.00  0.00     0.160 HD
BRANCH  12  14
ATOM     14  C   UNL     1      12.962 -49.316 -23.119  1.00  0.00     0.049 A 
ATOM     15  C   UNL     1      14.325 -49.592 -22.892  1.00  0.00    -0.003 A 
ATOM     16  C   UNL     1      12.414 -48.047 -22.745  1.00  0.00     0.024 A 
ATOM     17  C   UNL     1      15.099 -48.583 -22.318  1.00  0.00     0.046 A 
ATOM     18  C   UNL     1      14.966 -50.876 -23.351  1.00  0.00     0.039 C 
ATOM     19  C   UNL     1      11.064 -47.647 -22.940  1.00  0.00     0.012 A 
ATOM     20  C   UNL     1      13.294 -47.126 -22.143  1.00  0.00     0.073 A 
ATOM     21  N   UNL     1      14.586 -47.395 -21.929  1.00  0.00    -0.252 NA
ATOM     22  C   UNL     1      16.570 -48.758 -22.042  1.00  0.00     0.056 C 
ATOM     23  C   UNL     1      16.371 -51.119 -22.799  1.00  0.00     0.005 C 
ATOM     24  C   UNL     1      10.608 -46.390 -22.538  1.00  0.00     0.001 A 
ATOM     25  C   UNL     1      12.819 -45.883 -21.750  1.00  0.00     0.029 A 
ATOM     26  C   UNL     1      17.209 -49.853 -22.887  1.00  0.00     0.007 C 
ATOM     27  C   UNL     1      11.490 -45.506 -21.939  1.00  0.00     0.002 A 
ENDBRANCH  12  14
ENDBRANCH  11  12
ENDBRANCH  10  11
ENDBRANCH   2  10
BRANCH   6  28
ATOM     28  C   UNL     1      11.736 -58.431 -23.497  1.00  0.00     0.161 C 
BRANCH  28  29
ATOM     29  C   UNL     1      10.486 -59.113 -24.076  1.00  0.00     0.272 C 
BRANCH  29  30
ATOM     30  N   UNL     1       9.334 -59.229 -23.091  1.00  0.00    -0.335 N 
ATOM     31  C   UNL     1       8.177 -58.317 -23.412  1.00  0.00     0.332 C 
ATOM     32  H   UNL     1       9.721 -58.895 -22.185  1.00  0.00     0.348 HD
BRANCH  30  33
ATOM     33  C   UNL     1       8.858 -60.654 -22.790  1.00  0.00     0.183 C 
ATOM     34  C   UNL     1       7.840 -61.151 -23.822  1.00  0.00     0.065 C 
ATOM     35  C   UNL     1      10.059 -61.601 -22.663  1.00  0.00     0.065 C 
ATOM     36  C   UNL     1       7.389 -62.575 -23.494  1.00  0.00     0.006 C 
ATOM     37  C   UNL     1       9.597 -63.023 -22.344  1.00  0.00     0.006 C 
ATOM     38  C   UNL     1       8.577 -63.527 -23.363  1.00  0.00     0.000 C 
ENDBRANCH  30  33
ENDBRANCH  29  30
ENDBRANCH  28  29
ENDBRANCH   6  28
TORSDOF 8
ENDMDL
MODEL 9
REMARK VINA RESULT:    -9.458      2.366      4.816
REMARK INTER + INTRA:         -14.625
REMARK INTER:                 -13.891
REMARK INTRA:                  -0.734
REMARK UNBOUND:                -0.744
REMARK SMILES C[N@H+](CCC(=O)N1CC[NH+](CCNc2c3c(nc4ccccc24)CCCC3)CC1)C1CCCCC1
REMARK SMILES IDX 9 1 10 2 28 3 8 4 7 5 5 6 29 7 6 8 11 10 12 11 13 12 14 14
REMARK SMILES IDX 15 15 23 16 16 17 27 18 22 19 18 20 17 21 24 22 26 23 21 24
REMARK SMILES IDX 19 25 25 26 20 27 4 28 3 29 2 30 1 31 30 33 31 34 35 35
REMARK SMILES IDX 32 36 34 37 33 38
REMARK H PARENT 10 9 13 13 2 32
ROOT
ATOM      1  C   UNL     1      12.544 -50.488 -24.228  1.00  0.00     0.284 C 
ATOM      2  N   UNL     1      12.245 -49.297 -23.350  1.00  0.00    -0.331 N 
ATOM      3  C   UNL     1      10.862 -49.399 -22.746  1.00  0.00     0.284 C 
ATOM      4  C   UNL     1      12.377 -51.812 -23.456  1.00  0.00     0.181 C 
ATOM      5  N   UNL     1      11.095 -51.915 -22.737  1.00  0.00    -0.331 N 
ATOM      6  C   UNL     1      10.514 -53.124 -22.364  1.00  0.00     0.228 C 
ATOM      7  C   UNL     1      10.683 -50.719 -21.980  1.00  0.00     0.181 C 
ATOM      8  O   UNL     1       9.536 -53.173 -21.612  1.00  0.00    -0.275 OA
ATOM      9  H   UNL     1      12.230 -48.454 -23.965  1.00  0.00     0.348 HD
ENDROOT
BRANCH   2  10
ATOM     10  C   UNL     1      13.359 -48.911 -22.382  1.00  0.00     0.283 C 
BRANCH  10  11
ATOM     11  C   UNL     1      14.006 -47.593 -22.861  1.00  0.00     0.174 C 
BRANCH  11  12
ATOM     12  N   UNL     1      15.458 -47.830 -23.111  1.00  0.00    -0.379 N 
ATOM     13  H   UNL     1      15.824 -48.441 -22.369  1.00  0.00     0.160 HD
BRANCH  12  14
ATOM     14  C   UNL     1      15.626 -48.633 -24.305  1.00  0.00     0.049 A 
ATOM     15  C   UNL     1      15.298 -48.068 -25.554  1.00  0.00    -0.003 A 
ATOM     16  C   UNL     1      16.062 -49.994 -24.224  1.00  0.00     0.024 A 
ATOM     17  C   UNL     1      15.436 -48.878 -26.682  1.00  0.00     0.046 A 
ATOM     18  C   UNL     1      14.923 -46.616 -25.700  1.00  0.00     0.039 C 
ATOM     19  C   UNL     1      16.437 -50.665 -23.028  1.00  0.00     0.012 A 
ATOM     20  C   UNL     1      16.127 -50.715 -25.432  1.00  0.00     0.073 A 
ATOM     21  N   UNL     1      15.812 -50.174 -26.614  1.00  0.00    -0.252 NA
ATOM     22  C   UNL     1      15.128 -48.380 -28.070  1.00  0.00     0.056 C 
ATOM     23  C   UNL     1      14.352 -46.240 -27.067  1.00  0.00     0.005 C 
ATOM     24  C   UNL     1      16.844 -52.000 -23.036  1.00  0.00     0.001 A 
ATOM     25  C   UNL     1      16.533 -52.042 -25.417  1.00  0.00     0.029 A 
ATOM     26  C   UNL     1      15.178 -46.861 -28.183  1.00  0.00     0.007 C 
ATOM     27  C   UNL     1      16.890 -52.692 -24.236  1.00  0.00     0.002 A 
ENDBRANCH  12  14
ENDBRANCH  11  12
ENDBRANCH  10  11
ENDBRANCH   2  10
BRANCH   6  28
ATOM     28  C   UNL     1      11.043 -54.411 -22.967  1.00  0.00     0.161 C 
BRANCH  28  29
ATOM     29  C   UNL     1      10.369 -55.655 -22.367  1.00  0.00     0.272 C 
BRANCH  29  30
ATOM     30  N   UNL     1      10.440 -56.885 -23.257  1.00  0.00    -0.335 N 
ATOM     31  C   UNL     1      11.801 -57.107 -23.866  1.00  0.00     0.332 C 
ATOM     32  H   UNL     1       9.799 -56.680 -24.051  1.00  0.00     0.348 HD
BRANCH  30  33
ATOM     33  C   UNL     1       9.878 -58.176 -22.651  1.00  0.00     0.183 C 
ATOM     34  C   UNL     1       9.309 -59.115 -23.719  1.00  0.00     0.065 C 
ATOM     35  C   UNL     1      10.942 -58.865 -21.787  1.00  0.00     0.065 C 
ATOM     36  C   UNL     1       8.761 -60.392 -23.081  1.00  0.00     0.006 C 
ATOM     37  C   UNL     1      10.388 -60.145 -21.160  1.00  0.00     0.006 C 
ATOM     38  C   UNL     1       9.811 -61.086 -22.216  1.00  0.00     0.000 C 
ENDBRANCH  30  33
ENDBRANCH  29  30
ENDBRANCH  28  29
ENDBRANCH   6  28
TORSDOF 8
ENDMDL
