MODEL 1
REMARK VINA RESULT:   -12.156      0.000      0.000
REMARK INTER + INTRA:         -16.978
REMARK INTER:                 -16.420
REMARK INTRA:                  -0.558
REMARK UNBOUND:                -0.558
REMARK SMILES COc1cc2c(cc1OC)C(=O)[C@H](C[C@H]1CC[N@H+](CC3CCCCC3)CC1)C2
REMARK SMILES IDX 14 1 15 2 17 3 18 4 16 5 26 6 27 7 19 9 20 10 21 11 25 12
REMARK SMILES IDX 22 13 24 14 23 15 13 16 11 17 28 18 6 19 5 20 7 21 4 22 8 23
REMARK SMILES IDX 3 24 12 25 9 26 10 27 2 28 1 29
REMARK H PARENT 18 8
ROOT
ATOM      1  C   UNL     1      11.301 -56.256 -21.932  1.00  0.00     0.016 C 
ENDROOT
BRANCH   1   2
ATOM      2  C   UNL     1      10.806 -57.638 -22.406  1.00  0.00     0.001 C 
ATOM      3  C   UNL     1      11.186 -59.424 -24.184  1.00  0.00     0.262 C 
ATOM      4  N   UNL     1      11.445 -60.437 -23.097  1.00  0.00    -0.335 N 
ATOM      5  C   UNL     1      11.550 -58.030 -23.692  1.00  0.00     0.065 C 
ATOM      6  C   UNL     1      10.646 -60.108 -21.851  1.00  0.00     0.262 C 
ATOM      7  C   UNL     1      11.014 -58.722 -21.341  1.00  0.00     0.065 C 
ATOM      8  H   UNL     1      12.436 -60.366 -22.831  1.00  0.00     0.348 HD
BRANCH   4   9
ATOM      9  C   UNL     1      11.190 -61.876 -23.510  1.00  0.00     0.265 C 
BRANCH   9  10
ATOM     10  C   UNL     1       9.713 -62.277 -23.693  1.00  0.00     0.044 C 
ATOM     11  C   UNL     1       9.291 -62.382 -25.169  1.00  0.00     0.009 C 
ATOM     12  C   UNL     1       9.273 -63.510 -22.892  1.00  0.00     0.009 C 
ATOM     13  C   UNL     1       7.793 -62.658 -25.306  1.00  0.00     0.001 C 
ATOM     14  C   UNL     1       7.774 -63.772 -23.042  1.00  0.00     0.001 C 
ATOM     15  C   UNL     1       7.369 -63.887 -24.509  1.00  0.00     0.000 C 
ENDBRANCH   9  10
ENDBRANCH   4   9
ENDBRANCH   1   2
BRANCH   1  16
ATOM     16  C   UNL     1      10.736 -55.061 -22.709  1.00  0.00     0.066 C 
ATOM     17  C   UNL     1      10.733 -53.820 -21.834  1.00  0.00     0.166 C 
ATOM     18  C   UNL     1      11.572 -54.661 -23.945  1.00  0.00     0.048 C 
ATOM     19  C   UNL     1      11.363 -52.720 -22.550  1.00  0.00     0.025 A 
ATOM     20  C   UNL     1      11.826 -53.197 -23.767  1.00  0.00    -0.033 A 
ATOM     21  C   UNL     1      11.512 -51.409 -22.154  1.00  0.00     0.062 A 
ATOM     22  C   UNL     1      12.480 -52.337 -24.641  1.00  0.00     0.055 A 
ATOM     23  C   UNL     1      12.146 -50.528 -23.037  1.00  0.00     0.161 A 
ATOM     24  C   UNL     1      12.656 -50.990 -24.277  1.00  0.00     0.161 A 
ATOM     25  O   UNL     1      10.265 -53.738 -20.712  1.00  0.00    -0.294 OA
BRANCH  23  26
ATOM     26  O   UNL     1      12.263 -49.252 -22.546  1.00  0.00    -0.493 OA
ATOM     27  C   UNL     1      11.151 -48.395 -22.791  1.00  0.00     0.278 C 
ENDBRANCH  23  26
BRANCH  24  28
ATOM     28  O   UNL     1      13.327 -50.079 -25.050  1.00  0.00    -0.493 OA
ATOM     29  C   UNL     1      13.966 -50.541 -26.234  1.00  0.00     0.278 C 
ENDBRANCH  24  28
ENDBRANCH   1  16
TORSDOF 6
ENDMDL
MODEL 2
REMARK VINA RESULT:   -11.054      1.229      2.509
REMARK INTER + INTRA:         -15.490
REMARK INTER:                 -15.242
REMARK INTRA:                  -0.248
REMARK UNBOUND:                -0.558
REMARK SMILES COc1cc2c(cc1OC)C(=O)[C@H](C[C@H]1CC[N@H+](CC3CCCCC3)CC1)C2
REMARK SMILES IDX 14 1 15 2 17 3 18 4 16 5 26 6 27 7 19 9 20 10 21 11 25 12
REMARK SMILES IDX 22 13 24 14 23 15 13 16 11 17 28 18 6 19 5 20 7 21 4 22 8 23
REMARK SMILES IDX 3 24 12 25 9 26 10 27 2 28 1 29
REMARK H PARENT 18 8
ROOT
ATOM      1  C   UNL     1       9.842 -56.003 -23.042  1.00  0.00     0.016 C 
ENDROOT
BRANCH   1   2
ATOM      2  C   UNL     1       9.947 -57.490 -22.642  1.00  0.00     0.001 C 
ATOM      3  C   UNL     1       9.021 -59.802 -23.184  1.00  0.00     0.262 C 
ATOM      4  N   UNL     1      10.421 -60.287 -23.463  1.00  0.00    -0.335 N 
ATOM      5  C   UNL     1       8.927 -58.306 -23.451  1.00  0.00     0.065 C 
ATOM      6  C   UNL     1      11.430 -59.548 -22.605  1.00  0.00     0.262 C 
ATOM      7  C   UNL     1      11.355 -58.052 -22.875  1.00  0.00     0.065 C 
ATOM      8  H   UNL     1      10.647 -60.051 -24.439  1.00  0.00     0.348 HD
BRANCH   4   9
ATOM      9  C   UNL     1      10.608 -61.785 -23.305  1.00  0.00     0.265 C 
BRANCH   9  10
ATOM     10  C   UNL     1       9.563 -62.676 -24.007  1.00  0.00     0.044 C 
ATOM     11  C   UNL     1       8.497 -63.232 -23.048  1.00  0.00     0.009 C 
ATOM     12  C   UNL     1       8.928 -62.062 -25.262  1.00  0.00     0.009 C 
ATOM     13  C   UNL     1       7.558 -64.208 -23.759  1.00  0.00     0.001 C 
ATOM     14  C   UNL     1       7.991 -63.049 -25.958  1.00  0.00     0.001 C 
ATOM     15  C   UNL     1       6.929 -63.585 -25.001  1.00  0.00     0.000 C 
ENDBRANCH   9  10
ENDBRANCH   4   9
ENDBRANCH   1   2
BRANCH   1  16
ATOM     16  C   UNL     1      11.034 -55.134 -22.627  1.00  0.00     0.066 C 
ATOM     17  C   UNL     1      11.692 -54.526 -23.854  1.00  0.00     0.166 C 
ATOM     18  C   UNL     1      10.653 -53.919 -21.751  1.00  0.00     0.048 C 
ATOM     19  C   UNL     1      11.849 -53.092 -23.661  1.00  0.00     0.025 A 
ATOM     20  C   UNL     1      11.271 -52.747 -22.447  1.00  0.00    -0.033 A 
ATOM     21  C   UNL     1      12.452 -52.172 -24.491  1.00  0.00     0.062 A 
ATOM     22  C   UNL     1      11.280 -51.421 -22.032  1.00  0.00     0.055 A 
ATOM     23  C   UNL     1      12.490 -50.839 -24.070  1.00  0.00     0.161 A 
ATOM     24  C   UNL     1      11.884 -50.449 -22.849  1.00  0.00     0.161 A 
ATOM     25  O   UNL     1      12.054 -55.135 -24.845  1.00  0.00    -0.294 OA
BRANCH  23  26
ATOM     26  O   UNL     1      13.093 -49.998 -24.971  1.00  0.00    -0.493 OA
ATOM     27  C   UNL     1      13.908 -50.632 -25.952  1.00  0.00     0.278 C 
ENDBRANCH  23  26
BRANCH  24  28
ATOM     28  O   UNL     1      11.901 -49.112 -22.546  1.00  0.00    -0.493 OA
ATOM     29  C   UNL     1      10.706 -48.365 -22.726  1.00  0.00     0.278 C 
ENDBRANCH  24  28
ENDBRANCH   1  16
TORSDOF 6
ENDMDL
MODEL 3
REMARK VINA RESULT:   -11.017      4.050      9.131
REMARK INTER + INTRA:         -15.439
REMARK INTER:                 -14.476
REMARK INTRA:                  -0.963
REMARK UNBOUND:                -0.558
REMARK SMILES COc1cc2c(cc1OC)C(=O)[C@H](C[C@H]1CC[N@H+](CC3CCCCC3)CC1)C2
REMARK SMILES IDX 14 1 15 2 17 3 18 4 16 5 26 6 27 7 19 9 20 10 21 11 25 12
REMARK SMILES IDX 22 13 24 14 23 15 13 16 11 17 28 18 6 19 5 20 7 21 4 22 8 23
REMARK SMILES IDX 3 24 12 25 9 26 10 27 2 28 1 29
REMARK H PARENT 18 8
ROOT
ATOM      1  C   UNL     1      11.008 -59.761 -22.111  1.00  0.00     0.016 C 
ENDROOT
BRANCH   1   2
ATOM      2  C   UNL     1      11.065 -58.251 -22.425  1.00  0.00     0.001 C 
ATOM      3  C   UNL     1       9.651 -56.304 -23.265  1.00  0.00     0.262 C 
ATOM      4  N   UNL     1       9.952 -55.550 -21.994  1.00  0.00    -0.335 N 
ATOM      5  C   UNL     1       9.716 -57.803 -23.007  1.00  0.00     0.065 C 
ATOM      6  C   UNL     1      11.320 -55.920 -21.456  1.00  0.00     0.262 C 
ATOM      7  C   UNL     1      11.391 -57.416 -21.180  1.00  0.00     0.065 C 
ATOM      8  H   UNL     1       9.272 -55.852 -21.282  1.00  0.00     0.348 HD
BRANCH   4   9
ATOM      9  C   UNL     1       9.836 -54.042 -22.119  1.00  0.00     0.265 C 
BRANCH   9  10
ATOM     10  C   UNL     1      11.090 -53.306 -22.631  1.00  0.00     0.044 C 
ATOM     11  C   UNL     1      11.382 -53.568 -24.119  1.00  0.00     0.009 C 
ATOM     12  C   UNL     1      11.142 -51.808 -22.301  1.00  0.00     0.009 C 
ATOM     13  C   UNL     1      12.699 -52.923 -24.553  1.00  0.00     0.001 C 
ATOM     14  C   UNL     1      12.463 -51.180 -22.745  1.00  0.00     0.001 C 
ATOM     15  C   UNL     1      12.737 -51.434 -24.225  1.00  0.00     0.000 C 
ENDBRANCH   9  10
ENDBRANCH   4   9
ENDBRANCH   1   2
BRANCH   1  16
ATOM     16  C   UNL     1      11.455 -60.679 -23.255  1.00  0.00     0.066 C 
ATOM     17  C   UNL     1      10.246 -61.220 -23.997  1.00  0.00     0.166 C 
ATOM     18  C   UNL     1      12.291 -59.968 -24.343  1.00  0.00     0.048 C 
ATOM     19  C   UNL     1      10.417 -61.005 -25.426  1.00  0.00     0.025 A 
ATOM     20  C   UNL     1      11.598 -60.305 -25.626  1.00  0.00    -0.033 A 
ATOM     21  C   UNL     1       9.595 -61.397 -26.461  1.00  0.00     0.062 A 
ATOM     22  C   UNL     1      11.988 -59.965 -26.916  1.00  0.00     0.055 A 
ATOM     23  C   UNL     1       9.992 -61.083 -27.764  1.00  0.00     0.161 A 
ATOM     24  C   UNL     1      11.179 -60.344 -28.001  1.00  0.00     0.161 A 
ATOM     25  O   UNL     1       9.283 -61.767 -23.490  1.00  0.00    -0.294 OA
BRANCH  23  26
ATOM     26  O   UNL     1       9.101 -61.498 -28.722  1.00  0.00    -0.493 OA
ATOM     27  C   UNL     1       8.524 -62.783 -28.508  1.00  0.00     0.278 C 
ENDBRANCH  23  26
BRANCH  24  28
ATOM     28  O   UNL     1      11.456 -60.014 -29.302  1.00  0.00    -0.493 OA
ATOM     29  C   UNL     1      12.072 -58.760 -29.563  1.00  0.00     0.278 C 
ENDBRANCH  24  28
ENDBRANCH   1  16
TORSDOF 6
ENDMDL
MODEL 4
REMARK VINA RESULT:   -10.009      1.738      2.853
REMARK INTER + INTRA:         -14.078
REMARK INTER:                 -13.814
REMARK INTRA:                  -0.263
REMARK UNBOUND:                -0.558
REMARK SMILES COc1cc2c(cc1OC)C(=O)[C@H](C[C@H]1CC[N@H+](CC3CCCCC3)CC1)C2
REMARK SMILES IDX 14 1 15 2 17 3 18 4 16 5 26 6 27 7 19 9 20 10 21 11 25 12
REMARK SMILES IDX 22 13 24 14 23 15 13 16 11 17 28 18 6 19 5 20 7 21 4 22 8 23
REMARK SMILES IDX 3 24 12 25 9 26 10 27 2 28 1 29
REMARK H PARENT 18 8
ROOT
ATOM      1  C   UNL     1      10.309 -54.736 -23.643  1.00  0.00     0.016 C 
ENDROOT
BRANCH   1   2
ATOM      2  C   UNL     1      10.088 -55.984 -22.762  1.00  0.00     0.001 C 
ATOM      3  C   UNL     1       8.884 -58.230 -22.700  1.00  0.00     0.262 C 
ATOM      4  N   UNL     1      10.208 -58.922 -22.490  1.00  0.00    -0.335 N 
ATOM      5  C   UNL     1       9.095 -56.927 -23.459  1.00  0.00     0.065 C 
ATOM      6  C   UNL     1      11.168 -58.033 -21.726  1.00  0.00     0.262 C 
ATOM      7  C   UNL     1      11.398 -56.733 -22.484  1.00  0.00     0.065 C 
ATOM      8  H   UNL     1      10.632 -59.076 -23.415  1.00  0.00     0.348 HD
BRANCH   4   9
ATOM      9  C   UNL     1      10.105 -60.276 -21.811  1.00  0.00     0.265 C 
BRANCH   9  10
ATOM     10  C   UNL     1       9.190 -61.311 -22.496  1.00  0.00     0.044 C 
ATOM     11  C   UNL     1       8.877 -60.967 -23.962  1.00  0.00     0.009 C 
ATOM     12  C   UNL     1       9.637 -62.772 -22.342  1.00  0.00     0.009 C 
ATOM     13  C   UNL     1       7.870 -61.948 -24.565  1.00  0.00     0.001 C 
ATOM     14  C   UNL     1       8.620 -63.737 -22.952  1.00  0.00     0.001 C 
ATOM     15  C   UNL     1       8.327 -63.395 -24.410  1.00  0.00     0.000 C 
ENDBRANCH   9  10
ENDBRANCH   4   9
ENDBRANCH   1   2
BRANCH   1  16
ATOM     16  C   UNL     1      11.644 -54.015 -23.424  1.00  0.00     0.066 C 
ATOM     17  C   UNL     1      12.321 -53.748 -24.757  1.00  0.00     0.166 C 
ATOM     18  C   UNL     1      11.507 -52.620 -22.773  1.00  0.00     0.048 C 
ATOM     19  C   UNL     1      12.711 -52.348 -24.831  1.00  0.00     0.025 A 
ATOM     20  C   UNL     1      12.262 -51.706 -23.686  1.00  0.00    -0.033 A 
ATOM     21  C   UNL     1      13.404 -51.699 -25.830  1.00  0.00     0.062 A 
ATOM     22  C   UNL     1      12.502 -50.347 -23.519  1.00  0.00     0.055 A 
ATOM     23  C   UNL     1      13.674 -50.337 -25.659  1.00  0.00     0.161 A 
ATOM     24  C   UNL     1      13.204 -49.645 -24.513  1.00  0.00     0.161 A 
ATOM     25  O   UNL     1      12.529 -54.572 -25.630  1.00  0.00    -0.294 OA
BRANCH  23  26
ATOM     26  O   UNL     1      14.351 -49.777 -26.713  1.00  0.00    -0.493 OA
ATOM     27  C   UNL     1      15.772 -49.829 -26.627  1.00  0.00     0.278 C 
ENDBRANCH  23  26
BRANCH  24  28
ATOM     28  O   UNL     1      13.448 -48.298 -24.459  1.00  0.00    -0.493 OA
ATOM     29  C   UNL     1      12.351 -47.407 -24.620  1.00  0.00     0.278 C 
ENDBRANCH  24  28
ENDBRANCH   1  16
TORSDOF 6
ENDMDL
MODEL 5
REMARK VINA RESULT:    -9.693      2.778      5.217
REMARK INTER + INTRA:         -13.650
REMARK INTER:                 -12.973
REMARK INTRA:                  -0.677
REMARK UNBOUND:                -0.558
REMARK SMILES COc1cc2c(cc1OC)C(=O)[C@H](C[C@H]1CC[N@H+](CC3CCCCC3)CC1)C2
REMARK SMILES IDX 14 1 15 2 17 3 18 4 16 5 26 6 27 7 19 9 20 10 21 11 25 12
REMARK SMILES IDX 22 13 24 14 23 15 13 16 11 17 28 18 6 19 5 20 7 21 4 22 8 23
REMARK SMILES IDX 3 24 12 25 9 26 10 27 2 28 1 29
REMARK H PARENT 18 8
ROOT
ATOM      1  C   UNL     1      11.250 -51.322 -21.904  1.00  0.00     0.016 C 
ENDROOT
BRANCH   1   2
ATOM      2  C   UNL     1      10.805 -52.659 -22.533  1.00  0.00     0.001 C 
ATOM      3  C   UNL     1      11.497 -54.425 -24.236  1.00  0.00     0.262 C 
ATOM      4  N   UNL     1      11.434 -55.476 -23.156  1.00  0.00    -0.335 N 
ATOM      5  C   UNL     1      11.811 -53.067 -23.620  1.00  0.00     0.065 C 
ATOM      6  C   UNL     1      10.382 -55.126 -22.122  1.00  0.00     0.262 C 
ATOM      7  C   UNL     1      10.693 -53.777 -21.489  1.00  0.00     0.065 C 
ATOM      8  H   UNL     1      12.336 -55.473 -22.661  1.00  0.00     0.348 HD
BRANCH   4   9
ATOM      9  C   UNL     1      11.205 -56.886 -23.670  1.00  0.00     0.265 C 
BRANCH   9  10
ATOM     10  C   UNL     1      10.566 -57.875 -22.674  1.00  0.00     0.044 C 
ATOM     11  C   UNL     1       9.737 -58.975 -23.359  1.00  0.00     0.009 C 
ATOM     12  C   UNL     1      11.532 -58.460 -21.634  1.00  0.00     0.009 C 
ATOM     13  C   UNL     1       9.021 -59.857 -22.334  1.00  0.00     0.001 C 
ATOM     14  C   UNL     1      10.799 -59.340 -20.621  1.00  0.00     0.001 C 
ATOM     15  C   UNL     1       9.991 -60.436 -21.309  1.00  0.00     0.000 C 
ENDBRANCH   9  10
ENDBRANCH   4   9
ENDBRANCH   1   2
BRANCH   1  16
ATOM     16  C   UNL     1      11.422 -50.164 -22.894  1.00  0.00     0.066 C 
ATOM     17  C   UNL     1      10.474 -49.030 -22.546  1.00  0.00     0.166 C 
ATOM     18  C   UNL     1      12.825 -49.517 -22.869  1.00  0.00     0.048 C 
ATOM     19  C   UNL     1      11.215 -47.779 -22.483  1.00  0.00     0.025 A 
ATOM     20  C   UNL     1      12.560 -48.055 -22.687  1.00  0.00    -0.033 A 
ATOM     21  C   UNL     1      10.738 -46.505 -22.264  1.00  0.00     0.062 A 
ATOM     22  C   UNL     1      13.487 -47.020 -22.666  1.00  0.00     0.055 A 
ATOM     23  C   UNL     1      11.659 -45.453 -22.266  1.00  0.00     0.161 A 
ATOM     24  C   UNL     1      13.044 -45.705 -22.443  1.00  0.00     0.161 A 
ATOM     25  O   UNL     1       9.274 -49.133 -22.363  1.00  0.00    -0.294 OA
BRANCH  23  26
ATOM     26  O   UNL     1      11.091 -44.228 -22.021  1.00  0.00    -0.493 OA
ATOM     27  C   UNL     1      10.637 -43.521 -23.171  1.00  0.00     0.278 C 
ENDBRANCH  23  26
BRANCH  24  28
ATOM     28  O   UNL     1      13.887 -44.627 -22.359  1.00  0.00    -0.493 OA
ATOM     29  C   UNL     1      15.140 -44.801 -21.711  1.00  0.00     0.278 C 
ENDBRANCH  24  28
ENDBRANCH   1  16
TORSDOF 6
ENDMDL
MODEL 6
REMARK VINA RESULT:    -9.566      3.785     10.184
REMARK INTER + INTRA:         -13.479
REMARK INTER:                 -13.548
REMARK INTRA:                   0.069
REMARK UNBOUND:                -0.558
REMARK SMILES COc1cc2c(cc1OC)C(=O)[C@H](C[C@H]1CC[N@H+](CC3CCCCC3)CC1)C2
REMARK SMILES IDX 14 1 15 2 17 3 18 4 16 5 26 6 27 7 19 9 20 10 21 11 25 12
REMARK SMILES IDX 22 13 24 14 23 15 13 16 11 17 28 18 6 19 5 20 7 21 4 22 8 23
REMARK SMILES IDX 3 24 12 25 9 26 10 27 2 28 1 29
REMARK H PARENT 18 8
ROOT
ATOM      1  C   UNL     1      11.240 -56.959 -22.267  1.00  0.00     0.016 C 
ENDROOT
BRANCH   1   2
ATOM      2  C   UNL     1      11.431 -55.435 -22.119  1.00  0.00     0.001 C 
ATOM      3  C   UNL     1      11.089 -53.224 -23.342  1.00  0.00     0.262 C 
ATOM      4  N   UNL     1      10.242 -52.733 -22.195  1.00  0.00    -0.335 N 
ATOM      5  C   UNL     1      11.016 -54.743 -23.427  1.00  0.00     0.065 C 
ATOM      6  C   UNL     1      10.699 -53.343 -20.884  1.00  0.00     0.262 C 
ATOM      7  C   UNL     1      10.616 -54.862 -20.953  1.00  0.00     0.065 C 
ATOM      8  H   UNL     1       9.281 -53.068 -22.348  1.00  0.00     0.348 HD
BRANCH   4   9
ATOM      9  C   UNL     1      10.178 -51.221 -22.067  1.00  0.00     0.265 C 
BRANCH   9  10
ATOM     10  C   UNL     1      11.244 -50.429 -22.851  1.00  0.00     0.044 C 
ATOM     11  C   UNL     1      10.990 -48.912 -22.857  1.00  0.00     0.009 C 
ATOM     12  C   UNL     1      12.697 -50.758 -22.481  1.00  0.00     0.009 C 
ATOM     13  C   UNL     1      11.996 -48.179 -23.747  1.00  0.00     0.001 C 
ATOM     14  C   UNL     1      13.686 -50.015 -23.379  1.00  0.00     0.001 C 
ATOM     15  C   UNL     1      13.435 -48.510 -23.367  1.00  0.00     0.000 C 
ENDBRANCH   9  10
ENDBRANCH   4   9
ENDBRANCH   1   2
BRANCH   1  16
ATOM     16  C   UNL     1      10.282 -57.389 -23.384  1.00  0.00     0.066 C 
ATOM     17  C   UNL     1      10.166 -58.902 -23.423  1.00  0.00     0.166 C 
ATOM     18  C   UNL     1       8.830 -56.894 -23.193  1.00  0.00     0.048 C 
ATOM     19  C   UNL     1       8.761 -59.282 -23.427  1.00  0.00     0.025 A 
ATOM     20  C   UNL     1       7.995 -58.131 -23.315  1.00  0.00    -0.033 A 
ATOM     21  C   UNL     1       8.210 -60.542 -23.521  1.00  0.00     0.062 A 
ATOM     22  C   UNL     1       6.610 -58.225 -23.287  1.00  0.00     0.055 A 
ATOM     23  C   UNL     1       6.815 -60.645 -23.521  1.00  0.00     0.161 A 
ATOM     24  C   UNL     1       6.004 -59.491 -23.379  1.00  0.00     0.161 A 
ATOM     25  O   UNL     1      11.096 -59.689 -23.462  1.00  0.00    -0.294 OA
BRANCH  23  26
ATOM     26  O   UNL     1       6.363 -61.939 -23.600  1.00  0.00    -0.493 OA
ATOM     27  C   UNL     1       7.358 -62.947 -23.451  1.00  0.00     0.278 C 
ENDBRANCH  23  26
BRANCH  24  28
ATOM     28  O   UNL     1       4.650 -59.687 -23.314  1.00  0.00    -0.493 OA
ATOM     29  C   UNL     1       3.849 -58.672 -22.723  1.00  0.00     0.278 C 
ENDBRANCH  24  28
ENDBRANCH   1  16
TORSDOF 6
ENDMDL
MODEL 7
REMARK VINA RESULT:    -9.534      2.112      4.017
REMARK INTER + INTRA:         -13.436
REMARK INTER:                 -12.742
REMARK INTRA:                  -0.694
REMARK UNBOUND:                -0.558
REMARK SMILES COc1cc2c(cc1OC)C(=O)[C@H](C[C@H]1CC[N@H+](CC3CCCCC3)CC1)C2
REMARK SMILES IDX 14 1 15 2 17 3 18 4 16 5 26 6 27 7 19 9 20 10 21 11 25 12
REMARK SMILES IDX 22 13 24 14 23 15 13 16 11 17 28 18 6 19 5 20 7 21 4 22 8 23
REMARK SMILES IDX 3 24 12 25 9 26 10 27 2 28 1 29
REMARK H PARENT 18 8
ROOT
ATOM      1  C   UNL     1      12.095 -53.566 -24.871  1.00  0.00     0.016 C 
ENDROOT
BRANCH   1   2
ATOM      2  C   UNL     1      11.732 -54.741 -23.939  1.00  0.00     0.001 C 
ATOM      3  C   UNL     1       9.760 -55.892 -22.805  1.00  0.00     0.262 C 
ATOM      4  N   UNL     1      10.143 -57.187 -23.477  1.00  0.00    -0.335 N 
ATOM      5  C   UNL     1      10.224 -54.713 -23.651  1.00  0.00     0.065 C 
ATOM      6  C   UNL     1      11.643 -57.264 -23.688  1.00  0.00     0.262 C 
ATOM      7  C   UNL     1      12.114 -56.097 -24.545  1.00  0.00     0.065 C 
ATOM      8  H   UNL     1       9.720 -57.191 -24.415  1.00  0.00     0.348 HD
BRANCH   4   9
ATOM      9  C   UNL     1       9.658 -58.432 -22.757  1.00  0.00     0.265 C 
BRANCH   9  10
ATOM     10  C   UNL     1       9.986 -59.778 -23.433  1.00  0.00     0.044 C 
ATOM     11  C   UNL     1      10.114 -60.943 -22.437  1.00  0.00     0.009 C 
ATOM     12  C   UNL     1       9.082 -60.145 -24.618  1.00  0.00     0.009 C 
ATOM     13  C   UNL     1      10.563 -62.229 -23.133  1.00  0.00     0.001 C 
ATOM     14  C   UNL     1       9.543 -61.433 -25.299  1.00  0.00     0.001 C 
ATOM     15  C   UNL     1       9.654 -62.585 -24.305  1.00  0.00     0.000 C 
ENDBRANCH   9  10
ENDBRANCH   4   9
ENDBRANCH   1   2
BRANCH   1  16
ATOM     16  C   UNL     1      13.000 -52.498 -24.248  1.00  0.00     0.066 C 
ATOM     17  C   UNL     1      13.315 -51.417 -25.267  1.00  0.00     0.166 C 
ATOM     18  C   UNL     1      12.355 -51.738 -23.066  1.00  0.00     0.048 C 
ATOM     19  C   UNL     1      13.044 -50.109 -24.689  1.00  0.00     0.025 A 
ATOM     20  C   UNL     1      12.512 -50.292 -23.420  1.00  0.00    -0.033 A 
ATOM     21  C   UNL     1      13.251 -48.864 -25.241  1.00  0.00     0.062 A 
ATOM     22  C   UNL     1      12.158 -49.188 -22.655  1.00  0.00     0.055 A 
ATOM     23  C   UNL     1      12.922 -47.745 -24.469  1.00  0.00     0.161 A 
ATOM     24  C   UNL     1      12.350 -47.898 -23.180  1.00  0.00     0.161 A 
ATOM     25  O   UNL     1      13.745 -51.600 -26.393  1.00  0.00    -0.294 OA
BRANCH  23  26
ATOM     26  O   UNL     1      13.146 -46.553 -25.110  1.00  0.00    -0.493 OA
ATOM     27  C   UNL     1      14.427 -45.969 -24.892  1.00  0.00     0.278 C 
ENDBRANCH  23  26
BRANCH  24  28
ATOM     28  O   UNL     1      11.989 -46.752 -22.521  1.00  0.00    -0.493 OA
ATOM     29  C   UNL     1      10.605 -46.452 -22.401  1.00  0.00     0.278 C 
ENDBRANCH  24  28
ENDBRANCH   1  16
TORSDOF 6
ENDMDL
MODEL 8
REMARK VINA RESULT:    -9.521      3.444     10.572
REMARK INTER + INTRA:         -13.419
REMARK INTER:                 -13.062
REMARK INTRA:                  -0.357
REMARK UNBOUND:                -0.558
REMARK SMILES COc1cc2c(cc1OC)C(=O)[C@H](C[C@H]1CC[N@H+](CC3CCCCC3)CC1)C2
REMARK SMILES IDX 14 1 15 2 17 3 18 4 16 5 26 6 27 7 19 9 20 10 21 11 25 12
REMARK SMILES IDX 22 13 24 14 23 15 13 16 11 17 28 18 6 19 5 20 7 21 4 22 8 23
REMARK SMILES IDX 3 24 12 25 9 26 10 27 2 28 1 29
REMARK H PARENT 18 8
ROOT
ATOM      1  C   UNL     1       9.746 -55.436 -22.216  1.00  0.00     0.016 C 
ENDROOT
BRANCH   1   2
ATOM      2  C   UNL     1      10.941 -54.465 -22.318  1.00  0.00     0.001 C 
ATOM      3  C   UNL     1      12.293 -53.086 -23.981  1.00  0.00     0.262 C 
ATOM      4  N   UNL     1      11.982 -51.842 -23.188  1.00  0.00    -0.335 N 
ATOM      5  C   UNL     1      11.184 -54.112 -23.793  1.00  0.00     0.065 C 
ATOM      6  C   UNL     1      11.826 -52.165 -21.715  1.00  0.00     0.262 C 
ATOM      7  C   UNL     1      10.709 -53.179 -21.514  1.00  0.00     0.065 C 
ATOM      8  H   UNL     1      11.068 -51.489 -23.503  1.00  0.00     0.348 HD
BRANCH   4   9
ATOM      9  C   UNL     1      12.987 -50.718 -23.367  1.00  0.00     0.265 C 
BRANCH   9  10
ATOM     10  C   UNL     1      12.433 -49.285 -23.231  1.00  0.00     0.044 C 
ATOM     11  C   UNL     1      12.718 -48.405 -24.460  1.00  0.00     0.009 C 
ATOM     12  C   UNL     1      10.962 -49.198 -22.802  1.00  0.00     0.009 C 
ATOM     13  C   UNL     1      12.264 -46.962 -24.233  1.00  0.00     0.001 C 
ATOM     14  C   UNL     1      10.526 -47.749 -22.583  1.00  0.00     0.001 C 
ATOM     15  C   UNL     1      10.800 -46.888 -23.812  1.00  0.00     0.000 C 
ENDBRANCH   9  10
ENDBRANCH   4   9
ENDBRANCH   1   2
BRANCH   1  16
ATOM     16  C   UNL     1       9.765 -56.596 -23.219  1.00  0.00     0.066 C 
ATOM     17  C   UNL     1      10.405 -57.822 -22.591  1.00  0.00     0.166 C 
ATOM     18  C   UNL     1       8.362 -57.073 -23.656  1.00  0.00     0.048 C 
ATOM     19  C   UNL     1       9.538 -58.974 -22.783  1.00  0.00     0.025 A 
ATOM     20  C   UNL     1       8.376 -58.550 -23.410  1.00  0.00    -0.033 A 
ATOM     21  C   UNL     1       9.762 -60.288 -22.432  1.00  0.00     0.062 A 
ATOM     22  C   UNL     1       7.374 -59.468 -23.700  1.00  0.00     0.055 A 
ATOM     23  C   UNL     1       8.771 -61.225 -22.743  1.00  0.00     0.161 A 
ATOM     24  C   UNL     1       7.559 -60.819 -23.357  1.00  0.00     0.161 A 
ATOM     25  O   UNL     1      11.485 -57.854 -22.027  1.00  0.00    -0.294 OA
BRANCH  23  26
ATOM     26  O   UNL     1       9.077 -62.500 -22.337  1.00  0.00    -0.493 OA
ATOM     27  C   UNL     1      10.295 -63.031 -22.848  1.00  0.00     0.278 C 
ENDBRANCH  23  26
BRANCH  24  28
ATOM     28  O   UNL     1       6.611 -61.787 -23.561  1.00  0.00    -0.493 OA
ATOM     29  C   UNL     1       6.864 -62.783 -24.543  1.00  0.00     0.278 C 
ENDBRANCH  24  28
ENDBRANCH   1  16
TORSDOF 6
ENDMDL
MODEL 9
REMARK VINA RESULT:    -9.214      3.457     10.825
REMARK INTER + INTRA:         -13.004
REMARK INTER:                 -12.348
REMARK INTRA:                  -0.656
REMARK UNBOUND:                -0.558
REMARK SMILES COc1cc2c(cc1OC)C(=O)[C@H](C[C@H]1CC[N@H+](CC3CCCCC3)CC1)C2
REMARK SMILES IDX 14 1 15 2 17 3 18 4 16 5 26 6 27 7 19 9 20 10 21 11 25 12
REMARK SMILES IDX 22 13 24 14 23 15 13 16 11 17 28 18 6 19 5 20 7 21 4 22 8 23
REMARK SMILES IDX 3 24 12 25 9 26 10 27 2 28 1 29
REMARK H PARENT 18 8
ROOT
ATOM      1  C   UNL     1      11.230 -54.662 -23.885  1.00  0.00     0.016 C 
ENDROOT
BRANCH   1   2
ATOM      2  C   UNL     1      11.740 -53.401 -23.157  1.00  0.00     0.001 C 
ATOM      3  C   UNL     1      12.958 -51.195 -23.541  1.00  0.00     0.262 C 
ATOM      4  N   UNL     1      11.780 -50.455 -22.960  1.00  0.00    -0.335 N 
ATOM      5  C   UNL     1      12.494 -52.509 -24.156  1.00  0.00     0.065 C 
ATOM      6  C   UNL     1      11.080 -51.293 -21.909  1.00  0.00     0.262 C 
ATOM      7  C   UNL     1      10.597 -52.603 -22.516  1.00  0.00     0.065 C 
ATOM      8  H   UNL     1      11.096 -50.310 -23.715  1.00  0.00     0.348 HD
BRANCH   4   9
ATOM      9  C   UNL     1      12.119 -49.089 -22.390  1.00  0.00     0.265 C 
BRANCH   9  10
ATOM     10  C   UNL     1      11.779 -47.878 -23.282  1.00  0.00     0.044 C 
ATOM     11  C   UNL     1      11.020 -46.768 -22.535  1.00  0.00     0.009 C 
ATOM     12  C   UNL     1      12.959 -47.314 -24.085  1.00  0.00     0.009 C 
ATOM     13  C   UNL     1      10.593 -45.646 -23.482  1.00  0.00     0.001 C 
ATOM     14  C   UNL     1      12.514 -46.192 -25.024  1.00  0.00     0.001 C 
ATOM     15  C   UNL     1      11.774 -45.090 -24.271  1.00  0.00     0.000 C 
ENDBRANCH   9  10
ENDBRANCH   4   9
ENDBRANCH   1   2
BRANCH   1  16
ATOM     16  C   UNL     1      11.139 -55.922 -23.017  1.00  0.00     0.066 C 
ATOM     17  C   UNL     1       9.686 -56.313 -22.809  1.00  0.00     0.166 C 
ATOM     18  C   UNL     1      11.789 -57.172 -23.650  1.00  0.00     0.048 C 
ATOM     19  C   UNL     1       9.512 -57.721 -23.128  1.00  0.00     0.025 A 
ATOM     20  C   UNL     1      10.721 -58.219 -23.592  1.00  0.00    -0.033 A 
ATOM     21  C   UNL     1       8.377 -58.496 -23.017  1.00  0.00     0.062 A 
ATOM     22  C   UNL     1      10.817 -59.551 -23.975  1.00  0.00     0.055 A 
ATOM     23  C   UNL     1       8.470 -59.844 -23.375  1.00  0.00     0.161 A 
ATOM     24  C   UNL     1       9.683 -60.378 -23.880  1.00  0.00     0.161 A 
ATOM     25  O   UNL     1       8.797 -55.576 -22.419  1.00  0.00    -0.294 OA
BRANCH  23  26
ATOM     26  O   UNL     1       7.285 -60.526 -23.247  1.00  0.00    -0.493 OA
ATOM     27  C   UNL     1       6.118 -59.716 -23.144  1.00  0.00     0.278 C 
ENDBRANCH  23  26
BRANCH  24  28
ATOM     28  O   UNL     1       9.668 -61.689 -24.276  1.00  0.00    -0.493 OA
ATOM     29  C   UNL     1      10.101 -62.678 -23.351  1.00  0.00     0.278 C 
ENDBRANCH  24  28
ENDBRANCH   1  16
TORSDOF 6
ENDMDL
