MODEL 1
REMARK VINA RESULT:    -8.783      0.000      0.000
REMARK INTER + INTRA:          -9.040
REMARK INTER:                  -9.040
REMARK INTRA:                   0.000
REMARK UNBOUND:                 0.000
REMARK SMILES N=c1c2c([nH]c3cc(Cl)ccc13)CCCC2
REMARK SMILES IDX 5 1 4 2 3 3 2 4 12 5 11 6 10 7 8 8 9 9 7 10 6 11 16 12 15 13
REMARK SMILES IDX 14 14 13 15 1 17
REMARK H PARENT 5 16 1 18
ROOT
ATOM      1  N   UNL     1      12.529 -52.960 -24.835  1.00  0.00    -0.358 N 
ATOM      2  C   UNL     1      12.931 -51.644 -24.879  1.00  0.00     0.020 A 
ATOM      3  C   UNL     1      12.692 -50.763 -23.883  1.00  0.00    -0.003 A 
ATOM      4  C   UNL     1      11.963 -51.252 -22.658  1.00  0.00     0.068 A 
ATOM      5  C   UNL     1      11.471 -52.660 -22.672  1.00  0.00     0.023 A 
ATOM      6  C   UNL     1      10.732 -53.169 -21.595  1.00  0.00     0.014 A 
ATOM      7  C   UNL     1      10.288 -54.490 -21.618  1.00  0.00     0.021 A 
ATOM      8  C   UNL     1      10.588 -55.298 -22.714  1.00  0.00     0.043 A 
ATOM      9  Cl  UNL     1      10.050 -56.932 -22.741  1.00  0.00    -0.084 Cl
ATOM     10  C   UNL     1      11.326 -54.797 -23.788  1.00  0.00     0.047 A 
ATOM     11  C   UNL     1      11.764 -53.468 -23.779  1.00  0.00     0.049 A 
ATOM     12  C   UNL     1      13.100 -49.316 -23.944  1.00  0.00     0.039 C 
ATOM     13  C   UNL     1      13.547 -48.858 -25.334  1.00  0.00     0.005 C 
ATOM     14  C   UNL     1      14.430 -49.905 -25.992  1.00  0.00     0.007 C 
ATOM     15  C   UNL     1      13.683 -51.230 -26.128  1.00  0.00     0.054 C 
ATOM     16  H   UNL     1      12.640 -53.524 -25.669  1.00  0.00     0.166 HD
ENDROOT
BRANCH   4  17
ATOM     17  N   UNL     1      11.749 -50.523 -21.605  1.00  0.00    -0.300 NA
ATOM     18  H   UNL     1      11.318 -51.059 -20.851  1.00  0.00     0.188 HD
ENDBRANCH   4  17
TORSDOF 1
ENDMDL
MODEL 2
REMARK VINA RESULT:    -8.633      2.542      5.293
REMARK INTER + INTRA:          -8.886
REMARK INTER:                  -8.886
REMARK INTRA:                   0.000
REMARK UNBOUND:                 0.000
REMARK SMILES N=c1c2c([nH]c3cc(Cl)ccc13)CCCC2
REMARK SMILES IDX 5 1 4 2 3 3 2 4 12 5 11 6 10 7 8 8 9 9 7 10 6 11 16 12 15 13
REMARK SMILES IDX 14 14 13 15 1 17
REMARK H PARENT 5 16 1 18
ROOT
ATOM      1  N   UNL     1      12.426 -53.000 -24.754  1.00  0.00    -0.358 N 
ATOM      2  C   UNL     1      11.736 -53.383 -23.624  1.00  0.00     0.020 A 
ATOM      3  C   UNL     1      11.386 -52.522 -22.644  1.00  0.00    -0.003 A 
ATOM      4  C   UNL     1      11.754 -51.070 -22.804  1.00  0.00     0.068 A 
ATOM      5  C   UNL     1      12.569 -50.699 -23.997  1.00  0.00     0.023 A 
ATOM      6  C   UNL     1      13.002 -49.380 -24.184  1.00  0.00     0.014 A 
ATOM      7  C   UNL     1      13.754 -49.047 -25.311  1.00  0.00     0.021 A 
ATOM      8  C   UNL     1      14.064 -50.032 -26.247  1.00  0.00     0.043 A 
ATOM      9  Cl  UNL     1      14.984 -49.621 -27.642  1.00  0.00    -0.084 Cl
ATOM     10  C   UNL     1      13.633 -51.347 -26.067  1.00  0.00     0.047 A 
ATOM     11  C   UNL     1      12.890 -51.693 -24.933  1.00  0.00     0.049 A 
ATOM     12  C   UNL     1      10.662 -52.944 -21.394  1.00  0.00     0.039 C 
ATOM     13  C   UNL     1      10.613 -54.460 -21.190  1.00  0.00     0.005 C 
ATOM     14  C   UNL     1      10.309 -55.173 -22.497  1.00  0.00     0.007 C 
ATOM     15  C   UNL     1      11.374 -54.853 -23.545  1.00  0.00     0.054 C 
ATOM     16  H   UNL     1      12.756 -53.724 -25.382  1.00  0.00     0.166 HD
ENDROOT
BRANCH   4  17
ATOM     17  N   UNL     1      11.401 -50.139 -21.973  1.00  0.00    -0.300 NA
ATOM     18  H   UNL     1      11.969 -49.297 -22.078  1.00  0.00     0.188 HD
ENDBRANCH   4  17
TORSDOF 1
ENDMDL
MODEL 3
REMARK VINA RESULT:    -8.604      2.756      5.878
REMARK INTER + INTRA:          -8.856
REMARK INTER:                  -8.856
REMARK INTRA:                   0.000
REMARK UNBOUND:                 0.000
REMARK SMILES N=c1c2c([nH]c3cc(Cl)ccc13)CCCC2
REMARK SMILES IDX 5 1 4 2 3 3 2 4 12 5 11 6 10 7 8 8 9 9 7 10 6 11 16 12 15 13
REMARK SMILES IDX 14 14 13 15 1 17
REMARK H PARENT 5 16 1 18
ROOT
ATOM      1  N   UNL     1      11.932 -51.397 -22.969  1.00  0.00    -0.358 N 
ATOM      2  C   UNL     1      11.464 -52.680 -22.788  1.00  0.00     0.020 A 
ATOM      3  C   UNL     1      11.694 -53.682 -23.664  1.00  0.00    -0.003 A 
ATOM      4  C   UNL     1      12.516 -53.383 -24.891  1.00  0.00     0.068 A 
ATOM      5  C   UNL     1      12.941 -51.968 -25.101  1.00  0.00     0.023 A 
ATOM      6  C   UNL     1      13.656 -51.600 -26.248  1.00  0.00     0.014 A 
ATOM      7  C   UNL     1      14.055 -50.276 -26.425  1.00  0.00     0.021 A 
ATOM      8  C   UNL     1      13.744 -49.328 -25.452  1.00  0.00     0.043 A 
ATOM      9  Cl  UNL     1      14.244 -47.695 -25.663  1.00  0.00    -0.084 Cl
ATOM     10  C   UNL     1      13.034 -49.690 -24.305  1.00  0.00     0.047 A 
ATOM     11  C   UNL     1      12.618 -51.013 -24.126  1.00  0.00     0.049 A 
ATOM     12  C   UNL     1      11.156 -55.076 -23.485  1.00  0.00     0.039 C 
ATOM     13  C   UNL     1      10.095 -55.192 -22.388  1.00  0.00     0.005 C 
ATOM     14  C   UNL     1      10.493 -54.389 -21.161  1.00  0.00     0.007 C 
ATOM     15  C   UNL     1      10.670 -52.914 -21.518  1.00  0.00     0.054 C 
ATOM     16  H   UNL     1      11.616 -50.677 -22.330  1.00  0.00     0.166 HD
ENDROOT
BRANCH   4  17
ATOM     17  N   UNL     1      12.872 -54.279 -25.759  1.00  0.00    -0.300 NA
ATOM     18  H   UNL     1      12.292 -55.118 -25.702  1.00  0.00     0.188 HD
ENDBRANCH   4  17
TORSDOF 1
ENDMDL
MODEL 4
REMARK VINA RESULT:    -8.101      1.829      2.320
REMARK INTER + INTRA:          -8.338
REMARK INTER:                  -8.338
REMARK INTRA:                   0.000
REMARK UNBOUND:                 0.000
REMARK SMILES N=c1c2c([nH]c3cc(Cl)ccc13)CCCC2
REMARK SMILES IDX 5 1 4 2 3 3 2 4 12 5 11 6 10 7 8 8 9 9 7 10 6 11 16 12 15 13
REMARK SMILES IDX 14 14 13 15 1 17
REMARK H PARENT 5 16 1 18
ROOT
ATOM      1  N   UNL     1      12.439 -51.122 -23.563  1.00  0.00    -0.358 N 
ATOM      2  C   UNL     1      12.155 -49.777 -23.461  1.00  0.00     0.020 A 
ATOM      3  C   UNL     1      11.036 -49.300 -22.873  1.00  0.00    -0.003 A 
ATOM      4  C   UNL     1      10.062 -50.288 -22.287  1.00  0.00     0.068 A 
ATOM      5  C   UNL     1      10.356 -51.737 -22.482  1.00  0.00     0.023 A 
ATOM      6  C   UNL     1       9.466 -52.715 -22.019  1.00  0.00     0.014 A 
ATOM      7  C   UNL     1       9.761 -54.066 -22.200  1.00  0.00     0.021 A 
ATOM      8  C   UNL     1      10.945 -54.433 -22.837  1.00  0.00     0.043 A 
ATOM      9  Cl  UNL     1      11.315 -56.100 -23.053  1.00  0.00    -0.084 Cl
ATOM     10  C   UNL     1      11.837 -53.462 -23.298  1.00  0.00     0.047 A 
ATOM     11  C   UNL     1      11.543 -52.105 -23.133  1.00  0.00     0.049 A 
ATOM     12  C   UNL     1      10.708 -47.834 -22.791  1.00  0.00     0.039 C 
ATOM     13  C   UNL     1      11.592 -46.952 -23.674  1.00  0.00     0.005 C 
ATOM     14  C   UNL     1      13.046 -47.390 -23.596  1.00  0.00     0.007 C 
ATOM     15  C   UNL     1      13.194 -48.842 -24.047  1.00  0.00     0.054 C 
ATOM     16  H   UNL     1      13.236 -51.402 -24.123  1.00  0.00     0.166 HD
ENDROOT
BRANCH   4  17
ATOM     17  N   UNL     1       8.997 -49.948 -21.627  1.00  0.00    -0.300 NA
ATOM     18  H   UNL     1       8.314 -49.475 -22.221  1.00  0.00     0.188 HD
ENDBRANCH   4  17
TORSDOF 1
ENDMDL
MODEL 5
REMARK VINA RESULT:    -7.660      3.616      5.837
REMARK INTER + INTRA:          -7.884
REMARK INTER:                  -7.884
REMARK INTRA:                   0.000
REMARK UNBOUND:                 0.000
REMARK SMILES N=c1c2c([nH]c3cc(Cl)ccc13)CCCC2
REMARK SMILES IDX 5 1 4 2 3 3 2 4 12 5 11 6 10 7 8 8 9 9 7 10 6 11 16 12 15 13
REMARK SMILES IDX 14 14 13 15 1 17
REMARK H PARENT 5 16 1 18
ROOT
ATOM      1  N   UNL     1      12.456 -50.470 -23.852  1.00  0.00    -0.358 N 
ATOM      2  C   UNL     1      11.739 -51.548 -23.381  1.00  0.00     0.020 A 
ATOM      3  C   UNL     1      10.616 -51.424 -22.642  1.00  0.00    -0.003 A 
ATOM      4  C   UNL     1      10.114 -50.037 -22.332  1.00  0.00     0.068 A 
ATOM      5  C   UNL     1      10.953 -48.890 -22.787  1.00  0.00     0.023 A 
ATOM      6  C   UNL     1      10.584 -47.572 -22.484  1.00  0.00     0.014 A 
ATOM      7  C   UNL     1      11.373 -46.511 -22.926  1.00  0.00     0.021 A 
ATOM      8  C   UNL     1      12.521 -46.770 -23.672  1.00  0.00     0.043 A 
ATOM      9  Cl  UNL     1      13.491 -45.460 -24.226  1.00  0.00    -0.084 Cl
ATOM     10  C   UNL     1      12.891 -48.081 -23.979  1.00  0.00     0.047 A 
ATOM     11  C   UNL     1      12.114 -49.153 -23.528  1.00  0.00     0.049 A 
ATOM     12  C   UNL     1       9.851 -52.600 -22.097  1.00  0.00     0.039 C 
ATOM     13  C   UNL     1      10.603 -53.929 -22.203  1.00  0.00     0.005 C 
ATOM     14  C   UNL     1      11.294 -54.055 -23.551  1.00  0.00     0.007 C 
ATOM     15  C   UNL     1      12.286 -52.911 -23.755  1.00  0.00     0.054 C 
ATOM     16  H   UNL     1      13.350 -50.645 -24.295  1.00  0.00     0.166 HD
ENDROOT
BRANCH   4  17
ATOM     17  N   UNL     1       9.006 -49.793 -21.704  1.00  0.00    -0.300 NA
ATOM     18  H   UNL     1       8.861 -48.793 -21.559  1.00  0.00     0.188 HD
ENDBRANCH   4  17
TORSDOF 1
ENDMDL
MODEL 6
REMARK VINA RESULT:    -7.481      3.024      4.532
REMARK INTER + INTRA:          -7.699
REMARK INTER:                  -7.699
REMARK INTRA:                   0.000
REMARK UNBOUND:                 0.000
REMARK SMILES N=c1c2c([nH]c3cc(Cl)ccc13)CCCC2
REMARK SMILES IDX 5 1 4 2 3 3 2 4 12 5 11 6 10 7 8 8 9 9 7 10 6 11 16 12 15 13
REMARK SMILES IDX 14 14 13 15 1 17
REMARK H PARENT 5 16 1 18
ROOT
ATOM      1  N   UNL     1      10.433 -48.446 -22.295  1.00  0.00    -0.358 N 
ATOM      2  C   UNL     1      10.911 -47.285 -22.861  1.00  0.00     0.020 A 
ATOM      3  C   UNL     1      11.896 -47.264 -23.786  1.00  0.00    -0.003 A 
ATOM      4  C   UNL     1      12.486 -48.576 -24.231  1.00  0.00     0.068 A 
ATOM      5  C   UNL     1      12.004 -49.810 -23.544  1.00  0.00     0.023 A 
ATOM      6  C   UNL     1      12.549 -51.062 -23.860  1.00  0.00     0.014 A 
ATOM      7  C   UNL     1      12.080 -52.207 -23.217  1.00  0.00     0.021 A 
ATOM      8  C   UNL     1      11.066 -52.097 -22.266  1.00  0.00     0.043 A 
ATOM      9  Cl  UNL     1      10.480 -53.509 -21.478  1.00  0.00    -0.084 Cl
ATOM     10  C   UNL     1      10.518 -50.852 -21.950  1.00  0.00     0.047 A 
ATOM     11  C   UNL     1      10.992 -49.696 -22.580  1.00  0.00     0.049 A 
ATOM     12  C   UNL     1      12.443 -45.994 -24.380  1.00  0.00     0.039 C 
ATOM     13  C   UNL     1      12.000 -44.727 -23.646  1.00  0.00     0.005 C 
ATOM     14  C   UNL     1      10.526 -44.798 -23.282  1.00  0.00     0.007 C 
ATOM     15  C   UNL     1      10.251 -46.006 -22.387  1.00  0.00     0.054 C 
ATOM     16  H   UNL     1       9.780 -48.370 -21.524  1.00  0.00     0.166 HD
ENDROOT
BRANCH   4  17
ATOM     17  N   UNL     1      13.375 -48.688 -25.169  1.00  0.00    -0.300 NA
ATOM     18  H   UNL     1      12.958 -48.633 -26.100  1.00  0.00     0.188 HD
ENDBRANCH   4  17
TORSDOF 1
ENDMDL
MODEL 7
REMARK VINA RESULT:    -7.053      3.590      6.477
REMARK INTER + INTRA:          -7.260
REMARK INTER:                  -7.260
REMARK INTRA:                   0.000
REMARK UNBOUND:                 0.000
REMARK SMILES N=c1c2c([nH]c3cc(Cl)ccc13)CCCC2
REMARK SMILES IDX 5 1 4 2 3 3 2 4 12 5 11 6 10 7 8 8 9 9 7 10 6 11 16 12 15 13
REMARK SMILES IDX 14 14 13 15 1 17
REMARK H PARENT 5 16 1 18
ROOT
ATOM      1  N   UNL     1      12.873 -49.007 -24.094  1.00  0.00    -0.358 N 
ATOM      2  C   UNL     1      12.392 -50.201 -23.602  1.00  0.00     0.020 A 
ATOM      3  C   UNL     1      12.618 -51.392 -24.200  1.00  0.00    -0.003 A 
ATOM      4  C   UNL     1      13.450 -51.414 -25.455  1.00  0.00     0.068 A 
ATOM      5  C   UNL     1      13.890 -50.100 -26.008  1.00  0.00     0.023 A 
ATOM      6  C   UNL     1      14.615 -50.035 -27.205  1.00  0.00     0.014 A 
ATOM      7  C   UNL     1      15.028 -48.799 -27.702  1.00  0.00     0.021 A 
ATOM      8  C   UNL     1      14.719 -47.636 -26.999  1.00  0.00     0.043 A 
ATOM      9  Cl  UNL     1      15.236 -46.111 -27.606  1.00  0.00    -0.084 Cl
ATOM     10  C   UNL     1      14.000 -47.696 -25.804  1.00  0.00     0.047 A 
ATOM     11  C   UNL     1      13.569 -48.929 -25.305  1.00  0.00     0.049 A 
ATOM     12  C   UNL     1      12.065 -52.693 -23.683  1.00  0.00     0.039 C 
ATOM     13  C   UNL     1      10.997 -52.524 -22.601  1.00  0.00     0.005 C 
ATOM     14  C   UNL     1      11.394 -51.444 -21.609  1.00  0.00     0.007 C 
ATOM     15  C   UNL     1      11.588 -50.105 -22.322  1.00  0.00     0.054 C 
ATOM     16  H   UNL     1      12.560 -48.148 -23.657  1.00  0.00     0.166 HD
ENDROOT
BRANCH   4  17
ATOM     17  N   UNL     1      13.803 -52.501 -26.070  1.00  0.00    -0.300 NA
ATOM     18  H   UNL     1      12.996 -53.029 -26.406  1.00  0.00     0.188 HD
ENDBRANCH   4  17
TORSDOF 1
ENDMDL
MODEL 8
REMARK VINA RESULT:    -6.939      4.654      6.668
REMARK INTER + INTRA:          -7.142
REMARK INTER:                  -7.142
REMARK INTRA:                   0.000
REMARK UNBOUND:                 0.000
REMARK SMILES N=c1c2c([nH]c3cc(Cl)ccc13)CCCC2
REMARK SMILES IDX 5 1 4 2 3 3 2 4 12 5 11 6 10 7 8 8 9 9 7 10 6 11 16 12 15 13
REMARK SMILES IDX 14 14 13 15 1 17
REMARK H PARENT 5 16 1 18
ROOT
ATOM      1  N   UNL     1      12.779 -47.822 -24.722  1.00  0.00    -0.358 N 
ATOM      2  C   UNL     1      12.673 -49.138 -24.331  1.00  0.00     0.020 A 
ATOM      3  C   UNL     1      11.787 -49.566 -23.405  1.00  0.00    -0.003 A 
ATOM      4  C   UNL     1      10.860 -48.555 -22.784  1.00  0.00     0.068 A 
ATOM      5  C   UNL     1      11.050 -47.126 -23.168  1.00  0.00     0.023 A 
ATOM      6  C   UNL     1      10.266 -46.120 -22.587  1.00  0.00     0.014 A 
ATOM      7  C   UNL     1      10.449 -44.790 -22.965  1.00  0.00     0.021 A 
ATOM      8  C   UNL     1      11.410 -44.472 -23.924  1.00  0.00     0.043 A 
ATOM      9  Cl  UNL     1      11.631 -42.833 -24.399  1.00  0.00    -0.084 Cl
ATOM     10  C   UNL     1      12.191 -45.472 -24.508  1.00  0.00     0.047 A 
ATOM     11  C   UNL     1      12.024 -46.807 -24.125  1.00  0.00     0.049 A 
ATOM     12  C   UNL     1      11.694 -50.998 -22.951  1.00  0.00     0.039 C 
ATOM     13  C   UNL     1      12.867 -51.869 -23.406  1.00  0.00     0.005 C 
ATOM     14  C   UNL     1      13.233 -51.573 -24.851  1.00  0.00     0.007 C 
ATOM     15  C   UNL     1      13.618 -50.103 -25.018  1.00  0.00     0.054 C 
ATOM     16  H   UNL     1      13.547 -47.562 -25.330  1.00  0.00     0.166 HD
ENDROOT
BRANCH   4  17
ATOM     17  N   UNL     1       9.915 -48.858 -21.948  1.00  0.00    -0.300 NA
ATOM     18  H   UNL     1       9.342 -48.047 -21.707  1.00  0.00     0.188 HD
ENDBRANCH   4  17
TORSDOF 1
ENDMDL
MODEL 9
REMARK VINA RESULT:    -6.722      3.269      4.601
REMARK INTER + INTRA:          -6.918
REMARK INTER:                  -6.918
REMARK INTRA:                   0.000
REMARK UNBOUND:                 0.000
REMARK SMILES N=c1c2c([nH]c3cc(Cl)ccc13)CCCC2
REMARK SMILES IDX 5 1 4 2 3 3 2 4 12 5 11 6 10 7 8 8 9 9 7 10 6 11 16 12 15 13
REMARK SMILES IDX 14 14 13 15 1 17
REMARK H PARENT 5 16 1 18
ROOT
ATOM      1  N   UNL     1      13.052 -48.012 -24.855  1.00  0.00    -0.358 N 
ATOM      2  C   UNL     1      12.319 -46.978 -24.316  1.00  0.00     0.020 A 
ATOM      3  C   UNL     1      11.362 -47.159 -23.380  1.00  0.00    -0.003 A 
ATOM      4  C   UNL     1      11.097 -48.559 -22.891  1.00  0.00     0.068 A 
ATOM      5  C   UNL     1      11.849 -49.666 -23.549  1.00  0.00     0.023 A 
ATOM      6  C   UNL     1      11.613 -51.001 -23.192  1.00  0.00     0.014 A 
ATOM      7  C   UNL     1      12.332 -52.024 -23.809  1.00  0.00     0.021 A 
ATOM      8  C   UNL     1      13.286 -51.709 -24.774  1.00  0.00     0.043 A 
ATOM      9  Cl  UNL     1      14.181 -52.969 -25.530  1.00  0.00    -0.084 Cl
ATOM     10  C   UNL     1      13.527 -50.381 -25.132  1.00  0.00     0.047 A 
ATOM     11  C   UNL     1      12.801 -49.349 -24.528  1.00  0.00     0.049 A 
ATOM     12  C   UNL     1      10.537 -46.034 -22.815  1.00  0.00     0.039 C 
ATOM     13  C   UNL     1      10.668 -44.721 -23.589  1.00  0.00     0.005 C 
ATOM     14  C   UNL     1      12.116 -44.458 -23.969  1.00  0.00     0.007 C 
ATOM     15  C   UNL     1      12.660 -45.595 -24.833  1.00  0.00     0.054 C 
ATOM     16  H   UNL     1      13.665 -47.810 -25.636  1.00  0.00     0.166 HD
ENDROOT
BRANCH   4  17
ATOM     17  N   UNL     1      10.263 -48.846 -21.939  1.00  0.00    -0.300 NA
ATOM     18  H   UNL     1       9.394 -49.244 -22.299  1.00  0.00     0.188 HD
ENDBRANCH   4  17
TORSDOF 1
ENDMDL
