MODEL 1
REMARK VINA RESULT:   -13.162      0.000      0.000
REMARK INTER + INTRA:         -19.650
REMARK INTER:                 -18.548
REMARK INTRA:                  -1.102
REMARK UNBOUND:                -1.102
REMARK SMILES O=C(Nc1ccccc1)c1ccc2c(c1)C(=O)N(CC[C@H]1CC[N@H+](Cc3ccccc3)CC1)C2=O
REMARK SMILES IDX 20 1 21 2 23 3 24 4 22 5 32 6 33 7 25 9 26 10 27 11 31 12
REMARK SMILES IDX 28 13 30 14 29 15 19 16 18 17 16 18 34 19 14 20 13 21 15 22
REMARK SMILES IDX 12 23 10 24 11 25 17 26 35 27 2 28 3 29 1 30 4 32 5 33 9 34
REMARK SMILES IDX 6 35 8 36 7 37
REMARK H PARENT 24 8 3 31
ROOT
ATOM      1  C   UNL     1      11.266 -56.594 -21.654  1.00  0.00     0.026 C 
ENDROOT
BRANCH   1   2
ATOM      2  C   UNL     1      11.542 -58.090 -21.895  1.00  0.00     0.002 C 
ATOM      3  C   UNL     1      10.648 -60.456 -21.685  1.00  0.00     0.262 C 
ATOM      4  N   UNL     1      10.815 -60.629 -23.171  1.00  0.00    -0.331 N 
ATOM      5  C   UNL     1      10.417 -58.986 -21.358  1.00  0.00     0.065 C 
ATOM      6  C   UNL     1      11.967 -59.817 -23.710  1.00  0.00     0.262 C 
ATOM      7  C   UNL     1      11.739 -58.344 -23.397  1.00  0.00     0.065 C 
ATOM      8  H   UNL     1       9.962 -60.280 -23.628  1.00  0.00     0.348 HD
BRANCH   4   9
ATOM      9  C   UNL     1      10.911 -62.096 -23.547  1.00  0.00     0.299 C 
BRANCH   9  10
ATOM     10  C   UNL     1       9.592 -62.684 -23.968  1.00  0.00     0.006 A 
ATOM     11  C   UNL     1       9.037 -62.371 -25.218  1.00  0.00     0.009 A 
ATOM     12  C   UNL     1       8.888 -63.541 -23.106  1.00  0.00     0.009 A 
ATOM     13  C   UNL     1       7.801 -62.898 -25.594  1.00  0.00     0.001 A 
ATOM     14  C   UNL     1       7.652 -64.065 -23.488  1.00  0.00     0.001 A 
ATOM     15  C   UNL     1       7.108 -63.741 -24.729  1.00  0.00     0.000 A 
ENDBRANCH   9  10
ENDBRANCH   4   9
ENDBRANCH   1   2
BRANCH   1  16
ATOM     16  C   UNL     1      10.383 -55.948 -22.727  1.00  0.00     0.129 C 
BRANCH  16  17
ATOM     17  N   UNL     1      10.884 -54.640 -23.098  1.00  0.00    -0.274 N 
ATOM     18  C   UNL     1      10.716 -53.517 -22.335  1.00  0.00     0.261 C 
ATOM     19  C   UNL     1      11.697 -54.410 -24.173  1.00  0.00     0.261 C 
ATOM     20  C   UNL     1      11.430 -52.441 -23.020  1.00  0.00     0.054 A 
ATOM     21  C   UNL     1      12.026 -52.985 -24.146  1.00  0.00     0.053 A 
ATOM     22  C   UNL     1      11.573 -51.109 -22.687  1.00  0.00     0.028 A 
ATOM     23  C   UNL     1      12.802 -52.228 -25.003  1.00  0.00     0.015 A 
ATOM     24  C   UNL     1      12.343 -50.310 -23.547  1.00  0.00     0.041 A 
ATOM     25  C   UNL     1      12.962 -50.871 -24.694  1.00  0.00     0.015 A 
ATOM     26  O   UNL     1      10.124 -53.401 -21.280  1.00  0.00    -0.269 OA
ATOM     27  O   UNL     1      12.112 -55.205 -24.995  1.00  0.00    -0.269 OA
BRANCH  24  28
ATOM     28  C   UNL     1      12.534 -48.877 -23.186  1.00  0.00     0.255 C 
ATOM     29  N   UNL     1      11.596 -48.011 -23.713  1.00  0.00    -0.322 N 
ATOM     30  O   UNL     1      13.469 -48.603 -22.445  1.00  0.00    -0.269 OA
ATOM     31  H   UNL     1      10.810 -48.413 -24.205  1.00  0.00     0.170 HD
BRANCH  29  32
ATOM     32  C   UNL     1      11.557 -46.607 -23.569  1.00  0.00     0.041 A 
ATOM     33  C   UNL     1      12.211 -45.845 -24.547  1.00  0.00     0.026 A 
ATOM     34  C   UNL     1      10.923 -45.947 -22.514  1.00  0.00     0.026 A 
ATOM     35  C   UNL     1      12.224 -44.449 -24.474  1.00  0.00     0.002 A 
ATOM     36  C   UNL     1      10.937 -44.549 -22.442  1.00  0.00     0.002 A 
ATOM     37  C   UNL     1      11.586 -43.802 -23.421  1.00  0.00     0.000 A 
ENDBRANCH  29  32
ENDBRANCH  24  28
ENDBRANCH  16  17
ENDBRANCH   1  16
TORSDOF 7
ENDMDL
MODEL 2
REMARK VINA RESULT:   -12.732      2.432      3.847
REMARK INTER + INTRA:         -19.045
REMARK INTER:                 -17.976
REMARK INTRA:                  -1.069
REMARK UNBOUND:                -1.102
REMARK SMILES O=C(Nc1ccccc1)c1ccc2c(c1)C(=O)N(CC[C@H]1CC[N@H+](Cc3ccccc3)CC1)C2=O
REMARK SMILES IDX 20 1 21 2 23 3 24 4 22 5 32 6 33 7 25 9 26 10 27 11 31 12
REMARK SMILES IDX 28 13 30 14 29 15 19 16 18 17 16 18 34 19 14 20 13 21 15 22
REMARK SMILES IDX 12 23 10 24 11 25 17 26 35 27 2 28 3 29 1 30 4 32 5 33 9 34
REMARK SMILES IDX 6 35 8 36 7 37
REMARK H PARENT 24 8 3 31
ROOT
ATOM      1  C   UNL     1      11.184 -56.515 -21.703  1.00  0.00     0.026 C 
ENDROOT
BRANCH   1   2
ATOM      2  C   UNL     1      11.498 -57.990 -22.009  1.00  0.00     0.002 C 
ATOM      3  C   UNL     1      10.711 -60.396 -21.814  1.00  0.00     0.262 C 
ATOM      4  N   UNL     1      10.780 -60.518 -23.313  1.00  0.00    -0.331 N 
ATOM      5  C   UNL     1      10.448 -58.946 -21.425  1.00  0.00     0.065 C 
ATOM      6  C   UNL     1      11.861 -59.646 -23.903  1.00  0.00     0.262 C 
ATOM      7  C   UNL     1      11.600 -58.193 -23.529  1.00  0.00     0.065 C 
ATOM      8  H   UNL     1       9.885 -60.191 -23.699  1.00  0.00     0.348 HD
BRANCH   4   9
ATOM      9  C   UNL     1      10.905 -61.969 -23.740  1.00  0.00     0.299 C 
BRANCH   9  10
ATOM     10  C   UNL     1       9.582 -62.599 -24.078  1.00  0.00     0.006 A 
ATOM     11  C   UNL     1       8.920 -63.412 -23.145  1.00  0.00     0.009 A 
ATOM     12  C   UNL     1       8.999 -62.399 -25.340  1.00  0.00     0.009 A 
ATOM     13  C   UNL     1       7.705 -64.017 -23.472  1.00  0.00     0.001 A 
ATOM     14  C   UNL     1       7.785 -63.006 -25.661  1.00  0.00     0.001 A 
ATOM     15  C   UNL     1       7.141 -63.816 -24.729  1.00  0.00     0.000 A 
ENDBRANCH   9  10
ENDBRANCH   4   9
ENDBRANCH   1   2
BRANCH   1  16
ATOM     16  C   UNL     1      10.470 -55.785 -22.846  1.00  0.00     0.129 C 
BRANCH  16  17
ATOM     17  N   UNL     1      11.060 -54.484 -23.084  1.00  0.00    -0.274 N 
ATOM     18  C   UNL     1      11.754 -54.159 -24.217  1.00  0.00     0.261 C 
ATOM     19  C   UNL     1      10.872 -53.399 -22.273  1.00  0.00     0.261 C 
ATOM     20  C   UNL     1      12.110 -52.746 -24.094  1.00  0.00     0.054 A 
ATOM     21  C   UNL     1      11.574 -52.282 -22.905  1.00  0.00     0.053 A 
ATOM     22  C   UNL     1      12.816 -51.925 -24.950  1.00  0.00     0.028 A 
ATOM     23  C   UNL     1      11.712 -50.968 -22.502  1.00  0.00     0.015 A 
ATOM     24  C   UNL     1      12.986 -50.586 -24.561  1.00  0.00     0.041 A 
ATOM     25  C   UNL     1      12.428 -50.110 -23.347  1.00  0.00     0.015 A 
ATOM     26  O   UNL     1      12.019 -54.866 -25.170  1.00  0.00    -0.269 OA
ATOM     27  O   UNL     1      10.231 -53.325 -21.242  1.00  0.00    -0.269 OA
BRANCH  24  28
ATOM     28  C   UNL     1      13.719 -49.677 -25.487  1.00  0.00     0.255 C 
ATOM     29  N   UNL     1      14.592 -50.305 -26.354  1.00  0.00    -0.322 N 
ATOM     30  O   UNL     1      13.465 -48.482 -25.419  1.00  0.00    -0.269 OA
ATOM     31  H   UNL     1      14.593 -51.315 -26.369  1.00  0.00     0.170 HD
BRANCH  29  32
ATOM     32  C   UNL     1      15.438 -49.691 -27.303  1.00  0.00     0.041 A 
ATOM     33  C   UNL     1      16.792 -49.564 -26.966  1.00  0.00     0.026 A 
ATOM     34  C   UNL     1      15.002 -49.199 -28.535  1.00  0.00     0.026 A 
ATOM     35  C   UNL     1      17.694 -48.963 -27.848  1.00  0.00     0.002 A 
ATOM     36  C   UNL     1      15.906 -48.597 -29.418  1.00  0.00     0.002 A 
ATOM     37  C   UNL     1      17.250 -48.480 -29.075  1.00  0.00     0.000 A 
ENDBRANCH  29  32
ENDBRANCH  24  28
ENDBRANCH  16  17
ENDBRANCH   1  16
TORSDOF 7
ENDMDL
MODEL 3
REMARK VINA RESULT:   -12.053      2.071      2.395
REMARK INTER + INTRA:         -18.087
REMARK INTER:                 -17.400
REMARK INTRA:                  -0.688
REMARK UNBOUND:                -1.102
REMARK SMILES O=C(Nc1ccccc1)c1ccc2c(c1)C(=O)N(CC[C@H]1CC[N@H+](Cc3ccccc3)CC1)C2=O
REMARK SMILES IDX 20 1 21 2 23 3 24 4 22 5 32 6 33 7 25 9 26 10 27 11 31 12
REMARK SMILES IDX 28 13 30 14 29 15 19 16 18 17 16 18 34 19 14 20 13 21 15 22
REMARK SMILES IDX 12 23 10 24 11 25 17 26 35 27 2 28 3 29 1 30 4 32 5 33 9 34
REMARK SMILES IDX 6 35 8 36 7 37
REMARK H PARENT 24 8 3 31
ROOT
ATOM      1  C   UNL     1      10.938 -56.210 -21.984  1.00  0.00     0.026 C 
ENDROOT
BRANCH   1   2
ATOM      2  C   UNL     1      10.778 -57.651 -22.502  1.00  0.00     0.002 C 
ATOM      3  C   UNL     1       9.272 -59.299 -23.711  1.00  0.00     0.262 C 
ATOM      4  N   UNL     1      10.359 -59.512 -24.731  1.00  0.00    -0.331 N 
ATOM      5  C   UNL     1       9.391 -57.903 -23.112  1.00  0.00     0.065 C 
ATOM      6  C   UNL     1      11.736 -59.348 -24.134  1.00  0.00     0.262 C 
ATOM      7  C   UNL     1      11.868 -57.950 -23.543  1.00  0.00     0.065 C 
ATOM      8  H   UNL     1      10.258 -58.791 -25.457  1.00  0.00     0.348 HD
BRANCH   4   9
ATOM      9  C   UNL     1      10.190 -60.840 -25.445  1.00  0.00     0.299 C 
BRANCH   9  10
ATOM     10  C   UNL     1       9.517 -61.883 -24.597  1.00  0.00     0.006 A 
ATOM     11  C   UNL     1      10.161 -62.410 -23.467  1.00  0.00     0.009 A 
ATOM     12  C   UNL     1       8.239 -62.359 -24.934  1.00  0.00     0.009 A 
ATOM     13  C   UNL     1       9.544 -63.397 -22.698  1.00  0.00     0.001 A 
ATOM     14  C   UNL     1       7.626 -63.347 -24.162  1.00  0.00     0.001 A 
ATOM     15  C   UNL     1       8.280 -63.866 -23.046  1.00  0.00     0.000 A 
ENDBRANCH   9  10
ENDBRANCH   4   9
ENDBRANCH   1   2
BRANCH   1  16
ATOM     16  C   UNL     1      10.062 -55.188 -22.718  1.00  0.00     0.129 C 
BRANCH  16  17
ATOM     17  N   UNL     1      10.841 -54.043 -23.142  1.00  0.00    -0.274 N 
ATOM     18  C   UNL     1      11.017 -52.919 -22.382  1.00  0.00     0.261 C 
ATOM     19  C   UNL     1      11.598 -54.012 -24.280  1.00  0.00     0.261 C 
ATOM     20  C   UNL     1      11.919 -52.048 -23.134  1.00  0.00     0.054 A 
ATOM     21  C   UNL     1      12.272 -52.714 -24.295  1.00  0.00     0.053 A 
ATOM     22  C   UNL     1      12.413 -50.795 -22.828  1.00  0.00     0.028 A 
ATOM     23  C   UNL     1      13.140 -52.166 -25.220  1.00  0.00     0.015 A 
ATOM     24  C   UNL     1      13.287 -50.205 -23.755  1.00  0.00     0.041 A 
ATOM     25  C   UNL     1      13.655 -50.893 -24.940  1.00  0.00     0.015 A 
ATOM     26  O   UNL     1      10.556 -52.668 -21.285  1.00  0.00    -0.269 OA
ATOM     27  O   UNL     1      11.738 -54.879 -25.122  1.00  0.00    -0.269 OA
BRANCH  24  28
ATOM     28  C   UNL     1      13.854 -48.867 -23.427  1.00  0.00     0.255 C 
ATOM     29  N   UNL     1      14.079 -48.640 -22.083  1.00  0.00    -0.322 N 
ATOM     30  O   UNL     1      14.094 -48.114 -24.362  1.00  0.00    -0.269 OA
ATOM     31  H   UNL     1      13.945 -49.414 -21.448  1.00  0.00     0.170 HD
BRANCH  29  32
ATOM     32  C   UNL     1      14.568 -47.456 -21.490  1.00  0.00     0.041 A 
ATOM     33  C   UNL     1      13.915 -46.260 -21.818  1.00  0.00     0.026 A 
ATOM     34  C   UNL     1      15.656 -47.412 -20.617  1.00  0.00     0.026 A 
ATOM     35  C   UNL     1      14.341 -45.043 -21.277  1.00  0.00     0.002 A 
ATOM     36  C   UNL     1      16.083 -46.193 -20.076  1.00  0.00     0.002 A 
ATOM     37  C   UNL     1      15.425 -45.011 -20.406  1.00  0.00     0.000 A 
ENDBRANCH  29  32
ENDBRANCH  24  28
ENDBRANCH  16  17
ENDBRANCH   1  16
TORSDOF 7
ENDMDL
MODEL 4
REMARK VINA RESULT:   -12.012      1.489      2.212
REMARK INTER + INTRA:         -18.029
REMARK INTER:                 -17.004
REMARK INTRA:                  -1.025
REMARK UNBOUND:                -1.102
REMARK SMILES O=C(Nc1ccccc1)c1ccc2c(c1)C(=O)N(CC[C@H]1CC[N@H+](Cc3ccccc3)CC1)C2=O
REMARK SMILES IDX 20 1 21 2 23 3 24 4 22 5 32 6 33 7 25 9 26 10 27 11 31 12
REMARK SMILES IDX 28 13 30 14 29 15 19 16 18 17 16 18 34 19 14 20 13 21 15 22
REMARK SMILES IDX 12 23 10 24 11 25 17 26 35 27 2 28 3 29 1 30 4 32 5 33 9 34
REMARK SMILES IDX 6 35 8 36 7 37
REMARK H PARENT 24 8 3 31
ROOT
ATOM      1  C   UNL     1       9.192 -56.322 -23.123  1.00  0.00     0.026 C 
ENDROOT
BRANCH   1   2
ATOM      2  C   UNL     1       8.859 -57.824 -23.062  1.00  0.00     0.002 C 
ATOM      3  C   UNL     1       7.399 -59.695 -23.962  1.00  0.00     0.262 C 
ATOM      4  N   UNL     1       8.641 -60.429 -24.393  1.00  0.00    -0.331 N 
ATOM      5  C   UNL     1       7.662 -58.195 -23.950  1.00  0.00     0.065 C 
ATOM      6  C   UNL     1       9.812 -60.141 -23.485  1.00  0.00     0.262 C 
ATOM      7  C   UNL     1      10.090 -58.644 -23.476  1.00  0.00     0.065 C 
ATOM      8  H   UNL     1       8.898 -60.094 -25.330  1.00  0.00     0.348 HD
BRANCH   4   9
ATOM      9  C   UNL     1       8.376 -61.915 -24.546  1.00  0.00     0.299 C 
BRANCH   9  10
ATOM     10  C   UNL     1       8.418 -62.376 -25.977  1.00  0.00     0.006 A 
ATOM     11  C   UNL     1       7.633 -63.459 -26.402  1.00  0.00     0.009 A 
ATOM     12  C   UNL     1       9.259 -61.740 -26.905  1.00  0.00     0.009 A 
ATOM     13  C   UNL     1       7.695 -63.900 -27.724  1.00  0.00     0.001 A 
ATOM     14  C   UNL     1       9.317 -62.186 -28.226  1.00  0.00     0.001 A 
ATOM     15  C   UNL     1       8.538 -63.266 -28.634  1.00  0.00     0.000 A 
ENDBRANCH   9  10
ENDBRANCH   4   9
ENDBRANCH   1   2
BRANCH   1  16
ATOM     16  C   UNL     1      10.513 -55.954 -22.439  1.00  0.00     0.129 C 
BRANCH  16  17
ATOM     17  N   UNL     1      10.972 -54.646 -22.861  1.00  0.00    -0.274 N 
ATOM     18  C   UNL     1      10.850 -53.515 -22.101  1.00  0.00     0.261 C 
ATOM     19  C   UNL     1      11.700 -54.421 -23.997  1.00  0.00     0.261 C 
ATOM     20  C   UNL     1      11.500 -52.441 -22.850  1.00  0.00     0.054 A 
ATOM     21  C   UNL     1      12.016 -52.993 -24.010  1.00  0.00     0.053 A 
ATOM     22  C   UNL     1      11.653 -51.103 -22.543  1.00  0.00     0.028 A 
ATOM     23  C   UNL     1      12.718 -52.240 -24.932  1.00  0.00     0.015 A 
ATOM     24  C   UNL     1      12.349 -50.308 -23.467  1.00  0.00     0.041 A 
ATOM     25  C   UNL     1      12.887 -50.877 -24.650  1.00  0.00     0.015 A 
ATOM     26  O   UNL     1      10.336 -53.392 -21.006  1.00  0.00    -0.269 OA
ATOM     27  O   UNL     1      12.062 -55.222 -24.837  1.00  0.00    -0.269 OA
BRANCH  24  28
ATOM     28  C   UNL     1      12.552 -48.869 -23.138  1.00  0.00     0.255 C 
ATOM     29  N   UNL     1      11.687 -47.996 -23.771  1.00  0.00    -0.322 N 
ATOM     30  O   UNL     1      13.430 -48.595 -22.330  1.00  0.00    -0.269 OA
ATOM     31  H   UNL     1      10.934 -48.394 -24.314  1.00  0.00     0.170 HD
BRANCH  29  32
ATOM     32  C   UNL     1      11.679 -46.588 -23.676  1.00  0.00     0.041 A 
ATOM     33  C   UNL     1      11.012 -46.025 -22.580  1.00  0.00     0.026 A 
ATOM     34  C   UNL     1      12.279 -45.739 -24.608  1.00  0.00     0.026 A 
ATOM     35  C   UNL     1      10.952 -44.638 -22.417  1.00  0.00     0.002 A 
ATOM     36  C   UNL     1      12.218 -44.350 -24.444  1.00  0.00     0.002 A 
ATOM     37  C   UNL     1      11.557 -43.801 -23.349  1.00  0.00     0.000 A 
ENDBRANCH  29  32
ENDBRANCH  24  28
ENDBRANCH  16  17
ENDBRANCH   1  16
TORSDOF 7
ENDMDL
MODEL 5
REMARK VINA RESULT:   -11.375      2.078     13.418
REMARK INTER + INTRA:         -17.132
REMARK INTER:                 -16.102
REMARK INTRA:                  -1.030
REMARK UNBOUND:                -1.102
REMARK SMILES O=C(Nc1ccccc1)c1ccc2c(c1)C(=O)N(CC[C@H]1CC[N@H+](Cc3ccccc3)CC1)C2=O
REMARK SMILES IDX 20 1 21 2 23 3 24 4 22 5 32 6 33 7 25 9 26 10 27 11 31 12
REMARK SMILES IDX 28 13 30 14 29 15 19 16 18 17 16 18 34 19 14 20 13 21 15 22
REMARK SMILES IDX 12 23 10 24 11 25 17 26 35 27 2 28 3 29 1 30 4 32 5 33 9 34
REMARK SMILES IDX 6 35 8 36 7 37
REMARK H PARENT 24 8 3 31
ROOT
ATOM      1  C   UNL     1      12.541 -48.938 -24.637  1.00  0.00     0.026 C 
ENDROOT
BRANCH   1   2
ATOM      2  C   UNL     1      12.409 -47.760 -23.655  1.00  0.00     0.002 C 
ATOM      3  C   UNL     1      13.035 -45.350 -23.160  1.00  0.00     0.262 C 
ATOM      4  N   UNL     1      11.572 -45.005 -23.097  1.00  0.00    -0.331 N 
ATOM      5  C   UNL     1      13.246 -46.545 -24.082  1.00  0.00     0.065 C 
ATOM      6  C   UNL     1      10.737 -46.161 -22.603  1.00  0.00     0.262 C 
ATOM      7  C   UNL     1      10.932 -47.357 -23.526  1.00  0.00     0.065 C 
ATOM      8  H   UNL     1      11.255 -44.792 -24.052  1.00  0.00     0.348 HD
BRANCH   4   9
ATOM      9  C   UNL     1      11.340 -43.737 -22.297  1.00  0.00     0.299 C 
BRANCH   9  10
ATOM     10  C   UNL     1      11.150 -42.521 -23.161  1.00  0.00     0.006 A 
ATOM     11  C   UNL     1      10.977 -41.254 -22.583  1.00  0.00     0.009 A 
ATOM     12  C   UNL     1      11.125 -42.639 -24.561  1.00  0.00     0.009 A 
ATOM     13  C   UNL     1      10.774 -40.132 -23.388  1.00  0.00     0.001 A 
ATOM     14  C   UNL     1      10.922 -41.514 -25.361  1.00  0.00     0.001 A 
ATOM     15  C   UNL     1      10.744 -40.263 -24.774  1.00  0.00     0.000 A 
ENDBRANCH   9  10
ENDBRANCH   4   9
ENDBRANCH   1   2
BRANCH   1  16
ATOM     16  C   UNL     1      13.435 -50.073 -24.125  1.00  0.00     0.129 C 
BRANCH  16  17
ATOM     17  N   UNL     1      12.643 -51.208 -23.697  1.00  0.00    -0.274 N 
ATOM     18  C   UNL     1      12.592 -52.398 -24.371  1.00  0.00     0.261 C 
ATOM     19  C   UNL     1      11.971 -51.267 -22.507  1.00  0.00     0.261 C 
ATOM     20  C   UNL     1      11.751 -53.289 -23.574  1.00  0.00     0.054 A 
ATOM     21  C   UNL     1      11.368 -52.598 -22.437  1.00  0.00     0.053 A 
ATOM     22  C   UNL     1      11.367 -54.596 -23.801  1.00  0.00     0.028 A 
ATOM     23  C   UNL     1      10.580 -53.173 -21.459  1.00  0.00     0.015 A 
ATOM     24  C   UNL     1      10.553 -55.204 -22.832  1.00  0.00     0.041 A 
ATOM     25  C   UNL     1      10.171 -54.498 -21.663  1.00  0.00     0.015 A 
ATOM     26  O   UNL     1      13.145 -52.702 -25.410  1.00  0.00    -0.269 OA
ATOM     27  O   UNL     1      11.892 -50.420 -21.638  1.00  0.00    -0.269 OA
BRANCH  24  28
ATOM     28  C   UNL     1      10.156 -56.624 -23.044  1.00  0.00     0.255 C 
ATOM     29  N   UNL     1      11.077 -57.560 -22.617  1.00  0.00    -0.322 N 
ATOM     30  O   UNL     1       9.057 -56.832 -23.543  1.00  0.00    -0.269 OA
ATOM     31  H   UNL     1      11.885 -57.226 -22.109  1.00  0.00     0.170 HD
BRANCH  29  32
ATOM     32  C   UNL     1      10.980 -58.964 -22.730  1.00  0.00     0.041 A 
ATOM     33  C   UNL     1      11.725 -59.577 -23.747  1.00  0.00     0.026 A 
ATOM     34  C   UNL     1      10.186 -59.761 -21.903  1.00  0.00     0.026 A 
ATOM     35  C   UNL     1      11.679 -60.962 -23.929  1.00  0.00     0.002 A 
ATOM     36  C   UNL     1      10.140 -61.148 -22.086  1.00  0.00     0.002 A 
ATOM     37  C   UNL     1      10.887 -61.747 -23.098  1.00  0.00     0.000 A 
ENDBRANCH  29  32
ENDBRANCH  24  28
ENDBRANCH  16  17
ENDBRANCH   1  16
TORSDOF 7
ENDMDL
MODEL 6
REMARK VINA RESULT:   -11.161      2.314     13.683
REMARK INTER + INTRA:         -16.830
REMARK INTER:                 -15.849
REMARK INTRA:                  -0.981
REMARK UNBOUND:                -1.102
REMARK SMILES O=C(Nc1ccccc1)c1ccc2c(c1)C(=O)N(CC[C@H]1CC[N@H+](Cc3ccccc3)CC1)C2=O
REMARK SMILES IDX 20 1 21 2 23 3 24 4 22 5 32 6 33 7 25 9 26 10 27 11 31 12
REMARK SMILES IDX 28 13 30 14 29 15 19 16 18 17 16 18 34 19 14 20 13 21 15 22
REMARK SMILES IDX 12 23 10 24 11 25 17 26 35 27 2 28 3 29 1 30 4 32 5 33 9 34
REMARK SMILES IDX 6 35 8 36 7 37
REMARK H PARENT 24 8 3 31
ROOT
ATOM      1  C   UNL     1      12.482 -47.814 -24.625  1.00  0.00     0.026 C 
ENDROOT
BRANCH   1   2
ATOM      2  C   UNL     1      12.265 -46.602 -23.700  1.00  0.00     0.002 C 
ATOM      3  C   UNL     1      12.888 -44.191 -23.207  1.00  0.00     0.262 C 
ATOM      4  N   UNL     1      11.435 -43.813 -23.325  1.00  0.00    -0.331 N 
ATOM      5  C   UNL     1      13.175 -45.419 -24.062  1.00  0.00     0.065 C 
ATOM      6  C   UNL     1      10.522 -44.936 -22.898  1.00  0.00     0.262 C 
ATOM      7  C   UNL     1      10.794 -46.165 -23.755  1.00  0.00     0.065 C 
ATOM      8  H   UNL     1      11.237 -43.626 -24.317  1.00  0.00     0.348 HD
BRANCH   4   9
ATOM      9  C   UNL     1      11.143 -42.516 -22.595  1.00  0.00     0.299 C 
BRANCH   9  10
ATOM     10  C   UNL     1      10.973 -41.344 -23.522  1.00  0.00     0.006 A 
ATOM     11  C   UNL     1      11.280 -41.462 -24.886  1.00  0.00     0.009 A 
ATOM     12  C   UNL     1      10.522 -40.107 -23.031  1.00  0.00     0.009 A 
ATOM     13  C   UNL     1      11.146 -40.365 -25.738  1.00  0.00     0.001 A 
ATOM     14  C   UNL     1      10.390 -39.014 -23.888  1.00  0.00     0.001 A 
ATOM     15  C   UNL     1      10.705 -39.142 -25.239  1.00  0.00     0.000 A 
ENDBRANCH   9  10
ENDBRANCH   4   9
ENDBRANCH   1   2
BRANCH   1  16
ATOM     16  C   UNL     1      13.631 -48.728 -24.187  1.00  0.00     0.129 C 
BRANCH  16  17
ATOM     17  N   UNL     1      13.222 -50.117 -24.188  1.00  0.00    -0.274 N 
ATOM     18  C   UNL     1      12.426 -50.678 -23.227  1.00  0.00     0.261 C 
ATOM     19  C   UNL     1      13.466 -50.985 -25.217  1.00  0.00     0.261 C 
ATOM     20  C   UNL     1      12.192 -52.061 -23.638  1.00  0.00     0.054 A 
ATOM     21  C   UNL     1      12.830 -52.250 -24.852  1.00  0.00     0.053 A 
ATOM     22  C   UNL     1      11.467 -53.065 -23.026  1.00  0.00     0.028 A 
ATOM     23  C   UNL     1      12.780 -53.455 -25.527  1.00  0.00     0.015 A 
ATOM     24  C   UNL     1      11.410 -54.306 -23.680  1.00  0.00     0.041 A 
ATOM     25  C   UNL     1      12.056 -54.495 -24.929  1.00  0.00     0.015 A 
ATOM     26  O   UNL     1      11.964 -50.157 -22.230  1.00  0.00    -0.269 OA
ATOM     27  O   UNL     1      14.060 -50.779 -26.258  1.00  0.00    -0.269 OA
BRANCH  24  28
ATOM     28  C   UNL     1      10.607 -55.391 -23.050  1.00  0.00     0.255 C 
ATOM     29  N   UNL     1      11.118 -56.665 -23.209  1.00  0.00    -0.322 N 
ATOM     30  O   UNL     1       9.601 -55.062 -22.435  1.00  0.00    -0.269 OA
ATOM     31  H   UNL     1      12.028 -56.755 -23.638  1.00  0.00     0.170 HD
BRANCH  29  32
ATOM     32  C   UNL     1      10.547 -57.874 -22.756  1.00  0.00     0.041 A 
ATOM     33  C   UNL     1      11.191 -58.527 -21.696  1.00  0.00     0.026 A 
ATOM     34  C   UNL     1       9.401 -58.451 -23.306  1.00  0.00     0.026 A 
ATOM     35  C   UNL     1      10.693 -59.732 -21.193  1.00  0.00     0.002 A 
ATOM     36  C   UNL     1       8.904 -59.658 -22.801  1.00  0.00     0.002 A 
ATOM     37  C   UNL     1       9.549 -60.297 -21.746  1.00  0.00     0.000 A 
ENDBRANCH  29  32
ENDBRANCH  24  28
ENDBRANCH  16  17
ENDBRANCH   1  16
TORSDOF 7
ENDMDL
MODEL 7
REMARK VINA RESULT:   -11.161      4.490     12.014
REMARK INTER + INTRA:         -16.830
REMARK INTER:                 -15.649
REMARK INTRA:                  -1.181
REMARK UNBOUND:                -1.102
REMARK SMILES O=C(Nc1ccccc1)c1ccc2c(c1)C(=O)N(CC[C@H]1CC[N@H+](Cc3ccccc3)CC1)C2=O
REMARK SMILES IDX 20 1 21 2 23 3 24 4 22 5 32 6 33 7 25 9 26 10 27 11 31 12
REMARK SMILES IDX 28 13 30 14 29 15 19 16 18 17 16 18 34 19 14 20 13 21 15 22
REMARK SMILES IDX 12 23 10 24 11 25 17 26 35 27 2 28 3 29 1 30 4 32 5 33 9 34
REMARK SMILES IDX 6 35 8 36 7 37
REMARK H PARENT 24 8 3 31
ROOT
ATOM      1  C   UNL     1      15.055 -48.673 -24.452  1.00  0.00     0.026 C 
ENDROOT
BRANCH   1   2
ATOM      2  C   UNL     1      15.779 -48.018 -25.643  1.00  0.00     0.002 C 
ATOM      3  C   UNL     1      17.303 -48.384 -27.640  1.00  0.00     0.262 C 
ATOM      4  N   UNL     1      16.233 -47.816 -28.534  1.00  0.00    -0.331 N 
ATOM      5  C   UNL     1      16.667 -49.012 -26.407  1.00  0.00     0.065 C 
ATOM      6  C   UNL     1      15.397 -46.777 -27.827  1.00  0.00     0.262 C 
ATOM      7  C   UNL     1      14.747 -47.399 -26.599  1.00  0.00     0.065 C 
ATOM      8  H   UNL     1      15.600 -48.582 -28.797  1.00  0.00     0.348 HD
BRANCH   4   9
ATOM      9  C   UNL     1      16.819 -47.303 -29.836  1.00  0.00     0.299 C 
BRANCH   9  10
ATOM     10  C   UNL     1      16.284 -48.019 -31.046  1.00  0.00     0.006 A 
ATOM     11  C   UNL     1      17.159 -48.534 -32.015  1.00  0.00     0.009 A 
ATOM     12  C   UNL     1      14.900 -48.166 -31.232  1.00  0.00     0.009 A 
ATOM     13  C   UNL     1      16.657 -49.174 -33.149  1.00  0.00     0.001 A 
ATOM     14  C   UNL     1      14.405 -48.807 -32.368  1.00  0.00     0.001 A 
ATOM     15  C   UNL     1      15.283 -49.308 -33.326  1.00  0.00     0.000 A 
ENDBRANCH   9  10
ENDBRANCH   4   9
ENDBRANCH   1   2
BRANCH   1  16
ATOM     16  C   UNL     1      13.552 -48.868 -24.674  1.00  0.00     0.129 C 
BRANCH  16  17
ATOM     17  N   UNL     1      13.186 -50.266 -24.571  1.00  0.00    -0.274 N 
ATOM     18  C   UNL     1      12.414 -50.778 -23.565  1.00  0.00     0.261 C 
ATOM     19  C   UNL     1      13.451 -51.198 -25.536  1.00  0.00     0.261 C 
ATOM     20  C   UNL     1      12.220 -52.195 -23.872  1.00  0.00     0.054 A 
ATOM     21  C   UNL     1      12.857 -52.453 -25.074  1.00  0.00     0.053 A 
ATOM     22  C   UNL     1      11.531 -53.173 -23.183  1.00  0.00     0.028 A 
ATOM     23  C   UNL     1      12.841 -53.704 -25.659  1.00  0.00     0.015 A 
ATOM     24  C   UNL     1      11.509 -54.459 -23.744  1.00  0.00     0.041 A 
ATOM     25  C   UNL     1      12.153 -54.719 -24.981  1.00  0.00     0.015 A 
ATOM     26  O   UNL     1      11.941 -50.200 -22.606  1.00  0.00    -0.269 OA
ATOM     27  O   UNL     1      14.033 -51.051 -26.594  1.00  0.00    -0.269 OA
BRANCH  24  28
ATOM     28  C   UNL     1      10.744 -55.520 -23.030  1.00  0.00     0.255 C 
ATOM     29  N   UNL     1      11.202 -56.807 -23.230  1.00  0.00    -0.322 N 
ATOM     30  O   UNL     1       9.812 -55.161 -22.321  1.00  0.00    -0.269 OA
ATOM     31  H   UNL     1      12.063 -56.924 -23.746  1.00  0.00     0.170 HD
BRANCH  29  32
ATOM     32  C   UNL     1      10.648 -57.999 -22.713  1.00  0.00     0.041 A 
ATOM     33  C   UNL     1       9.456 -58.453 -23.294  1.00  0.00     0.026 A 
ATOM     34  C   UNL     1      11.208 -58.730 -21.664  1.00  0.00     0.026 A 
ATOM     35  C   UNL     1       8.840 -59.621 -22.836  1.00  0.00     0.002 A 
ATOM     36  C   UNL     1      10.590 -59.900 -21.206  1.00  0.00     0.002 A 
ATOM     37  C   UNL     1       9.408 -60.345 -21.792  1.00  0.00     0.000 A 
ENDBRANCH  29  32
ENDBRANCH  24  28
ENDBRANCH  16  17
ENDBRANCH   1  16
TORSDOF 7
ENDMDL
MODEL 8
REMARK VINA RESULT:   -11.108      4.405     11.976
REMARK INTER + INTRA:         -16.755
REMARK INTER:                 -15.597
REMARK INTRA:                  -1.158
REMARK UNBOUND:                -1.102
REMARK SMILES O=C(Nc1ccccc1)c1ccc2c(c1)C(=O)N(CC[C@H]1CC[N@H+](Cc3ccccc3)CC1)C2=O
REMARK SMILES IDX 20 1 21 2 23 3 24 4 22 5 32 6 33 7 25 9 26 10 27 11 31 12
REMARK SMILES IDX 28 13 30 14 29 15 19 16 18 17 16 18 34 19 14 20 13 21 15 22
REMARK SMILES IDX 12 23 10 24 11 25 17 26 35 27 2 28 3 29 1 30 4 32 5 33 9 34
REMARK SMILES IDX 6 35 8 36 7 37
REMARK H PARENT 24 8 3 31
ROOT
ATOM      1  C   UNL     1      13.499 -48.513 -25.183  1.00  0.00     0.026 C 
ENDROOT
BRANCH   1   2
ATOM      2  C   UNL     1      14.669 -48.320 -26.166  1.00  0.00     0.002 C 
ATOM      3  C   UNL     1      15.871 -49.221 -28.213  1.00  0.00     0.262 C 
ATOM      4  N   UNL     1      15.639 -47.903 -28.903  1.00  0.00    -0.331 N 
ATOM      5  C   UNL     1      14.774 -49.465 -27.183  1.00  0.00     0.065 C 
ATOM      6  C   UNL     1      15.611 -46.751 -27.929  1.00  0.00     0.262 C 
ATOM      7  C   UNL     1      14.510 -46.981 -26.902  1.00  0.00     0.065 C 
ATOM      8  H   UNL     1      14.715 -47.939 -29.352  1.00  0.00     0.348 HD
BRANCH   4   9
ATOM      9  C   UNL     1      16.634 -47.690 -30.028  1.00  0.00     0.299 C 
BRANCH   9  10
ATOM     10  C   UNL     1      16.284 -48.451 -31.277  1.00  0.00     0.006 A 
ATOM     11  C   UNL     1      14.975 -48.429 -31.783  1.00  0.00     0.009 A 
ATOM     12  C   UNL     1      17.258 -49.212 -31.944  1.00  0.00     0.009 A 
ATOM     13  C   UNL     1      14.648 -49.158 -32.927  1.00  0.00     0.001 A 
ATOM     14  C   UNL     1      16.925 -49.939 -33.087  1.00  0.00     0.001 A 
ATOM     15  C   UNL     1      15.621 -49.914 -33.576  1.00  0.00     0.000 A 
ENDBRANCH   9  10
ENDBRANCH   4   9
ENDBRANCH   1   2
BRANCH   1  16
ATOM     16  C   UNL     1      13.885 -49.263 -23.904  1.00  0.00     0.129 C 
BRANCH  16  17
ATOM     17  N   UNL     1      12.968 -50.352 -23.641  1.00  0.00    -0.274 N 
ATOM     18  C   UNL     1      13.164 -51.634 -24.077  1.00  0.00     0.261 C 
ATOM     19  C   UNL     1      11.882 -50.256 -22.815  1.00  0.00     0.261 C 
ATOM     20  C   UNL     1      12.060 -52.428 -23.540  1.00  0.00     0.054 A 
ATOM     21  C   UNL     1      11.275 -51.586 -22.771  1.00  0.00     0.053 A 
ATOM     22  C   UNL     1      11.773 -53.771 -23.683  1.00  0.00     0.028 A 
ATOM     23  C   UNL     1      10.155 -52.037 -22.099  1.00  0.00     0.015 A 
ATOM     24  C   UNL     1      10.632 -54.257 -23.023  1.00  0.00     0.041 A 
ATOM     25  C   UNL     1       9.835 -53.395 -22.228  1.00  0.00     0.015 A 
ATOM     26  O   UNL     1      14.074 -52.071 -24.754  1.00  0.00    -0.269 OA
ATOM     27  O   UNL     1      11.484 -49.288 -22.196  1.00  0.00    -0.269 OA
BRANCH  24  28
ATOM     28  C   UNL     1      10.324 -55.710 -23.140  1.00  0.00     0.255 C 
ATOM     29  N   UNL     1      11.339 -56.558 -22.741  1.00  0.00    -0.322 N 
ATOM     30  O   UNL     1       9.210 -56.018 -23.545  1.00  0.00    -0.269 OA
ATOM     31  H   UNL     1      12.154 -56.144 -22.311  1.00  0.00     0.170 HD
BRANCH  29  32
ATOM     32  C   UNL     1      11.335 -57.970 -22.782  1.00  0.00     0.041 A 
ATOM     33  C   UNL     1      11.972 -58.579 -23.871  1.00  0.00     0.026 A 
ATOM     34  C   UNL     1      10.730 -58.777 -21.817  1.00  0.00     0.026 A 
ATOM     35  C   UNL     1      12.008 -59.971 -23.989  1.00  0.00     0.002 A 
ATOM     36  C   UNL     1      10.766 -60.171 -21.936  1.00  0.00     0.002 A 
ATOM     37  C   UNL     1      11.405 -60.767 -23.020  1.00  0.00     0.000 A 
ENDBRANCH  29  32
ENDBRANCH  24  28
ENDBRANCH  16  17
ENDBRANCH   1  16
TORSDOF 7
ENDMDL
MODEL 9
REMARK VINA RESULT:   -11.087      2.119     13.618
REMARK INTER + INTRA:         -16.726
REMARK INTER:                 -15.888
REMARK INTRA:                  -0.838
REMARK UNBOUND:                -1.102
REMARK SMILES O=C(Nc1ccccc1)c1ccc2c(c1)C(=O)N(CC[C@H]1CC[N@H+](Cc3ccccc3)CC1)C2=O
REMARK SMILES IDX 20 1 21 2 23 3 24 4 22 5 32 6 33 7 25 9 26 10 27 11 31 12
REMARK SMILES IDX 28 13 30 14 29 15 19 16 18 17 16 18 34 19 14 20 13 21 15 22
REMARK SMILES IDX 12 23 10 24 11 25 17 26 35 27 2 28 3 29 1 30 4 32 5 33 9 34
REMARK SMILES IDX 6 35 8 36 7 37
REMARK H PARENT 24 8 3 31
ROOT
ATOM      1  C   UNL     1      10.927 -48.463 -22.741  1.00  0.00     0.026 C 
ENDROOT
BRANCH   1   2
ATOM      2  C   UNL     1      10.989 -47.055 -23.360  1.00  0.00     0.002 C 
ATOM      3  C   UNL     1      10.481 -44.589 -23.040  1.00  0.00     0.262 C 
ATOM      4  N   UNL     1      11.938 -44.281 -23.261  1.00  0.00    -0.331 N 
ATOM      5  C   UNL     1      10.329 -45.993 -22.469  1.00  0.00     0.065 C 
ATOM      6  C   UNL     1      12.589 -45.267 -24.199  1.00  0.00     0.262 C 
ATOM      7  C   UNL     1      12.453 -46.674 -23.630  1.00  0.00     0.065 C 
ATOM      8  H   UNL     1      12.419 -44.364 -22.356  1.00  0.00     0.348 HD
BRANCH   4   9
ATOM      9  C   UNL     1      12.135 -42.842 -23.701  1.00  0.00     0.299 C 
BRANCH   9  10
ATOM     10  C   UNL     1      12.096 -41.866 -22.558  1.00  0.00     0.006 A 
ATOM     11  C   UNL     1      13.118 -41.853 -21.596  1.00  0.00     0.009 A 
ATOM     12  C   UNL     1      11.026 -40.966 -22.426  1.00  0.00     0.009 A 
ATOM     13  C   UNL     1      13.064 -40.963 -20.522  1.00  0.00     0.001 A 
ATOM     14  C   UNL     1      10.978 -40.079 -21.350  1.00  0.00     0.001 A 
ATOM     15  C   UNL     1      11.995 -40.080 -20.398  1.00  0.00     0.000 A 
ENDBRANCH   9  10
ENDBRANCH   4   9
ENDBRANCH   1   2
BRANCH   1  16
ATOM     16  C   UNL     1      12.288 -49.162 -22.655  1.00  0.00     0.129 C 
BRANCH  16  17
ATOM     17  N   UNL     1      12.178 -50.564 -23.000  1.00  0.00    -0.274 N 
ATOM     18  C   UNL     1      11.439 -51.468 -22.287  1.00  0.00     0.261 C 
ATOM     19  C   UNL     1      12.682 -51.110 -24.149  1.00  0.00     0.261 C 
ATOM     20  C   UNL     1      11.532 -52.738 -23.006  1.00  0.00     0.054 A 
ATOM     21  C   UNL     1      12.294 -52.520 -24.142  1.00  0.00     0.053 A 
ATOM     22  C   UNL     1      10.983 -53.971 -22.716  1.00  0.00     0.028 A 
ATOM     23  C   UNL     1      12.551 -53.525 -25.055  1.00  0.00     0.015 A 
ATOM     24  C   UNL     1      11.240 -55.016 -23.618  1.00  0.00     0.041 A 
ATOM     25  C   UNL     1      12.012 -54.789 -24.787  1.00  0.00     0.015 A 
ATOM     26  O   UNL     1      10.797 -51.286 -21.271  1.00  0.00    -0.269 OA
ATOM     27  O   UNL     1      13.304 -50.564 -25.039  1.00  0.00    -0.269 OA
BRANCH  24  28
ATOM     28  C   UNL     1      10.630 -56.346 -23.338  1.00  0.00     0.255 C 
ATOM     29  N   UNL     1      11.532 -57.372 -23.129  1.00  0.00    -0.322 N 
ATOM     30  O   UNL     1       9.408 -56.406 -23.290  1.00  0.00    -0.269 OA
ATOM     31  H   UNL     1      12.512 -57.130 -23.078  1.00  0.00     0.170 HD
BRANCH  29  32
ATOM     32  C   UNL     1      11.236 -58.730 -22.886  1.00  0.00     0.041 A 
ATOM     33  C   UNL     1      11.597 -59.651 -23.878  1.00  0.00     0.026 A 
ATOM     34  C   UNL     1      10.601 -59.197 -21.733  1.00  0.00     0.026 A 
ATOM     35  C   UNL     1      11.334 -61.014 -23.717  1.00  0.00     0.002 A 
ATOM     36  C   UNL     1      10.338 -60.562 -21.572  1.00  0.00     0.002 A 
ATOM     37  C   UNL     1      10.704 -61.469 -22.563  1.00  0.00     0.000 A 
ENDBRANCH  29  32
ENDBRANCH  24  28
ENDBRANCH  16  17
ENDBRANCH   1  16
TORSDOF 7
ENDMDL
