MODEL 1
REMARK VINA RESULT:    -9.134      0.000      0.000
REMARK INTER + INTRA:         -15.881
REMARK INTER:                 -13.406
REMARK INTRA:                  -2.475
REMARK UNBOUND:                -2.475
REMARK SMILES COc1ccc([C@@H](C)NS(=O)(=O)NC(=O)OCc2ccccc2)cc1
REMARK SMILES IDX 9 1 7 3 8 4 6 5 3 6 4 7 25 8 5 9 24 10 2 11 1 12 10 13 11 14
REMARK SMILES IDX 12 15 13 16 14 17 15 19 16 20 17 21 18 22 19 23 23 24 20 25
REMARK SMILES IDX 22 26 21 27
REMARK H PARENT 9 2 13 18
ROOT
ATOM      1  N   UNL     1      10.270 -59.612 -27.399  1.00  0.00    -0.190 NA
ATOM      2  H   UNL     1       9.592 -59.204 -28.046  1.00  0.00     0.143 HD
ENDROOT
BRANCH   1   3
ATOM      3  C   UNL     1       9.914 -60.907 -26.809  1.00  0.00     0.098 C 
ATOM      4  C   UNL     1       9.420 -61.908 -27.854  1.00  0.00     0.031 C 
BRANCH   3   5
ATOM      5  C   UNL     1       8.878 -60.693 -25.714  1.00  0.00    -0.030 A 
ATOM      6  C   UNL     1       6.938 -60.234 -23.712  1.00  0.00     0.118 A 
ATOM      7  C   UNL     1       7.733 -59.186 -24.173  1.00  0.00     0.047 A 
ATOM      8  C   UNL     1       7.108 -61.507 -24.259  1.00  0.00     0.047 A 
ATOM      9  C   UNL     1       8.691 -59.413 -25.169  1.00  0.00     0.009 A 
ATOM     10  C   UNL     1       8.062 -61.737 -25.253  1.00  0.00     0.009 A 
BRANCH   6  11
ATOM     11  O   UNL     1       5.971 -60.148 -22.748  1.00  0.00    -0.497 OA
ATOM     12  C   UNL     1       5.451 -58.855 -22.473  1.00  0.00     0.278 C 
ENDBRANCH   6  11
ENDBRANCH   3   5
ENDBRANCH   1   3
BRANCH   1  13
ATOM     13  S   UNL     1      11.832 -59.245 -27.789  1.00  0.00     0.304 S 
ATOM     14  O   UNL     1      11.943 -57.824 -28.016  1.00  0.00    -0.189 OA
ATOM     15  O   UNL     1      12.286 -60.203 -28.764  1.00  0.00    -0.189 OA
BRANCH  13  16
ATOM     16  N   UNL     1      12.636 -59.563 -26.396  1.00  0.00    -0.205 N 
ATOM     17  C   UNL     1      12.419 -58.881 -25.209  1.00  0.00     0.422 C 
ATOM     18  H   UNL     1      12.945 -60.524 -26.313  1.00  0.00     0.188 HD
ATOM     19  O   UNL     1      11.853 -57.800 -25.142  1.00  0.00    -0.223 OA
BRANCH  17  20
ATOM     20  O   UNL     1      12.949 -59.556 -24.162  1.00  0.00    -0.444 OA
BRANCH  20  21
ATOM     21  C   UNL     1      12.637 -60.954 -24.121  1.00  0.00     0.270 C 
BRANCH  21  22
ATOM     22  C   UNL     1      11.479 -61.187 -23.185  1.00  0.00    -0.011 A 
ATOM     23  C   UNL     1      11.080 -60.190 -22.284  1.00  0.00     0.007 A 
ATOM     24  C   UNL     1      10.812 -62.420 -23.174  1.00  0.00     0.007 A 
ATOM     25  C   UNL     1      10.025 -60.419 -21.399  1.00  0.00     0.000 A 
ATOM     26  C   UNL     1       9.758 -62.646 -22.288  1.00  0.00     0.000 A 
ATOM     27  C   UNL     1       9.364 -61.645 -21.402  1.00  0.00     0.000 A 
ENDBRANCH  21  22
ENDBRANCH  20  21
ENDBRANCH  17  20
ENDBRANCH  13  16
ENDBRANCH   1  13
TORSDOF 8
ENDMDL
MODEL 2
REMARK VINA RESULT:    -8.869      3.470      4.652
REMARK INTER + INTRA:         -15.491
REMARK INTER:                 -14.278
REMARK INTRA:                  -1.214
REMARK UNBOUND:                -2.475
REMARK SMILES COc1ccc([C@@H](C)NS(=O)(=O)NC(=O)OCc2ccccc2)cc1
REMARK SMILES IDX 9 1 7 3 8 4 6 5 3 6 4 7 25 8 5 9 24 10 2 11 1 12 10 13 11 14
REMARK SMILES IDX 12 15 13 16 14 17 15 19 16 20 17 21 18 22 19 23 23 24 20 25
REMARK SMILES IDX 22 26 21 27
REMARK H PARENT 9 2 13 18
ROOT
ATOM      1  N   UNL     1      11.328 -60.215 -25.253  1.00  0.00    -0.190 NA
ATOM      2  H   UNL     1      11.875 -59.738 -25.971  1.00  0.00     0.143 HD
ENDROOT
BRANCH   1   3
ATOM      3  C   UNL     1      10.242 -61.082 -25.726  1.00  0.00     0.098 C 
ATOM      4  C   UNL     1      10.024 -60.973 -27.236  1.00  0.00     0.031 C 
BRANCH   3   5
ATOM      5  C   UNL     1       8.969 -60.756 -24.957  1.00  0.00    -0.030 A 
ATOM      6  C   UNL     1       6.594 -60.096 -23.574  1.00  0.00     0.118 A 
ATOM      7  C   UNL     1       7.465 -59.092 -23.995  1.00  0.00     0.047 A 
ATOM      8  C   UNL     1       6.908 -61.427 -23.855  1.00  0.00     0.047 A 
ATOM      9  C   UNL     1       8.639 -59.419 -24.684  1.00  0.00     0.009 A 
ATOM     10  C   UNL     1       8.078 -61.757 -24.543  1.00  0.00     0.009 A 
BRANCH   6  11
ATOM     11  O   UNL     1       5.422 -59.914 -22.895  1.00  0.00    -0.497 OA
ATOM     12  C   UNL     1       5.186 -58.620 -22.357  1.00  0.00     0.278 C 
ENDBRANCH   6  11
ENDBRANCH   3   5
ENDBRANCH   1   3
BRANCH   1  13
ATOM     13  S   UNL     1      12.219 -60.605 -23.919  1.00  0.00     0.304 S 
ATOM     14  O   UNL     1      13.621 -60.573 -24.259  1.00  0.00    -0.189 OA
ATOM     15  O   UNL     1      11.618 -61.760 -23.301  1.00  0.00    -0.189 OA
BRANCH  13  16
ATOM     16  N   UNL     1      11.948 -59.333 -22.920  1.00  0.00    -0.205 N 
ATOM     17  C   UNL     1      11.770 -58.032 -23.361  1.00  0.00     0.422 C 
ATOM     18  H   UNL     1      11.480 -59.584 -22.057  1.00  0.00     0.188 HD
ATOM     19  O   UNL     1      12.093 -57.644 -24.474  1.00  0.00    -0.223 OA
BRANCH  17  20
ATOM     20  O   UNL     1      11.233 -57.262 -22.386  1.00  0.00    -0.444 OA
BRANCH  20  21
ATOM     21  C   UNL     1      10.164 -56.406 -22.809  1.00  0.00     0.270 C 
BRANCH  21  22
ATOM     22  C   UNL     1      10.600 -54.967 -22.710  1.00  0.00    -0.011 A 
ATOM     23  C   UNL     1      11.310 -54.364 -23.758  1.00  0.00     0.007 A 
ATOM     24  C   UNL     1      10.338 -54.224 -21.550  1.00  0.00     0.007 A 
ATOM     25  C   UNL     1      11.737 -53.039 -23.652  1.00  0.00     0.000 A 
ATOM     26  C   UNL     1      10.765 -52.899 -21.448  1.00  0.00     0.000 A 
ATOM     27  C   UNL     1      11.463 -52.307 -22.498  1.00  0.00     0.000 A 
ENDBRANCH  21  22
ENDBRANCH  20  21
ENDBRANCH  17  20
ENDBRANCH  13  16
ENDBRANCH   1  13
TORSDOF 8
ENDMDL
MODEL 3
REMARK VINA RESULT:    -8.827      6.135      8.496
REMARK INTER + INTRA:         -15.430
REMARK INTER:                 -14.591
REMARK INTRA:                  -0.839
REMARK UNBOUND:                -2.475
REMARK SMILES COc1ccc([C@@H](C)NS(=O)(=O)NC(=O)OCc2ccccc2)cc1
REMARK SMILES IDX 9 1 7 3 8 4 6 5 3 6 4 7 25 8 5 9 24 10 2 11 1 12 10 13 11 14
REMARK SMILES IDX 12 15 13 16 14 17 15 19 16 20 17 21 18 22 19 23 23 24 20 25
REMARK SMILES IDX 22 26 21 27
REMARK H PARENT 9 2 13 18
ROOT
ATOM      1  N   UNL     1      11.351 -53.358 -22.608  1.00  0.00    -0.190 NA
ATOM      2  H   UNL     1      11.108 -53.694 -23.541  1.00  0.00     0.143 HD
ENDROOT
BRANCH   1   3
ATOM      3  C   UNL     1      11.745 -51.949 -22.501  1.00  0.00     0.098 C 
ATOM      4  C   UNL     1      10.555 -51.030 -22.221  1.00  0.00     0.031 C 
BRANCH   3   5
ATOM      5  C   UNL     1      12.479 -51.536 -23.769  1.00  0.00    -0.030 A 
ATOM      6  C   UNL     1      13.800 -50.813 -26.161  1.00  0.00     0.118 A 
ATOM      7  C   UNL     1      13.474 -52.145 -25.913  1.00  0.00     0.047 A 
ATOM      8  C   UNL     1      13.457 -49.843 -25.217  1.00  0.00     0.047 A 
ATOM      9  C   UNL     1      12.814 -52.502 -24.730  1.00  0.00     0.009 A 
ATOM     10  C   UNL     1      12.798 -50.196 -24.035  1.00  0.00     0.009 A 
BRANCH   6  11
ATOM     11  O   UNL     1      14.441 -50.332 -27.269  1.00  0.00    -0.497 OA
ATOM     12  C   UNL     1      15.570 -49.499 -27.047  1.00  0.00     0.278 C 
ENDBRANCH   6  11
ENDBRANCH   3   5
ENDBRANCH   1   3
BRANCH   1  13
ATOM     13  S   UNL     1      10.488 -54.102 -21.412  1.00  0.00     0.304 S 
ATOM     14  O   UNL     1       9.082 -54.027 -21.725  1.00  0.00    -0.189 OA
ATOM     15  O   UNL     1      11.005 -53.655 -20.144  1.00  0.00    -0.189 OA
BRANCH  13  16
ATOM     16  N   UNL     1      10.924 -55.674 -21.578  1.00  0.00    -0.205 N 
ATOM     17  C   UNL     1      11.060 -56.311 -22.801  1.00  0.00     0.422 C 
ATOM     18  H   UNL     1      11.507 -56.018 -20.824  1.00  0.00     0.188 HD
ATOM     19  O   UNL     1      10.587 -55.883 -23.844  1.00  0.00    -0.223 OA
BRANCH  17  20
ATOM     20  O   UNL     1      11.747 -57.470 -22.667  1.00  0.00    -0.444 OA
BRANCH  20  21
ATOM     21  C   UNL     1      11.332 -58.298 -21.575  1.00  0.00     0.270 C 
BRANCH  21  22
ATOM     22  C   UNL     1      11.035 -59.687 -22.077  1.00  0.00    -0.011 A 
ATOM     23  C   UNL     1      11.700 -60.196 -23.201  1.00  0.00     0.007 A 
ATOM     24  C   UNL     1      10.057 -60.474 -21.452  1.00  0.00     0.007 A 
ATOM     25  C   UNL     1      11.402 -61.472 -23.682  1.00  0.00     0.000 A 
ATOM     26  C   UNL     1       9.762 -61.750 -21.934  1.00  0.00     0.000 A 
ATOM     27  C   UNL     1      10.436 -62.249 -23.048  1.00  0.00     0.000 A 
ENDBRANCH  21  22
ENDBRANCH  20  21
ENDBRANCH  17  20
ENDBRANCH  13  16
ENDBRANCH   1  13
TORSDOF 8
ENDMDL
MODEL 4
REMARK VINA RESULT:    -8.673      5.226      7.562
REMARK INTER + INTRA:         -15.205
REMARK INTER:                 -14.652
REMARK INTRA:                  -0.553
REMARK UNBOUND:                -2.475
REMARK SMILES COc1ccc([C@@H](C)NS(=O)(=O)NC(=O)OCc2ccccc2)cc1
REMARK SMILES IDX 9 1 7 3 8 4 6 5 3 6 4 7 25 8 5 9 24 10 2 11 1 12 10 13 11 14
REMARK SMILES IDX 12 15 13 16 14 17 15 19 16 20 17 21 18 22 19 23 23 24 20 25
REMARK SMILES IDX 22 26 21 27
REMARK H PARENT 9 2 13 18
ROOT
ATOM      1  N   UNL     1      10.742 -54.649 -23.737  1.00  0.00    -0.190 NA
ATOM      2  H   UNL     1      10.002 -54.489 -24.423  1.00  0.00     0.143 HD
ENDROOT
BRANCH   1   3
ATOM      3  C   UNL     1      11.298 -53.458 -23.086  1.00  0.00     0.098 C 
ATOM      4  C   UNL     1      10.215 -52.568 -22.474  1.00  0.00     0.031 C 
BRANCH   3   5
ATOM      5  C   UNL     1      12.148 -52.689 -24.088  1.00  0.00    -0.030 A 
ATOM      6  C   UNL     1      13.754 -51.225 -25.894  1.00  0.00     0.118 A 
ATOM      7  C   UNL     1      13.158 -50.587 -24.808  1.00  0.00     0.047 A 
ATOM      8  C   UNL     1      13.554 -52.595 -26.070  1.00  0.00     0.047 A 
ATOM      9  C   UNL     1      12.366 -51.314 -23.910  1.00  0.00     0.009 A 
ATOM     10  C   UNL     1      12.765 -53.324 -25.176  1.00  0.00     0.009 A 
BRANCH   6  11
ATOM     11  O   UNL     1      14.545 -50.634 -26.841  1.00  0.00    -0.497 OA
ATOM     12  C   UNL     1      14.603 -49.215 -26.834  1.00  0.00     0.278 C 
ENDBRANCH   6  11
ENDBRANCH   3   5
ENDBRANCH   1   3
BRANCH   1  13
ATOM     13  S   UNL     1      10.564 -56.072 -22.919  1.00  0.00     0.304 S 
ATOM     14  O   UNL     1       9.225 -56.570 -23.119  1.00  0.00    -0.189 OA
ATOM     15  O   UNL     1      11.117 -55.901 -21.600  1.00  0.00    -0.189 OA
BRANCH  13  16
ATOM     16  N   UNL     1      11.568 -57.083 -23.731  1.00  0.00    -0.205 N 
ATOM     17  C   UNL     1      11.880 -58.364 -23.304  1.00  0.00     0.422 C 
ATOM     18  H   UNL     1      11.587 -56.925 -24.731  1.00  0.00     0.188 HD
ATOM     19  O   UNL     1      11.700 -58.760 -22.162  1.00  0.00    -0.223 OA
BRANCH  17  20
ATOM     20  O   UNL     1      12.436 -59.084 -24.307  1.00  0.00    -0.444 OA
BRANCH  20  21
ATOM     21  C   UNL     1      12.630 -60.474 -24.021  1.00  0.00     0.270 C 
BRANCH  21  22
ATOM     22  C   UNL     1      11.349 -61.226 -24.276  1.00  0.00    -0.011 A 
ATOM     23  C   UNL     1      10.648 -61.052 -25.477  1.00  0.00     0.007 A 
ATOM     24  C   UNL     1      10.819 -62.078 -23.297  1.00  0.00     0.007 A 
ATOM     25  C   UNL     1       9.447 -61.727 -25.699  1.00  0.00     0.000 A 
ATOM     26  C   UNL     1       9.619 -62.754 -23.522  1.00  0.00     0.000 A 
ATOM     27  C   UNL     1       8.934 -62.579 -24.722  1.00  0.00     0.000 A 
ENDBRANCH  21  22
ENDBRANCH  20  21
ENDBRANCH  17  20
ENDBRANCH  13  16
ENDBRANCH   1  13
TORSDOF 8
ENDMDL
MODEL 5
REMARK VINA RESULT:    -8.530      4.473      6.470
REMARK INTER + INTRA:         -14.994
REMARK INTER:                 -14.129
REMARK INTRA:                  -0.865
REMARK UNBOUND:                -2.475
REMARK SMILES COc1ccc([C@@H](C)NS(=O)(=O)NC(=O)OCc2ccccc2)cc1
REMARK SMILES IDX 9 1 7 3 8 4 6 5 3 6 4 7 25 8 5 9 24 10 2 11 1 12 10 13 11 14
REMARK SMILES IDX 12 15 13 16 14 17 15 19 16 20 17 21 18 22 19 23 23 24 20 25
REMARK SMILES IDX 22 26 21 27
REMARK H PARENT 9 2 13 18
ROOT
ATOM      1  N   UNL     1      11.601 -59.127 -23.492  1.00  0.00    -0.190 NA
ATOM      2  H   UNL     1      12.246 -58.387 -23.774  1.00  0.00     0.143 HD
ENDROOT
BRANCH   1   3
ATOM      3  C   UNL     1      12.096 -60.504 -23.605  1.00  0.00     0.098 C 
ATOM      4  C   UNL     1      13.134 -60.661 -24.717  1.00  0.00     0.031 C 
BRANCH   3   5
ATOM      5  C   UNL     1      10.917 -61.445 -23.810  1.00  0.00    -0.030 A 
ATOM      6  C   UNL     1       8.711 -63.183 -24.123  1.00  0.00     0.118 A 
ATOM      7  C   UNL     1       9.478 -63.224 -22.960  1.00  0.00     0.047 A 
ATOM      8  C   UNL     1       9.042 -62.268 -25.123  1.00  0.00     0.047 A 
ATOM      9  C   UNL     1      10.568 -62.359 -22.803  1.00  0.00     0.009 A 
ATOM     10  C   UNL     1      10.129 -61.403 -24.970  1.00  0.00     0.009 A 
BRANCH   6  11
ATOM     11  O   UNL     1       7.627 -63.969 -24.402  1.00  0.00    -0.497 OA
ATOM     12  C   UNL     1       6.973 -63.744 -25.643  1.00  0.00     0.278 C 
ENDBRANCH   6  11
ENDBRANCH   3   5
ENDBRANCH   1   3
BRANCH   1  13
ATOM     13  S   UNL     1      10.599 -58.672 -22.261  1.00  0.00     0.304 S 
ATOM     14  O   UNL     1      10.912 -59.446 -21.084  1.00  0.00    -0.189 OA
ATOM     15  O   UNL     1       9.257 -58.598 -22.781  1.00  0.00    -0.189 OA
BRANCH  13  16
ATOM     16  N   UNL     1      11.078 -57.134 -21.955  1.00  0.00    -0.205 N 
ATOM     17  C   UNL     1      11.278 -56.180 -22.941  1.00  0.00     0.422 C 
ATOM     18  H   UNL     1      10.793 -56.790 -21.047  1.00  0.00     0.188 HD
ATOM     19  O   UNL     1      11.419 -56.448 -24.125  1.00  0.00    -0.223 OA
BRANCH  17  20
ATOM     20  O   UNL     1      11.331 -54.938 -22.405  1.00  0.00    -0.444 OA
BRANCH  20  21
ATOM     21  C   UNL     1      10.677 -53.919 -23.170  1.00  0.00     0.270 C 
BRANCH  21  22
ATOM     22  C   UNL     1      11.698 -52.934 -23.678  1.00  0.00    -0.011 A 
ATOM     23  C   UNL     1      11.889 -51.706 -23.028  1.00  0.00     0.007 A 
ATOM     24  C   UNL     1      12.442 -53.214 -24.833  1.00  0.00     0.007 A 
ATOM     25  C   UNL     1      12.815 -50.784 -23.517  1.00  0.00     0.000 A 
ATOM     26  C   UNL     1      13.368 -52.291 -25.319  1.00  0.00     0.000 A 
ATOM     27  C   UNL     1      13.555 -51.077 -24.660  1.00  0.00     0.000 A 
ENDBRANCH  21  22
ENDBRANCH  20  21
ENDBRANCH  17  20
ENDBRANCH  13  16
ENDBRANCH   1  13
TORSDOF 8
ENDMDL
MODEL 6
REMARK VINA RESULT:    -8.418      4.944      6.543
REMARK INTER + INTRA:         -14.830
REMARK INTER:                 -13.899
REMARK INTRA:                  -0.931
REMARK UNBOUND:                -2.475
REMARK SMILES COc1ccc([C@@H](C)NS(=O)(=O)NC(=O)OCc2ccccc2)cc1
REMARK SMILES IDX 9 1 7 3 8 4 6 5 3 6 4 7 25 8 5 9 24 10 2 11 1 12 10 13 11 14
REMARK SMILES IDX 12 15 13 16 14 17 15 19 16 20 17 21 18 22 19 23 23 24 20 25
REMARK SMILES IDX 22 26 21 27
REMARK H PARENT 9 2 13 18
ROOT
ATOM      1  N   UNL     1      11.769 -59.052 -23.522  1.00  0.00    -0.190 NA
ATOM      2  H   UNL     1      12.554 -58.399 -23.543  1.00  0.00     0.143 HD
ENDROOT
BRANCH   1   3
ATOM      3  C   UNL     1      12.083 -60.461 -23.781  1.00  0.00     0.098 C 
ATOM      4  C   UNL     1      13.360 -60.633 -24.605  1.00  0.00     0.031 C 
BRANCH   3   5
ATOM      5  C   UNL     1      10.892 -61.124 -24.461  1.00  0.00    -0.030 A 
ATOM      6  C   UNL     1       8.722 -62.363 -25.779  1.00  0.00     0.118 A 
ATOM      7  C   UNL     1       9.527 -61.449 -26.457  1.00  0.00     0.047 A 
ATOM      8  C   UNL     1       9.009 -62.663 -24.447  1.00  0.00     0.047 A 
ATOM      9  C   UNL     1      10.605 -60.839 -25.805  1.00  0.00     0.009 A 
ATOM     10  C   UNL     1      10.085 -62.057 -23.792  1.00  0.00     0.009 A 
BRANCH   6  11
ATOM     11  O   UNL     1       7.643 -63.025 -26.297  1.00  0.00    -0.497 OA
ATOM     12  C   UNL     1       6.957 -63.914 -25.425  1.00  0.00     0.278 C 
ENDBRANCH   6  11
ENDBRANCH   3   5
ENDBRANCH   1   3
BRANCH   1  13
ATOM     13  S   UNL     1      10.600 -58.617 -22.440  1.00  0.00     0.304 S 
ATOM     14  O   UNL     1      10.698 -59.458 -21.272  1.00  0.00    -0.189 OA
ATOM     15  O   UNL     1       9.360 -58.464 -23.159  1.00  0.00    -0.189 OA
BRANCH  13  16
ATOM     16  N   UNL     1      11.074 -57.116 -21.981  1.00  0.00    -0.205 N 
ATOM     17  C   UNL     1      11.294 -56.074 -22.868  1.00  0.00     0.422 C 
ATOM     18  H   UNL     1      10.770 -56.858 -21.050  1.00  0.00     0.188 HD
ATOM     19  O   UNL     1      11.458 -56.229 -24.068  1.00  0.00    -0.223 OA
BRANCH  17  20
ATOM     20  O   UNL     1      11.337 -54.888 -22.216  1.00  0.00    -0.444 OA
BRANCH  20  21
ATOM     21  C   UNL     1      10.133 -54.114 -22.284  1.00  0.00     0.270 C 
BRANCH  21  22
ATOM     22  C   UNL     1      10.477 -52.654 -22.420  1.00  0.00    -0.011 A 
ATOM     23  C   UNL     1      11.736 -52.260 -22.896  1.00  0.00     0.007 A 
ATOM     24  C   UNL     1       9.558 -51.668 -22.033  1.00  0.00     0.007 A 
ATOM     25  C   UNL     1      12.063 -50.906 -22.995  1.00  0.00     0.000 A 
ATOM     26  C   UNL     1       9.887 -50.316 -22.134  1.00  0.00     0.000 A 
ATOM     27  C   UNL     1      11.138 -49.935 -22.615  1.00  0.00     0.000 A 
ENDBRANCH  21  22
ENDBRANCH  20  21
ENDBRANCH  17  20
ENDBRANCH  13  16
ENDBRANCH   1  13
TORSDOF 8
ENDMDL
MODEL 7
REMARK VINA RESULT:    -8.315      3.715      5.125
REMARK INTER + INTRA:         -14.679
REMARK INTER:                 -14.145
REMARK INTRA:                  -0.534
REMARK UNBOUND:                -2.475
REMARK SMILES COc1ccc([C@@H](C)NS(=O)(=O)NC(=O)OCc2ccccc2)cc1
REMARK SMILES IDX 9 1 7 3 8 4 6 5 3 6 4 7 25 8 5 9 24 10 2 11 1 12 10 13 11 14
REMARK SMILES IDX 12 15 13 16 14 17 15 19 16 20 17 21 18 22 19 23 23 24 20 25
REMARK SMILES IDX 22 26 21 27
REMARK H PARENT 9 2 13 18
ROOT
ATOM      1  N   UNL     1      10.980 -60.678 -24.866  1.00  0.00    -0.190 NA
ATOM      2  H   UNL     1      10.858 -61.399 -25.580  1.00  0.00     0.143 HD
ENDROOT
BRANCH   1   3
ATOM      3  C   UNL     1      10.404 -60.959 -23.546  1.00  0.00     0.098 C 
ATOM      4  C   UNL     1      10.588 -62.419 -23.129  1.00  0.00     0.031 C 
BRANCH   3   5
ATOM      5  C   UNL     1       8.935 -60.562 -23.544  1.00  0.00    -0.030 A 
ATOM      6  C   UNL     1       6.194 -59.876 -23.492  1.00  0.00     0.118 A 
ATOM      7  C   UNL     1       6.584 -61.214 -23.494  1.00  0.00     0.047 A 
ATOM      8  C   UNL     1       7.175 -58.884 -23.506  1.00  0.00     0.047 A 
ATOM      9  C   UNL     1       7.942 -61.554 -23.514  1.00  0.00     0.009 A 
ATOM     10  C   UNL     1       8.532 -59.218 -23.526  1.00  0.00     0.009 A 
BRANCH   6  11
ATOM     11  O   UNL     1       4.908 -59.411 -23.474  1.00  0.00    -0.497 OA
ATOM     12  C   UNL     1       4.482 -58.748 -22.292  1.00  0.00     0.278 C 
ENDBRANCH   6  11
ENDBRANCH   3   5
ENDBRANCH   1   3
BRANCH   1  13
ATOM     13  S   UNL     1      12.398 -59.848 -25.027  1.00  0.00     0.304 S 
ATOM     14  O   UNL     1      12.900 -60.021 -26.368  1.00  0.00    -0.189 OA
ATOM     15  O   UNL     1      13.215 -60.132 -23.873  1.00  0.00    -0.189 OA
BRANCH  13  16
ATOM     16  N   UNL     1      11.919 -58.285 -24.900  1.00  0.00    -0.205 N 
ATOM     17  C   UNL     1      11.791 -57.615 -23.694  1.00  0.00     0.422 C 
ATOM     18  H   UNL     1      12.153 -57.719 -25.707  1.00  0.00     0.188 HD
ATOM     19  O   UNL     1      11.720 -58.177 -22.611  1.00  0.00    -0.223 OA
BRANCH  17  20
ATOM     20  O   UNL     1      11.720 -56.277 -23.891  1.00  0.00    -0.444 OA
BRANCH  20  21
ATOM     21  C   UNL     1      10.627 -55.625 -23.234  1.00  0.00     0.270 C 
BRANCH  21  22
ATOM     22  C   UNL     1      10.981 -54.183 -22.975  1.00  0.00    -0.011 A 
ATOM     23  C   UNL     1      10.450 -53.507 -21.868  1.00  0.00     0.007 A 
ATOM     24  C   UNL     1      11.813 -53.486 -23.862  1.00  0.00     0.007 A 
ATOM     25  C   UNL     1      10.757 -52.163 -21.646  1.00  0.00     0.000 A 
ATOM     26  C   UNL     1      12.119 -52.143 -23.637  1.00  0.00     0.000 A 
ATOM     27  C   UNL     1      11.592 -51.483 -22.529  1.00  0.00     0.000 A 
ENDBRANCH  21  22
ENDBRANCH  20  21
ENDBRANCH  17  20
ENDBRANCH  13  16
ENDBRANCH   1  13
TORSDOF 8
ENDMDL
MODEL 8
REMARK VINA RESULT:    -7.909      4.720      6.404
REMARK INTER + INTRA:         -14.083
REMARK INTER:                 -13.568
REMARK INTRA:                  -0.515
REMARK UNBOUND:                -2.475
REMARK SMILES COc1ccc([C@@H](C)NS(=O)(=O)NC(=O)OCc2ccccc2)cc1
REMARK SMILES IDX 9 1 7 3 8 4 6 5 3 6 4 7 25 8 5 9 24 10 2 11 1 12 10 13 11 14
REMARK SMILES IDX 12 15 13 16 14 17 15 19 16 20 17 21 18 22 19 23 23 24 20 25
REMARK SMILES IDX 22 26 21 27
REMARK H PARENT 9 2 13 18
ROOT
ATOM      1  N   UNL     1      11.565 -56.488 -23.315  1.00  0.00    -0.190 NA
ATOM      2  H   UNL     1      12.510 -56.836 -23.144  1.00  0.00     0.143 HD
ENDROOT
BRANCH   1   3
ATOM      3  C   UNL     1      11.427 -55.440 -24.333  1.00  0.00     0.098 C 
ATOM      4  C   UNL     1      12.521 -55.516 -25.400  1.00  0.00     0.031 C 
BRANCH   3   5
ATOM      5  C   UNL     1      11.410 -54.079 -23.653  1.00  0.00    -0.030 A 
ATOM      6  C   UNL     1      11.381 -51.583 -22.327  1.00  0.00     0.118 A 
ATOM      7  C   UNL     1      10.646 -52.655 -21.824  1.00  0.00     0.047 A 
ATOM      8  C   UNL     1      12.136 -51.764 -23.487  1.00  0.00     0.047 A 
ATOM      9  C   UNL     1      10.664 -53.893 -22.478  1.00  0.00     0.009 A 
ATOM     10  C   UNL     1      12.158 -52.998 -24.143  1.00  0.00     0.009 A 
BRANCH   6  11
ATOM     11  O   UNL     1      11.448 -50.328 -21.788  1.00  0.00    -0.497 OA
ATOM     12  C   UNL     1      11.675 -49.254 -22.690  1.00  0.00     0.278 C 
ENDBRANCH   6  11
ENDBRANCH   3   5
ENDBRANCH   1   3
BRANCH   1  13
ATOM     13  S   UNL     1      10.406 -57.648 -23.113  1.00  0.00     0.304 S 
ATOM     14  O   UNL     1       9.128 -57.118 -23.522  1.00  0.00    -0.189 OA
ATOM     15  O   UNL     1      10.596 -58.247 -21.817  1.00  0.00    -0.189 OA
BRANCH  13  16
ATOM     16  N   UNL     1      10.827 -58.776 -24.227  1.00  0.00    -0.205 N 
ATOM     17  C   UNL     1      11.947 -59.585 -24.117  1.00  0.00     0.422 C 
ATOM     18  H   UNL     1      10.041 -59.162 -24.735  1.00  0.00     0.188 HD
ATOM     19  O   UNL     1      12.883 -59.348 -23.369  1.00  0.00    -0.223 OA
BRANCH  17  20
ATOM     20  O   UNL     1      11.869 -60.633 -24.971  1.00  0.00    -0.444 OA
BRANCH  20  21
ATOM     21  C   UNL     1      10.557 -60.904 -25.480  1.00  0.00     0.270 C 
BRANCH  21  22
ATOM     22  C   UNL     1       9.859 -61.890 -24.580  1.00  0.00    -0.011 A 
ATOM     23  C   UNL     1      10.478 -62.348 -23.408  1.00  0.00     0.007 A 
ATOM     24  C   UNL     1       8.597 -62.395 -24.923  1.00  0.00     0.007 A 
ATOM     25  C   UNL     1       9.841 -63.282 -22.591  1.00  0.00     0.000 A 
ATOM     26  C   UNL     1       7.962 -63.329 -24.104  1.00  0.00     0.000 A 
ATOM     27  C   UNL     1       8.583 -63.771 -22.937  1.00  0.00     0.000 A 
ENDBRANCH  21  22
ENDBRANCH  20  21
ENDBRANCH  17  20
ENDBRANCH  13  16
ENDBRANCH   1  13
TORSDOF 8
ENDMDL
MODEL 9
REMARK VINA RESULT:    -7.450      6.240      8.857
REMARK INTER + INTRA:         -13.409
REMARK INTER:                 -12.471
REMARK INTRA:                  -0.937
REMARK UNBOUND:                -2.475
REMARK SMILES COc1ccc([C@@H](C)NS(=O)(=O)NC(=O)OCc2ccccc2)cc1
REMARK SMILES IDX 9 1 7 3 8 4 6 5 3 6 4 7 25 8 5 9 24 10 2 11 1 12 10 13 11 14
REMARK SMILES IDX 12 15 13 16 14 17 15 19 16 20 17 21 18 22 19 23 23 24 20 25
REMARK SMILES IDX 22 26 21 27
REMARK H PARENT 9 2 13 18
ROOT
ATOM      1  N   UNL     1      11.599 -52.200 -23.243  1.00  0.00    -0.190 NA
ATOM      2  H   UNL     1      11.150 -52.377 -24.144  1.00  0.00     0.143 HD
ENDROOT
BRANCH   1   3
ATOM      3  C   UNL     1      12.651 -51.178 -23.225  1.00  0.00     0.098 C 
ATOM      4  C   UNL     1      12.196 -49.861 -23.857  1.00  0.00     0.031 C 
BRANCH   3   5
ATOM      5  C   UNL     1      13.893 -51.724 -23.916  1.00  0.00    -0.030 A 
ATOM      6  C   UNL     1      16.226 -52.753 -25.134  1.00  0.00     0.118 A 
ATOM      7  C   UNL     1      16.319 -51.981 -23.978  1.00  0.00     0.047 A 
ATOM      8  C   UNL     1      14.966 -53.017 -25.674  1.00  0.00     0.047 A 
ATOM      9  C   UNL     1      15.163 -51.475 -23.371  1.00  0.00     0.009 A 
ATOM     10  C   UNL     1      13.809 -52.515 -25.072  1.00  0.00     0.009 A 
BRANCH   6  11
ATOM     11  O   UNL     1      17.272 -53.303 -25.823  1.00  0.00    -0.497 OA
ATOM     12  C   UNL     1      18.301 -52.418 -26.242  1.00  0.00     0.278 C 
ENDBRANCH   6  11
ENDBRANCH   3   5
ENDBRANCH   1   3
BRANCH   1  13
ATOM     13  S   UNL     1      10.574 -52.401 -21.964  1.00  0.00     0.304 S 
ATOM     14  O   UNL     1       9.215 -52.208 -22.410  1.00  0.00    -0.189 OA
ATOM     15  O   UNL     1      11.111 -51.673 -20.842  1.00  0.00    -0.189 OA
BRANCH  13  16
ATOM     16  N   UNL     1      10.735 -53.996 -21.619  1.00  0.00    -0.205 N 
ATOM     17  C   UNL     1      10.784 -54.990 -22.583  1.00  0.00     0.422 C 
ATOM     18  H   UNL     1      11.233 -54.179 -20.757  1.00  0.00     0.188 HD
ATOM     19  O   UNL     1      10.414 -54.834 -23.737  1.00  0.00    -0.223 OA
BRANCH  17  20
ATOM     20  O   UNL     1      11.257 -56.146 -22.059  1.00  0.00    -0.444 OA
BRANCH  20  21
ATOM     21  C   UNL     1      11.515 -57.184 -23.012  1.00  0.00     0.270 C 
BRANCH  21  22
ATOM     22  C   UNL     1      10.670 -58.389 -22.689  1.00  0.00    -0.011 A 
ATOM     23  C   UNL     1      11.065 -59.289 -21.689  1.00  0.00     0.007 A 
ATOM     24  C   UNL     1       9.498 -58.649 -23.413  1.00  0.00     0.007 A 
ATOM     25  C   UNL     1      10.296 -60.419 -21.411  1.00  0.00     0.000 A 
ATOM     26  C   UNL     1       8.730 -59.780 -23.132  1.00  0.00     0.000 A 
ATOM     27  C   UNL     1       9.129 -60.664 -22.131  1.00  0.00     0.000 A 
ENDBRANCH  21  22
ENDBRANCH  20  21
ENDBRANCH  17  20
ENDBRANCH  13  16
ENDBRANCH   1  13
TORSDOF 8
ENDMDL
