MODEL 1
REMARK VINA RESULT:   -11.983      0.000      0.000
REMARK INTER + INTRA:         -16.614
REMARK INTER:                 -16.186
REMARK INTRA:                  -0.428
REMARK UNBOUND:                -0.428
REMARK SMILES COc1cc2c(cc1OC)C(=O)/C(=C/c1cc[n+](Cc3ccc(F)cc3)cc1)C2
REMARK SMILES IDX 15 1 16 2 17 3 18 4 27 5 28 6 14 7 13 8 3 9 4 10 8 11 5 12
REMARK SMILES IDX 7 13 6 14 29 15 11 16 12 17 2 18 1 19 9 20 10 21 19 22 20 23
REMARK SMILES IDX 21 24 26 25 22 26 25 27 23 28 24 29
REMARK H PARENT
ROOT
ATOM      1  C   UNL     1      10.227 -57.402 -22.806  1.00  0.00    -0.013 A 
ATOM      2  C   UNL     1       9.199 -58.253 -23.207  1.00  0.00     0.079 A 
ATOM      3  C   UNL     1       9.473 -59.591 -23.463  1.00  0.00     0.309 A 
ATOM      4  N   UNL     1      10.726 -60.079 -23.317  1.00  0.00    -0.201 N 
ATOM      5  C   UNL     1      11.738 -59.268 -22.924  1.00  0.00     0.309 A 
ATOM      6  C   UNL     1      11.509 -57.923 -22.658  1.00  0.00     0.079 A 
ENDROOT
BRANCH   1   7
ATOM      7  C   UNL     1       9.916 -56.009 -22.488  1.00  0.00     0.016 C 
BRANCH   7   8
ATOM      8  C   UNL     1      10.641 -54.946 -22.865  1.00  0.00     0.005 C 
ATOM      9  C   UNL     1      13.080 -51.202 -24.356  1.00  0.00     0.161 A 
ATOM     10  C   UNL     1      12.691 -52.485 -24.773  1.00  0.00     0.055 A 
ATOM     11  C   UNL     1      12.695 -50.710 -23.077  1.00  0.00     0.161 A 
ATOM     12  C   UNL     1      11.926 -53.260 -23.914  1.00  0.00    -0.028 A 
ATOM     13  C   UNL     1      11.924 -51.501 -22.222  1.00  0.00     0.063 A 
ATOM     14  C   UNL     1      11.559 -52.759 -22.666  1.00  0.00     0.030 A 
ATOM     15  C   UNL     1      11.400 -54.646 -24.134  1.00  0.00     0.076 C 
ATOM     16  C   UNL     1      10.757 -53.759 -21.959  1.00  0.00     0.189 C 
ATOM     17  O   UNL     1      10.274 -53.646 -20.852  1.00  0.00    -0.289 OA
BRANCH   9  18
ATOM     18  O   UNL     1      13.836 -50.344 -25.117  1.00  0.00    -0.493 OA
ATOM     19  C   UNL     1      14.059 -50.675 -26.480  1.00  0.00     0.278 C 
ENDBRANCH   9  18
BRANCH  11  20
ATOM     20  O   UNL     1      13.130 -49.443 -22.771  1.00  0.00    -0.493 OA
ATOM     21  C   UNL     1      12.151 -48.425 -22.619  1.00  0.00     0.278 C 
ENDBRANCH  11  20
ENDBRANCH   7   8
ENDBRANCH   1   7
BRANCH   4  22
ATOM     22  C   UNL     1      11.000 -61.513 -23.594  1.00  0.00     0.393 C 
BRANCH  22  23
ATOM     23  C   UNL     1       9.770 -62.214 -24.115  1.00  0.00     0.017 A 
ATOM     24  C   UNL     1       9.381 -62.057 -25.457  1.00  0.00     0.013 A 
ATOM     25  C   UNL     1       8.990 -63.025 -23.270  1.00  0.00     0.013 A 
ATOM     26  C   UNL     1       8.246 -62.708 -25.944  1.00  0.00     0.040 A 
ATOM     27  C   UNL     1       7.858 -63.675 -23.764  1.00  0.00     0.040 A 
ATOM     28  C   UNL     1       7.496 -63.513 -25.096  1.00  0.00     0.123 A 
ATOM     29  F   UNL     1       6.411 -64.138 -25.566  1.00  0.00    -0.207 F 
ENDBRANCH  22  23
ENDBRANCH   4  22
TORSDOF 6
ENDMDL
MODEL 2
REMARK VINA RESULT:   -11.100      1.143      2.348
REMARK INTER + INTRA:         -15.421
REMARK INTER:                 -15.459
REMARK INTRA:                   0.038
REMARK UNBOUND:                -0.428
REMARK SMILES COc1cc2c(cc1OC)C(=O)/C(=C/c1cc[n+](Cc3ccc(F)cc3)cc1)C2
REMARK SMILES IDX 15 1 16 2 17 3 18 4 27 5 28 6 14 7 13 8 3 9 4 10 8 11 5 12
REMARK SMILES IDX 7 13 6 14 29 15 11 16 12 17 2 18 1 19 9 20 10 21 19 22 20 23
REMARK SMILES IDX 21 24 26 25 22 26 25 27 23 28 24 29
REMARK H PARENT
ROOT
ATOM      1  C   UNL     1      10.075 -56.816 -22.723  1.00  0.00    -0.013 A 
ATOM      2  C   UNL     1      11.289 -57.210 -22.167  1.00  0.00     0.079 A 
ATOM      3  C   UNL     1      11.752 -58.505 -22.370  1.00  0.00     0.309 A 
ATOM      4  N   UNL     1      11.041 -59.383 -23.113  1.00  0.00    -0.201 N 
ATOM      5  C   UNL     1       9.859 -59.017 -23.666  1.00  0.00     0.309 A 
ATOM      6  C   UNL     1       9.358 -57.732 -23.487  1.00  0.00     0.079 A 
ENDROOT
BRANCH   1   7
ATOM      7  C   UNL     1       9.624 -55.436 -22.546  1.00  0.00     0.016 C 
BRANCH   7   8
ATOM      8  C   UNL     1      10.361 -54.341 -22.784  1.00  0.00     0.005 C 
ATOM      9  C   UNL     1      13.012 -50.503 -23.435  1.00  0.00     0.161 A 
ATOM     10  C   UNL     1      12.027 -51.013 -22.575  1.00  0.00     0.055 A 
ATOM     11  C   UNL     1      13.481 -51.275 -24.536  1.00  0.00     0.161 A 
ATOM     12  C   UNL     1      11.522 -52.281 -22.820  1.00  0.00    -0.028 A 
ATOM     13  C   UNL     1      12.964 -52.552 -24.771  1.00  0.00     0.063 A 
ATOM     14  C   UNL     1      11.995 -53.021 -23.903  1.00  0.00     0.030 A 
ATOM     15  C   UNL     1      10.474 -53.027 -22.051  1.00  0.00     0.076 C 
ATOM     16  C   UNL     1      11.313 -54.315 -23.940  1.00  0.00     0.189 C 
ATOM     17  O   UNL     1      11.488 -55.202 -24.750  1.00  0.00    -0.289 OA
BRANCH   9  18
ATOM     18  O   UNL     1      13.587 -49.263 -23.295  1.00  0.00    -0.493 OA
ATOM     19  C   UNL     1      13.266 -48.502 -22.141  1.00  0.00     0.278 C 
ENDBRANCH   9  18
BRANCH  11  20
ATOM     20  O   UNL     1      14.446 -50.680 -25.313  1.00  0.00    -0.493 OA
ATOM     21  C   UNL     1      14.126 -50.405 -26.669  1.00  0.00     0.278 C 
ENDBRANCH  11  20
ENDBRANCH   7   8
ENDBRANCH   1   7
BRANCH   4  22
ATOM     22  C   UNL     1      11.552 -60.762 -23.321  1.00  0.00     0.393 C 
BRANCH  22  23
ATOM     23  C   UNL     1      10.420 -61.750 -23.459  1.00  0.00     0.017 A 
ATOM     24  C   UNL     1       9.756 -61.898 -24.690  1.00  0.00     0.013 A 
ATOM     25  C   UNL     1      10.005 -62.529 -22.364  1.00  0.00     0.013 A 
ATOM     26  C   UNL     1       8.711 -62.815 -24.823  1.00  0.00     0.040 A 
ATOM     27  C   UNL     1       8.961 -63.445 -22.504  1.00  0.00     0.040 A 
ATOM     28  C   UNL     1       8.325 -63.581 -23.731  1.00  0.00     0.123 A 
ATOM     29  F   UNL     1       7.325 -64.461 -23.863  1.00  0.00    -0.207 F 
ENDBRANCH  22  23
ENDBRANCH   4  22
TORSDOF 6
ENDMDL
MODEL 3
REMARK VINA RESULT:   -10.442      1.590      2.347
REMARK INTER + INTRA:         -14.532
REMARK INTER:                 -13.886
REMARK INTRA:                  -0.646
REMARK UNBOUND:                -0.428
REMARK SMILES COc1cc2c(cc1OC)C(=O)/C(=C/c1cc[n+](Cc3ccc(F)cc3)cc1)C2
REMARK SMILES IDX 15 1 16 2 17 3 18 4 27 5 28 6 14 7 13 8 3 9 4 10 8 11 5 12
REMARK SMILES IDX 7 13 6 14 29 15 11 16 12 17 2 18 1 19 9 20 10 21 19 22 20 23
REMARK SMILES IDX 21 24 26 25 22 26 25 27 23 28 24 29
REMARK H PARENT
ROOT
ATOM      1  C   UNL     1      10.854 -55.787 -22.530  1.00  0.00    -0.013 A 
ATOM      2  C   UNL     1      11.230 -56.197 -23.807  1.00  0.00     0.079 A 
ATOM      3  C   UNL     1      11.739 -57.476 -23.998  1.00  0.00     0.309 A 
ATOM      4  N   UNL     1      11.864 -58.331 -22.958  1.00  0.00    -0.201 N 
ATOM      5  C   UNL     1      11.500 -57.952 -21.710  1.00  0.00     0.309 A 
ATOM      6  C   UNL     1      10.987 -56.682 -21.473  1.00  0.00     0.079 A 
ENDROOT
BRANCH   1   7
ATOM      7  C   UNL     1      10.270 -54.458 -22.351  1.00  0.00     0.016 C 
BRANCH   7   8
ATOM      8  C   UNL     1      10.875 -53.298 -22.641  1.00  0.00     0.005 C 
ATOM      9  C   UNL     1      13.017 -49.281 -23.849  1.00  0.00     0.161 A 
ATOM     10  C   UNL     1      13.189 -50.672 -23.924  1.00  0.00     0.055 A 
ATOM     11  C   UNL     1      11.861 -48.727 -23.228  1.00  0.00     0.161 A 
ATOM     12  C   UNL     1      12.212 -51.492 -23.382  1.00  0.00    -0.028 A 
ATOM     13  C   UNL     1      10.884 -49.566 -22.686  1.00  0.00     0.063 A 
ATOM     14  C   UNL     1      11.088 -50.931 -22.778  1.00  0.00     0.030 A 
ATOM     15  C   UNL     1      12.177 -52.990 -23.338  1.00  0.00     0.076 C 
ATOM     16  C   UNL     1      10.213 -52.000 -22.294  1.00  0.00     0.189 C 
ATOM     17  O   UNL     1       9.151 -51.862 -21.724  1.00  0.00    -0.289 OA
BRANCH   9  18
ATOM     18  O   UNL     1      13.914 -48.368 -24.349  1.00  0.00    -0.493 OA
ATOM     19  C   UNL     1      14.195 -48.397 -25.740  1.00  0.00     0.278 C 
ENDBRANCH   9  18
BRANCH  11  20
ATOM     20  O   UNL     1      11.795 -47.355 -23.210  1.00  0.00    -0.493 OA
ATOM     21  C   UNL     1      11.729 -46.712 -21.944  1.00  0.00     0.278 C 
ENDBRANCH  11  20
ENDBRANCH   7   8
ENDBRANCH   1   7
BRANCH   4  22
ATOM     22  C   UNL     1      12.409 -59.694 -23.182  1.00  0.00     0.393 C 
BRANCH  22  23
ATOM     23  C   UNL     1      11.324 -60.658 -23.593  1.00  0.00     0.017 A 
ATOM     24  C   UNL     1      10.619 -61.387 -22.620  1.00  0.00     0.013 A 
ATOM     25  C   UNL     1      11.008 -60.851 -24.950  1.00  0.00     0.013 A 
ATOM     26  C   UNL     1       9.611 -62.277 -22.996  1.00  0.00     0.040 A 
ATOM     27  C   UNL     1       9.997 -61.741 -25.320  1.00  0.00     0.040 A 
ATOM     28  C   UNL     1       9.307 -62.444 -24.341  1.00  0.00     0.123 A 
ATOM     29  F   UNL     1       8.338 -63.295 -24.699  1.00  0.00    -0.207 F 
ENDBRANCH  22  23
ENDBRANCH   4  22
TORSDOF 6
ENDMDL
MODEL 4
REMARK VINA RESULT:   -10.381      2.187      2.962
REMARK INTER + INTRA:         -14.450
REMARK INTER:                 -13.618
REMARK INTRA:                  -0.832
REMARK UNBOUND:                -0.428
REMARK SMILES COc1cc2c(cc1OC)C(=O)/C(=C/c1cc[n+](Cc3ccc(F)cc3)cc1)C2
REMARK SMILES IDX 15 1 16 2 17 3 18 4 27 5 28 6 14 7 13 8 3 9 4 10 8 11 5 12
REMARK SMILES IDX 7 13 6 14 29 15 11 16 12 17 2 18 1 19 9 20 10 21 19 22 20 23
REMARK SMILES IDX 21 24 26 25 22 26 25 27 23 28 24 29
REMARK H PARENT
ROOT
ATOM      1  C   UNL     1      10.138 -55.633 -22.385  1.00  0.00    -0.013 A 
ATOM      2  C   UNL     1      11.262 -56.364 -22.006  1.00  0.00     0.079 A 
ATOM      3  C   UNL     1      11.353 -57.710 -22.337  1.00  0.00     0.309 A 
ATOM      4  N   UNL     1      10.365 -58.317 -23.034  1.00  0.00    -0.201 N 
ATOM      5  C   UNL     1       9.266 -57.622 -23.415  1.00  0.00     0.309 A 
ATOM      6  C   UNL     1       9.133 -56.274 -23.104  1.00  0.00     0.079 A 
ENDROOT
BRANCH   1   7
ATOM      7  C   UNL     1      10.079 -54.205 -22.077  1.00  0.00     0.016 C 
BRANCH   7   8
ATOM      8  C   UNL     1      10.853 -53.258 -22.627  1.00  0.00     0.005 C 
ATOM      9  C   UNL     1      13.527 -50.006 -24.738  1.00  0.00     0.161 A 
ATOM     10  C   UNL     1      13.346 -51.398 -24.680  1.00  0.00     0.055 A 
ATOM     11  C   UNL     1      12.713 -49.138 -23.957  1.00  0.00     0.161 A 
ATOM     12  C   UNL     1      12.361 -51.905 -23.847  1.00  0.00    -0.028 A 
ATOM     13  C   UNL     1      11.723 -49.663 -23.122  1.00  0.00     0.063 A 
ATOM     14  C   UNL     1      11.574 -51.038 -23.090  1.00  0.00     0.030 A 
ATOM     15  C   UNL     1      11.988 -53.339 -23.617  1.00  0.00     0.076 C 
ATOM     16  C   UNL     1      10.614 -51.815 -22.306  1.00  0.00     0.189 C 
ATOM     17  O   UNL     1       9.779 -51.374 -21.544  1.00  0.00    -0.289 OA
BRANCH   9  18
ATOM     18  O   UNL     1      14.468 -49.387 -25.523  1.00  0.00    -0.493 OA
ATOM     19  C   UNL     1      14.460 -49.655 -26.917  1.00  0.00     0.278 C 
ENDBRANCH   9  18
BRANCH  11  20
ATOM     20  O   UNL     1      12.975 -47.796 -24.090  1.00  0.00    -0.493 OA
ATOM     21  C   UNL     1      11.874 -46.924 -24.302  1.00  0.00     0.278 C 
ENDBRANCH  11  20
ENDBRANCH   7   8
ENDBRANCH   1   7
BRANCH   4  22
ATOM     22  C   UNL     1      10.479 -59.757 -23.380  1.00  0.00     0.393 C 
BRANCH  22  23
ATOM     23  C   UNL     1      10.682 -59.949 -24.863  1.00  0.00     0.017 A 
ATOM     24  C   UNL     1       9.721 -60.636 -25.625  1.00  0.00     0.013 A 
ATOM     25  C   UNL     1      11.835 -59.458 -25.503  1.00  0.00     0.013 A 
ATOM     26  C   UNL     1       9.903 -60.813 -26.999  1.00  0.00     0.040 A 
ATOM     27  C   UNL     1      12.010 -59.636 -26.876  1.00  0.00     0.040 A 
ATOM     28  C   UNL     1      11.043 -60.310 -27.612  1.00  0.00     0.123 A 
ATOM     29  F   UNL     1      11.213 -60.477 -28.929  1.00  0.00    -0.207 F 
ENDBRANCH  22  23
ENDBRANCH   4  22
TORSDOF 6
ENDMDL
MODEL 5
REMARK VINA RESULT:   -10.330      4.804     10.471
REMARK INTER + INTRA:         -14.381
REMARK INTER:                 -13.831
REMARK INTRA:                  -0.550
REMARK UNBOUND:                -0.428
REMARK SMILES COc1cc2c(cc1OC)C(=O)/C(=C/c1cc[n+](Cc3ccc(F)cc3)cc1)C2
REMARK SMILES IDX 15 1 16 2 17 3 18 4 27 5 28 6 14 7 13 8 3 9 4 10 8 11 5 12
REMARK SMILES IDX 7 13 6 14 29 15 11 16 12 17 2 18 1 19 9 20 10 21 19 22 20 23
REMARK SMILES IDX 21 24 26 25 22 26 25 27 23 28 24 29
REMARK H PARENT
ROOT
ATOM      1  C   UNL     1      11.034 -56.331 -22.315  1.00  0.00    -0.013 A 
ATOM      2  C   UNL     1      11.064 -55.570 -21.149  1.00  0.00     0.079 A 
ATOM      3  C   UNL     1      10.624 -54.251 -21.176  1.00  0.00     0.309 A 
ATOM      4  N   UNL     1      10.157 -53.703 -22.321  1.00  0.00    -0.201 N 
ATOM      5  C   UNL     1      10.117 -54.429 -23.464  1.00  0.00     0.309 A 
ATOM      6  C   UNL     1      10.547 -55.751 -23.483  1.00  0.00     0.079 A 
ENDROOT
BRANCH   1   7
ATOM      7  C   UNL     1      11.449 -57.732 -22.262  1.00  0.00     0.016 C 
BRANCH   7   8
ATOM      8  C   UNL     1      10.819 -58.753 -22.861  1.00  0.00     0.005 C 
ATOM      9  C   UNL     1       8.431 -62.258 -24.910  1.00  0.00     0.161 A 
ATOM     10  C   UNL     1       8.546 -61.592 -23.679  1.00  0.00     0.055 A 
ATOM     11  C   UNL     1       9.236 -61.872 -26.019  1.00  0.00     0.161 A 
ATOM     12  C   UNL     1       9.458 -60.554 -23.568  1.00  0.00    -0.028 A 
ATOM     13  C   UNL     1      10.151 -60.824 -25.893  1.00  0.00     0.063 A 
ATOM     14  C   UNL     1      10.237 -60.191 -24.666  1.00  0.00     0.030 A 
ATOM     15  C   UNL     1       9.758 -59.707 -22.369  1.00  0.00     0.076 C 
ATOM     16  C   UNL     1      11.108 -59.075 -24.295  1.00  0.00     0.189 C 
ATOM     17  O   UNL     1      11.909 -58.514 -25.013  1.00  0.00    -0.289 OA
BRANCH   9  18
ATOM     18  O   UNL     1       7.565 -63.299 -25.142  1.00  0.00    -0.493 OA
ATOM     19  C   UNL     1       7.310 -64.208 -24.081  1.00  0.00     0.278 C 
ENDBRANCH   9  18
BRANCH  11  20
ATOM     20  O   UNL     1       9.042 -62.591 -27.174  1.00  0.00    -0.493 OA
ATOM     21  C   UNL     1       9.189 -61.907 -28.411  1.00  0.00     0.278 C 
ENDBRANCH  11  20
ENDBRANCH   7   8
ENDBRANCH   1   7
BRANCH   4  22
ATOM     22  C   UNL     1       9.690 -52.293 -22.331  1.00  0.00     0.393 C 
BRANCH  22  23
ATOM     23  C   UNL     1      10.838 -51.338 -22.545  1.00  0.00     0.017 A 
ATOM     24  C   UNL     1      10.653 -49.957 -22.359  1.00  0.00     0.013 A 
ATOM     25  C   UNL     1      12.102 -51.808 -22.944  1.00  0.00     0.013 A 
ATOM     26  C   UNL     1      11.714 -49.069 -22.552  1.00  0.00     0.040 A 
ATOM     27  C   UNL     1      13.160 -50.916 -23.134  1.00  0.00     0.040 A 
ATOM     28  C   UNL     1      12.957 -49.556 -22.935  1.00  0.00     0.123 A 
ATOM     29  F   UNL     1      13.973 -48.704 -23.117  1.00  0.00    -0.207 F 
ENDBRANCH  22  23
ENDBRANCH   4  22
TORSDOF 6
ENDMDL
MODEL 6
REMARK VINA RESULT:   -10.210      2.061      3.553
REMARK INTER + INTRA:         -14.218
REMARK INTER:                 -13.637
REMARK INTRA:                  -0.581
REMARK UNBOUND:                -0.428
REMARK SMILES COc1cc2c(cc1OC)C(=O)/C(=C/c1cc[n+](Cc3ccc(F)cc3)cc1)C2
REMARK SMILES IDX 15 1 16 2 17 3 18 4 27 5 28 6 14 7 13 8 3 9 4 10 8 11 5 12
REMARK SMILES IDX 7 13 6 14 29 15 11 16 12 17 2 18 1 19 9 20 10 21 19 22 20 23
REMARK SMILES IDX 21 24 26 25 22 26 25 27 23 28 24 29
REMARK H PARENT
ROOT
ATOM      1  C   UNL     1      10.202 -59.593 -22.401  1.00  0.00    -0.013 A 
ATOM      2  C   UNL     1      10.749 -60.805 -22.817  1.00  0.00     0.079 A 
ATOM      3  C   UNL     1       9.955 -61.722 -23.495  1.00  0.00     0.309 A 
ATOM      4  N   UNL     1       8.659 -61.445 -23.766  1.00  0.00    -0.201 N 
ATOM      5  C   UNL     1       8.111 -60.270 -23.373  1.00  0.00     0.309 A 
ATOM      6  C   UNL     1       8.868 -59.325 -22.691  1.00  0.00     0.079 A 
ENDROOT
BRANCH   1   7
ATOM      7  C   UNL     1      11.061 -58.615 -21.735  1.00  0.00     0.016 C 
BRANCH   7   8
ATOM      8  C   UNL     1      11.103 -57.303 -22.009  1.00  0.00     0.005 C 
ATOM      9  C   UNL     1      11.354 -52.668 -22.805  1.00  0.00     0.161 A 
ATOM     10  C   UNL     1      10.978 -53.583 -21.809  1.00  0.00     0.055 A 
ATOM     11  C   UNL     1      11.845 -53.126 -24.061  1.00  0.00     0.161 A 
ATOM     12  C   UNL     1      11.094 -54.939 -22.075  1.00  0.00    -0.028 A 
ATOM     13  C   UNL     1      11.957 -54.496 -24.315  1.00  0.00     0.063 A 
ATOM     14  C   UNL     1      11.577 -55.367 -23.310  1.00  0.00     0.030 A 
ATOM     15  C   UNL     1      10.755 -56.092 -21.179  1.00  0.00     0.076 C 
ATOM     16  C   UNL     1      11.608 -56.830 -23.338  1.00  0.00     0.189 C 
ATOM     17  O   UNL     1      11.977 -57.528 -24.259  1.00  0.00    -0.289 OA
BRANCH   9  18
ATOM     18  O   UNL     1      11.284 -51.303 -22.661  1.00  0.00    -0.493 OA
ATOM     19  C   UNL     1      10.114 -50.750 -22.077  1.00  0.00     0.278 C 
ENDBRANCH   9  18
BRANCH  11  20
ATOM     20  O   UNL     1      12.183 -52.146 -24.962  1.00  0.00    -0.493 OA
ATOM     21  C   UNL     1      13.549 -52.034 -25.337  1.00  0.00     0.278 C 
ENDBRANCH  11  20
ENDBRANCH   7   8
ENDBRANCH   1   7
BRANCH   4  22
ATOM     22  C   UNL     1       7.826 -62.437 -24.493  1.00  0.00     0.393 C 
BRANCH  22  23
ATOM     23  C   UNL     1       8.218 -62.521 -25.947  1.00  0.00     0.017 A 
ATOM     24  C   UNL     1       7.716 -63.555 -26.757  1.00  0.00     0.013 A 
ATOM     25  C   UNL     1       9.097 -61.580 -26.513  1.00  0.00     0.013 A 
ATOM     26  C   UNL     1       8.073 -63.634 -28.105  1.00  0.00     0.040 A 
ATOM     27  C   UNL     1       9.449 -61.663 -27.861  1.00  0.00     0.040 A 
ATOM     28  C   UNL     1       8.934 -62.688 -28.645  1.00  0.00     0.123 A 
ATOM     29  F   UNL     1       9.272 -62.764 -29.938  1.00  0.00    -0.207 F 
ENDBRANCH  22  23
ENDBRANCH   4  22
TORSDOF 6
ENDMDL
MODEL 7
REMARK VINA RESULT:   -10.077      2.542      4.050
REMARK INTER + INTRA:         -14.039
REMARK INTER:                 -13.429
REMARK INTRA:                  -0.609
REMARK UNBOUND:                -0.428
REMARK SMILES COc1cc2c(cc1OC)C(=O)/C(=C/c1cc[n+](Cc3ccc(F)cc3)cc1)C2
REMARK SMILES IDX 15 1 16 2 17 3 18 4 27 5 28 6 14 7 13 8 3 9 4 10 8 11 5 12
REMARK SMILES IDX 7 13 6 14 29 15 11 16 12 17 2 18 1 19 9 20 10 21 19 22 20 23
REMARK SMILES IDX 21 24 26 25 22 26 25 27 23 28 24 29
REMARK H PARENT
ROOT
ATOM      1  C   UNL     1      10.359 -53.642 -22.270  1.00  0.00    -0.013 A 
ATOM      2  C   UNL     1      10.591 -54.524 -21.218  1.00  0.00     0.079 A 
ATOM      3  C   UNL     1      11.033 -55.815 -21.485  1.00  0.00     0.309 A 
ATOM      4  N   UNL     1      11.252 -56.219 -22.756  1.00  0.00    -0.201 N 
ATOM      5  C   UNL     1      11.036 -55.374 -23.793  1.00  0.00     0.309 A 
ATOM      6  C   UNL     1      10.593 -54.075 -23.572  1.00  0.00     0.079 A 
ENDROOT
BRANCH   1   7
ATOM      7  C   UNL     1       9.945 -52.271 -21.974  1.00  0.00     0.016 C 
BRANCH   7   8
ATOM      8  C   UNL     1      10.596 -51.163 -22.356  1.00  0.00     0.005 C 
ATOM      9  C   UNL     1      12.906 -47.351 -23.878  1.00  0.00     0.161 A 
ATOM     10  C   UNL     1      13.047 -48.745 -23.786  1.00  0.00     0.055 A 
ATOM     11  C   UNL     1      11.732 -46.709 -23.394  1.00  0.00     0.161 A 
ATOM     12  C   UNL     1      12.019 -49.480 -23.214  1.00  0.00    -0.028 A 
ATOM     13  C   UNL     1      10.704 -47.462 -22.820  1.00  0.00     0.063 A 
ATOM     14  C   UNL     1      10.877 -48.832 -22.746  1.00  0.00     0.030 A 
ATOM     15  C   UNL     1      11.944 -50.962 -23.004  1.00  0.00     0.076 C 
ATOM     16  C   UNL     1       9.949 -49.822 -22.198  1.00  0.00     0.189 C 
ATOM     17  O   UNL     1       8.860 -49.599 -21.712  1.00  0.00    -0.289 OA
BRANCH   9  18
ATOM     18  O   UNL     1      13.854 -46.519 -24.422  1.00  0.00    -0.493 OA
ATOM     19  C   UNL     1      14.186 -46.687 -25.793  1.00  0.00     0.278 C 
ENDBRANCH   9  18
BRANCH  11  20
ATOM     20  O   UNL     1      11.699 -45.342 -23.534  1.00  0.00    -0.493 OA
ATOM     21  C   UNL     1      11.398 -44.566 -22.383  1.00  0.00     0.278 C 
ENDBRANCH  11  20
ENDBRANCH   7   8
ENDBRANCH   1   7
BRANCH   4  22
ATOM     22  C   UNL     1      11.725 -57.602 -23.023  1.00  0.00     0.393 C 
BRANCH  22  23
ATOM     23  C   UNL     1      10.594 -58.596 -22.930  1.00  0.00     0.017 A 
ATOM     24  C   UNL     1       9.317 -58.261 -23.414  1.00  0.00     0.013 A 
ATOM     25  C   UNL     1      10.793 -59.863 -22.353  1.00  0.00     0.013 A 
ATOM     26  C   UNL     1       8.268 -59.179 -23.334  1.00  0.00     0.040 A 
ATOM     27  C   UNL     1       9.741 -60.778 -22.279  1.00  0.00     0.040 A 
ATOM     28  C   UNL     1       8.489 -60.429 -22.771  1.00  0.00     0.123 A 
ATOM     29  F   UNL     1       7.483 -61.309 -22.698  1.00  0.00    -0.207 F 
ENDBRANCH  22  23
ENDBRANCH   4  22
TORSDOF 6
ENDMDL
MODEL 8
REMARK VINA RESULT:   -10.064      2.416      3.433
REMARK INTER + INTRA:         -14.022
REMARK INTER:                 -13.794
REMARK INTRA:                  -0.227
REMARK UNBOUND:                -0.428
REMARK SMILES COc1cc2c(cc1OC)C(=O)/C(=C/c1cc[n+](Cc3ccc(F)cc3)cc1)C2
REMARK SMILES IDX 15 1 16 2 17 3 18 4 27 5 28 6 14 7 13 8 3 9 4 10 8 11 5 12
REMARK SMILES IDX 7 13 6 14 29 15 11 16 12 17 2 18 1 19 9 20 10 21 19 22 20 23
REMARK SMILES IDX 21 24 26 25 22 26 25 27 23 28 24 29
REMARK H PARENT
ROOT
ATOM      1  C   UNL     1      10.225 -56.053 -22.398  1.00  0.00    -0.013 A 
ATOM      2  C   UNL     1       9.167 -56.685 -23.047  1.00  0.00     0.079 A 
ATOM      3  C   UNL     1       9.307 -58.002 -23.471  1.00  0.00     0.309 A 
ATOM      4  N   UNL     1      10.456 -58.680 -23.249  1.00  0.00    -0.201 N 
ATOM      5  C   UNL     1      11.495 -58.083 -22.616  1.00  0.00     0.309 A 
ATOM      6  C   UNL     1      11.399 -56.768 -22.176  1.00  0.00     0.079 A 
ENDROOT
BRANCH   1   7
ATOM      7  C   UNL     1      10.048 -54.686 -21.910  1.00  0.00     0.016 C 
BRANCH   7   8
ATOM      8  C   UNL     1      10.747 -53.618 -22.320  1.00  0.00     0.005 C 
ATOM      9  C   UNL     1      13.310 -49.878 -23.594  1.00  0.00     0.161 A 
ATOM     10  C   UNL     1      12.548 -50.360 -22.519  1.00  0.00     0.055 A 
ATOM     11  C   UNL     1      13.462 -50.654 -24.779  1.00  0.00     0.161 A 
ATOM     12  C   UNL     1      11.947 -51.604 -22.636  1.00  0.00    -0.028 A 
ATOM     13  C   UNL     1      12.851 -51.906 -24.883  1.00  0.00     0.063 A 
ATOM     14  C   UNL     1      12.107 -52.348 -23.803  1.00  0.00     0.030 A 
ATOM     15  C   UNL     1      11.091 -52.319 -21.634  1.00  0.00     0.076 C 
ATOM     16  C   UNL     1      11.385 -53.614 -23.675  1.00  0.00     0.189 C 
ATOM     17  O   UNL     1      11.319 -54.496 -24.505  1.00  0.00    -0.289 OA
BRANCH   9  18
ATOM     18  O   UNL     1      13.952 -48.664 -23.597  1.00  0.00    -0.493 OA
ATOM     19  C   UNL     1      14.015 -47.936 -22.380  1.00  0.00     0.278 C 
ENDBRANCH   9  18
BRANCH  11  20
ATOM     20  O   UNL     1      14.228 -50.086 -25.768  1.00  0.00    -0.493 OA
ATOM     21  C   UNL     1      15.547 -50.582 -25.950  1.00  0.00     0.278 C 
ENDBRANCH  11  20
ENDBRANCH   7   8
ENDBRANCH   1   7
BRANCH   4  22
ATOM     22  C   UNL     1      10.587 -60.086 -23.708  1.00  0.00     0.393 C 
BRANCH  22  23
ATOM     23  C   UNL     1      11.035 -60.153 -25.147  1.00  0.00     0.017 A 
ATOM     24  C   UNL     1      12.397 -60.021 -25.471  1.00  0.00     0.013 A 
ATOM     25  C   UNL     1      10.103 -60.337 -26.185  1.00  0.00     0.013 A 
ATOM     26  C   UNL     1      12.817 -60.088 -26.801  1.00  0.00     0.040 A 
ATOM     27  C   UNL     1      10.529 -60.404 -27.513  1.00  0.00     0.040 A 
ATOM     28  C   UNL     1      11.881 -60.280 -27.809  1.00  0.00     0.123 A 
ATOM     29  F   UNL     1      12.287 -60.346 -29.083  1.00  0.00    -0.207 F 
ENDBRANCH  22  23
ENDBRANCH   4  22
TORSDOF 6
ENDMDL
MODEL 9
REMARK VINA RESULT:   -10.052      4.740     10.236
REMARK INTER + INTRA:         -14.006
REMARK INTER:                 -13.339
REMARK INTRA:                  -0.667
REMARK UNBOUND:                -0.428
REMARK SMILES COc1cc2c(cc1OC)C(=O)/C(=C/c1cc[n+](Cc3ccc(F)cc3)cc1)C2
REMARK SMILES IDX 15 1 16 2 17 3 18 4 27 5 28 6 14 7 13 8 3 9 4 10 8 11 5 12
REMARK SMILES IDX 7 13 6 14 29 15 11 16 12 17 2 18 1 19 9 20 10 21 19 22 20 23
REMARK SMILES IDX 21 24 26 25 22 26 25 27 23 28 24 29
REMARK H PARENT
ROOT
ATOM      1  C   UNL     1      11.052 -54.570 -23.092  1.00  0.00    -0.013 A 
ATOM      2  C   UNL     1      11.184 -53.249 -22.668  1.00  0.00     0.079 A 
ATOM      3  C   UNL     1      11.894 -52.343 -23.447  1.00  0.00     0.309 A 
ATOM      4  N   UNL     1      12.449 -52.727 -24.619  1.00  0.00    -0.201 N 
ATOM      5  C   UNL     1      12.328 -54.006 -25.050  1.00  0.00     0.309 A 
ATOM      6  C   UNL     1      11.628 -54.946 -24.302  1.00  0.00     0.079 A 
ENDROOT
BRANCH   1   7
ATOM      7  C   UNL     1      10.259 -55.500 -22.291  1.00  0.00     0.016 C 
BRANCH   7   8
ATOM      8  C   UNL     1       9.903 -56.738 -22.663  1.00  0.00     0.005 C 
ATOM      9  C   UNL     1       8.648 -61.024 -24.159  1.00  0.00     0.161 A 
ATOM     10  C   UNL     1       8.249 -59.681 -24.245  1.00  0.00     0.055 A 
ATOM     11  C   UNL     1       9.796 -61.391 -23.402  1.00  0.00     0.161 A 
ATOM     12  C   UNL     1       8.997 -58.722 -23.578  1.00  0.00    -0.028 A 
ATOM     13  C   UNL     1      10.541 -60.414 -22.735  1.00  0.00     0.063 A 
ATOM     14  C   UNL     1      10.118 -59.102 -22.843  1.00  0.00     0.030 A 
ATOM     15  C   UNL     1       8.768 -57.242 -23.520  1.00  0.00     0.076 C 
ATOM     16  C   UNL     1      10.730 -57.914 -22.245  1.00  0.00     0.189 C 
ATOM     17  O   UNL     1      11.723 -57.886 -21.547  1.00  0.00    -0.289 OA
BRANCH   9  18
ATOM     18  O   UNL     1       7.989 -62.061 -24.774  1.00  0.00    -0.493 OA
ATOM     19  C   UNL     1       8.402 -62.438 -26.079  1.00  0.00     0.278 C 
ENDBRANCH   9  18
BRANCH  11  20
ATOM     20  O   UNL     1      10.095 -62.732 -23.385  1.00  0.00    -0.493 OA
ATOM     21  C   UNL     1       9.575 -63.513 -22.318  1.00  0.00     0.278 C 
ENDBRANCH  11  20
ENDBRANCH   7   8
ENDBRANCH   1   7
BRANCH   4  22
ATOM     22  C   UNL     1      13.203 -51.744 -25.438  1.00  0.00     0.393 C 
BRANCH  22  23
ATOM     23  C   UNL     1      14.634 -51.628 -24.975  1.00  0.00     0.017 A 
ATOM     24  C   UNL     1      15.566 -52.630 -25.297  1.00  0.00     0.013 A 
ATOM     25  C   UNL     1      15.056 -50.527 -24.208  1.00  0.00     0.013 A 
ATOM     26  C   UNL     1      16.893 -52.524 -24.874  1.00  0.00     0.040 A 
ATOM     27  C   UNL     1      16.384 -50.425 -23.789  1.00  0.00     0.040 A 
ATOM     28  C   UNL     1      17.291 -51.423 -24.126  1.00  0.00     0.123 A 
ATOM     29  F   UNL     1      18.563 -51.322 -23.724  1.00  0.00    -0.207 F 
ENDBRANCH  22  23
ENDBRANCH   4  22
TORSDOF 6
ENDMDL
