MODEL 1
REMARK VINA RESULT:   -10.098      0.000      0.000
REMARK INTER + INTRA:         -10.098
REMARK INTER:                 -10.098
REMARK INTRA:                   0.000
REMARK UNBOUND:                 0.000
REMARK SMILES CC1=C[C@@H]2Cc3[nH]c4cc(Cl)ccc4c(=N)c3[C@H](C1)C2
REMARK SMILES IDX 7 1 6 2 17 3 15 4 14 5 13 6 12 7 10 8 11 9 9 10 8 11 18 12
REMARK SMILES IDX 19 13 2 14 1 15 3 16 4 17 5 18 20 19 16 21
REMARK H PARENT 7 20 16 22
ROOT
ATOM      1  N   UNL     1      10.640 -59.340 -21.648  1.00  0.00    -0.358 N 
ATOM      2  C   UNL     1      10.769 -61.015 -22.345  1.00  0.00     0.021 A 
ATOM      3  C   UNL     1      11.395 -61.274 -23.849  1.00  0.00     0.000 A 
ATOM      4  C   UNL     1      12.253 -59.781 -24.835  1.00  0.00     0.068 A 
ATOM      5  C   UNL     1      11.835 -58.024 -24.176  1.00  0.00     0.023 A 
ATOM      6  C   UNL     1      12.176 -56.877 -24.831  1.00  0.00     0.014 A 
ATOM      7  C   UNL     1      11.836 -55.680 -24.147  1.00  0.00     0.021 A 
ATOM      8  C   UNL     1      11.187 -55.578 -22.837  1.00  0.00     0.043 A 
ATOM      9  Cl  UNL     1      10.904 -53.974 -22.234  1.00  0.00    -0.084 Cl
ATOM     10  C   UNL     1      10.781 -56.650 -22.028  1.00  0.00     0.047 A 
ATOM     11  C   UNL     1      11.047 -57.856 -22.616  1.00  0.00     0.049 A 
ATOM     12  C   UNL     1      10.348 -61.640 -24.920  1.00  0.00     0.028 C 
ATOM     13  C   UNL     1      10.077 -60.203 -25.348  1.00  0.00     0.039 C 
ATOM     14  C   UNL     1      10.338 -59.491 -23.840  1.00  0.00    -0.076 C 
ATOM     15  C   UNL     1      12.234 -59.638 -22.855  1.00  0.00     0.039 C 
ATOM     16  C   UNL     1       8.988 -59.681 -23.410  1.00  0.00    -0.024 C 
ATOM     17  C   UNL     1       8.612 -61.212 -23.124  1.00  0.00     0.018 C 
ATOM     18  C   UNL     1       9.486 -61.704 -21.982  1.00  0.00     0.062 C 
ATOM     19  C   UNL     1       8.996 -62.113 -24.340  1.00  0.00     0.017 C 
ATOM     20  H   UNL     1       9.680 -59.174 -21.335  1.00  0.00     0.166 HD
ENDROOT
BRANCH   4  21
ATOM     21  N   UNL     1      13.045 -59.960 -25.844  1.00  0.00    -0.300 NA
ATOM     22  H   UNL     1      12.504 -59.965 -26.713  1.00  0.00     0.188 HD
ENDBRANCH   4  21
TORSDOF 1
ENDMDL
MODEL 2
REMARK VINA RESULT:    -9.912      3.029      5.580
REMARK INTER + INTRA:          -9.912
REMARK INTER:                  -9.912
REMARK INTRA:                   0.000
REMARK UNBOUND:                 0.000
REMARK SMILES CC1=C[C@@H]2Cc3[nH]c4cc(Cl)ccc4c(=N)c3[C@H](C1)C2
REMARK SMILES IDX 7 1 6 2 17 3 15 4 14 5 13 6 12 7 10 8 11 9 9 10 8 11 18 12
REMARK SMILES IDX 19 13 2 14 1 15 3 16 4 17 5 18 20 19 16 21
REMARK H PARENT 7 20 16 22
ROOT
ATOM      1  N   UNL     1      11.328 -60.575 -25.333  1.00  0.00    -0.358 N 
ATOM      2  C   UNL     1      11.838 -60.052 -23.667  1.00  0.00     0.021 A 
ATOM      3  C   UNL     1      11.085 -60.631 -22.317  1.00  0.00     0.000 A 
ATOM      4  C   UNL     1       9.766 -62.104 -22.474  1.00  0.00     0.068 A 
ATOM      5  C   UNL     1       9.084 -62.401 -24.246  1.00  0.00     0.023 A 
ATOM      6  C   UNL     1       8.040 -63.236 -24.518  1.00  0.00     0.014 A 
ATOM      7  C   UNL     1       7.730 -63.371 -25.898  1.00  0.00     0.021 A 
ATOM      8  C   UNL     1       8.424 -62.721 -27.013  1.00  0.00     0.043 A 
ATOM      9  Cl  UNL     1       7.835 -63.081 -28.608  1.00  0.00    -0.084 Cl
ATOM     10  C   UNL     1       9.516 -61.846 -26.915  1.00  0.00     0.047 A 
ATOM     11  C   UNL     1       9.877 -61.633 -25.612  1.00  0.00     0.049 A 
ATOM     12  C   UNL     1      10.162 -59.613 -21.618  1.00  0.00     0.028 C 
ATOM     13  C   UNL     1       8.913 -59.996 -22.402  1.00  0.00     0.039 C 
ATOM     14  C   UNL     1       9.697 -60.409 -23.840  1.00  0.00    -0.076 C 
ATOM     15  C   UNL     1      11.139 -61.991 -23.903  1.00  0.00     0.039 C 
ATOM     16  C   UNL     1       9.678 -59.074 -24.347  1.00  0.00    -0.024 C 
ATOM     17  C   UNL     1      10.663 -58.076 -23.569  1.00  0.00     0.018 C 
ATOM     18  C   UNL     1      12.085 -58.576 -23.764  1.00  0.00     0.062 C 
ATOM     19  C   UNL     1      10.420 -58.146 -22.029  1.00  0.00     0.017 C 
ATOM     20  H   UNL     1      11.143 -59.749 -25.908  1.00  0.00     0.166 HD
ENDROOT
BRANCH   4  21
ATOM     21  N   UNL     1       9.388 -62.827 -21.468  1.00  0.00    -0.300 NA
ATOM     22  H   UNL     1       9.632 -62.357 -20.592  1.00  0.00     0.188 HD
ENDBRANCH   4  21
TORSDOF 1
ENDMDL
MODEL 3
REMARK VINA RESULT:    -9.898      3.395      5.413
REMARK INTER + INTRA:          -9.898
REMARK INTER:                  -9.898
REMARK INTRA:                   0.000
REMARK UNBOUND:                 0.000
REMARK SMILES CC1=C[C@@H]2Cc3[nH]c4cc(Cl)ccc4c(=N)c3[C@H](C1)C2
REMARK SMILES IDX 7 1 6 2 17 3 15 4 14 5 13 6 12 7 10 8 11 9 9 10 8 11 18 12
REMARK SMILES IDX 19 13 2 14 1 15 3 16 4 17 5 18 20 19 16 21
REMARK H PARENT 7 20 16 22
ROOT
ATOM      1  N   UNL     1       8.297 -60.530 -23.339  1.00  0.00    -0.358 N 
ATOM      2  C   UNL     1       9.541 -59.203 -23.324  1.00  0.00     0.021 A 
ATOM      3  C   UNL     1      10.523 -58.932 -24.622  1.00  0.00     0.000 A 
ATOM      4  C   UNL     1      10.198 -59.892 -26.328  1.00  0.00     0.068 A 
ATOM      5  C   UNL     1       9.077 -61.447 -26.185  1.00  0.00     0.023 A 
ATOM      6  C   UNL     1       8.893 -62.335 -27.204  1.00  0.00     0.014 A 
ATOM      7  C   UNL     1       7.975 -63.381 -26.923  1.00  0.00     0.021 A 
ATOM      8  C   UNL     1       7.224 -63.569 -25.678  1.00  0.00     0.043 A 
ATOM      9  Cl  UNL     1       6.154 -64.936 -25.618  1.00  0.00    -0.084 Cl
ATOM     10  C   UNL     1       7.285 -62.750 -24.541  1.00  0.00     0.047 A 
ATOM     11  C   UNL     1       8.168 -61.719 -24.708  1.00  0.00     0.049 A 
ATOM     12  C   UNL     1      11.984 -59.381 -24.419  1.00  0.00     0.028 C 
ATOM     13  C   UNL     1      11.772 -60.792 -24.953  1.00  0.00     0.039 C 
ATOM     14  C   UNL     1      10.176 -60.966 -24.433  1.00  0.00    -0.076 C 
ATOM     15  C   UNL     1       8.631 -59.658 -25.132  1.00  0.00     0.039 C 
ATOM     16  C   UNL     1      10.547 -61.447 -23.140  1.00  0.00    -0.024 C 
ATOM     17  C   UNL     1      11.206 -60.327 -22.201  1.00  0.00     0.018 C 
ATOM     18  C   UNL     1      10.164 -59.247 -21.960  1.00  0.00     0.062 C 
ATOM     19  C   UNL     1      12.373 -59.601 -22.940  1.00  0.00     0.017 C 
ATOM     20  H   UNL     1       8.417 -61.119 -22.512  1.00  0.00     0.166 HD
ENDROOT
BRANCH   4  21
ATOM     21  N   UNL     1      10.691 -59.508 -27.462  1.00  0.00    -0.300 NA
ATOM     22  H   UNL     1      11.684 -59.752 -27.510  1.00  0.00     0.188 HD
ENDBRANCH   4  21
TORSDOF 1
ENDMDL
MODEL 4
REMARK VINA RESULT:    -9.750      3.050      4.216
REMARK INTER + INTRA:          -9.750
REMARK INTER:                  -9.750
REMARK INTRA:                   0.000
REMARK UNBOUND:                 0.000
REMARK SMILES CC1=C[C@@H]2Cc3[nH]c4cc(Cl)ccc4c(=N)c3[C@H](C1)C2
REMARK SMILES IDX 7 1 6 2 17 3 15 4 14 5 13 6 12 7 10 8 11 9 9 10 8 11 18 12
REMARK SMILES IDX 19 13 2 14 1 15 3 16 4 17 5 18 20 19 16 21
REMARK H PARENT 7 20 16 22
ROOT
ATOM      1  N   UNL     1       8.268 -60.639 -25.491  1.00  0.00    -0.358 N 
ATOM      2  C   UNL     1       7.927 -60.971 -23.735  1.00  0.00     0.021 A 
ATOM      3  C   UNL     1       9.112 -60.855 -22.593  1.00  0.00     0.000 A 
ATOM      4  C   UNL     1      10.885 -60.107 -23.078  1.00  0.00     0.068 A 
ATOM      5  C   UNL     1      11.255 -60.047 -24.963  1.00  0.00     0.023 A 
ATOM      6  C   UNL     1      12.482 -59.743 -25.477  1.00  0.00     0.014 A 
ATOM      7  C   UNL     1      12.534 -59.686 -26.895  1.00  0.00     0.021 A 
ATOM      8  C   UNL     1      11.416 -59.904 -27.818  1.00  0.00     0.043 A 
ATOM      9  Cl  UNL     1      11.769 -59.756 -29.512  1.00  0.00    -0.084 Cl
ATOM     10  C   UNL     1      10.095 -60.214 -27.461  1.00  0.00     0.047 A 
ATOM     11  C   UNL     1       9.948 -60.314 -26.105  1.00  0.00     0.049 A 
ATOM     12  C   UNL     1       9.612 -62.210 -22.055  1.00  0.00     0.028 C 
ATOM     13  C   UNL     1      10.715 -62.375 -23.092  1.00  0.00     0.039 C 
ATOM     14  C   UNL     1       9.922 -61.584 -24.356  1.00  0.00    -0.076 C 
ATOM     15  C   UNL     1       9.346 -59.528 -24.191  1.00  0.00     0.039 C 
ATOM     16  C   UNL     1       9.247 -62.763 -24.799  1.00  0.00    -0.024 C 
ATOM     17  C   UNL     1       8.103 -63.265 -23.795  1.00  0.00     0.018 C 
ATOM     18  C   UNL     1       7.040 -62.181 -23.717  1.00  0.00     0.062 C 
ATOM     19  C   UNL     1       8.657 -63.390 -22.341  1.00  0.00     0.017 C 
ATOM     20  H   UNL     1       7.949 -61.430 -26.056  1.00  0.00     0.166 HD
ENDROOT
BRANCH   4  21
ATOM     21  N   UNL     1      11.737 -59.678 -22.201  1.00  0.00    -0.300 NA
ATOM     22  H   UNL     1      12.316 -58.941 -22.612  1.00  0.00     0.188 HD
ENDBRANCH   4  21
TORSDOF 1
ENDMDL
MODEL 5
REMARK VINA RESULT:    -8.783      8.013     11.781
REMARK INTER + INTRA:          -8.783
REMARK INTER:                  -8.783
REMARK INTRA:                   0.000
REMARK UNBOUND:                 0.000
REMARK SMILES CC1=C[C@@H]2Cc3[nH]c4cc(Cl)ccc4c(=N)c3[C@H](C1)C2
REMARK SMILES IDX 7 1 6 2 17 3 15 4 14 5 13 6 12 7 10 8 11 9 9 10 8 11 18 12
REMARK SMILES IDX 19 13 2 14 1 15 3 16 4 17 5 18 20 19 16 21
REMARK H PARENT 7 20 16 22
ROOT
ATOM      1  N   UNL     1      14.082 -49.270 -23.004  1.00  0.00    -0.358 N 
ATOM      2  C   UNL     1      14.217 -47.460 -23.133  1.00  0.00     0.021 A 
ATOM      3  C   UNL     1      12.907 -46.483 -22.908  1.00  0.00     0.000 A 
ATOM      4  C   UNL     1      11.201 -47.250 -22.246  1.00  0.00     0.068 A 
ATOM      5  C   UNL     1      11.053 -49.160 -22.402  1.00  0.00     0.023 A 
ATOM      6  C   UNL     1       9.894 -49.844 -22.176  1.00  0.00     0.014 A 
ATOM      7  C   UNL     1      10.007 -51.256 -22.278  1.00  0.00     0.021 A 
ATOM      8  C   UNL     1      11.225 -52.012 -22.580  1.00  0.00     0.043 A 
ATOM      9  Cl  UNL     1      11.072 -53.742 -22.627  1.00  0.00    -0.084 Cl
ATOM     10  C   UNL     1      12.497 -51.473 -22.828  1.00  0.00     0.047 A 
ATOM     11  C   UNL     1      12.485 -50.106 -22.774  1.00  0.00     0.049 A 
ATOM     12  C   UNL     1      12.351 -45.857 -24.203  1.00  0.00     0.028 C 
ATOM     13  C   UNL     1      11.376 -46.990 -24.499  1.00  0.00     0.039 C 
ATOM     14  C   UNL     1      12.309 -48.234 -23.842  1.00  0.00    -0.076 C 
ATOM     15  C   UNL     1      12.858 -48.236 -21.771  1.00  0.00     0.039 C 
ATOM     16  C   UNL     1      13.034 -48.461 -25.052  1.00  0.00    -0.024 C 
ATOM     17  C   UNL     1      14.055 -47.282 -25.421  1.00  0.00     0.018 C 
ATOM     18  C   UNL     1      15.099 -47.204 -24.319  1.00  0.00     0.062 C 
ATOM     19  C   UNL     1      13.336 -45.897 -25.392  1.00  0.00     0.017 C 
ATOM     20  H   UNL     1      14.467 -49.701 -23.848  1.00  0.00     0.166 HD
ENDROOT
BRANCH   4  21
ATOM     21  N   UNL     1      10.252 -46.532 -21.735  1.00  0.00    -0.300 NA
ATOM     22  H   UNL     1      10.422 -45.542 -21.932  1.00  0.00     0.188 HD
ENDBRANCH   4  21
TORSDOF 1
ENDMDL
MODEL 6
REMARK VINA RESULT:    -8.711      2.805      4.564
REMARK INTER + INTRA:          -8.711
REMARK INTER:                  -8.711
REMARK INTRA:                   0.000
REMARK UNBOUND:                 0.000
REMARK SMILES CC1=C[C@@H]2Cc3[nH]c4cc(Cl)ccc4c(=N)c3[C@H](C1)C2
REMARK SMILES IDX 7 1 6 2 17 3 15 4 14 5 13 6 12 7 10 8 11 9 9 10 8 11 18 12
REMARK SMILES IDX 19 13 2 14 1 15 3 16 4 17 5 18 20 19 16 21
REMARK H PARENT 7 20 16 22
ROOT
ATOM      1  N   UNL     1      12.609 -59.491 -24.594  1.00  0.00    -0.358 N 
ATOM      2  C   UNL     1      12.063 -59.959 -22.923  1.00  0.00     0.021 A 
ATOM      3  C   UNL     1      10.782 -60.973 -22.690  1.00  0.00     0.000 A 
ATOM      4  C   UNL     1       9.962 -61.905 -24.238  1.00  0.00     0.068 A 
ATOM      5  C   UNL     1      10.393 -61.160 -25.957  1.00  0.00     0.023 A 
ATOM      6  C   UNL     1       9.782 -61.544 -27.115  1.00  0.00     0.014 A 
ATOM      7  C   UNL     1      10.289 -60.923 -28.287  1.00  0.00     0.021 A 
ATOM      8  C   UNL     1      11.384 -59.953 -28.356  1.00  0.00     0.043 A 
ATOM      9  Cl  UNL     1      11.805 -59.367 -29.936  1.00  0.00    -0.084 Cl
ATOM     10  C   UNL     1      12.124 -59.459 -27.270  1.00  0.00     0.047 A 
ATOM     11  C   UNL     1      11.692 -59.985 -26.084  1.00  0.00     0.049 A 
ATOM     12  C   UNL     1       9.505 -60.278 -22.179  1.00  0.00     0.028 C 
ATOM     13  C   UNL     1       8.941 -59.986 -23.564  1.00  0.00     0.039 C 
ATOM     14  C   UNL     1      10.424 -59.779 -24.345  1.00  0.00    -0.076 C 
ATOM     15  C   UNL     1      11.862 -61.363 -24.436  1.00  0.00     0.039 C 
ATOM     16  C   UNL     1      10.509 -58.390 -24.022  1.00  0.00    -0.024 C 
ATOM     17  C   UNL     1      10.777 -58.106 -22.467  1.00  0.00     0.018 C 
ATOM     18  C   UNL     1      12.129 -58.700 -22.109  1.00  0.00     0.062 C 
ATOM     19  C   UNL     1       9.750 -58.876 -21.578  1.00  0.00     0.017 C 
ATOM     20  H   UNL     1      12.659 -58.472 -24.663  1.00  0.00     0.166 HD
ENDROOT
BRANCH   4  21
ATOM     21  N   UNL     1       9.198 -62.943 -24.116  1.00  0.00    -0.300 NA
ATOM     22  H   UNL     1       8.759 -62.944 -23.192  1.00  0.00     0.188 HD
ENDBRANCH   4  21
TORSDOF 1
ENDMDL
MODEL 7
REMARK VINA RESULT:    -8.640      3.574      6.021
REMARK INTER + INTRA:          -8.640
REMARK INTER:                  -8.640
REMARK INTRA:                   0.000
REMARK UNBOUND:                 0.000
REMARK SMILES CC1=C[C@@H]2Cc3[nH]c4cc(Cl)ccc4c(=N)c3[C@H](C1)C2
REMARK SMILES IDX 7 1 6 2 17 3 15 4 14 5 13 6 12 7 10 8 11 9 9 10 8 11 18 12
REMARK SMILES IDX 19 13 2 14 1 15 3 16 4 17 5 18 20 19 16 21
REMARK H PARENT 7 20 16 22
ROOT
ATOM      1  N   UNL     1      10.356 -60.670 -25.104  1.00  0.00    -0.358 N 
ATOM      2  C   UNL     1       9.900 -60.189 -23.410  1.00  0.00     0.021 A 
ATOM      3  C   UNL     1       8.595 -60.854 -22.650  1.00  0.00     0.000 A 
ATOM      4  C   UNL     1       7.636 -62.380 -23.480  1.00  0.00     0.068 A 
ATOM      5  C   UNL     1       7.987 -62.639 -25.352  1.00  0.00     0.023 A 
ATOM      6  C   UNL     1       7.286 -63.512 -26.133  1.00  0.00     0.014 A 
ATOM      7  C   UNL     1       7.742 -63.607 -27.474  1.00  0.00     0.021 A 
ATOM      8  C   UNL     1       8.872 -62.884 -28.064  1.00  0.00     0.043 A 
ATOM      9  Cl  UNL     1       9.214 -63.209 -29.736  1.00  0.00    -0.084 Cl
ATOM     10  C   UNL     1       9.701 -61.962 -27.406  1.00  0.00     0.047 A 
ATOM     11  C   UNL     1       9.324 -61.784 -26.103  1.00  0.00     0.049 A 
ATOM     12  C   UNL     1       7.384 -59.908 -22.521  1.00  0.00     0.028 C 
ATOM     13  C   UNL     1       6.745 -60.318 -23.842  1.00  0.00     0.039 C 
ATOM     14  C   UNL     1       8.181 -60.638 -24.669  1.00  0.00    -0.076 C 
ATOM     15  C   UNL     1       9.541 -62.148 -23.991  1.00  0.00     0.039 C 
ATOM     16  C   UNL     1       8.347 -59.287 -25.101  1.00  0.00    -0.024 C 
ATOM     17  C   UNL     1       8.727 -58.275 -23.917  1.00  0.00     0.018 C 
ATOM     18  C   UNL     1      10.073 -58.700 -23.352  1.00  0.00     0.062 C 
ATOM     19  C   UNL     1       7.728 -58.416 -22.726  1.00  0.00     0.017 C 
ATOM     20  H   UNL     1      10.446 -59.832 -25.684  1.00  0.00     0.166 HD
ENDROOT
BRANCH   4  21
ATOM     21  N   UNL     1       6.837 -63.158 -22.822  1.00  0.00    -0.300 NA
ATOM     22  H   UNL     1       5.961 -63.271 -23.338  1.00  0.00     0.188 HD
ENDBRANCH   4  21
TORSDOF 1
ENDMDL
MODEL 8
REMARK VINA RESULT:    -8.566      1.723      2.299
REMARK INTER + INTRA:          -8.566
REMARK INTER:                  -8.566
REMARK INTRA:                   0.000
REMARK UNBOUND:                 0.000
REMARK SMILES CC1=C[C@@H]2Cc3[nH]c4cc(Cl)ccc4c(=N)c3[C@H](C1)C2
REMARK SMILES IDX 7 1 6 2 17 3 15 4 14 5 13 6 12 7 10 8 11 9 9 10 8 11 18 12
REMARK SMILES IDX 19 13 2 14 1 15 3 16 4 17 5 18 20 19 16 21
REMARK H PARENT 7 20 16 22
ROOT
ATOM      1  N   UNL     1      11.527 -60.695 -22.500  1.00  0.00    -0.358 N 
ATOM      2  C   UNL     1      10.867 -61.995 -23.587  1.00  0.00     0.021 A 
ATOM      3  C   UNL     1       9.740 -61.657 -24.745  1.00  0.00     0.000 A 
ATOM      4  C   UNL     1       9.262 -59.773 -25.141  1.00  0.00     0.068 A 
ATOM      5  C   UNL     1       9.773 -58.503 -23.791  1.00  0.00     0.023 A 
ATOM      6  C   UNL     1       9.369 -57.199 -23.796  1.00  0.00     0.014 A 
ATOM      7  C   UNL     1       9.908 -56.406 -22.749  1.00  0.00     0.021 A 
ATOM      8  C   UNL     1      10.841 -56.852 -21.710  1.00  0.00     0.043 A 
ATOM      9  Cl  UNL     1      11.349 -55.655 -20.559  1.00  0.00    -0.084 Cl
ATOM     10  C   UNL     1      11.363 -58.147 -21.564  1.00  0.00     0.047 A 
ATOM     11  C   UNL     1      10.880 -58.997 -22.520  1.00  0.00     0.049 A 
ATOM     12  C   UNL     1       8.319 -62.155 -24.414  1.00  0.00     0.028 C 
ATOM     13  C   UNL     1       7.885 -60.877 -23.706  1.00  0.00     0.039 C 
ATOM     14  C   UNL     1       9.399 -60.469 -23.082  1.00  0.00    -0.076 C 
ATOM     15  C   UNL     1      11.066 -60.085 -24.371  1.00  0.00     0.039 C 
ATOM     16  C   UNL     1       9.230 -61.252 -21.899  1.00  0.00    -0.024 C 
ATOM     17  C   UNL     1       9.265 -62.832 -22.163  1.00  0.00     0.018 C 
ATOM     18  C   UNL     1      10.641 -63.186 -22.703  1.00  0.00     0.062 C 
ATOM     19  C   UNL     1       8.272 -63.226 -23.302  1.00  0.00     0.017 C 
ATOM     20  H   UNL     1      11.427 -60.984 -21.524  1.00  0.00     0.166 HD
ENDROOT
BRANCH   4  21
ATOM     21  N   UNL     1       8.659 -59.408 -26.227  1.00  0.00    -0.300 NA
ATOM     22  H   UNL     1       7.786 -59.931 -26.331  1.00  0.00     0.188 HD
ENDBRANCH   4  21
TORSDOF 1
ENDMDL
MODEL 9
REMARK VINA RESULT:    -8.040      6.646     10.210
REMARK INTER + INTRA:          -8.040
REMARK INTER:                  -8.040
REMARK INTRA:                   0.000
REMARK UNBOUND:                 0.000
REMARK SMILES CC1=C[C@@H]2Cc3[nH]c4cc(Cl)ccc4c(=N)c3[C@H](C1)C2
REMARK SMILES IDX 7 1 6 2 17 3 15 4 14 5 13 6 12 7 10 8 11 9 9 10 8 11 18 12
REMARK SMILES IDX 19 13 2 14 1 15 3 16 4 17 5 18 20 19 16 21
REMARK H PARENT 7 20 16 22
ROOT
ATOM      1  N   UNL     1      14.736 -52.077 -24.868  1.00  0.00    -0.358 N 
ATOM      2  C   UNL     1      15.745 -50.564 -24.891  1.00  0.00     0.021 A 
ATOM      3  C   UNL     1      15.304 -49.224 -24.035  1.00  0.00     0.000 A 
ATOM      4  C   UNL     1      13.787 -49.319 -22.759  1.00  0.00     0.068 A 
ATOM      5  C   UNL     1      12.619 -50.827 -22.994  1.00  0.00     0.023 A 
ATOM      6  C   UNL     1      11.429 -50.963 -22.342  1.00  0.00     0.014 A 
ATOM      7  C   UNL     1      10.745 -52.180 -22.601  1.00  0.00     0.021 A 
ATOM      8  C   UNL     1      11.203 -53.270 -23.468  1.00  0.00     0.043 A 
ATOM      9  Cl  UNL     1      10.162 -54.655 -23.588  1.00  0.00    -0.084 Cl
ATOM     10  C   UNL     1      12.399 -53.299 -24.201  1.00  0.00     0.047 A 
ATOM     11  C   UNL     1      13.123 -52.151 -24.033  1.00  0.00     0.049 A 
ATOM     12  C   UNL     1      14.763 -48.067 -24.898  1.00  0.00     0.028 C 
ATOM     13  C   UNL     1      13.307 -48.512 -24.832  1.00  0.00     0.039 C 
ATOM     14  C   UNL     1      13.607 -50.171 -24.755  1.00  0.00    -0.076 C 
ATOM     15  C   UNL     1      14.729 -51.025 -23.142  1.00  0.00     0.039 C 
ATOM     16  C   UNL     1      13.652 -50.327 -26.175  1.00  0.00    -0.024 C 
ATOM     17  C   UNL     1      14.946 -49.667 -26.854  1.00  0.00     0.018 C 
ATOM     18  C   UNL     1      16.173 -50.386 -26.318  1.00  0.00     0.062 C 
ATOM     19  C   UNL     1      15.117 -48.184 -26.397  1.00  0.00     0.017 C 
ATOM     20  H   UNL     1      14.529 -52.364 -25.828  1.00  0.00     0.166 HD
ENDROOT
BRANCH   4  21
ATOM     21  N   UNL     1      13.589 -48.442 -21.827  1.00  0.00    -0.300 NA
ATOM     22  H   UNL     1      12.592 -48.394 -21.602  1.00  0.00     0.188 HD
ENDBRANCH   4  21
TORSDOF 1
ENDMDL
