MODEL 1
REMARK VINA RESULT:    -9.749      0.000      0.000
REMARK INTER + INTRA:         -14.776
REMARK INTER:                 -13.454
REMARK INTRA:                  -1.322
REMARK UNBOUND:                -1.322
REMARK SMILES COc1ccc(OC)c([C@@H]2CC(c3cc(F)cc(F)c3)=NN2c2ccc(S(N)(=O)=O)cc2)c1
REMARK SMILES IDX 23 1 24 2 25 3 26 4 31 5 32 6 22 7 10 8 11 9 12 10 21 11
REMARK SMILES IDX 9 12 3 13 4 14 33 15 5 16 6 17 2 18 1 19 7 20 8 21 13 22
REMARK SMILES IDX 14 23 20 24 15 25 18 26 17 27 16 28 19 29 27 30 29 31 30 32
REMARK SMILES IDX 28 33
REMARK H PARENT 28 34 28 35
ROOT
ATOM      1  C   UNL     1      12.143 -52.301 -23.798  1.00  0.00     0.060 A 
ATOM      2  C   UNL     1      12.389 -53.332 -24.721  1.00  0.00     0.029 A 
ATOM      3  C   UNL     1      11.964 -54.646 -24.488  1.00  0.00     0.024 A 
ATOM      4  C   UNL     1      11.285 -54.950 -23.310  1.00  0.00     0.082 A 
ATOM      5  C   UNL     1      11.011 -53.954 -22.378  1.00  0.00     0.024 A 
ATOM      6  C   UNL     1      11.444 -52.647 -22.626  1.00  0.00     0.029 A 
ENDROOT
BRANCH   1   7
ATOM      7  N   UNL     1      12.567 -50.990 -24.013  1.00  0.00    -0.257 N 
ATOM      8  C   UNL     1      13.493 -50.552 -25.065  1.00  0.00     0.148 C 
ATOM      9  C   UNL     1      13.252 -49.041 -25.113  1.00  0.00     0.091 C 
ATOM     10  C   UNL     1      12.441 -48.857 -23.859  1.00  0.00     0.071 C 
ATOM     11  N   UNL     1      12.047 -49.955 -23.289  1.00  0.00    -0.176 NA
BRANCH   8  12
ATOM     12  C   UNL     1      14.957 -50.856 -24.757  1.00  0.00     0.023 A 
ATOM     13  C   UNL     1      16.722 -51.405 -23.161  1.00  0.00     0.119 A 
ATOM     14  C   UNL     1      17.651 -51.370 -24.199  1.00  0.00     0.050 A 
ATOM     15  C   UNL     1      15.384 -51.142 -23.442  1.00  0.00     0.056 A 
ATOM     16  C   UNL     1      17.253 -51.071 -25.505  1.00  0.00     0.050 A 
ATOM     17  C   UNL     1      15.912 -50.809 -25.792  1.00  0.00     0.124 A 
BRANCH  13  18
ATOM     18  O   UNL     1      17.245 -51.702 -21.933  1.00  0.00    -0.497 OA
ATOM     19  C   UNL     1      17.891 -50.641 -21.238  1.00  0.00     0.278 C 
ENDBRANCH  13  18
BRANCH  17  20
ATOM     20  O   UNL     1      15.432 -50.485 -27.034  1.00  0.00    -0.496 OA
ATOM     21  C   UNL     1      16.031 -49.378 -27.698  1.00  0.00     0.278 C 
ENDBRANCH  17  20
ENDBRANCH   8  12
BRANCH  10  22
ATOM     22  C   UNL     1      12.091 -47.515 -23.343  1.00  0.00     0.004 A 
ATOM     23  C   UNL     1      12.637 -47.096 -22.124  1.00  0.00     0.049 A 
ATOM     24  C   UNL     1      11.230 -46.663 -24.043  1.00  0.00     0.049 A 
ATOM     25  C   UNL     1      12.321 -45.837 -21.623  1.00  0.00     0.126 A 
ATOM     26  C   UNL     1      10.933 -45.408 -23.516  1.00  0.00     0.126 A 
ATOM     27  C   UNL     1      11.471 -44.983 -22.310  1.00  0.00     0.078 A 
ATOM     28  F   UNL     1      12.848 -45.440 -20.458  1.00  0.00    -0.207 F 
ATOM     29  F   UNL     1      10.108 -44.598 -24.191  1.00  0.00    -0.207 F 
ENDBRANCH  10  22
ENDBRANCH   1   7
BRANCH   4  30
ATOM     30  S   UNL     1      10.752 -56.612 -23.016  1.00  0.00     0.238 S 
ATOM     31  O   UNL     1       9.369 -56.729 -23.408  1.00  0.00    -0.207 OA
ATOM     32  O   UNL     1      11.231 -57.030 -21.718  1.00  0.00    -0.207 OA
BRANCH  30  33
ATOM     33  N   UNL     1      11.682 -57.464 -24.135  1.00  0.00    -0.225 NA
ATOM     34  H   UNL     1      12.669 -57.273 -23.952  1.00  0.00     0.137 HD
ATOM     35  H   UNL     1      11.429 -57.258 -25.101  1.00  0.00     0.137 HD
ENDBRANCH  30  33
ENDBRANCH   4  30
TORSDOF 7
ENDMDL
MODEL 2
REMARK VINA RESULT:    -9.440      1.432      2.003
REMARK INTER + INTRA:         -14.349
REMARK INTER:                 -12.762
REMARK INTRA:                  -1.587
REMARK UNBOUND:                -1.322
REMARK SMILES COc1ccc(OC)c([C@@H]2CC(c3cc(F)cc(F)c3)=NN2c2ccc(S(N)(=O)=O)cc2)c1
REMARK SMILES IDX 23 1 24 2 25 3 26 4 31 5 32 6 22 7 10 8 11 9 12 10 21 11
REMARK SMILES IDX 9 12 3 13 4 14 33 15 5 16 6 17 2 18 1 19 7 20 8 21 13 22
REMARK SMILES IDX 14 23 20 24 15 25 18 26 17 27 16 28 19 29 27 30 29 31 30 32
REMARK SMILES IDX 28 33
REMARK H PARENT 28 34 28 35
ROOT
ATOM      1  C   UNL     1      12.275 -52.036 -23.832  1.00  0.00     0.060 A 
ATOM      2  C   UNL     1      11.602 -52.363 -22.642  1.00  0.00     0.029 A 
ATOM      3  C   UNL     1      11.147 -53.662 -22.386  1.00  0.00     0.024 A 
ATOM      4  C   UNL     1      11.355 -54.663 -23.333  1.00  0.00     0.082 A 
ATOM      5  C   UNL     1      12.029 -54.382 -24.518  1.00  0.00     0.024 A 
ATOM      6  C   UNL     1      12.476 -53.078 -24.758  1.00  0.00     0.029 A 
ENDROOT
BRANCH   1   7
ATOM      7  N   UNL     1      12.727 -50.745 -24.104  1.00  0.00    -0.257 N 
ATOM      8  C   UNL     1      13.906 -50.402 -24.907  1.00  0.00     0.148 C 
ATOM      9  C   UNL     1      13.670 -48.926 -25.233  1.00  0.00     0.091 C 
ATOM     10  C   UNL     1      12.535 -48.620 -24.294  1.00  0.00     0.071 C 
ATOM     11  N   UNL     1      12.010 -49.652 -23.707  1.00  0.00    -0.176 NA
BRANCH   8  12
ATOM     12  C   UNL     1      15.227 -50.588 -24.165  1.00  0.00     0.023 A 
ATOM     13  C   UNL     1      16.784 -49.927 -22.403  1.00  0.00     0.119 A 
ATOM     14  C   UNL     1      17.671 -50.909 -22.839  1.00  0.00     0.050 A 
ATOM     15  C   UNL     1      15.572 -49.766 -23.070  1.00  0.00     0.056 A 
ATOM     16  C   UNL     1      17.357 -51.723 -23.931  1.00  0.00     0.050 A 
ATOM     17  C   UNL     1      16.142 -51.567 -24.602  1.00  0.00     0.124 A 
BRANCH  13  18
ATOM     18  O   UNL     1      17.217 -49.198 -21.331  1.00  0.00    -0.497 OA
ATOM     19  C   UNL     1      16.366 -48.150 -20.881  1.00  0.00     0.278 C 
ENDBRANCH  13  18
BRANCH  17  20
ATOM     20  O   UNL     1      15.757 -52.298 -25.695  1.00  0.00    -0.496 OA
ATOM     21  C   UNL     1      16.092 -53.681 -25.707  1.00  0.00     0.278 C 
ENDBRANCH  17  20
ENDBRANCH   8  12
BRANCH  10  22
ATOM     22  C   UNL     1      12.038 -47.241 -24.090  1.00  0.00     0.004 A 
ATOM     23  C   UNL     1      12.661 -46.189 -24.772  1.00  0.00     0.049 A 
ATOM     24  C   UNL     1      10.968 -46.969 -23.231  1.00  0.00     0.049 A 
ATOM     25  C   UNL     1      12.207 -44.886 -24.594  1.00  0.00     0.126 A 
ATOM     26  C   UNL     1      10.535 -45.654 -23.073  1.00  0.00     0.126 A 
ATOM     27  C   UNL     1      11.145 -44.605 -23.747  1.00  0.00     0.078 A 
ATOM     28  F   UNL     1      12.804 -43.884 -25.252  1.00  0.00    -0.207 F 
ATOM     29  F   UNL     1       9.511 -45.401 -22.250  1.00  0.00    -0.207 F 
ENDBRANCH  10  22
ENDBRANCH   1   7
BRANCH   4  30
ATOM     30  S   UNL     1      10.775 -56.303 -23.009  1.00  0.00     0.238 S 
ATOM     31  O   UNL     1       9.400 -56.398 -23.439  1.00  0.00    -0.207 OA
ATOM     32  O   UNL     1      11.204 -56.694 -21.686  1.00  0.00    -0.207 OA
BRANCH  30  33
ATOM     33  N   UNL     1      11.716 -57.208 -24.075  1.00  0.00    -0.225 NA
ATOM     34  H   UNL     1      11.366 -58.168 -24.084  1.00  0.00     0.137 HD
ATOM     35  H   UNL     1      12.712 -57.169 -23.859  1.00  0.00     0.137 HD
ENDBRANCH  30  33
ENDBRANCH   4  30
TORSDOF 7
ENDMDL
MODEL 3
REMARK VINA RESULT:    -8.660      4.653      7.800
REMARK INTER + INTRA:         -13.272
REMARK INTER:                 -11.794
REMARK INTRA:                  -1.478
REMARK UNBOUND:                -1.322
REMARK SMILES COc1ccc(OC)c([C@@H]2CC(c3cc(F)cc(F)c3)=NN2c2ccc(S(N)(=O)=O)cc2)c1
REMARK SMILES IDX 23 1 24 2 25 3 26 4 31 5 32 6 22 7 10 8 11 9 12 10 21 11
REMARK SMILES IDX 9 12 3 13 4 14 33 15 5 16 6 17 2 18 1 19 7 20 8 21 13 22
REMARK SMILES IDX 14 23 20 24 15 25 18 26 17 27 16 28 19 29 27 30 29 31 30 32
REMARK SMILES IDX 28 33
REMARK H PARENT 28 34 28 35
ROOT
ATOM      1  C   UNL     1      12.744 -47.454 -23.636  1.00  0.00     0.060 A 
ATOM      2  C   UNL     1      13.595 -46.432 -23.181  1.00  0.00     0.029 A 
ATOM      3  C   UNL     1      13.196 -45.090 -23.176  1.00  0.00     0.024 A 
ATOM      4  C   UNL     1      11.926 -44.748 -23.638  1.00  0.00     0.082 A 
ATOM      5  C   UNL     1      11.050 -45.733 -24.083  1.00  0.00     0.024 A 
ATOM      6  C   UNL     1      11.466 -47.069 -24.082  1.00  0.00     0.029 A 
ENDROOT
BRANCH   1   7
ATOM      7  N   UNL     1      13.130 -48.794 -23.654  1.00  0.00    -0.257 N 
ATOM      8  C   UNL     1      14.497 -49.293 -23.466  1.00  0.00     0.148 C 
ATOM      9  C   UNL     1      14.272 -50.772 -23.144  1.00  0.00     0.091 C 
ATOM     10  C   UNL     1      12.818 -50.908 -23.505  1.00  0.00     0.071 C 
ATOM     11  N   UNL     1      12.202 -49.792 -23.751  1.00  0.00    -0.176 NA
BRANCH   8  12
ATOM     12  C   UNL     1      15.380 -49.138 -24.703  1.00  0.00     0.023 A 
ATOM     13  C   UNL     1      15.705 -49.320 -27.117  1.00  0.00     0.119 A 
ATOM     14  C   UNL     1      17.021 -48.891 -26.957  1.00  0.00     0.050 A 
ATOM     15  C   UNL     1      14.894 -49.449 -25.992  1.00  0.00     0.056 A 
ATOM     16  C   UNL     1      17.528 -48.595 -25.688  1.00  0.00     0.050 A 
ATOM     17  C   UNL     1      16.718 -48.720 -24.558  1.00  0.00     0.124 A 
BRANCH  13  18
ATOM     18  O   UNL     1      15.341 -49.583 -28.408  1.00  0.00    -0.497 OA
ATOM     19  C   UNL     1      15.242 -48.467 -29.285  1.00  0.00     0.278 C 
ENDBRANCH  13  18
BRANCH  17  20
ATOM     20  O   UNL     1      17.131 -48.476 -23.274  1.00  0.00    -0.496 OA
ATOM     21  C   UNL     1      18.214 -49.255 -22.777  1.00  0.00     0.278 C 
ENDBRANCH  17  20
ENDBRANCH   8  12
BRANCH  10  22
ATOM     22  C   UNL     1      12.139 -52.223 -23.539  1.00  0.00     0.004 A 
ATOM     23  C   UNL     1      11.163 -52.506 -22.577  1.00  0.00     0.049 A 
ATOM     24  C   UNL     1      12.455 -53.184 -24.505  1.00  0.00     0.049 A 
ATOM     25  C   UNL     1      10.514 -53.737 -22.593  1.00  0.00     0.126 A 
ATOM     26  C   UNL     1      11.789 -54.408 -24.496  1.00  0.00     0.126 A 
ATOM     27  C   UNL     1      10.817 -54.696 -23.548  1.00  0.00     0.078 A 
ATOM     28  F   UNL     1       9.578 -54.001 -21.672  1.00  0.00    -0.207 F 
ATOM     29  F   UNL     1      12.096 -55.323 -25.424  1.00  0.00    -0.207 F 
ENDBRANCH  10  22
ENDBRANCH   1   7
BRANCH   4  30
ATOM     30  S   UNL     1      11.427 -43.050 -23.634  1.00  0.00     0.238 S 
ATOM     31  O   UNL     1      12.531 -42.244 -24.097  1.00  0.00    -0.207 OA
ATOM     32  O   UNL     1      10.728 -42.774 -22.400  1.00  0.00    -0.207 OA
BRANCH  30  33
ATOM     33  N   UNL     1      10.243 -43.046 -24.834  1.00  0.00    -0.225 NA
ATOM     34  H   UNL     1       9.385 -43.441 -24.446  1.00  0.00     0.137 HD
ATOM     35  H   UNL     1      10.535 -43.532 -25.682  1.00  0.00     0.137 HD
ENDBRANCH  30  33
ENDBRANCH   4  30
TORSDOF 7
ENDMDL
MODEL 4
REMARK VINA RESULT:    -8.591      3.264      6.002
REMARK INTER + INTRA:         -13.176
REMARK INTER:                 -11.879
REMARK INTRA:                  -1.298
REMARK UNBOUND:                -1.322
REMARK SMILES COc1ccc(OC)c([C@@H]2CC(c3cc(F)cc(F)c3)=NN2c2ccc(S(N)(=O)=O)cc2)c1
REMARK SMILES IDX 23 1 24 2 25 3 26 4 31 5 32 6 22 7 10 8 11 9 12 10 21 11
REMARK SMILES IDX 9 12 3 13 4 14 33 15 5 16 6 17 2 18 1 19 7 20 8 21 13 22
REMARK SMILES IDX 14 23 20 24 15 25 18 26 17 27 16 28 19 29 27 30 29 31 30 32
REMARK SMILES IDX 28 33
REMARK H PARENT 28 34 28 35
ROOT
ATOM      1  C   UNL     1      13.357 -51.642 -24.981  1.00  0.00     0.060 A 
ATOM      2  C   UNL     1      12.632 -51.526 -23.782  1.00  0.00     0.029 A 
ATOM      3  C   UNL     1      11.872 -52.587 -23.275  1.00  0.00     0.024 A 
ATOM      4  C   UNL     1      11.821 -53.792 -23.974  1.00  0.00     0.082 A 
ATOM      5  C   UNL     1      12.536 -53.950 -25.157  1.00  0.00     0.024 A 
ATOM      6  C   UNL     1      13.289 -52.879 -25.650  1.00  0.00     0.029 A 
ENDROOT
BRANCH   1   7
ATOM      7  N   UNL     1      14.111 -50.591 -25.501  1.00  0.00    -0.257 N 
ATOM      8  C   UNL     1      14.926 -49.653 -24.720  1.00  0.00     0.148 C 
ATOM      9  C   UNL     1      15.839 -49.039 -25.783  1.00  0.00     0.091 C 
ATOM     10  C   UNL     1      15.165 -49.530 -27.035  1.00  0.00     0.071 C 
ATOM     11  N   UNL     1      14.233 -50.414 -26.850  1.00  0.00    -0.176 NA
BRANCH   8  12
ATOM     12  C   UNL     1      14.109 -48.571 -24.019  1.00  0.00     0.023 A 
ATOM     13  C   UNL     1      12.266 -46.967 -24.017  1.00  0.00     0.119 A 
ATOM     14  C   UNL     1      12.644 -46.556 -22.740  1.00  0.00     0.050 A 
ATOM     15  C   UNL     1      13.001 -47.964 -24.652  1.00  0.00     0.056 A 
ATOM     16  C   UNL     1      13.747 -47.130 -22.102  1.00  0.00     0.050 A 
ATOM     17  C   UNL     1      14.486 -48.132 -22.734  1.00  0.00     0.124 A 
BRANCH  13  18
ATOM     18  O   UNL     1      11.176 -46.319 -24.528  1.00  0.00    -0.497 OA
ATOM     19  C   UNL     1      10.532 -45.379 -23.676  1.00  0.00     0.278 C 
ENDBRANCH  13  18
BRANCH  17  20
ATOM     20  O   UNL     1      15.595 -48.736 -22.200  1.00  0.00    -0.496 OA
ATOM     21  C   UNL     1      16.653 -47.891 -21.762  1.00  0.00     0.278 C 
ENDBRANCH  17  20
ENDBRANCH   8  12
BRANCH  10  22
ATOM     22  C   UNL     1      15.569 -49.057 -28.378  1.00  0.00     0.004 A 
ATOM     23  C   UNL     1      14.765 -48.120 -29.036  1.00  0.00     0.049 A 
ATOM     24  C   UNL     1      16.730 -49.529 -29.000  1.00  0.00     0.049 A 
ATOM     25  C   UNL     1      15.129 -47.664 -30.299  1.00  0.00     0.126 A 
ATOM     26  C   UNL     1      17.069 -49.054 -30.265  1.00  0.00     0.126 A 
ATOM     27  C   UNL     1      16.279 -48.122 -30.925  1.00  0.00     0.078 A 
ATOM     28  F   UNL     1      14.358 -46.764 -30.923  1.00  0.00    -0.207 F 
ATOM     29  F   UNL     1      18.181 -49.509 -30.856  1.00  0.00    -0.207 F 
ENDBRANCH  10  22
ENDBRANCH   1   7
BRANCH   4  30
ATOM     30  S   UNL     1      10.856 -55.130 -23.333  1.00  0.00     0.238 S 
ATOM     31  O   UNL     1       9.541 -55.074 -23.925  1.00  0.00    -0.207 OA
ATOM     32  O   UNL     1      11.064 -55.210 -21.905  1.00  0.00    -0.207 OA
BRANCH  30  33
ATOM     33  N   UNL     1      11.660 -56.463 -23.981  1.00  0.00    -0.225 NA
ATOM     34  H   UNL     1      12.484 -56.656 -23.409  1.00  0.00     0.137 HD
ATOM     35  H   UNL     1      11.901 -56.343 -24.965  1.00  0.00     0.137 HD
ENDBRANCH  30  33
ENDBRANCH   4  30
TORSDOF 7
ENDMDL
MODEL 5
REMARK VINA RESULT:    -8.563      4.682      7.551
REMARK INTER + INTRA:         -13.139
REMARK INTER:                 -11.970
REMARK INTRA:                  -1.168
REMARK UNBOUND:                -1.322
REMARK SMILES COc1ccc(OC)c([C@@H]2CC(c3cc(F)cc(F)c3)=NN2c2ccc(S(N)(=O)=O)cc2)c1
REMARK SMILES IDX 23 1 24 2 25 3 26 4 31 5 32 6 22 7 10 8 11 9 12 10 21 11
REMARK SMILES IDX 9 12 3 13 4 14 33 15 5 16 6 17 2 18 1 19 7 20 8 21 13 22
REMARK SMILES IDX 14 23 20 24 15 25 18 26 17 27 16 28 19 29 27 30 29 31 30 32
REMARK SMILES IDX 28 33
REMARK H PARENT 28 34 28 35
ROOT
ATOM      1  C   UNL     1      13.618 -49.195 -25.438  1.00  0.00     0.060 A 
ATOM      2  C   UNL     1      14.123 -50.046 -26.436  1.00  0.00     0.029 A 
ATOM      3  C   UNL     1      14.862 -49.554 -27.520  1.00  0.00     0.024 A 
ATOM      4  C   UNL     1      15.101 -48.185 -27.623  1.00  0.00     0.082 A 
ATOM      5  C   UNL     1      14.629 -47.311 -26.648  1.00  0.00     0.024 A 
ATOM      6  C   UNL     1      13.892 -47.821 -25.573  1.00  0.00     0.029 A 
ENDROOT
BRANCH   1   7
ATOM      7  N   UNL     1      12.875 -49.670 -24.359  1.00  0.00    -0.257 N 
ATOM      8  C   UNL     1      12.038 -48.855 -23.470  1.00  0.00     0.148 C 
ATOM      9  C   UNL     1      11.150 -49.901 -22.793  1.00  0.00     0.091 C 
ATOM     10  C   UNL     1      11.857 -51.163 -23.208  1.00  0.00     0.071 C 
ATOM     11  N   UNL     1      12.786 -51.009 -24.101  1.00  0.00    -0.176 NA
BRANCH   8  12
ATOM     12  C   UNL     1      12.835 -48.070 -22.431  1.00  0.00     0.023 A 
ATOM     13  C   UNL     1      14.854 -47.762 -21.090  1.00  0.00     0.119 A 
ATOM     14  C   UNL     1      14.269 -46.646 -20.493  1.00  0.00     0.050 A 
ATOM     15  C   UNL     1      14.134 -48.471 -22.048  1.00  0.00     0.056 A 
ATOM     16  C   UNL     1      12.978 -46.241 -20.844  1.00  0.00     0.050 A 
ATOM     17  C   UNL     1      12.254 -46.947 -21.806  1.00  0.00     0.124 A 
BRANCH  13  18
ATOM     18  O   UNL     1      16.115 -48.052 -20.650  1.00  0.00    -0.497 OA
ATOM     19  C   UNL     1      16.775 -47.049 -19.887  1.00  0.00     0.278 C 
ENDBRANCH  13  18
BRANCH  17  20
ATOM     20  O   UNL     1      10.976 -46.642 -22.198  1.00  0.00    -0.496 OA
ATOM     21  C   UNL     1      10.662 -45.267 -22.388  1.00  0.00     0.278 C 
ENDBRANCH  17  20
ENDBRANCH   8  12
BRANCH  10  22
ATOM     22  C   UNL     1      11.486 -52.486 -22.655  1.00  0.00     0.004 A 
ATOM     23  C   UNL     1      11.247 -52.603 -21.282  1.00  0.00     0.049 A 
ATOM     24  C   UNL     1      11.374 -53.614 -23.474  1.00  0.00     0.049 A 
ATOM     25  C   UNL     1      10.897 -53.837 -20.744  1.00  0.00     0.126 A 
ATOM     26  C   UNL     1      11.020 -54.837 -22.908  1.00  0.00     0.126 A 
ATOM     27  C   UNL     1      10.779 -54.962 -21.547  1.00  0.00     0.078 A 
ATOM     28  F   UNL     1      10.666 -53.943 -19.430  1.00  0.00    -0.207 F 
ATOM     29  F   UNL     1      10.914 -55.914 -23.697  1.00  0.00    -0.207 F 
ENDBRANCH  10  22
ENDBRANCH   1   7
BRANCH   4  30
ATOM     30  S   UNL     1      16.031 -47.565 -28.996  1.00  0.00     0.238 S 
ATOM     31  O   UNL     1      15.359 -46.399 -29.518  1.00  0.00    -0.207 OA
ATOM     32  O   UNL     1      16.422 -48.677 -29.832  1.00  0.00    -0.207 OA
BRANCH  30  33
ATOM     33  N   UNL     1      17.446 -47.052 -28.237  1.00  0.00    -0.225 NA
ATOM     34  H   UNL     1      17.345 -47.192 -27.230  1.00  0.00     0.137 HD
ATOM     35  H   UNL     1      17.692 -46.088 -28.463  1.00  0.00     0.137 HD
ENDBRANCH  30  33
ENDBRANCH   4  30
TORSDOF 7
ENDMDL
MODEL 6
REMARK VINA RESULT:    -8.349      4.385      7.163
REMARK INTER + INTRA:         -12.843
REMARK INTER:                 -11.361
REMARK INTRA:                  -1.482
REMARK UNBOUND:                -1.322
REMARK SMILES COc1ccc(OC)c([C@@H]2CC(c3cc(F)cc(F)c3)=NN2c2ccc(S(N)(=O)=O)cc2)c1
REMARK SMILES IDX 23 1 24 2 25 3 26 4 31 5 32 6 22 7 10 8 11 9 12 10 21 11
REMARK SMILES IDX 9 12 3 13 4 14 33 15 5 16 6 17 2 18 1 19 7 20 8 21 13 22
REMARK SMILES IDX 14 23 20 24 15 25 18 26 17 27 16 28 19 29 27 30 29 31 30 32
REMARK SMILES IDX 28 33
REMARK H PARENT 28 34 28 35
ROOT
ATOM      1  C   UNL     1      16.998 -51.212 -24.969  1.00  0.00     0.060 A 
ATOM      2  C   UNL     1      17.869 -51.891 -25.839  1.00  0.00     0.029 A 
ATOM      3  C   UNL     1      19.257 -51.865 -25.661  1.00  0.00     0.024 A 
ATOM      4  C   UNL     1      19.800 -51.144 -24.599  1.00  0.00     0.082 A 
ATOM      5  C   UNL     1      18.971 -50.470 -23.708  1.00  0.00     0.024 A 
ATOM      6  C   UNL     1      17.586 -50.506 -23.902  1.00  0.00     0.029 A 
ENDROOT
BRANCH   1   7
ATOM      7  N   UNL     1      15.614 -51.223 -25.139  1.00  0.00    -0.257 N 
ATOM      8  C   UNL     1      14.899 -50.835 -26.360  1.00  0.00     0.148 C 
ATOM      9  C   UNL     1      13.513 -51.446 -26.144  1.00  0.00     0.091 C 
ATOM     10  C   UNL     1      13.607 -51.820 -24.690  1.00  0.00     0.071 C 
ATOM     11  N   UNL     1      14.791 -51.718 -24.168  1.00  0.00    -0.176 NA
BRANCH   8  12
ATOM     12  C   UNL     1      14.798 -49.324 -26.555  1.00  0.00     0.023 A 
ATOM     13  C   UNL     1      14.029 -47.131 -25.802  1.00  0.00     0.119 A 
ATOM     14  C   UNL     1      14.583 -46.560 -26.946  1.00  0.00     0.050 A 
ATOM     15  C   UNL     1      14.133 -48.507 -25.615  1.00  0.00     0.056 A 
ATOM     16  C   UNL     1      15.232 -47.352 -27.898  1.00  0.00     0.050 A 
ATOM     17  C   UNL     1      15.340 -48.732 -27.714  1.00  0.00     0.124 A 
BRANCH  13  18
ATOM     18  O   UNL     1      13.419 -46.246 -24.958  1.00  0.00    -0.497 OA
ATOM     19  C   UNL     1      12.103 -46.575 -24.526  1.00  0.00     0.278 C 
ENDBRANCH  13  18
BRANCH  17  20
ATOM     20  O   UNL     1      15.934 -49.591 -28.601  1.00  0.00    -0.496 OA
ATOM     21  C   UNL     1      17.202 -49.214 -29.127  1.00  0.00     0.278 C 
ENDBRANCH  17  20
ENDBRANCH   8  12
BRANCH  10  22
ATOM     22  C   UNL     1      12.432 -52.304 -23.929  1.00  0.00     0.004 A 
ATOM     23  C   UNL     1      11.832 -51.450 -22.997  1.00  0.00     0.049 A 
ATOM     24  C   UNL     1      11.917 -53.590 -24.120  1.00  0.00     0.049 A 
ATOM     25  C   UNL     1      10.727 -51.886 -22.273  1.00  0.00     0.126 A 
ATOM     26  C   UNL     1      10.809 -53.999 -23.380  1.00  0.00     0.126 A 
ATOM     27  C   UNL     1      10.205 -53.158 -22.456  1.00  0.00     0.078 A 
ATOM     28  F   UNL     1      10.154 -51.064 -21.385  1.00  0.00    -0.207 F 
ATOM     29  F   UNL     1      10.320 -55.231 -23.567  1.00  0.00    -0.207 F 
ENDBRANCH  10  22
ENDBRANCH   1   7
BRANCH   4  30
ATOM     30  S   UNL     1      21.556 -51.109 -24.378  1.00  0.00     0.238 S 
ATOM     31  O   UNL     1      21.842 -51.081 -22.964  1.00  0.00    -0.207 OA
ATOM     32  O   UNL     1      22.122 -50.156 -25.306  1.00  0.00    -0.207 OA
BRANCH  30  33
ATOM     33  N   UNL     1      21.997 -52.627 -24.966  1.00  0.00    -0.225 NA
ATOM     34  H   UNL     1      22.138 -52.558 -25.975  1.00  0.00     0.137 HD
ATOM     35  H   UNL     1      21.327 -53.357 -24.725  1.00  0.00     0.137 HD
ENDBRANCH  30  33
ENDBRANCH   4  30
TORSDOF 7
ENDMDL
MODEL 7
REMARK VINA RESULT:    -8.275      3.793      6.468
REMARK INTER + INTRA:         -12.741
REMARK INTER:                 -11.397
REMARK INTRA:                  -1.343
REMARK UNBOUND:                -1.322
REMARK SMILES COc1ccc(OC)c([C@@H]2CC(c3cc(F)cc(F)c3)=NN2c2ccc(S(N)(=O)=O)cc2)c1
REMARK SMILES IDX 23 1 24 2 25 3 26 4 31 5 32 6 22 7 10 8 11 9 12 10 21 11
REMARK SMILES IDX 9 12 3 13 4 14 33 15 5 16 6 17 2 18 1 19 7 20 8 21 13 22
REMARK SMILES IDX 14 23 20 24 15 25 18 26 17 27 16 28 19 29 27 30 29 31 30 32
REMARK SMILES IDX 28 33
REMARK H PARENT 28 34 28 35
ROOT
ATOM      1  C   UNL     1      12.870 -49.733 -24.035  1.00  0.00     0.060 A 
ATOM      2  C   UNL     1      11.879 -49.435 -23.083  1.00  0.00     0.029 A 
ATOM      3  C   UNL     1      11.102 -50.438 -22.490  1.00  0.00     0.024 A 
ATOM      4  C   UNL     1      11.304 -51.769 -22.853  1.00  0.00     0.082 A 
ATOM      5  C   UNL     1      12.284 -52.105 -23.781  1.00  0.00     0.024 A 
ATOM      6  C   UNL     1      13.050 -51.089 -24.364  1.00  0.00     0.029 A 
ENDROOT
BRANCH   1   7
ATOM      7  N   UNL     1      13.645 -48.744 -24.638  1.00  0.00    -0.257 N 
ATOM      8  C   UNL     1      14.425 -47.719 -23.935  1.00  0.00     0.148 C 
ATOM      9  C   UNL     1      15.383 -47.224 -25.020  1.00  0.00     0.091 C 
ATOM     10  C   UNL     1      14.764 -47.858 -26.236  1.00  0.00     0.071 C 
ATOM     11  N   UNL     1      13.825 -48.721 -25.992  1.00  0.00    -0.176 NA
BRANCH   8  12
ATOM     12  C   UNL     1      13.577 -46.568 -23.397  1.00  0.00     0.023 A 
ATOM     13  C   UNL     1      12.164 -44.612 -23.778  1.00  0.00     0.119 A 
ATOM     14  C   UNL     1      12.061 -44.437 -22.400  1.00  0.00     0.050 A 
ATOM     15  C   UNL     1      12.925 -45.670 -24.270  1.00  0.00     0.056 A 
ATOM     16  C   UNL     1      12.713 -45.303 -21.517  1.00  0.00     0.050 A 
ATOM     17  C   UNL     1      13.475 -46.366 -22.006  1.00  0.00     0.124 A 
BRANCH  13  18
ATOM     18  O   UNL     1      11.485 -43.691 -24.525  1.00  0.00    -0.497 OA
ATOM     19  C   UNL     1      12.259 -42.880 -25.402  1.00  0.00     0.278 C 
ENDBRANCH  13  18
BRANCH  17  20
ATOM     20  O   UNL     1      14.168 -47.252 -21.222  1.00  0.00    -0.496 OA
ATOM     21  C   UNL     1      14.124 -47.051 -19.814  1.00  0.00     0.278 C 
ENDBRANCH  17  20
ENDBRANCH   8  12
BRANCH  10  22
ATOM     22  C   UNL     1      15.226 -47.539 -27.606  1.00  0.00     0.004 A 
ATOM     23  C   UNL     1      15.941 -46.356 -27.820  1.00  0.00     0.049 A 
ATOM     24  C   UNL     1      14.960 -48.390 -28.683  1.00  0.00     0.049 A 
ATOM     25  C   UNL     1      16.384 -46.040 -29.101  1.00  0.00     0.126 A 
ATOM     26  C   UNL     1      15.417 -48.048 -29.954  1.00  0.00     0.126 A 
ATOM     27  C   UNL     1      16.129 -46.877 -30.177  1.00  0.00     0.078 A 
ATOM     28  F   UNL     1      17.071 -44.908 -29.300  1.00  0.00    -0.207 F 
ATOM     29  F   UNL     1      15.159 -48.866 -30.982  1.00  0.00    -0.207 F 
ENDBRANCH  10  22
ENDBRANCH   1   7
BRANCH   4  30
ATOM     30  S   UNL     1      10.317 -53.034 -22.105  1.00  0.00     0.238 S 
ATOM     31  O   UNL     1      10.712 -53.170 -20.724  1.00  0.00    -0.207 OA
ATOM     32  O   UNL     1      10.244 -54.160 -23.008  1.00  0.00    -0.207 OA
BRANCH  30  33
ATOM     33  N   UNL     1       8.786 -52.328 -22.140  1.00  0.00    -0.225 NA
ATOM     34  H   UNL     1       8.390 -52.454 -23.073  1.00  0.00     0.137 HD
ATOM     35  H   UNL     1       8.794 -51.347 -21.860  1.00  0.00     0.137 HD
ENDBRANCH  30  33
ENDBRANCH   4  30
TORSDOF 7
ENDMDL
MODEL 8
REMARK VINA RESULT:    -8.010      2.028      2.783
REMARK INTER + INTRA:         -12.375
REMARK INTER:                 -11.019
REMARK INTRA:                  -1.356
REMARK UNBOUND:                -1.322
REMARK SMILES COc1ccc(OC)c([C@@H]2CC(c3cc(F)cc(F)c3)=NN2c2ccc(S(N)(=O)=O)cc2)c1
REMARK SMILES IDX 23 1 24 2 25 3 26 4 31 5 32 6 22 7 10 8 11 9 12 10 21 11
REMARK SMILES IDX 9 12 3 13 4 14 33 15 5 16 6 17 2 18 1 19 7 20 8 21 13 22
REMARK SMILES IDX 14 23 20 24 15 25 18 26 17 27 16 28 19 29 27 30 29 31 30 32
REMARK SMILES IDX 28 33
REMARK H PARENT 28 34 28 35
ROOT
ATOM      1  C   UNL     1      12.219 -50.350 -23.397  1.00  0.00     0.060 A 
ATOM      2  C   UNL     1      11.471 -50.355 -22.207  1.00  0.00     0.029 A 
ATOM      3  C   UNL     1      10.933 -51.536 -21.681  1.00  0.00     0.024 A 
ATOM      4  C   UNL     1      11.134 -52.741 -22.350  1.00  0.00     0.082 A 
ATOM      5  C   UNL     1      11.881 -52.779 -23.524  1.00  0.00     0.024 A 
ATOM      6  C   UNL     1      12.410 -51.589 -24.036  1.00  0.00     0.029 A 
ENDROOT
BRANCH   1   7
ATOM      7  N   UNL     1      12.754 -49.181 -23.937  1.00  0.00    -0.257 N 
ATOM      8  C   UNL     1      13.553 -49.092 -25.165  1.00  0.00     0.148 C 
ATOM      9  C   UNL     1      13.483 -47.601 -25.502  1.00  0.00     0.091 C 
ATOM     10  C   UNL     1      12.898 -47.063 -24.224  1.00  0.00     0.071 C 
ATOM     11  N   UNL     1      12.473 -47.961 -23.389  1.00  0.00    -0.176 NA
BRANCH   8  12
ATOM     12  C   UNL     1      15.002 -49.538 -24.985  1.00  0.00     0.023 A 
ATOM     13  C   UNL     1      16.991 -49.787 -23.589  1.00  0.00     0.119 A 
ATOM     14  C   UNL     1      17.672 -50.321 -24.681  1.00  0.00     0.050 A 
ATOM     15  C   UNL     1      15.664 -49.392 -23.747  1.00  0.00     0.056 A 
ATOM     16  C   UNL     1      17.041 -50.458 -25.921  1.00  0.00     0.050 A 
ATOM     17  C   UNL     1      15.711 -50.067 -26.083  1.00  0.00     0.124 A 
BRANCH  13  18
ATOM     18  O   UNL     1      17.726 -49.701 -22.441  1.00  0.00    -0.497 OA
ATOM     19  C   UNL     1      19.029 -50.271 -22.469  1.00  0.00     0.278 C 
ENDBRANCH  13  18
BRANCH  17  20
ATOM     20  O   UNL     1      15.016 -50.140 -27.262  1.00  0.00    -0.496 OA
ATOM     21  C   UNL     1      15.418 -49.268 -28.313  1.00  0.00     0.278 C 
ENDBRANCH  17  20
ENDBRANCH   8  12
BRANCH  10  22
ATOM     22  C   UNL     1      12.789 -45.610 -23.965  1.00  0.00     0.004 A 
ATOM     23  C   UNL     1      12.603 -44.741 -25.046  1.00  0.00     0.049 A 
ATOM     24  C   UNL     1      12.870 -45.090 -22.669  1.00  0.00     0.049 A 
ATOM     25  C   UNL     1      12.497 -43.372 -24.822  1.00  0.00     0.126 A 
ATOM     26  C   UNL     1      12.760 -43.715 -22.475  1.00  0.00     0.126 A 
ATOM     27  C   UNL     1      12.574 -42.846 -23.541  1.00  0.00     0.078 A 
ATOM     28  F   UNL     1      12.316 -42.546 -25.860  1.00  0.00    -0.207 F 
ATOM     29  F   UNL     1      12.839 -43.224 -21.232  1.00  0.00    -0.207 F 
ENDBRANCH  10  22
ENDBRANCH   1   7
BRANCH   4  30
ATOM     30  S   UNL     1      10.449 -54.232 -21.685  1.00  0.00     0.238 S 
ATOM     31  O   UNL     1      11.211 -55.352 -22.184  1.00  0.00    -0.207 OA
ATOM     32  O   UNL     1       9.009 -54.165 -21.783  1.00  0.00    -0.207 OA
BRANCH  30  33
ATOM     33  N   UNL     1      10.798 -54.057 -20.045  1.00  0.00    -0.225 NA
ATOM     34  H   UNL     1      10.897 -53.062 -19.837  1.00  0.00     0.137 HD
ATOM     35  H   UNL     1      11.618 -54.589 -19.753  1.00  0.00     0.137 HD
ENDBRANCH  30  33
ENDBRANCH   4  30
TORSDOF 7
ENDMDL
MODEL 9
REMARK VINA RESULT:    -7.992      4.868      8.113
REMARK INTER + INTRA:         -12.351
REMARK INTER:                 -11.076
REMARK INTRA:                  -1.275
REMARK UNBOUND:                -1.322
REMARK SMILES COc1ccc(OC)c([C@@H]2CC(c3cc(F)cc(F)c3)=NN2c2ccc(S(N)(=O)=O)cc2)c1
REMARK SMILES IDX 23 1 24 2 25 3 26 4 31 5 32 6 22 7 10 8 11 9 12 10 21 11
REMARK SMILES IDX 9 12 3 13 4 14 33 15 5 16 6 17 2 18 1 19 7 20 8 21 13 22
REMARK SMILES IDX 14 23 20 24 15 25 18 26 17 27 16 28 19 29 27 30 29 31 30 32
REMARK SMILES IDX 28 33
REMARK H PARENT 28 34 28 35
ROOT
ATOM      1  C   UNL     1      13.496 -47.520 -24.811  1.00  0.00     0.060 A 
ATOM      2  C   UNL     1      12.167 -47.134 -24.564  1.00  0.00     0.029 A 
ATOM      3  C   UNL     1      11.809 -45.790 -24.398  1.00  0.00     0.024 A 
ATOM      4  C   UNL     1      12.790 -44.803 -24.471  1.00  0.00     0.082 A 
ATOM      5  C   UNL     1      14.114 -45.144 -24.728  1.00  0.00     0.024 A 
ATOM      6  C   UNL     1      14.454 -46.492 -24.890  1.00  0.00     0.029 A 
ENDROOT
BRANCH   1   7
ATOM      7  N   UNL     1      13.868 -48.854 -24.971  1.00  0.00    -0.257 N 
ATOM      8  C   UNL     1      15.240 -49.346 -25.140  1.00  0.00     0.148 C 
ATOM      9  C   UNL     1      15.102 -50.837 -24.826  1.00  0.00     0.091 C 
ATOM     10  C   UNL     1      13.604 -50.975 -24.826  1.00  0.00     0.071 C 
ATOM     11  N   UNL     1      12.946 -49.857 -24.874  1.00  0.00    -0.176 NA
BRANCH   8  12
ATOM     12  C   UNL     1      15.794 -49.140 -26.548  1.00  0.00     0.023 A 
ATOM     13  C   UNL     1      15.442 -48.782 -28.939  1.00  0.00     0.119 A 
ATOM     14  C   UNL     1      16.822 -48.806 -29.131  1.00  0.00     0.050 A 
ATOM     15  C   UNL     1      14.935 -48.956 -27.653  1.00  0.00     0.056 A 
ATOM     16  C   UNL     1      17.690 -49.004 -28.054  1.00  0.00     0.050 A 
ATOM     17  C   UNL     1      17.187 -49.176 -26.763  1.00  0.00     0.124 A 
BRANCH  13  18
ATOM     18  O   UNL     1      14.708 -48.588 -30.075  1.00  0.00    -0.497 OA
ATOM     19  C   UNL     1      14.376 -47.244 -30.403  1.00  0.00     0.278 C 
ENDBRANCH  13  18
BRANCH  17  20
ATOM     20  O   UNL     1      17.956 -49.400 -25.651  1.00  0.00    -0.496 OA
ATOM     21  C   UNL     1      18.881 -50.481 -25.702  1.00  0.00     0.278 C 
ENDBRANCH  17  20
ENDBRANCH   8  12
BRANCH  10  22
ATOM     22  C   UNL     1      12.940 -52.295 -24.740  1.00  0.00     0.004 A 
ATOM     23  C   UNL     1      12.048 -52.537 -23.689  1.00  0.00     0.049 A 
ATOM     24  C   UNL     1      13.187 -53.300 -25.681  1.00  0.00     0.049 A 
ATOM     25  C   UNL     1      11.413 -53.772 -23.592  1.00  0.00     0.126 A 
ATOM     26  C   UNL     1      12.536 -54.526 -25.559  1.00  0.00     0.126 A 
ATOM     27  C   UNL     1      11.648 -54.774 -24.521  1.00  0.00     0.078 A 
ATOM     28  F   UNL     1      10.559 -53.996 -22.586  1.00  0.00    -0.207 F 
ATOM     29  F   UNL     1      12.777 -55.484 -26.463  1.00  0.00    -0.207 F 
ENDBRANCH  10  22
ENDBRANCH   1   7
BRANCH   4  30
ATOM     30  S   UNL     1      12.335 -43.106 -24.256  1.00  0.00     0.238 S 
ATOM     31  O   UNL     1      12.814 -42.660 -22.970  1.00  0.00    -0.207 OA
ATOM     32  O   UNL     1      10.963 -42.937 -24.676  1.00  0.00    -0.207 OA
BRANCH  30  33
ATOM     33  N   UNL     1      13.267 -42.357 -25.445  1.00  0.00    -0.225 NA
ATOM     34  H   UNL     1      12.958 -42.690 -26.359  1.00  0.00     0.137 HD
ATOM     35  H   UNL     1      14.269 -42.493 -25.309  1.00  0.00     0.137 HD
ENDBRANCH  30  33
ENDBRANCH   4  30
TORSDOF 7
ENDMDL
