MODEL 1
REMARK VINA RESULT:    -9.113      0.000      0.000
REMARK INTER + INTRA:         -13.863
REMARK INTER:                 -12.576
REMARK INTRA:                  -1.287
REMARK UNBOUND:                -1.287
REMARK SMILES COc1ccc(OC)c([C@H]2C=C(c3cc(F)cc(F)c3)NN2c2ccc(S(N)(=O)=O)cc2)c1
REMARK SMILES IDX 23 1 24 2 25 3 26 4 31 5 32 6 22 7 21 8 12 9 11 10 10 11
REMARK SMILES IDX 13 13 14 14 20 15 15 16 18 17 17 18 16 19 19 20 9 21 33 22
REMARK SMILES IDX 6 23 3 24 5 25 4 26 7 27 8 28 2 29 1 30 27 31 29 32 30 33
REMARK SMILES IDX 28 34
REMARK H PARENT 21 12 28 35 28 36
ROOT
ATOM      1  C   UNL     1      12.801 -48.331 -24.643  1.00  0.00     0.058 A 
ATOM      2  C   UNL     1      11.599 -47.705 -24.261  1.00  0.00     0.029 A 
ATOM      3  C   UNL     1      11.466 -46.312 -24.230  1.00  0.00     0.024 A 
ATOM      4  C   UNL     1      12.548 -45.516 -24.598  1.00  0.00     0.082 A 
ATOM      5  C   UNL     1      13.755 -46.100 -24.974  1.00  0.00     0.024 A 
ATOM      6  C   UNL     1      13.871 -47.496 -24.999  1.00  0.00     0.029 A 
ENDROOT
BRANCH   1   7
ATOM      7  N   UNL     1      12.891 -49.721 -24.657  1.00  0.00    -0.276 N 
ATOM      8  N   UNL     1      12.270 -50.565 -23.747  1.00  0.00    -0.297 N 
ATOM      9  C   UNL     1      12.430 -51.887 -24.146  1.00  0.00     0.060 C 
ATOM     10  C   UNL     1      13.188 -51.947 -25.254  1.00  0.00     0.033 C 
ATOM     11  C   UNL     1      13.571 -50.547 -25.696  1.00  0.00     0.165 C 
ATOM     12  H   UNL     1      11.293 -50.352 -23.542  1.00  0.00     0.188 HD
BRANCH   9  13
ATOM     13  C   UNL     1      11.819 -52.996 -23.407  1.00  0.00     0.005 A 
ATOM     14  C   UNL     1      11.358 -52.831 -22.095  1.00  0.00     0.049 A 
ATOM     15  C   UNL     1      11.699 -54.260 -24.004  1.00  0.00     0.049 A 
ATOM     16  C   UNL     1      10.790 -53.906 -21.410  1.00  0.00     0.126 A 
ATOM     17  C   UNL     1      11.129 -55.318 -23.299  1.00  0.00     0.126 A 
ATOM     18  C   UNL     1      10.671 -55.154 -22.001  1.00  0.00     0.078 A 
ATOM     19  F   UNL     1      10.358 -53.728 -20.155  1.00  0.00    -0.207 F 
ATOM     20  F   UNL     1      11.023 -56.517 -23.887  1.00  0.00    -0.207 F 
ENDBRANCH   9  13
BRANCH  11  21
ATOM     21  C   UNL     1      15.069 -50.332 -25.806  1.00  0.00     0.026 A 
ATOM     22  C   UNL     1      15.861 -50.552 -24.659  1.00  0.00     0.056 A 
ATOM     23  C   UNL     1      15.724 -49.920 -26.975  1.00  0.00     0.124 A 
ATOM     24  C   UNL     1      17.250 -50.381 -24.673  1.00  0.00     0.119 A 
ATOM     25  C   UNL     1      17.110 -49.724 -26.990  1.00  0.00     0.050 A 
ATOM     26  C   UNL     1      17.872 -49.964 -25.846  1.00  0.00     0.050 A 
BRANCH  23  27
ATOM     27  O   UNL     1      15.003 -49.612 -28.097  1.00  0.00    -0.496 OA
ATOM     28  C   UNL     1      15.057 -48.215 -28.380  1.00  0.00     0.278 C 
ENDBRANCH  23  27
BRANCH  24  29
ATOM     29  O   UNL     1      17.868 -50.647 -23.483  1.00  0.00    -0.497 OA
ATOM     30  C   UNL     1      17.069 -51.230 -22.461  1.00  0.00     0.278 C 
ENDBRANCH  24  29
ENDBRANCH  11  21
ENDBRANCH   1   7
BRANCH   4  31
ATOM     31  S   UNL     1      12.406 -43.752 -24.557  1.00  0.00     0.238 S 
ATOM     32  O   UNL     1      13.576 -43.212 -23.906  1.00  0.00    -0.207 OA
ATOM     33  O   UNL     1      11.062 -43.406 -24.156  1.00  0.00    -0.207 OA
BRANCH  31  34
ATOM     34  N   UNL     1      12.501 -43.370 -26.195  1.00  0.00    -0.225 NA
ATOM     35  H   UNL     1      12.355 -42.365 -26.307  1.00  0.00     0.137 HD
ATOM     36  H   UNL     1      11.862 -43.915 -26.773  1.00  0.00     0.137 HD
ENDBRANCH  31  34
ENDBRANCH   4  31
TORSDOF 7
ENDMDL
MODEL 2
REMARK VINA RESULT:    -9.001      0.631      1.596
REMARK INTER + INTRA:         -13.708
REMARK INTER:                 -12.450
REMARK INTRA:                  -1.258
REMARK UNBOUND:                -1.287
REMARK SMILES COc1ccc(OC)c([C@H]2C=C(c3cc(F)cc(F)c3)NN2c2ccc(S(N)(=O)=O)cc2)c1
REMARK SMILES IDX 23 1 24 2 25 3 26 4 31 5 32 6 22 7 21 8 12 9 11 10 10 11
REMARK SMILES IDX 13 13 14 14 20 15 15 16 18 17 17 18 16 19 19 20 9 21 33 22
REMARK SMILES IDX 6 23 3 24 5 25 4 26 7 27 8 28 2 29 1 30 27 31 29 32 30 33
REMARK SMILES IDX 28 34
REMARK H PARENT 21 12 28 35 28 36
ROOT
ATOM      1  C   UNL     1      12.764 -48.410 -24.650  1.00  0.00     0.058 A 
ATOM      2  C   UNL     1      11.570 -47.785 -24.243  1.00  0.00     0.029 A 
ATOM      3  C   UNL     1      11.426 -46.393 -24.236  1.00  0.00     0.024 A 
ATOM      4  C   UNL     1      12.490 -45.597 -24.653  1.00  0.00     0.082 A 
ATOM      5  C   UNL     1      13.689 -46.179 -25.055  1.00  0.00     0.024 A 
ATOM      6  C   UNL     1      13.816 -47.574 -25.056  1.00  0.00     0.029 A 
ENDROOT
BRANCH   1   7
ATOM      7  N   UNL     1      12.866 -49.799 -24.638  1.00  0.00    -0.276 N 
ATOM      8  N   UNL     1      12.242 -50.633 -23.720  1.00  0.00    -0.297 N 
ATOM      9  C   UNL     1      12.416 -51.960 -24.095  1.00  0.00     0.060 C 
ATOM     10  C   UNL     1      13.186 -52.033 -25.194  1.00  0.00     0.033 C 
ATOM     11  C   UNL     1      13.562 -50.638 -25.657  1.00  0.00     0.165 C 
ATOM     12  H   UNL     1      11.262 -50.424 -23.529  1.00  0.00     0.188 HD
BRANCH   9  13
ATOM     13  C   UNL     1      11.807 -53.060 -23.343  1.00  0.00     0.005 A 
ATOM     14  C   UNL     1      11.619 -54.322 -23.920  1.00  0.00     0.049 A 
ATOM     15  C   UNL     1      11.383 -52.862 -22.020  1.00  0.00     0.049 A 
ATOM     16  C   UNL     1      11.026 -55.350 -23.186  1.00  0.00     0.126 A 
ATOM     17  C   UNL     1      10.793 -53.903 -21.307  1.00  0.00     0.126 A 
ATOM     18  C   UNL     1      10.609 -55.152 -21.879  1.00  0.00     0.078 A 
ATOM     19  F   UNL     1      10.852 -56.548 -23.758  1.00  0.00    -0.207 F 
ATOM     20  F   UNL     1      10.397 -53.693 -20.045  1.00  0.00    -0.207 F 
ENDBRANCH   9  13
BRANCH  11  21
ATOM     21  C   UNL     1      15.059 -50.413 -25.755  1.00  0.00     0.026 A 
ATOM     22  C   UNL     1      15.848 -50.652 -24.610  1.00  0.00     0.056 A 
ATOM     23  C   UNL     1      15.717 -49.973 -26.912  1.00  0.00     0.124 A 
ATOM     24  C   UNL     1      17.236 -50.475 -24.614  1.00  0.00     0.119 A 
ATOM     25  C   UNL     1      17.102 -49.769 -26.917  1.00  0.00     0.050 A 
ATOM     26  C   UNL     1      17.861 -50.029 -25.775  1.00  0.00     0.050 A 
BRANCH  23  27
ATOM     27  O   UNL     1      15.000 -49.645 -28.031  1.00  0.00    -0.496 OA
ATOM     28  C   UNL     1      15.429 -48.398 -28.574  1.00  0.00     0.278 C 
ENDBRANCH  23  27
BRANCH  24  29
ATOM     29  O   UNL     1      17.850 -50.762 -23.427  1.00  0.00    -0.497 OA
ATOM     30  C   UNL     1      17.030 -51.285 -22.390  1.00  0.00     0.278 C 
ENDBRANCH  24  29
ENDBRANCH  11  21
ENDBRANCH   1   7
BRANCH   4  31
ATOM     31  S   UNL     1      12.335 -43.833 -24.644  1.00  0.00     0.238 S 
ATOM     32  O   UNL     1      12.603 -43.341 -25.974  1.00  0.00    -0.207 OA
ATOM     33  O   UNL     1      13.005 -43.317 -23.472  1.00  0.00    -0.207 OA
BRANCH  31  34
ATOM     34  N   UNL     1      10.689 -43.643 -24.343  1.00  0.00    -0.225 NA
ATOM     35  H   UNL     1      10.571 -43.031 -23.533  1.00  0.00     0.137 HD
ATOM     36  H   UNL     1      10.195 -44.528 -24.226  1.00  0.00     0.137 HD
ENDBRANCH  31  34
ENDBRANCH   4  31
TORSDOF 7
ENDMDL
MODEL 3
REMARK VINA RESULT:    -8.950      0.990      2.796
REMARK INTER + INTRA:         -13.637
REMARK INTER:                 -12.592
REMARK INTRA:                  -1.045
REMARK UNBOUND:                -1.287
REMARK SMILES COc1ccc(OC)c([C@H]2C=C(c3cc(F)cc(F)c3)NN2c2ccc(S(N)(=O)=O)cc2)c1
REMARK SMILES IDX 23 1 24 2 25 3 26 4 31 5 32 6 22 7 21 8 12 9 11 10 10 11
REMARK SMILES IDX 13 13 14 14 20 15 15 16 18 17 17 18 16 19 19 20 9 21 33 22
REMARK SMILES IDX 6 23 3 24 5 25 4 26 7 27 8 28 2 29 1 30 27 31 29 32 30 33
REMARK SMILES IDX 28 34
REMARK H PARENT 21 12 28 35 28 36
ROOT
ATOM      1  C   UNL     1      12.441 -48.204 -24.316  1.00  0.00     0.058 A 
ATOM      2  C   UNL     1      11.374 -47.637 -23.594  1.00  0.00     0.029 A 
ATOM      3  C   UNL     1      11.183 -46.253 -23.514  1.00  0.00     0.024 A 
ATOM      4  C   UNL     1      12.066 -45.405 -24.178  1.00  0.00     0.082 A 
ATOM      5  C   UNL     1      13.138 -45.929 -24.896  1.00  0.00     0.024 A 
ATOM      6  C   UNL     1      13.314 -47.317 -24.964  1.00  0.00     0.029 A 
ENDROOT
BRANCH   1   7
ATOM      7  N   UNL     1      12.596 -49.587 -24.365  1.00  0.00    -0.276 N 
ATOM      8  N   UNL     1      12.043 -50.480 -23.458  1.00  0.00    -0.297 N 
ATOM      9  C   UNL     1      12.252 -51.784 -23.893  1.00  0.00     0.060 C 
ATOM     10  C   UNL     1      12.978 -51.783 -25.024  1.00  0.00     0.033 C 
ATOM     11  C   UNL     1      13.281 -50.356 -25.444  1.00  0.00     0.165 C 
ATOM     12  H   UNL     1      11.064 -50.318 -23.219  1.00  0.00     0.188 HD
BRANCH   9  13
ATOM     13  C   UNL     1      11.717 -52.936 -23.164  1.00  0.00     0.005 A 
ATOM     14  C   UNL     1      11.527 -54.174 -23.792  1.00  0.00     0.049 A 
ATOM     15  C   UNL     1      11.366 -52.814 -21.811  1.00  0.00     0.049 A 
ATOM     16  C   UNL     1      11.006 -55.252 -23.077  1.00  0.00     0.126 A 
ATOM     17  C   UNL     1      10.847 -53.906 -21.118  1.00  0.00     0.126 A 
ATOM     18  C   UNL     1      10.661 -55.130 -21.740  1.00  0.00     0.078 A 
ATOM     19  F   UNL     1      10.829 -56.426 -23.697  1.00  0.00    -0.207 F 
ATOM     20  F   UNL     1      10.520 -53.768 -19.826  1.00  0.00    -0.207 F 
ENDBRANCH   9  13
BRANCH  11  21
ATOM     21  C   UNL     1      14.763 -50.068 -25.593  1.00  0.00     0.026 A 
ATOM     22  C   UNL     1      15.248 -49.700 -26.865  1.00  0.00     0.056 A 
ATOM     23  C   UNL     1      15.692 -50.152 -24.546  1.00  0.00     0.124 A 
ATOM     24  C   UNL     1      16.599 -49.412 -27.089  1.00  0.00     0.119 A 
ATOM     25  C   UNL     1      17.049 -49.890 -24.768  1.00  0.00     0.050 A 
ATOM     26  C   UNL     1      17.500 -49.511 -26.033  1.00  0.00     0.050 A 
BRANCH  23  27
ATOM     27  O   UNL     1      15.299 -50.583 -23.308  1.00  0.00    -0.496 OA
ATOM     28  C   UNL     1      16.297 -51.404 -22.704  1.00  0.00     0.278 C 
ENDBRANCH  23  27
BRANCH  24  29
ATOM     29  O   UNL     1      16.900 -49.060 -28.375  1.00  0.00    -0.497 OA
ATOM     30  C   UNL     1      15.806 -48.878 -29.264  1.00  0.00     0.278 C 
ENDBRANCH  24  29
ENDBRANCH  11  21
ENDBRANCH   1   7
BRANCH   4  31
ATOM     31  S   UNL     1      11.851 -43.650 -24.085  1.00  0.00     0.238 S 
ATOM     32  O   UNL     1      12.663 -43.033 -25.106  1.00  0.00    -0.207 OA
ATOM     33  O   UNL     1      11.907 -43.251 -22.697  1.00  0.00    -0.207 OA
BRANCH  31  34
ATOM     34  N   UNL     1      10.237 -43.486 -24.537  1.00  0.00    -0.225 NA
ATOM     35  H   UNL     1      10.114 -43.890 -25.468  1.00  0.00     0.137 HD
ATOM     36  H   UNL     1       9.901 -42.525 -24.490  1.00  0.00     0.137 HD
ENDBRANCH  31  34
ENDBRANCH   4  31
TORSDOF 7
ENDMDL
MODEL 4
REMARK VINA RESULT:    -8.688      4.377      7.681
REMARK INTER + INTRA:         -13.277
REMARK INTER:                 -11.817
REMARK INTRA:                  -1.460
REMARK UNBOUND:                -1.287
REMARK SMILES COc1ccc(OC)c([C@H]2C=C(c3cc(F)cc(F)c3)NN2c2ccc(S(N)(=O)=O)cc2)c1
REMARK SMILES IDX 23 1 24 2 25 3 26 4 31 5 32 6 22 7 21 8 12 9 11 10 10 11
REMARK SMILES IDX 13 13 14 14 20 15 15 16 18 17 17 18 16 19 19 20 9 21 33 22
REMARK SMILES IDX 6 23 3 24 5 25 4 26 7 27 8 28 2 29 1 30 27 31 29 32 30 33
REMARK SMILES IDX 28 34
REMARK H PARENT 21 12 28 35 28 36
ROOT
ATOM      1  C   UNL     1      12.506 -51.080 -23.463  1.00  0.00     0.058 A 
ATOM      2  C   UNL     1      12.688 -52.030 -24.485  1.00  0.00     0.029 A 
ATOM      3  C   UNL     1      12.170 -53.327 -24.395  1.00  0.00     0.024 A 
ATOM      4  C   UNL     1      11.441 -53.692 -23.265  1.00  0.00     0.082 A 
ATOM      5  C   UNL     1      11.247 -52.781 -22.230  1.00  0.00     0.024 A 
ATOM      6  C   UNL     1      11.773 -51.487 -22.337  1.00  0.00     0.029 A 
ENDROOT
BRANCH   1   7
ATOM      7  N   UNL     1      13.042 -49.802 -23.592  1.00  0.00    -0.276 N 
ATOM      8  N   UNL     1      12.318 -48.668 -23.937  1.00  0.00    -0.297 N 
ATOM      9  C   UNL     1      13.121 -47.540 -23.812  1.00  0.00     0.060 C 
ATOM     10  C   UNL     1      14.367 -47.897 -23.456  1.00  0.00     0.033 C 
ATOM     11  C   UNL     1      14.445 -49.402 -23.282  1.00  0.00     0.165 C 
ATOM     12  H   UNL     1      11.427 -48.549 -23.454  1.00  0.00     0.188 HD
BRANCH   9  13
ATOM     13  C   UNL     1      12.599 -46.192 -24.049  1.00  0.00     0.005 A 
ATOM     14  C   UNL     1      11.436 -45.738 -23.415  1.00  0.00     0.049 A 
ATOM     15  C   UNL     1      13.256 -45.328 -24.938  1.00  0.00     0.049 A 
ATOM     16  C   UNL     1      10.955 -44.453 -23.667  1.00  0.00     0.126 A 
ATOM     17  C   UNL     1      12.755 -44.049 -25.174  1.00  0.00     0.126 A 
ATOM     18  C   UNL     1      11.605 -43.600 -24.545  1.00  0.00     0.078 A 
ATOM     19  F   UNL     1       9.839 -44.039 -23.052  1.00  0.00    -0.207 F 
ATOM     20  F   UNL     1      13.398 -43.239 -26.026  1.00  0.00    -0.207 F 
ENDBRANCH   9  13
BRANCH  11  21
ATOM     21  C   UNL     1      15.503 -50.060 -24.148  1.00  0.00     0.026 A 
ATOM     22  C   UNL     1      15.515 -49.766 -25.528  1.00  0.00     0.056 A 
ATOM     23  C   UNL     1      16.473 -50.952 -23.669  1.00  0.00     0.124 A 
ATOM     24  C   UNL     1      16.459 -50.325 -26.397  1.00  0.00     0.119 A 
ATOM     25  C   UNL     1      17.404 -51.534 -24.537  1.00  0.00     0.050 A 
ATOM     26  C   UNL     1      17.405 -51.214 -25.895  1.00  0.00     0.050 A 
BRANCH  23  27
ATOM     27  O   UNL     1      16.464 -51.341 -22.356  1.00  0.00    -0.496 OA
ATOM     28  C   UNL     1      17.573 -50.792 -21.646  1.00  0.00     0.278 C 
ENDBRANCH  23  27
BRANCH  24  29
ATOM     29  O   UNL     1      16.338 -49.927 -27.700  1.00  0.00    -0.497 OA
ATOM     30  C   UNL     1      15.181 -49.173 -28.036  1.00  0.00     0.278 C 
ENDBRANCH  24  29
ENDBRANCH  11  21
ENDBRANCH   1   7
BRANCH   4  31
ATOM     31  S   UNL     1      10.784 -55.330 -23.124  1.00  0.00     0.238 S 
ATOM     32  O   UNL     1       9.458 -55.344 -23.694  1.00  0.00    -0.207 OA
ATOM     33  O   UNL     1      11.067 -55.827 -21.797  1.00  0.00    -0.207 OA
BRANCH  31  34
ATOM     34  N   UNL     1      11.802 -56.189 -24.155  1.00  0.00    -0.225 NA
ATOM     35  H   UNL     1      12.772 -55.982 -23.906  1.00  0.00     0.137 HD
ATOM     36  H   UNL     1      11.616 -56.014 -25.142  1.00  0.00     0.137 HD
ENDBRANCH  31  34
ENDBRANCH   4  31
TORSDOF 7
ENDMDL
MODEL 5
REMARK VINA RESULT:    -8.688      4.718      7.425
REMARK INTER + INTRA:         -13.276
REMARK INTER:                 -11.833
REMARK INTRA:                  -1.443
REMARK UNBOUND:                -1.287
REMARK SMILES COc1ccc(OC)c([C@H]2C=C(c3cc(F)cc(F)c3)NN2c2ccc(S(N)(=O)=O)cc2)c1
REMARK SMILES IDX 23 1 24 2 25 3 26 4 31 5 32 6 22 7 21 8 12 9 11 10 10 11
REMARK SMILES IDX 13 13 14 14 20 15 15 16 18 17 17 18 16 19 19 20 9 21 33 22
REMARK SMILES IDX 6 23 3 24 5 25 4 26 7 27 8 28 2 29 1 30 27 31 29 32 30 33
REMARK SMILES IDX 28 34
REMARK H PARENT 21 12 28 35 28 36
ROOT
ATOM      1  C   UNL     1      13.307 -50.905 -24.658  1.00  0.00     0.058 A 
ATOM      2  C   UNL     1      12.589 -50.292 -23.614  1.00  0.00     0.029 A 
ATOM      3  C   UNL     1      11.640 -50.987 -22.858  1.00  0.00     0.024 A 
ATOM      4  C   UNL     1      11.400 -52.331 -23.135  1.00  0.00     0.082 A 
ATOM      5  C   UNL     1      12.086 -52.970 -24.166  1.00  0.00     0.024 A 
ATOM      6  C   UNL     1      13.033 -52.258 -24.913  1.00  0.00     0.029 A 
ENDROOT
BRANCH   1   7
ATOM      7  N   UNL     1      14.241 -50.174 -25.389  1.00  0.00    -0.276 N 
ATOM      8  N   UNL     1      14.436 -50.280 -26.759  1.00  0.00    -0.297 N 
ATOM      9  C   UNL     1      15.319 -49.296 -27.187  1.00  0.00     0.060 C 
ATOM     10  C   UNL     1      15.762 -48.584 -26.137  1.00  0.00     0.033 C 
ATOM     11  C   UNL     1      15.111 -49.085 -24.860  1.00  0.00     0.165 C 
ATOM     12  H   UNL     1      13.587 -50.293 -27.326  1.00  0.00     0.188 HD
BRANCH   9  13
ATOM     13  C   UNL     1      15.659 -49.126 -28.602  1.00  0.00     0.005 A 
ATOM     14  C   UNL     1      16.937 -49.433 -29.087  1.00  0.00     0.049 A 
ATOM     15  C   UNL     1      14.704 -48.634 -29.504  1.00  0.00     0.049 A 
ATOM     16  C   UNL     1      17.239 -49.253 -30.437  1.00  0.00     0.126 A 
ATOM     17  C   UNL     1      15.029 -48.461 -30.848  1.00  0.00     0.126 A 
ATOM     18  C   UNL     1      16.294 -48.767 -31.326  1.00  0.00     0.078 A 
ATOM     19  F   UNL     1      18.468 -49.549 -30.879  1.00  0.00    -0.207 F 
ATOM     20  F   UNL     1      14.102 -47.991 -31.692  1.00  0.00    -0.207 F 
ENDBRANCH   9  13
BRANCH  11  21
ATOM     21  C   UNL     1      16.107 -49.519 -23.801  1.00  0.00     0.026 A 
ATOM     22  C   UNL     1      16.141 -48.806 -22.584  1.00  0.00     0.056 A 
ATOM     23  C   UNL     1      17.008 -50.582 -23.953  1.00  0.00     0.124 A 
ATOM     24  C   UNL     1      17.025 -49.143 -21.552  1.00  0.00     0.119 A 
ATOM     25  C   UNL     1      17.912 -50.908 -22.935  1.00  0.00     0.050 A 
ATOM     26  C   UNL     1      17.914 -50.198 -21.734  1.00  0.00     0.050 A 
BRANCH  23  27
ATOM     27  O   UNL     1      17.081 -51.259 -25.140  1.00  0.00    -0.496 OA
ATOM     28  C   UNL     1      16.971 -52.667 -24.940  1.00  0.00     0.278 C 
ENDBRANCH  23  27
BRANCH  24  29
ATOM     29  O   UNL     1      16.920 -48.360 -20.435  1.00  0.00    -0.497 OA
ATOM     30  C   UNL     1      15.857 -47.416 -20.411  1.00  0.00     0.278 C 
ENDBRANCH  24  29
ENDBRANCH  11  21
ENDBRANCH   1   7
BRANCH   4  31
ATOM     31  S   UNL     1      10.196 -53.230 -22.198  1.00  0.00     0.238 S 
ATOM     32  O   UNL     1      10.631 -53.282 -20.822  1.00  0.00    -0.207 OA
ATOM     33  O   UNL     1       9.819 -54.410 -22.942  1.00  0.00    -0.207 OA
BRANCH  31  34
ATOM     34  N   UNL     1       8.868 -52.198 -22.283  1.00  0.00    -0.225 NA
ATOM     35  H   UNL     1       8.016 -52.762 -22.321  1.00  0.00     0.137 HD
ATOM     36  H   UNL     1       8.921 -51.536 -23.056  1.00  0.00     0.137 HD
ENDBRANCH  31  34
ENDBRANCH   4  31
TORSDOF 7
ENDMDL
MODEL 6
REMARK VINA RESULT:    -8.681      4.613      8.065
REMARK INTER + INTRA:         -13.267
REMARK INTER:                 -12.129
REMARK INTRA:                  -1.137
REMARK UNBOUND:                -1.287
REMARK SMILES COc1ccc(OC)c([C@H]2C=C(c3cc(F)cc(F)c3)NN2c2ccc(S(N)(=O)=O)cc2)c1
REMARK SMILES IDX 23 1 24 2 25 3 26 4 31 5 32 6 22 7 21 8 12 9 11 10 10 11
REMARK SMILES IDX 13 13 14 14 20 15 15 16 18 17 17 18 16 19 19 20 9 21 33 22
REMARK SMILES IDX 6 23 3 24 5 25 4 26 7 27 8 28 2 29 1 30 27 31 29 32 30 33
REMARK SMILES IDX 28 34
REMARK H PARENT 21 12 28 35 28 36
ROOT
ATOM      1  C   UNL     1      12.851 -51.591 -24.711  1.00  0.00     0.058 A 
ATOM      2  C   UNL     1      12.826 -52.883 -25.269  1.00  0.00     0.029 A 
ATOM      3  C   UNL     1      12.116 -53.934 -24.677  1.00  0.00     0.024 A 
ATOM      4  C   UNL     1      11.402 -53.698 -23.505  1.00  0.00     0.082 A 
ATOM      5  C   UNL     1      11.410 -52.434 -22.919  1.00  0.00     0.024 A 
ATOM      6  C   UNL     1      12.126 -51.394 -23.525  1.00  0.00     0.029 A 
ENDROOT
BRANCH   1   7
ATOM      7  N   UNL     1      13.573 -50.575 -25.331  1.00  0.00    -0.276 N 
ATOM      8  N   UNL     1      14.605 -50.775 -26.238  1.00  0.00    -0.297 N 
ATOM      9  C   UNL     1      14.991 -49.557 -26.787  1.00  0.00     0.060 C 
ATOM     10  C   UNL     1      14.293 -48.555 -26.228  1.00  0.00     0.033 C 
ATOM     11  C   UNL     1      13.304 -49.112 -25.220  1.00  0.00     0.165 C 
ATOM     12  H   UNL     1      14.428 -51.472 -26.962  1.00  0.00     0.188 HD
BRANCH   9  13
ATOM     13  C   UNL     1      16.020 -49.472 -27.827  1.00  0.00     0.005 A 
ATOM     14  C   UNL     1      17.351 -49.820 -27.567  1.00  0.00     0.049 A 
ATOM     15  C   UNL     1      15.687 -49.020 -29.113  1.00  0.00     0.049 A 
ATOM     16  C   UNL     1      18.313 -49.719 -28.572  1.00  0.00     0.126 A 
ATOM     17  C   UNL     1      16.666 -48.928 -30.101  1.00  0.00     0.126 A 
ATOM     18  C   UNL     1      17.983 -49.274 -29.843  1.00  0.00     0.078 A 
ATOM     19  F   UNL     1      19.582 -50.054 -28.302  1.00  0.00    -0.207 F 
ATOM     20  F   UNL     1      16.327 -48.495 -31.322  1.00  0.00    -0.207 F 
ENDBRANCH   9  13
BRANCH  11  21
ATOM     21  C   UNL     1      13.467 -48.536 -23.826  1.00  0.00     0.026 A 
ATOM     22  C   UNL     1      12.397 -47.795 -23.280  1.00  0.00     0.056 A 
ATOM     23  C   UNL     1      14.619 -48.683 -23.041  1.00  0.00     0.124 A 
ATOM     24  C   UNL     1      12.462 -47.232 -22.000  1.00  0.00     0.119 A 
ATOM     25  C   UNL     1      14.700 -48.102 -21.770  1.00  0.00     0.050 A 
ATOM     26  C   UNL     1      13.621 -47.388 -21.246  1.00  0.00     0.050 A 
BRANCH  23  27
ATOM     27  O   UNL     1      15.720 -49.320 -23.545  1.00  0.00    -0.496 OA
ATOM     28  C   UNL     1      16.047 -50.476 -22.776  1.00  0.00     0.278 C 
ENDBRANCH  23  27
BRANCH  24  29
ATOM     29  O   UNL     1      11.336 -46.557 -21.618  1.00  0.00    -0.497 OA
ATOM     30  C   UNL     1      10.524 -46.024 -22.657  1.00  0.00     0.278 C 
ENDBRANCH  24  29
ENDBRANCH  11  21
ENDBRANCH   1   7
BRANCH   4  31
ATOM     31  S   UNL     1      10.505 -55.014 -22.732  1.00  0.00     0.238 S 
ATOM     32  O   UNL     1      11.433 -55.822 -21.978  1.00  0.00    -0.207 OA
ATOM     33  O   UNL     1       9.587 -55.576 -23.696  1.00  0.00    -0.207 OA
BRANCH  31  34
ATOM     34  N   UNL     1       9.546 -54.167 -21.636  1.00  0.00    -0.225 NA
ATOM     35  H   UNL     1       8.791 -53.707 -22.149  1.00  0.00     0.137 HD
ATOM     36  H   UNL     1      10.073 -53.510 -21.063  1.00  0.00     0.137 HD
ENDBRANCH  31  34
ENDBRANCH   4  31
TORSDOF 7
ENDMDL
MODEL 7
REMARK VINA RESULT:    -8.588      3.749      5.523
REMARK INTER + INTRA:         -13.138
REMARK INTER:                 -11.637
REMARK INTRA:                  -1.500
REMARK UNBOUND:                -1.287
REMARK SMILES COc1ccc(OC)c([C@H]2C=C(c3cc(F)cc(F)c3)NN2c2ccc(S(N)(=O)=O)cc2)c1
REMARK SMILES IDX 23 1 24 2 25 3 26 4 31 5 32 6 22 7 21 8 12 9 11 10 10 11
REMARK SMILES IDX 13 13 14 14 20 15 15 16 18 17 17 18 16 19 19 20 9 21 33 22
REMARK SMILES IDX 6 23 3 24 5 25 4 26 7 27 8 28 2 29 1 30 27 31 29 32 30 33
REMARK SMILES IDX 28 34
REMARK H PARENT 21 12 28 35 28 36
ROOT
ATOM      1  C   UNL     1      14.131 -47.679 -21.070  1.00  0.00     0.058 A 
ATOM      2  C   UNL     1      15.477 -47.585 -21.473  1.00  0.00     0.029 A 
ATOM      3  C   UNL     1      16.436 -46.916 -20.705  1.00  0.00     0.024 A 
ATOM      4  C   UNL     1      16.056 -46.332 -19.498  1.00  0.00     0.082 A 
ATOM      5  C   UNL     1      14.732 -46.398 -19.072  1.00  0.00     0.024 A 
ATOM      6  C   UNL     1      13.785 -47.071 -19.854  1.00  0.00     0.029 A 
ENDROOT
BRANCH   1   7
ATOM      7  N   UNL     1      13.208 -48.351 -21.868  1.00  0.00    -0.276 N 
ATOM      8  N   UNL     1      13.184 -49.724 -22.068  1.00  0.00    -0.297 N 
ATOM      9  C   UNL     1      12.040 -50.077 -22.776  1.00  0.00     0.060 C 
ATOM     10  C   UNL     1      11.342 -48.977 -23.104  1.00  0.00     0.033 C 
ATOM     11  C   UNL     1      12.031 -47.742 -22.552  1.00  0.00     0.165 C 
ATOM     12  H   UNL     1      13.295 -50.295 -21.230  1.00  0.00     0.188 HD
BRANCH   9  13
ATOM     13  C   UNL     1      11.718 -51.474 -23.076  1.00  0.00     0.005 A 
ATOM     14  C   UNL     1      10.712 -52.157 -22.379  1.00  0.00     0.049 A 
ATOM     15  C   UNL     1      12.431 -52.167 -24.066  1.00  0.00     0.049 A 
ATOM     16  C   UNL     1      10.433 -53.491 -22.676  1.00  0.00     0.126 A 
ATOM     17  C   UNL     1      12.134 -53.499 -24.345  1.00  0.00     0.126 A 
ATOM     18  C   UNL     1      11.137 -54.173 -23.656  1.00  0.00     0.078 A 
ATOM     19  F   UNL     1       9.469 -54.125 -21.996  1.00  0.00    -0.207 F 
ATOM     20  F   UNL     1      12.826 -54.141 -25.295  1.00  0.00    -0.207 F 
ENDBRANCH   9  13
BRANCH  11  21
ATOM     21  C   UNL     1      12.371 -46.711 -23.612  1.00  0.00     0.026 A 
ATOM     22  C   UNL     1      13.258 -47.081 -24.644  1.00  0.00     0.056 A 
ATOM     23  C   UNL     1      11.865 -45.404 -23.633  1.00  0.00     0.124 A 
ATOM     24  C   UNL     1      13.622 -46.194 -25.664  1.00  0.00     0.119 A 
ATOM     25  C   UNL     1      12.243 -44.503 -24.636  1.00  0.00     0.050 A 
ATOM     26  C   UNL     1      13.110 -44.900 -25.654  1.00  0.00     0.050 A 
BRANCH  23  27
ATOM     27  O   UNL     1      11.064 -44.958 -22.616  1.00  0.00    -0.496 OA
ATOM     28  C   UNL     1      10.820 -43.557 -22.725  1.00  0.00     0.278 C 
ENDBRANCH  23  27
BRANCH  24  29
ATOM     29  O   UNL     1      14.481 -46.715 -26.592  1.00  0.00    -0.497 OA
ATOM     30  C   UNL     1      14.823 -48.087 -26.451  1.00  0.00     0.278 C 
ENDBRANCH  24  29
ENDBRANCH  11  21
ENDBRANCH   1   7
BRANCH   4  31
ATOM     31  S   UNL     1      17.250 -45.472 -18.514  1.00  0.00     0.238 S 
ATOM     32  O   UNL     1      17.092 -44.054 -18.734  1.00  0.00    -0.207 OA
ATOM     33  O   UNL     1      18.523 -46.143 -18.641  1.00  0.00    -0.207 OA
BRANCH  31  34
ATOM     34  N   UNL     1      16.711 -45.818 -16.956  1.00  0.00    -0.225 NA
ATOM     35  H   UNL     1      16.683 -46.833 -16.836  1.00  0.00     0.137 HD
ATOM     36  H   UNL     1      15.817 -45.383 -16.733  1.00  0.00     0.137 HD
ENDBRANCH  31  34
ENDBRANCH   4  31
TORSDOF 7
ENDMDL
MODEL 8
REMARK VINA RESULT:    -8.557      3.829      5.969
REMARK INTER + INTRA:         -13.095
REMARK INTER:                 -11.619
REMARK INTRA:                  -1.476
REMARK UNBOUND:                -1.287
REMARK SMILES COc1ccc(OC)c([C@H]2C=C(c3cc(F)cc(F)c3)NN2c2ccc(S(N)(=O)=O)cc2)c1
REMARK SMILES IDX 23 1 24 2 25 3 26 4 31 5 32 6 22 7 21 8 12 9 11 10 10 11
REMARK SMILES IDX 13 13 14 14 20 15 15 16 18 17 17 18 16 19 19 20 9 21 33 22
REMARK SMILES IDX 6 23 3 24 5 25 4 26 7 27 8 28 2 29 1 30 27 31 29 32 30 33
REMARK SMILES IDX 28 34
REMARK H PARENT 21 12 28 35 28 36
ROOT
ATOM      1  C   UNL     1      14.209 -47.730 -21.078  1.00  0.00     0.058 A 
ATOM      2  C   UNL     1      15.570 -47.676 -21.433  1.00  0.00     0.029 A 
ATOM      3  C   UNL     1      16.513 -46.992 -20.657  1.00  0.00     0.024 A 
ATOM      4  C   UNL     1      16.099 -46.352 -19.491  1.00  0.00     0.082 A 
ATOM      5  C   UNL     1      14.759 -46.378 -19.112  1.00  0.00     0.024 A 
ATOM      6  C   UNL     1      13.829 -47.068 -19.901  1.00  0.00     0.029 A 
ENDROOT
BRANCH   1   7
ATOM      7  N   UNL     1      13.304 -48.419 -21.882  1.00  0.00    -0.276 N 
ATOM      8  N   UNL     1      13.459 -49.732 -22.307  1.00  0.00    -0.297 N 
ATOM      9  C   UNL     1      12.302 -50.159 -22.948  1.00  0.00     0.060 C 
ATOM     10  C   UNL     1      11.412 -49.154 -23.015  1.00  0.00     0.033 C 
ATOM     11  C   UNL     1      11.974 -47.919 -22.334  1.00  0.00     0.165 C 
ATOM     12  H   UNL     1      13.757 -50.396 -21.591  1.00  0.00     0.188 HD
BRANCH   9  13
ATOM     13  C   UNL     1      12.156 -51.530 -23.444  1.00  0.00     0.005 A 
ATOM     14  C   UNL     1      12.850 -51.973 -24.577  1.00  0.00     0.049 A 
ATOM     15  C   UNL     1      11.296 -52.428 -22.794  1.00  0.00     0.049 A 
ATOM     16  C   UNL     1      12.685 -53.280 -25.035  1.00  0.00     0.126 A 
ATOM     17  C   UNL     1      11.148 -53.729 -23.271  1.00  0.00     0.126 A 
ATOM     18  C   UNL     1      11.836 -54.167 -24.391  1.00  0.00     0.078 A 
ATOM     19  F   UNL     1      13.356 -53.684 -26.122  1.00  0.00    -0.207 F 
ATOM     20  F   UNL     1      10.323 -54.571 -22.635  1.00  0.00    -0.207 F 
ENDBRANCH   9  13
BRANCH  11  21
ATOM     21  C   UNL     1      12.022 -46.699 -23.235  1.00  0.00     0.026 A 
ATOM     22  C   UNL     1      11.184 -45.607 -22.925  1.00  0.00     0.056 A 
ATOM     23  C   UNL     1      12.843 -46.584 -24.366  1.00  0.00     0.124 A 
ATOM     24  C   UNL     1      11.169 -44.441 -23.700  1.00  0.00     0.119 A 
ATOM     25  C   UNL     1      12.815 -45.431 -25.159  1.00  0.00     0.050 A 
ATOM     26  C   UNL     1      11.989 -44.358 -24.822  1.00  0.00     0.050 A 
BRANCH  23  27
ATOM     27  O   UNL     1      13.617 -47.639 -24.765  1.00  0.00    -0.496 OA
ATOM     28  C   UNL     1      14.951 -47.223 -25.052  1.00  0.00     0.278 C 
ENDBRANCH  23  27
BRANCH  24  29
ATOM     29  O   UNL     1      10.309 -43.474 -23.256  1.00  0.00    -0.497 OA
ATOM     30  C   UNL     1      10.891 -42.327 -22.651  1.00  0.00     0.278 C 
ENDBRANCH  24  29
ENDBRANCH  11  21
ENDBRANCH   1   7
BRANCH   4  31
ATOM     31  S   UNL     1      17.271 -45.472 -18.498  1.00  0.00     0.238 S 
ATOM     32  O   UNL     1      17.009 -44.058 -18.623  1.00  0.00    -0.207 OA
ATOM     33  O   UNL     1      18.580 -46.045 -18.712  1.00  0.00    -0.207 OA
BRANCH  31  34
ATOM     34  N   UNL     1      16.820 -45.948 -16.946  1.00  0.00    -0.225 NA
ATOM     35  H   UNL     1      15.901 -45.552 -16.735  1.00  0.00     0.137 HD
ATOM     36  H   UNL     1      17.509 -45.710 -16.235  1.00  0.00     0.137 HD
ENDBRANCH  31  34
ENDBRANCH   4  31
TORSDOF 7
ENDMDL
MODEL 9
REMARK VINA RESULT:    -8.416      4.653      7.852
REMARK INTER + INTRA:         -12.901
REMARK INTER:                 -11.707
REMARK INTRA:                  -1.194
REMARK UNBOUND:                -1.287
REMARK SMILES COc1ccc(OC)c([C@H]2C=C(c3cc(F)cc(F)c3)NN2c2ccc(S(N)(=O)=O)cc2)c1
REMARK SMILES IDX 23 1 24 2 25 3 26 4 31 5 32 6 22 7 21 8 12 9 11 10 10 11
REMARK SMILES IDX 13 13 14 14 20 15 15 16 18 17 17 18 16 19 19 20 9 21 33 22
REMARK SMILES IDX 6 23 3 24 5 25 4 26 7 27 8 28 2 29 1 30 27 31 29 32 30 33
REMARK SMILES IDX 28 34
REMARK H PARENT 21 12 28 35 28 36
ROOT
ATOM      1  C   UNL     1      12.844 -51.518 -24.680  1.00  0.00     0.058 A 
ATOM      2  C   UNL     1      12.851 -52.822 -25.211  1.00  0.00     0.029 A 
ATOM      3  C   UNL     1      12.144 -53.871 -24.613  1.00  0.00     0.024 A 
ATOM      4  C   UNL     1      11.399 -53.621 -23.463  1.00  0.00     0.082 A 
ATOM      5  C   UNL     1      11.375 -52.346 -22.904  1.00  0.00     0.024 A 
ATOM      6  C   UNL     1      12.089 -51.308 -23.516  1.00  0.00     0.029 A 
ENDROOT
BRANCH   1   7
ATOM      7  N   UNL     1      13.566 -50.505 -25.305  1.00  0.00    -0.276 N 
ATOM      8  N   UNL     1      14.514 -50.703 -26.299  1.00  0.00    -0.297 N 
ATOM      9  C   UNL     1      14.916 -49.477 -26.818  1.00  0.00     0.060 C 
ATOM     10  C   UNL     1      14.312 -48.475 -26.157  1.00  0.00     0.033 C 
ATOM     11  C   UNL     1      13.377 -49.039 -25.103  1.00  0.00     0.165 C 
ATOM     12  H   UNL     1      14.249 -51.353 -27.040  1.00  0.00     0.188 HD
BRANCH   9  13
ATOM     13  C   UNL     1      15.865 -49.384 -27.930  1.00  0.00     0.005 A 
ATOM     14  C   UNL     1      17.214 -49.727 -27.770  1.00  0.00     0.049 A 
ATOM     15  C   UNL     1      15.437 -48.929 -29.187  1.00  0.00     0.049 A 
ATOM     16  C   UNL     1      18.099 -49.618 -28.843  1.00  0.00     0.126 A 
ATOM     17  C   UNL     1      16.340 -48.829 -30.243  1.00  0.00     0.126 A 
ATOM     18  C   UNL     1      17.674 -49.170 -30.084  1.00  0.00     0.078 A 
ATOM     19  F   UNL     1      19.385 -49.948 -28.667  1.00  0.00    -0.207 F 
ATOM     20  F   UNL     1      15.910 -48.394 -31.435  1.00  0.00    -0.207 F 
ENDBRANCH   9  13
BRANCH  11  21
ATOM     21  C   UNL     1      13.674 -48.544 -23.700  1.00  0.00     0.026 A 
ATOM     22  C   UNL     1      14.963 -48.764 -23.172  1.00  0.00     0.056 A 
ATOM     23  C   UNL     1      12.745 -47.884 -22.883  1.00  0.00     0.124 A 
ATOM     24  C   UNL     1      15.323 -48.336 -21.889  1.00  0.00     0.119 A 
ATOM     25  C   UNL     1      13.089 -47.475 -21.589  1.00  0.00     0.050 A 
ATOM     26  C   UNL     1      14.377 -47.690 -21.097  1.00  0.00     0.050 A 
BRANCH  23  27
ATOM     27  O   UNL     1      11.454 -47.713 -23.305  1.00  0.00    -0.496 OA
ATOM     28  C   UNL     1      10.817 -46.645 -22.605  1.00  0.00     0.278 C 
ENDBRANCH  23  27
BRANCH  24  29
ATOM     29  O   UNL     1      16.613 -48.617 -21.536  1.00  0.00    -0.497 OA
ATOM     30  C   UNL     1      17.145 -49.858 -21.982  1.00  0.00     0.278 C 
ENDBRANCH  24  29
ENDBRANCH  11  21
ENDBRANCH   1   7
BRANCH   4  31
ATOM     31  S   UNL     1      10.504 -54.934 -22.682  1.00  0.00     0.238 S 
ATOM     32  O   UNL     1      11.421 -55.694 -21.867  1.00  0.00    -0.207 OA
ATOM     33  O   UNL     1       9.639 -55.549 -23.662  1.00  0.00    -0.207 OA
BRANCH  31  34
ATOM     34  N   UNL     1       9.483 -54.077 -21.653  1.00  0.00    -0.225 NA
ATOM     35  H   UNL     1       9.806 -53.109 -21.601  1.00  0.00     0.137 HD
ATOM     36  H   UNL     1       9.395 -54.499 -20.729  1.00  0.00     0.137 HD
ENDBRANCH  31  34
ENDBRANCH   4  31
TORSDOF 7
ENDMDL
