MODEL 1
REMARK VINA RESULT:    -7.756      0.000      0.000
REMARK INTER + INTRA:          -7.983
REMARK INTER:                  -7.983
REMARK INTRA:                   0.000
REMARK UNBOUND:                 0.000
REMARK SMILES CC1=C(O)c2cccc(C)c2C1
REMARK SMILES IDX 3 1 2 2 1 3 12 4 11 5 9 6 10 7 8 8 7 9 6 10 5 11 4 12
REMARK H PARENT 4 13
ROOT
ATOM      1  C   UNL     1      11.949 -58.741 -24.681  1.00  0.00     0.122 C 
ATOM      2  C   UNL     1      11.775 -59.715 -25.589  1.00  0.00    -0.026 C 
ATOM      3  C   UNL     1      12.151 -59.745 -27.027  1.00  0.00     0.044 C 
ATOM      4  C   UNL     1      11.088 -60.919 -24.970  1.00  0.00     0.071 C 
ATOM      5  C   UNL     1      10.897 -60.469 -23.548  1.00  0.00    -0.030 A 
ATOM      6  C   UNL     1      10.317 -61.146 -22.480  1.00  0.00    -0.047 A 
ATOM      7  C   UNL     1       9.764 -62.527 -22.639  1.00  0.00     0.044 C 
ATOM      8  C   UNL     1      10.270 -60.479 -21.246  1.00  0.00     0.004 A 
ATOM      9  C   UNL     1      10.790 -59.181 -21.099  1.00  0.00     0.001 A 
ATOM     10  C   UNL     1      11.369 -58.518 -22.183  1.00  0.00     0.012 A 
ATOM     11  C   UNL     1      11.416 -59.173 -23.400  1.00  0.00     0.020 A 
ENDROOT
BRANCH   1  12
ATOM     12  O   UNL     1      12.514 -57.516 -24.817  1.00  0.00    -0.507 OA
ATOM     13  H   UNL     1      11.799 -56.864 -24.888  1.00  0.00     0.293 HD
ENDBRANCH   1  12
TORSDOF 1
ENDMDL
MODEL 2
REMARK VINA RESULT:    -7.664      3.487      4.698
REMARK INTER + INTRA:          -7.888
REMARK INTER:                  -7.888
REMARK INTRA:                   0.000
REMARK UNBOUND:                 0.000
REMARK SMILES CC1=C(O)c2cccc(C)c2C1
REMARK SMILES IDX 3 1 2 2 1 3 12 4 11 5 9 6 10 7 8 8 7 9 6 10 5 11 4 12
REMARK H PARENT 4 13
ROOT
ATOM      1  C   UNL     1       7.932 -63.107 -26.158  1.00  0.00     0.122 C 
ATOM      2  C   UNL     1       8.747 -62.357 -26.919  1.00  0.00    -0.026 C 
ATOM      3  C   UNL     1       8.697 -62.094 -28.380  1.00  0.00     0.044 C 
ATOM      4  C   UNL     1       9.846 -61.727 -26.081  1.00  0.00     0.071 C 
ATOM      5  C   UNL     1       9.523 -62.245 -24.707  1.00  0.00    -0.030 A 
ATOM      6  C   UNL     1      10.179 -62.014 -23.503  1.00  0.00    -0.047 A 
ATOM      7  C   UNL     1      11.394 -61.143 -23.429  1.00  0.00     0.044 C 
ATOM      8  C   UNL     1       9.655 -62.631 -22.356  1.00  0.00     0.004 A 
ATOM      9  C   UNL     1       8.513 -63.449 -22.427  1.00  0.00     0.001 A 
ATOM     10  C   UNL     1       7.868 -63.669 -23.647  1.00  0.00     0.012 A 
ATOM     11  C   UNL     1       8.384 -63.061 -24.777  1.00  0.00     0.020 A 
ENDROOT
BRANCH   1  12
ATOM     12  O   UNL     1       6.841 -63.832 -26.505  1.00  0.00    -0.507 OA
ATOM     13  H   UNL     1       6.732 -63.766 -27.467  1.00  0.00     0.293 HD
ENDBRANCH   1  12
TORSDOF 1
ENDMDL
MODEL 3
REMARK VINA RESULT:    -7.587      6.330      8.124
REMARK INTER + INTRA:          -7.809
REMARK INTER:                  -7.809
REMARK INTRA:                   0.000
REMARK UNBOUND:                 0.000
REMARK SMILES CC1=C(O)c2cccc(C)c2C1
REMARK SMILES IDX 3 1 2 2 1 3 12 4 11 5 9 6 10 7 8 8 7 9 6 10 5 11 4 12
REMARK H PARENT 4 13
ROOT
ATOM      1  C   UNL     1      10.861 -53.478 -22.067  1.00  0.00     0.122 C 
ATOM      2  C   UNL     1      10.995 -54.518 -22.907  1.00  0.00    -0.026 C 
ATOM      3  C   UNL     1      10.487 -55.908 -22.777  1.00  0.00     0.044 C 
ATOM      4  C   UNL     1      11.795 -54.124 -24.136  1.00  0.00     0.071 C 
ATOM      5  C   UNL     1      12.098 -52.677 -23.858  1.00  0.00    -0.030 A 
ATOM      6  C   UNL     1      12.809 -51.763 -24.628  1.00  0.00    -0.047 A 
ATOM      7  C   UNL     1      13.411 -52.149 -25.942  1.00  0.00     0.044 C 
ATOM      8  C   UNL     1      12.941 -50.460 -24.121  1.00  0.00     0.004 A 
ATOM      9  C   UNL     1      12.374 -50.100 -22.885  1.00  0.00     0.001 A 
ATOM     10  C   UNL     1      11.664 -51.033 -22.127  1.00  0.00     0.012 A 
ATOM     11  C   UNL     1      11.533 -52.316 -22.624  1.00  0.00     0.020 A 
ENDROOT
BRANCH   1  12
ATOM     12  O   UNL     1      10.227 -53.401 -20.871  1.00  0.00    -0.507 OA
ATOM     13  H   UNL     1      10.461 -54.192 -20.359  1.00  0.00     0.293 HD
ENDBRANCH   1  12
TORSDOF 1
ENDMDL
MODEL 4
REMARK VINA RESULT:    -7.544      2.356      3.371
REMARK INTER + INTRA:          -7.765
REMARK INTER:                  -7.765
REMARK INTRA:                   0.000
REMARK UNBOUND:                 0.000
REMARK SMILES CC1=C(O)c2cccc(C)c2C1
REMARK SMILES IDX 3 1 2 2 1 3 12 4 11 5 9 6 10 7 8 8 7 9 6 10 5 11 4 12
REMARK H PARENT 4 13
ROOT
ATOM      1  C   UNL     1      11.022 -61.120 -24.754  1.00  0.00     0.122 C 
ATOM      2  C   UNL     1      10.510 -60.865 -25.969  1.00  0.00    -0.026 C 
ATOM      3  C   UNL     1      11.023 -59.973 -27.041  1.00  0.00     0.044 C 
ATOM      4  C   UNL     1       9.225 -61.643 -26.192  1.00  0.00     0.071 C 
ATOM      5  C   UNL     1       9.086 -62.390 -24.894  1.00  0.00    -0.030 A 
ATOM      6  C   UNL     1       8.094 -63.278 -24.492  1.00  0.00    -0.047 A 
ATOM      7  C   UNL     1       6.946 -63.624 -25.386  1.00  0.00     0.044 C 
ATOM      8  C   UNL     1       8.214 -63.837 -23.210  1.00  0.00     0.004 A 
ATOM      9  C   UNL     1       9.295 -63.510 -22.371  1.00  0.00     0.001 A 
ATOM     10  C   UNL     1      10.281 -62.616 -22.794  1.00  0.00     0.012 A 
ATOM     11  C   UNL     1      10.164 -62.064 -24.056  1.00  0.00     0.020 A 
ENDROOT
BRANCH   1  12
ATOM     12  O   UNL     1      12.144 -60.640 -24.163  1.00  0.00    -0.507 OA
ATOM     13  H   UNL     1      12.237 -61.076 -23.302  1.00  0.00     0.293 HD
ENDBRANCH   1  12
TORSDOF 1
ENDMDL
MODEL 5
REMARK VINA RESULT:    -7.475      5.394      6.930
REMARK INTER + INTRA:          -7.694
REMARK INTER:                  -7.694
REMARK INTRA:                   0.000
REMARK UNBOUND:                 0.000
REMARK SMILES CC1=C(O)c2cccc(C)c2C1
REMARK SMILES IDX 3 1 2 2 1 3 12 4 11 5 9 6 10 7 8 8 7 9 6 10 5 11 4 12
REMARK H PARENT 4 13
ROOT
ATOM      1  C   UNL     1      12.415 -53.925 -25.179  1.00  0.00     0.122 C 
ATOM      2  C   UNL     1      12.868 -52.660 -25.196  1.00  0.00    -0.026 C 
ATOM      3  C   UNL     1      13.682 -51.963 -26.226  1.00  0.00     0.044 C 
ATOM      4  C   UNL     1      12.439 -51.912 -23.947  1.00  0.00     0.071 C 
ATOM      5  C   UNL     1      11.661 -52.965 -23.207  1.00  0.00    -0.030 A 
ATOM      6  C   UNL     1      11.012 -52.880 -21.980  1.00  0.00    -0.047 A 
ATOM      7  C   UNL     1      11.014 -51.616 -21.180  1.00  0.00     0.044 C 
ATOM      8  C   UNL     1      10.354 -54.032 -21.520  1.00  0.00     0.004 A 
ATOM      9  C   UNL     1      10.354 -55.220 -22.273  1.00  0.00     0.001 A 
ATOM     10  C   UNL     1      11.011 -55.284 -23.503  1.00  0.00     0.012 A 
ATOM     11  C   UNL     1      11.661 -54.151 -23.958  1.00  0.00     0.020 A 
ENDROOT
BRANCH   1  12
ATOM     12  O   UNL     1      12.570 -54.918 -26.089  1.00  0.00    -0.507 OA
ATOM     13  H   UNL     1      12.795 -54.509 -26.940  1.00  0.00     0.293 HD
ENDBRANCH   1  12
TORSDOF 1
ENDMDL
MODEL 6
REMARK VINA RESULT:    -7.431      6.466      7.931
REMARK INTER + INTRA:          -7.648
REMARK INTER:                  -7.648
REMARK INTRA:                   0.000
REMARK UNBOUND:                 0.000
REMARK SMILES CC1=C(O)c2cccc(C)c2C1
REMARK SMILES IDX 3 1 2 2 1 3 12 4 11 5 9 6 10 7 8 8 7 9 6 10 5 11 4 12
REMARK H PARENT 4 13
ROOT
ATOM      1  C   UNL     1      12.070 -51.024 -22.381  1.00  0.00     0.122 C 
ATOM      2  C   UNL     1      12.814 -50.644 -23.433  1.00  0.00    -0.026 C 
ATOM      3  C   UNL     1      13.511 -49.354 -23.680  1.00  0.00     0.044 C 
ATOM      4  C   UNL     1      12.901 -51.752 -24.467  1.00  0.00     0.071 C 
ATOM      5  C   UNL     1      12.077 -52.836 -23.828  1.00  0.00    -0.030 A 
ATOM      6  C   UNL     1      11.782 -54.111 -24.300  1.00  0.00    -0.047 A 
ATOM      7  C   UNL     1      12.296 -54.595 -25.619  1.00  0.00     0.044 C 
ATOM      8  C   UNL     1      10.979 -54.927 -23.487  1.00  0.00     0.004 A 
ATOM      9  C   UNL     1      10.496 -54.470 -22.247  1.00  0.00     0.001 A 
ATOM     10  C   UNL     1      10.804 -53.187 -21.792  1.00  0.00     0.012 A 
ATOM     11  C   UNL     1      11.594 -52.381 -22.591  1.00  0.00     0.020 A 
ENDROOT
BRANCH   1  12
ATOM     12  O   UNL     1      11.745 -50.345 -21.253  1.00  0.00    -0.507 OA
ATOM     13  H   UNL     1      12.563 -50.184 -20.756  1.00  0.00     0.293 HD
ENDBRANCH   1  12
TORSDOF 1
ENDMDL
MODEL 7
REMARK VINA RESULT:    -7.397      1.219      3.372
REMARK INTER + INTRA:          -7.613
REMARK INTER:                  -7.613
REMARK INTRA:                   0.000
REMARK UNBOUND:                 0.000
REMARK SMILES CC1=C(O)c2cccc(C)c2C1
REMARK SMILES IDX 3 1 2 2 1 3 12 4 11 5 9 6 10 7 8 8 7 9 6 10 5 11 4 12
REMARK H PARENT 4 13
ROOT
ATOM      1  C   UNL     1      11.054 -58.804 -23.174  1.00  0.00     0.122 C 
ATOM      2  C   UNL     1      11.031 -59.032 -21.850  1.00  0.00    -0.026 C 
ATOM      3  C   UNL     1      11.437 -58.142 -20.732  1.00  0.00     0.044 C 
ATOM      4  C   UNL     1      10.502 -60.422 -21.547  1.00  0.00     0.071 C 
ATOM      5  C   UNL     1      10.224 -60.955 -22.926  1.00  0.00    -0.030 A 
ATOM      6  C   UNL     1       9.720 -62.195 -23.306  1.00  0.00    -0.047 A 
ATOM      7  C   UNL     1       9.363 -63.237 -22.293  1.00  0.00     0.044 C 
ATOM      8  C   UNL     1       9.559 -62.430 -24.680  1.00  0.00     0.004 A 
ATOM      9  C   UNL     1       9.895 -61.449 -25.630  1.00  0.00     0.001 A 
ATOM     10  C   UNL     1      10.400 -60.210 -25.229  1.00  0.00     0.012 A 
ATOM     11  C   UNL     1      10.560 -59.977 -23.875  1.00  0.00     0.020 A 
ENDROOT
BRANCH   1  12
ATOM     12  O   UNL     1      11.451 -57.705 -23.861  1.00  0.00    -0.507 OA
ATOM     13  H   UNL     1      10.852 -57.593 -24.616  1.00  0.00     0.293 HD
ENDBRANCH   1  12
TORSDOF 1
ENDMDL
MODEL 8
REMARK VINA RESULT:    -7.392      5.881      7.848
REMARK INTER + INTRA:          -7.609
REMARK INTER:                  -7.609
REMARK INTRA:                   0.000
REMARK UNBOUND:                 0.000
REMARK SMILES CC1=C(O)c2cccc(C)c2C1
REMARK SMILES IDX 3 1 2 2 1 3 12 4 11 5 9 6 10 7 8 8 7 9 6 10 5 11 4 12
REMARK H PARENT 4 13
ROOT
ATOM      1  C   UNL     1      11.777 -54.694 -24.362  1.00  0.00     0.122 C 
ATOM      2  C   UNL     1      11.011 -54.827 -23.266  1.00  0.00    -0.026 C 
ATOM      3  C   UNL     1      10.306 -56.028 -22.747  1.00  0.00     0.044 C 
ATOM      4  C   UNL     1      10.906 -53.512 -22.513  1.00  0.00     0.071 C 
ATOM      5  C   UNL     1      11.744 -52.600 -23.365  1.00  0.00    -0.030 A 
ATOM      6  C   UNL     1      12.033 -51.250 -23.190  1.00  0.00    -0.047 A 
ATOM      7  C   UNL     1      11.492 -50.481 -22.026  1.00  0.00     0.044 C 
ATOM      8  C   UNL     1      12.853 -50.638 -24.150  1.00  0.00     0.004 A 
ATOM      9  C   UNL     1      13.360 -51.363 -25.243  1.00  0.00     0.001 A 
ATOM     10  C   UNL     1      13.058 -52.718 -25.402  1.00  0.00     0.012 A 
ATOM     11  C   UNL     1      12.250 -53.322 -24.457  1.00  0.00     0.020 A 
ENDROOT
BRANCH   1  12
ATOM     12  O   UNL     1      12.123 -55.610 -25.299  1.00  0.00    -0.507 OA
ATOM     13  H   UNL     1      11.930 -55.232 -26.171  1.00  0.00     0.293 HD
ENDBRANCH   1  12
TORSDOF 1
ENDMDL
MODEL 9
REMARK VINA RESULT:    -7.317      2.942      4.975
REMARK INTER + INTRA:          -7.531
REMARK INTER:                  -7.531
REMARK INTRA:                   0.000
REMARK UNBOUND:                 0.000
REMARK SMILES CC1=C(O)c2cccc(C)c2C1
REMARK SMILES IDX 3 1 2 2 1 3 12 4 11 5 9 6 10 7 8 8 7 9 6 10 5 11 4 12
REMARK H PARENT 4 13
ROOT
ATOM      1  C   UNL     1       8.558 -62.634 -25.049  1.00  0.00     0.122 C 
ATOM      2  C   UNL     1       8.973 -63.001 -23.825  1.00  0.00    -0.026 C 
ATOM      3  C   UNL     1       8.332 -63.917 -22.847  1.00  0.00     0.044 C 
ATOM      4  C   UNL     1      10.293 -62.337 -23.477  1.00  0.00     0.071 C 
ATOM      5  C   UNL     1      10.566 -61.523 -24.711  1.00  0.00    -0.030 A 
ATOM      6  C   UNL     1      11.641 -60.688 -24.995  1.00  0.00    -0.047 A 
ATOM      7  C   UNL     1      12.753 -60.484 -24.015  1.00  0.00     0.044 C 
ATOM      8  C   UNL     1      11.641 -60.042 -26.242  1.00  0.00     0.004 A 
ATOM      9  C   UNL     1      10.596 -60.235 -27.162  1.00  0.00     0.001 A 
ATOM     10  C   UNL     1       9.525 -61.078 -26.858  1.00  0.00     0.012 A 
ATOM     11  C   UNL     1       9.522 -61.715 -25.631  1.00  0.00     0.020 A 
ENDROOT
BRANCH   1  12
ATOM     12  O   UNL     1       7.444 -62.991 -25.734  1.00  0.00    -0.507 OA
ATOM     13  H   UNL     1       7.214 -62.261 -26.331  1.00  0.00     0.293 HD
ENDBRANCH   1  12
TORSDOF 1
ENDMDL
