MODEL 1
REMARK VINA RESULT:   -12.954      0.000      0.000
REMARK INTER + INTRA:         -19.222
REMARK INTER:                 -18.255
REMARK INTRA:                  -0.967
REMARK UNBOUND:                -0.967
REMARK SMILES O=C1C(=NCCCNc2c3c(nc4cc(Cl)ccc24)CCCC3)C=C(O)c2c(O)cccc21
REMARK SMILES IDX 5 1 4 2 3 3 25 4 24 5 27 6 28 7 33 8 2 9 30 10 32 11 31 12
REMARK SMILES IDX 1 13 26 14 29 16 6 18 7 19 8 20 9 22 10 23 19 24 11 25 23 26
REMARK SMILES IDX 18 27 13 28 12 29 20 30 22 31 17 32 14 33 21 34 15 35 16 36
REMARK H PARENT 26 15 29 17 8 21
ROOT
ATOM      1  C   UNL     1      10.474 -57.882 -22.964  1.00  0.00     0.145 C 
ENDROOT
BRANCH   1   2
ATOM      2  N   UNL     1      11.285 -56.885 -23.646  1.00  0.00    -0.281 NA
BRANCH   2   3
ATOM      3  C   UNL     1      11.241 -55.631 -23.366  1.00  0.00     0.109 C 
ATOM      4  C   UNL     1      10.891 -53.711 -21.863  1.00  0.00     0.129 C 
ATOM      5  C   UNL     1      10.706 -55.009 -22.128  1.00  0.00     0.079 C 
ATOM      6  C   UNL     1      11.631 -52.804 -22.766  1.00  0.00     0.069 A 
ATOM      7  C   UNL     1      11.918 -51.462 -22.452  1.00  0.00     0.127 A 
ATOM      8  C   UNL     1      12.073 -53.274 -24.012  1.00  0.00     0.039 A 
ATOM      9  C   UNL     1      11.800 -54.668 -24.411  1.00  0.00     0.211 C 
ATOM     10  C   UNL     1      12.613 -50.631 -23.334  1.00  0.00     0.047 A 
ATOM     11  C   UNL     1      12.766 -52.442 -24.908  1.00  0.00     0.013 A 
ATOM     12  C   UNL     1      13.037 -51.120 -24.565  1.00  0.00     0.005 A 
ATOM     13  O   UNL     1      12.006 -55.045 -25.558  1.00  0.00    -0.287 OA
BRANCH   4  14
ATOM     14  O   UNL     1      10.408 -53.136 -20.699  1.00  0.00    -0.507 OA
ATOM     15  H   UNL     1       9.706 -52.499 -20.925  1.00  0.00     0.293 HD
ENDBRANCH   4  14
BRANCH   7  16
ATOM     16  O   UNL     1      11.541 -50.877 -21.272  1.00  0.00    -0.507 OA
ATOM     17  H   UNL     1      10.620 -50.567 -21.390  1.00  0.00     0.293 HD
ENDBRANCH   7  16
ENDBRANCH   2   3
ENDBRANCH   1   2
BRANCH   1  18
ATOM     18  C   UNL     1      11.362 -58.890 -22.239  1.00  0.00     0.045 C 
BRANCH  18  19
ATOM     19  C   UNL     1      10.741 -60.284 -22.269  1.00  0.00     0.115 C 
BRANCH  19  20
ATOM     20  N   UNL     1      11.423 -61.178 -23.227  1.00  0.00    -0.384 N 
ATOM     21  H   UNL     1      11.550 -62.091 -22.792  1.00  0.00     0.160 HD
BRANCH  20  22
ATOM     22  C   UNL     1      10.682 -61.379 -24.430  1.00  0.00     0.049 A 
ATOM     23  C   UNL     1       9.582 -62.248 -24.477  1.00  0.00    -0.003 A 
ATOM     24  C   UNL     1      11.028 -60.642 -25.596  1.00  0.00     0.024 A 
ATOM     25  C   UNL     1       8.868 -62.333 -25.674  1.00  0.00     0.046 A 
ATOM     26  C   UNL     1       9.143 -63.160 -23.361  1.00  0.00     0.039 C 
ATOM     27  C   UNL     1      12.145 -59.777 -25.667  1.00  0.00     0.014 A 
ATOM     28  C   UNL     1      10.223 -60.803 -26.746  1.00  0.00     0.074 A 
ATOM     29  N   UNL     1       9.169 -61.626 -26.784  1.00  0.00    -0.252 NA
ATOM     30  C   UNL     1       7.704 -63.288 -25.752  1.00  0.00     0.056 C 
ATOM     31  C   UNL     1       7.621 -63.146 -23.189  1.00  0.00     0.005 C 
ATOM     32  C   UNL     1      12.441 -59.072 -26.832  1.00  0.00     0.021 A 
ATOM     33  C   UNL     1      10.533 -60.091 -27.896  1.00  0.00     0.049 A 
ATOM     34  C   UNL     1       6.830 -63.169 -24.506  1.00  0.00     0.007 C 
ATOM     35  C   UNL     1      11.627 -59.231 -27.942  1.00  0.00     0.043 A 
ATOM     36  Cl  UNL     1      11.978 -58.369 -29.389  1.00  0.00    -0.084 Cl
ENDBRANCH  20  22
ENDBRANCH  19  20
ENDBRANCH  18  19
ENDBRANCH   1  18
TORSDOF 8
ENDMDL
MODEL 2
REMARK VINA RESULT:   -11.436      1.058      2.052
REMARK INTER + INTRA:         -17.083
REMARK INTER:                 -16.345
REMARK INTRA:                  -0.738
REMARK UNBOUND:                -0.967
REMARK SMILES O=C1C(=NCCCNc2c3c(nc4cc(Cl)ccc24)CCCC3)C=C(O)c2c(O)cccc21
REMARK SMILES IDX 5 1 4 2 3 3 25 4 24 5 27 6 28 7 33 8 2 9 30 10 32 11 31 12
REMARK SMILES IDX 1 13 26 14 29 16 6 18 7 19 8 20 9 22 10 23 19 24 11 25 23 26
REMARK SMILES IDX 18 27 13 28 12 29 20 30 22 31 17 32 14 33 21 34 15 35 16 36
REMARK H PARENT 26 15 29 17 8 21
ROOT
ATOM      1  C   UNL     1      10.551 -57.515 -23.038  1.00  0.00     0.145 C 
ENDROOT
BRANCH   1   2
ATOM      2  N   UNL     1      10.032 -56.157 -23.118  1.00  0.00    -0.281 NA
BRANCH   2   3
ATOM      3  C   UNL     1      10.777 -55.131 -23.336  1.00  0.00     0.109 C 
ATOM      4  C   UNL     1      12.311 -53.758 -24.689  1.00  0.00     0.129 C 
ATOM      5  C   UNL     1      11.737 -54.944 -24.453  1.00  0.00     0.079 C 
ATOM      6  C   UNL     1      12.041 -52.559 -23.869  1.00  0.00     0.069 A 
ATOM      7  C   UNL     1      12.561 -51.284 -24.165  1.00  0.00     0.127 A 
ATOM      8  C   UNL     1      11.238 -52.666 -22.723  1.00  0.00     0.039 A 
ATOM      9  C   UNL     1      10.667 -53.973 -22.346  1.00  0.00     0.211 C 
ATOM     10  C   UNL     1      12.292 -50.173 -23.363  1.00  0.00     0.047 A 
ATOM     11  C   UNL     1      10.969 -51.554 -21.907  1.00  0.00     0.013 A 
ATOM     12  C   UNL     1      11.495 -50.307 -22.231  1.00  0.00     0.005 A 
ATOM     13  O   UNL     1      10.124 -54.132 -21.260  1.00  0.00    -0.287 OA
BRANCH   4  14
ATOM     14  O   UNL     1      13.192 -53.581 -25.742  1.00  0.00    -0.507 OA
ATOM     15  H   UNL     1      13.837 -54.312 -25.746  1.00  0.00     0.293 HD
ENDBRANCH   4  14
BRANCH   7  16
ATOM     16  O   UNL     1      13.362 -51.041 -25.250  1.00  0.00    -0.507 OA
ATOM     17  H   UNL     1      13.029 -51.602 -25.981  1.00  0.00     0.293 HD
ENDBRANCH   7  16
ENDBRANCH   2   3
ENDBRANCH   1   2
BRANCH   1  18
ATOM     18  C   UNL     1       9.405 -58.523 -23.009  1.00  0.00     0.045 C 
BRANCH  18  19
ATOM     19  C   UNL     1       9.882 -59.874 -22.480  1.00  0.00     0.115 C 
BRANCH  19  20
ATOM     20  N   UNL     1      10.916 -60.478 -23.344  1.00  0.00    -0.384 N 
ATOM     21  H   UNL     1      11.324 -61.277 -22.861  1.00  0.00     0.160 HD
BRANCH  20  22
ATOM     22  C   UNL     1      10.399 -60.951 -24.588  1.00  0.00     0.049 A 
ATOM     23  C   UNL     1       9.422 -61.955 -24.641  1.00  0.00    -0.003 A 
ATOM     24  C   UNL     1      10.842 -60.355 -25.802  1.00  0.00     0.024 A 
ATOM     25  C   UNL     1       8.917 -62.310 -25.894  1.00  0.00     0.046 A 
ATOM     26  C   UNL     1       8.915 -62.742 -23.460  1.00  0.00     0.039 C 
ATOM     27  C   UNL     1      11.855 -59.371 -25.861  1.00  0.00     0.014 A 
ATOM     28  C   UNL     1      10.249 -60.790 -27.008  1.00  0.00     0.074 A 
ATOM     29  N   UNL     1       9.310 -61.742 -27.054  1.00  0.00    -0.252 NA
ATOM     30  C   UNL     1       7.891 -63.412 -25.971  1.00  0.00     0.056 C 
ATOM     31  C   UNL     1       7.392 -62.905 -23.504  1.00  0.00     0.005 C 
ATOM     32  C   UNL     1      12.252 -58.813 -27.074  1.00  0.00     0.021 A 
ATOM     33  C   UNL     1      10.656 -60.222 -28.207  1.00  0.00     0.049 A 
ATOM     34  C   UNL     1       6.825 -63.226 -24.895  1.00  0.00     0.007 C 
ATOM     35  C   UNL     1      11.644 -59.241 -28.244  1.00  0.00     0.043 A 
ATOM     36  Cl  UNL     1      12.122 -58.564 -29.753  1.00  0.00    -0.084 Cl
ENDBRANCH  20  22
ENDBRANCH  19  20
ENDBRANCH  18  19
ENDBRANCH   1  18
TORSDOF 8
ENDMDL
MODEL 3
REMARK VINA RESULT:   -11.205      1.851      3.644
REMARK INTER + INTRA:         -16.757
REMARK INTER:                 -15.915
REMARK INTRA:                  -0.842
REMARK UNBOUND:                -0.967
REMARK SMILES O=C1C(=NCCCNc2c3c(nc4cc(Cl)ccc24)CCCC3)C=C(O)c2c(O)cccc21
REMARK SMILES IDX 5 1 4 2 3 3 25 4 24 5 27 6 28 7 33 8 2 9 30 10 32 11 31 12
REMARK SMILES IDX 1 13 26 14 29 16 6 18 7 19 8 20 9 22 10 23 19 24 11 25 23 26
REMARK SMILES IDX 18 27 13 28 12 29 20 30 22 31 17 32 14 33 21 34 15 35 16 36
REMARK H PARENT 26 15 29 17 8 21
ROOT
ATOM      1  C   UNL     1      11.766 -58.150 -22.465  1.00  0.00     0.145 C 
ENDROOT
BRANCH   1   2
ATOM      2  N   UNL     1      11.098 -57.302 -23.442  1.00  0.00    -0.281 NA
BRANCH   2   3
ATOM      3  C   UNL     1      11.047 -56.021 -23.342  1.00  0.00     0.109 C 
ATOM      4  C   UNL     1      10.536 -53.911 -22.177  1.00  0.00     0.129 C 
ATOM      5  C   UNL     1      10.357 -55.233 -22.290  1.00  0.00     0.079 C 
ATOM      6  C   UNL     1      11.420 -53.141 -23.078  1.00  0.00     0.069 A 
ATOM      7  C   UNL     1      11.694 -51.771 -22.910  1.00  0.00     0.127 A 
ATOM      8  C   UNL     1      12.022 -53.780 -24.173  1.00  0.00     0.039 A 
ATOM      9  C   UNL     1      11.772 -55.214 -24.416  1.00  0.00     0.211 C 
ATOM     10  C   UNL     1      12.527 -51.073 -23.787  1.00  0.00     0.047 A 
ATOM     11  C   UNL     1      12.856 -53.082 -25.064  1.00  0.00     0.013 A 
ATOM     12  C   UNL     1      13.110 -51.728 -24.866  1.00  0.00     0.005 A 
ATOM     13  O   UNL     1      12.130 -55.745 -25.460  1.00  0.00    -0.287 OA
BRANCH   4  14
ATOM     14  O   UNL     1       9.908 -53.180 -21.183  1.00  0.00    -0.507 OA
ATOM     15  H   UNL     1      10.374 -52.330 -21.069  1.00  0.00     0.293 HD
ENDBRANCH   4  14
BRANCH   7  16
ATOM     16  O   UNL     1      11.168 -51.027 -21.887  1.00  0.00    -0.507 OA
ATOM     17  H   UNL     1      11.840 -51.007 -21.175  1.00  0.00     0.293 HD
ENDBRANCH   7  16
ENDBRANCH   2   3
ENDBRANCH   1   2
BRANCH   1  18
ATOM     18  C   UNL     1      10.748 -59.006 -21.716  1.00  0.00     0.045 C 
BRANCH  18  19
ATOM     19  C   UNL     1       9.941 -59.866 -22.685  1.00  0.00     0.115 C 
BRANCH  19  20
ATOM     20  N   UNL     1      10.797 -60.779 -23.467  1.00  0.00    -0.384 N 
ATOM     21  H   UNL     1      10.880 -61.664 -22.967  1.00  0.00     0.160 HD
BRANCH  20  22
ATOM     22  C   UNL     1      10.271 -61.069 -24.762  1.00  0.00     0.049 A 
ATOM     23  C   UNL     1      10.818 -60.497 -25.919  1.00  0.00    -0.003 A 
ATOM     24  C   UNL     1       9.204 -62.001 -24.892  1.00  0.00     0.024 A 
ATOM     25  C   UNL     1      10.292 -60.888 -27.153  1.00  0.00     0.046 A 
ATOM     26  C   UNL     1      11.885 -59.433 -25.946  1.00  0.00     0.039 C 
ATOM     27  C   UNL     1       8.553 -62.597 -23.787  1.00  0.00     0.014 A 
ATOM     28  C   UNL     1       8.763 -62.327 -26.193  1.00  0.00     0.074 A 
ATOM     29  N   UNL     1       9.293 -61.785 -27.297  1.00  0.00    -0.252 NA
ATOM     30  C   UNL     1      10.844 -60.256 -28.405  1.00  0.00     0.056 C 
ATOM     31  C   UNL     1      12.940 -59.721 -27.020  1.00  0.00     0.005 C 
ATOM     32  C   UNL     1       7.515 -63.509 -23.964  1.00  0.00     0.021 A 
ATOM     33  C   UNL     1       7.729 -63.238 -26.351  1.00  0.00     0.049 A 
ATOM     34  C   UNL     1      12.370 -60.219 -28.357  1.00  0.00     0.007 C 
ATOM     35  C   UNL     1       7.110 -63.828 -25.251  1.00  0.00     0.043 A 
ATOM     36  Cl  UNL     1       5.829 -64.951 -25.490  1.00  0.00    -0.084 Cl
ENDBRANCH  20  22
ENDBRANCH  19  20
ENDBRANCH  18  19
ENDBRANCH   1  18
TORSDOF 8
ENDMDL
MODEL 4
REMARK VINA RESULT:   -10.735      3.515      9.437
REMARK INTER + INTRA:         -16.094
REMARK INTER:                 -15.672
REMARK INTRA:                  -0.422
REMARK UNBOUND:                -0.967
REMARK SMILES O=C1C(=NCCCNc2c3c(nc4cc(Cl)ccc24)CCCC3)C=C(O)c2c(O)cccc21
REMARK SMILES IDX 5 1 4 2 3 3 25 4 24 5 27 6 28 7 33 8 2 9 30 10 32 11 31 12
REMARK SMILES IDX 1 13 26 14 29 16 6 18 7 19 8 20 9 22 10 23 19 24 11 25 23 26
REMARK SMILES IDX 18 27 13 28 12 29 20 30 22 31 17 32 14 33 21 34 15 35 16 36
REMARK H PARENT 26 15 29 17 8 21
ROOT
ATOM      1  C   UNL     1      12.127 -57.740 -24.481  1.00  0.00     0.145 C 
ENDROOT
BRANCH   1   2
ATOM      2  N   UNL     1      12.147 -59.171 -24.743  1.00  0.00    -0.281 NA
BRANCH   2   3
ATOM      3  C   UNL     1      11.361 -59.744 -25.583  1.00  0.00     0.109 C 
ATOM      4  C   UNL     1      10.715 -60.531 -27.827  1.00  0.00     0.129 C 
ATOM      5  C   UNL     1      11.477 -59.739 -27.063  1.00  0.00     0.079 C 
ATOM      6  C   UNL     1       9.711 -61.460 -27.267  1.00  0.00     0.069 A 
ATOM      7  C   UNL     1       8.974 -62.369 -28.050  1.00  0.00     0.127 A 
ATOM      8  C   UNL     1       9.449 -61.452 -25.889  1.00  0.00     0.039 A 
ATOM      9  C   UNL     1      10.177 -60.519 -25.008  1.00  0.00     0.211 C 
ATOM     10  C   UNL     1       8.026 -63.227 -27.488  1.00  0.00     0.047 A 
ATOM     11  C   UNL     1       8.491 -62.307 -25.317  1.00  0.00     0.013 A 
ATOM     12  C   UNL     1       7.783 -63.197 -26.120  1.00  0.00     0.005 A 
ATOM     13  O   UNL     1       9.837 -60.361 -23.842  1.00  0.00    -0.287 OA
BRANCH   4  14
ATOM     14  O   UNL     1      10.838 -60.539 -29.206  1.00  0.00    -0.507 OA
ATOM     15  H   UNL     1      10.074 -60.076 -29.598  1.00  0.00     0.293 HD
ENDBRANCH   4  14
BRANCH   7  16
ATOM     16  O   UNL     1       9.129 -62.477 -29.408  1.00  0.00    -0.507 OA
ATOM     17  H   UNL     1       9.171 -61.566 -29.763  1.00  0.00     0.293 HD
ENDBRANCH   7  16
ENDBRANCH   2   3
ENDBRANCH   1   2
BRANCH   1  18
ATOM     18  C   UNL     1      12.474 -56.960 -25.746  1.00  0.00     0.045 C 
BRANCH  18  19
ATOM     19  C   UNL     1      13.067 -55.596 -25.399  1.00  0.00     0.115 C 
BRANCH  19  20
ATOM     20  N   UNL     1      12.179 -54.485 -25.795  1.00  0.00    -0.384 N 
ATOM     21  H   UNL     1      11.238 -54.850 -25.938  1.00  0.00     0.160 HD
BRANCH  20  22
ATOM     22  C   UNL     1      12.093 -53.459 -24.807  1.00  0.00     0.049 A 
ATOM     23  C   UNL     1      11.376 -53.646 -23.617  1.00  0.00    -0.003 A 
ATOM     24  C   UNL     1      12.793 -52.236 -25.005  1.00  0.00     0.024 A 
ATOM     25  C   UNL     1      11.401 -52.619 -22.671  1.00  0.00     0.046 A 
ATOM     26  C   UNL     1      10.515 -54.841 -23.295  1.00  0.00     0.039 C 
ATOM     27  C   UNL     1      13.504 -51.930 -26.188  1.00  0.00     0.014 A 
ATOM     28  C   UNL     1      12.753 -51.274 -23.971  1.00  0.00     0.074 A 
ATOM     29  N   UNL     1      12.076 -51.461 -22.832  1.00  0.00    -0.252 NA
ATOM     30  C   UNL     1      10.608 -52.790 -21.400  1.00  0.00     0.056 C 
ATOM     31  C   UNL     1      10.726 -55.315 -21.854  1.00  0.00     0.005 C 
ATOM     32  C   UNL     1      14.179 -50.720 -26.334  1.00  0.00     0.021 A 
ATOM     33  C   UNL     1      13.432 -50.076 -24.134  1.00  0.00     0.049 A 
ATOM     34  C   UNL     1      10.825 -54.185 -20.818  1.00  0.00     0.007 C 
ATOM     35  C   UNL     1      14.142 -49.798 -25.299  1.00  0.00     0.043 A 
ATOM     36  Cl  UNL     1      14.969 -48.298 -25.462  1.00  0.00    -0.084 Cl
ENDBRANCH  20  22
ENDBRANCH  19  20
ENDBRANCH  18  19
ENDBRANCH   1  18
TORSDOF 8
ENDMDL
MODEL 5
REMARK VINA RESULT:   -10.677      3.511      8.930
REMARK INTER + INTRA:         -16.013
REMARK INTER:                 -15.072
REMARK INTRA:                  -0.941
REMARK UNBOUND:                -0.967
REMARK SMILES O=C1C(=NCCCNc2c3c(nc4cc(Cl)ccc24)CCCC3)C=C(O)c2c(O)cccc21
REMARK SMILES IDX 5 1 4 2 3 3 25 4 24 5 27 6 28 7 33 8 2 9 30 10 32 11 31 12
REMARK SMILES IDX 1 13 26 14 29 16 6 18 7 19 8 20 9 22 10 23 19 24 11 25 23 26
REMARK SMILES IDX 18 27 13 28 12 29 20 30 22 31 17 32 14 33 21 34 15 35 16 36
REMARK H PARENT 26 15 29 17 8 21
ROOT
ATOM      1  C   UNL     1      12.356 -57.489 -24.239  1.00  0.00     0.145 C 
ENDROOT
BRANCH   1   2
ATOM      2  N   UNL     1      12.042 -58.909 -24.275  1.00  0.00    -0.281 NA
BRANCH   2   3
ATOM      3  C   UNL     1      10.882 -59.380 -23.981  1.00  0.00     0.109 C 
ATOM      4  C   UNL     1       8.435 -59.239 -23.732  1.00  0.00     0.129 C 
ATOM      5  C   UNL     1       9.615 -58.618 -23.847  1.00  0.00     0.079 C 
ATOM      6  C   UNL     1       8.299 -60.710 -23.728  1.00  0.00     0.069 A 
ATOM      7  C   UNL     1       7.058 -61.375 -23.708  1.00  0.00     0.127 A 
ATOM      8  C   UNL     1       9.449 -61.514 -23.734  1.00  0.00     0.039 A 
ATOM      9  C   UNL     1      10.785 -60.886 -23.746  1.00  0.00     0.211 C 
ATOM     10  C   UNL     1       6.968 -62.768 -23.696  1.00  0.00     0.047 A 
ATOM     11  C   UNL     1       9.367 -62.916 -23.715  1.00  0.00     0.013 A 
ATOM     12  C   UNL     1       8.123 -63.542 -23.699  1.00  0.00     0.005 A 
ATOM     13  O   UNL     1      11.794 -61.554 -23.563  1.00  0.00    -0.287 OA
BRANCH   4  14
ATOM     14  O   UNL     1       7.252 -58.526 -23.626  1.00  0.00    -0.507 OA
ATOM     15  H   UNL     1       6.859 -58.426 -24.513  1.00  0.00     0.293 HD
ENDBRANCH   4  14
BRANCH   7  16
ATOM     16  O   UNL     1       5.859 -60.711 -23.696  1.00  0.00    -0.507 OA
ATOM     17  H   UNL     1       5.337 -61.080 -22.955  1.00  0.00     0.293 HD
ENDBRANCH   7  16
ENDBRANCH   2   3
ENDBRANCH   1   2
BRANCH   1  18
ATOM     18  C   UNL     1      12.438 -56.924 -25.655  1.00  0.00     0.045 C 
BRANCH  18  19
ATOM     19  C   UNL     1      13.059 -55.529 -25.650  1.00  0.00     0.115 C 
BRANCH  19  20
ATOM     20  N   UNL     1      12.050 -54.469 -25.848  1.00  0.00    -0.384 N 
ATOM     21  H   UNL     1      11.124 -54.894 -25.866  1.00  0.00     0.160 HD
BRANCH  20  22
ATOM     22  C   UNL     1      12.052 -53.493 -24.806  1.00  0.00     0.049 A 
ATOM     23  C   UNL     1      11.324 -53.684 -23.623  1.00  0.00    -0.003 A 
ATOM     24  C   UNL     1      12.852 -52.325 -24.942  1.00  0.00     0.024 A 
ATOM     25  C   UNL     1      11.436 -52.715 -22.624  1.00  0.00     0.046 A 
ATOM     26  C   UNL     1      10.366 -54.818 -23.361  1.00  0.00     0.039 C 
ATOM     27  C   UNL     1      13.585 -52.016 -26.112  1.00  0.00     0.014 A 
ATOM     28  C   UNL     1      12.894 -51.420 -23.859  1.00  0.00     0.074 A 
ATOM     29  N   UNL     1      12.205 -51.610 -22.727  1.00  0.00    -0.252 NA
ATOM     30  C   UNL     1      10.633 -52.887 -21.360  1.00  0.00     0.056 C 
ATOM     31  C   UNL     1      10.539 -55.385 -21.948  1.00  0.00     0.005 C 
ATOM     32  C   UNL     1      14.358 -50.860 -26.196  1.00  0.00     0.021 A 
ATOM     33  C   UNL     1      13.671 -50.275 -23.960  1.00  0.00     0.049 A 
ATOM     34  C   UNL     1      10.733 -54.324 -20.854  1.00  0.00     0.007 C 
ATOM     35  C   UNL     1      14.400 -49.996 -25.114  1.00  0.00     0.043 A 
ATOM     36  Cl  UNL     1      15.350 -48.563 -25.201  1.00  0.00    -0.084 Cl
ENDBRANCH  20  22
ENDBRANCH  19  20
ENDBRANCH  18  19
ENDBRANCH   1  18
TORSDOF 8
ENDMDL
MODEL 6
REMARK VINA RESULT:   -10.578      3.702      9.172
REMARK INTER + INTRA:         -15.873
REMARK INTER:                 -15.383
REMARK INTRA:                  -0.490
REMARK UNBOUND:                -0.967
REMARK SMILES O=C1C(=NCCCNc2c3c(nc4cc(Cl)ccc24)CCCC3)C=C(O)c2c(O)cccc21
REMARK SMILES IDX 5 1 4 2 3 3 25 4 24 5 27 6 28 7 33 8 2 9 30 10 32 11 31 12
REMARK SMILES IDX 1 13 26 14 29 16 6 18 7 19 8 20 9 22 10 23 19 24 11 25 23 26
REMARK SMILES IDX 18 27 13 28 12 29 20 30 22 31 17 32 14 33 21 34 15 35 16 36
REMARK H PARENT 26 15 29 17 8 21
ROOT
ATOM      1  C   UNL     1      11.821 -58.231 -24.073  1.00  0.00     0.145 C 
ENDROOT
BRANCH   1   2
ATOM      2  N   UNL     1      12.203 -59.626 -24.231  1.00  0.00    -0.281 NA
BRANCH   2   3
ATOM      3  C   UNL     1      11.372 -60.601 -24.120  1.00  0.00     0.109 C 
ATOM      4  C   UNL     1       9.935 -62.150 -22.853  1.00  0.00     0.129 C 
ATOM      5  C   UNL     1      10.953 -61.281 -22.869  1.00  0.00     0.079 C 
ATOM      6  C   UNL     1       9.159 -62.499 -24.062  1.00  0.00     0.069 A 
ATOM      7  C   UNL     1       8.025 -63.333 -24.041  1.00  0.00     0.127 A 
ATOM      8  C   UNL     1       9.554 -61.995 -25.311  1.00  0.00     0.039 A 
ATOM      9  C   UNL     1      10.738 -61.121 -25.409  1.00  0.00     0.211 C 
ATOM     10  C   UNL     1       7.320 -63.648 -25.205  1.00  0.00     0.047 A 
ATOM     11  C   UNL     1       8.854 -62.314 -26.487  1.00  0.00     0.013 A 
ATOM     12  C   UNL     1       7.735 -63.139 -26.431  1.00  0.00     0.005 A 
ATOM     13  O   UNL     1      11.211 -60.824 -26.499  1.00  0.00    -0.287 OA
BRANCH   4  14
ATOM     14  O   UNL     1       9.533 -62.769 -21.682  1.00  0.00    -0.507 OA
ATOM     15  H   UNL     1      10.322 -63.048 -21.180  1.00  0.00     0.293 HD
ENDBRANCH   4  14
BRANCH   7  16
ATOM     16  O   UNL     1       7.535 -63.894 -22.891  1.00  0.00    -0.507 OA
ATOM     17  H   UNL     1       8.172 -64.585 -22.618  1.00  0.00     0.293 HD
ENDBRANCH   7  16
ENDBRANCH   2   3
ENDBRANCH   1   2
BRANCH   1  18
ATOM     18  C   UNL     1      12.132 -57.444 -25.343  1.00  0.00     0.045 C 
BRANCH  18  19
ATOM     19  C   UNL     1      12.820 -56.122 -25.010  1.00  0.00     0.115 C 
BRANCH  19  20
ATOM     20  N   UNL     1      12.109 -54.963 -25.585  1.00  0.00    -0.384 N 
ATOM     21  H   UNL     1      11.162 -55.247 -25.834  1.00  0.00     0.160 HD
BRANCH  20  22
ATOM     22  C   UNL     1      12.000 -53.867 -24.678  1.00  0.00     0.049 A 
ATOM     23  C   UNL     1      11.297 -53.982 -23.471  1.00  0.00    -0.003 A 
ATOM     24  C   UNL     1      12.665 -52.644 -24.975  1.00  0.00     0.024 A 
ATOM     25  C   UNL     1      11.299 -52.884 -22.606  1.00  0.00     0.046 A 
ATOM     26  C   UNL     1      10.471 -55.171 -23.051  1.00  0.00     0.039 C 
ATOM     27  C   UNL     1      13.360 -52.410 -26.184  1.00  0.00     0.014 A 
ATOM     28  C   UNL     1      12.605 -51.607 -24.017  1.00  0.00     0.074 A 
ATOM     29  N   UNL     1      11.940 -51.724 -22.862  1.00  0.00    -0.252 NA
ATOM     30  C   UNL     1      10.519 -52.979 -21.320  1.00  0.00     0.056 C 
ATOM     31  C   UNL     1      10.705 -55.527 -21.580  1.00  0.00     0.005 C 
ATOM     32  C   UNL     1      14.000 -51.197 -26.428  1.00  0.00     0.021 A 
ATOM     33  C   UNL     1      13.249 -50.407 -24.277  1.00  0.00     0.049 A 
ATOM     34  C   UNL     1      10.778 -54.318 -20.634  1.00  0.00     0.007 C 
ATOM     35  C   UNL     1      13.944 -50.200 -25.466  1.00  0.00     0.043 A 
ATOM     36  Cl  UNL     1      14.727 -48.694 -25.750  1.00  0.00    -0.084 Cl
ENDBRANCH  20  22
ENDBRANCH  19  20
ENDBRANCH  18  19
ENDBRANCH   1  18
TORSDOF 8
ENDMDL
MODEL 7
REMARK VINA RESULT:   -10.249      4.236     10.400
REMARK INTER + INTRA:         -15.410
REMARK INTER:                 -14.755
REMARK INTRA:                  -0.655
REMARK UNBOUND:                -0.967
REMARK SMILES O=C1C(=NCCCNc2c3c(nc4cc(Cl)ccc24)CCCC3)C=C(O)c2c(O)cccc21
REMARK SMILES IDX 5 1 4 2 3 3 25 4 24 5 27 6 28 7 33 8 2 9 30 10 32 11 31 12
REMARK SMILES IDX 1 13 26 14 29 16 6 18 7 19 8 20 9 22 10 23 19 24 11 25 23 26
REMARK SMILES IDX 18 27 13 28 12 29 20 30 22 31 17 32 14 33 21 34 15 35 16 36
REMARK H PARENT 26 15 29 17 8 21
ROOT
ATOM      1  C   UNL     1      10.397 -54.201 -22.844  1.00  0.00     0.145 C 
ENDROOT
BRANCH   1   2
ATOM      2  N   UNL     1      10.673 -55.456 -22.162  1.00  0.00    -0.281 NA
BRANCH   2   3
ATOM      3  C   UNL     1      10.115 -56.570 -22.483  1.00  0.00     0.109 C 
ATOM      4  C   UNL     1       8.407 -57.945 -23.606  1.00  0.00     0.129 C 
ATOM      5  C   UNL     1       8.797 -56.751 -23.143  1.00  0.00     0.079 C 
ATOM      6  C   UNL     1       9.243 -59.159 -23.500  1.00  0.00     0.069 A 
ATOM      7  C   UNL     1       8.888 -60.397 -24.070  1.00  0.00     0.127 A 
ATOM      8  C   UNL     1      10.452 -59.111 -22.790  1.00  0.00     0.039 A 
ATOM      9  C   UNL     1      10.883 -57.848 -22.159  1.00  0.00     0.211 C 
ATOM     10  C   UNL     1       9.698 -61.527 -23.942  1.00  0.00     0.047 A 
ATOM     11  C   UNL     1      11.269 -60.245 -22.651  1.00  0.00     0.013 A 
ATOM     12  C   UNL     1      10.891 -61.453 -23.231  1.00  0.00     0.005 A 
ATOM     13  O   UNL     1      11.830 -57.826 -21.383  1.00  0.00    -0.287 OA
BRANCH   4  14
ATOM     14  O   UNL     1       7.186 -58.109 -24.238  1.00  0.00    -0.507 OA
ATOM     15  H   UNL     1       6.933 -59.051 -24.205  1.00  0.00     0.293 HD
ENDBRANCH   4  14
BRANCH   7  16
ATOM     16  O   UNL     1       7.733 -60.583 -24.784  1.00  0.00    -0.507 OA
ATOM     17  H   UNL     1       7.159 -59.811 -24.604  1.00  0.00     0.293 HD
ENDBRANCH   7  16
ENDBRANCH   2   3
ENDBRANCH   1   2
BRANCH   1  18
ATOM     18  C   UNL     1      10.139 -53.088 -21.833  1.00  0.00     0.045 C 
BRANCH  18  19
ATOM     19  C   UNL     1      10.123 -51.723 -22.517  1.00  0.00     0.115 C 
BRANCH  19  20
ATOM     20  N   UNL     1      11.164 -50.821 -21.986  1.00  0.00    -0.384 N 
ATOM     21  H   UNL     1      11.885 -51.380 -21.531  1.00  0.00     0.160 HD
BRANCH  20  22
ATOM     22  C   UNL     1      11.803 -50.046 -23.000  1.00  0.00     0.049 A 
ATOM     23  C   UNL     1      12.694 -50.627 -23.913  1.00  0.00    -0.003 A 
ATOM     24  C   UNL     1      11.490 -48.664 -23.127  1.00  0.00     0.024 A 
ATOM     25  C   UNL     1      13.221 -49.813 -24.920  1.00  0.00     0.046 A 
ATOM     26  C   UNL     1      13.195 -52.047 -23.861  1.00  0.00     0.039 C 
ATOM     27  C   UNL     1      10.641 -47.973 -22.231  1.00  0.00     0.014 A 
ATOM     28  C   UNL     1      12.077 -47.945 -24.192  1.00  0.00     0.074 A 
ATOM     29  N   UNL     1      12.920 -48.505 -25.068  1.00  0.00    -0.252 NA
ATOM     30  C   UNL     1      14.208 -50.414 -25.888  1.00  0.00     0.056 C 
ATOM     31  C   UNL     1      13.206 -52.691 -25.252  1.00  0.00     0.005 C 
ATOM     32  C   UNL     1      10.360 -46.619 -22.399  1.00  0.00     0.021 A 
ATOM     33  C   UNL     1      11.784 -46.598 -24.345  1.00  0.00     0.049 A 
ATOM     34  C   UNL     1      13.719 -51.776 -26.374  1.00  0.00     0.007 C 
ATOM     35  C   UNL     1      10.932 -45.938 -23.462  1.00  0.00     0.043 A 
ATOM     36  Cl  UNL     1      10.598 -44.265 -23.684  1.00  0.00    -0.084 Cl
ENDBRANCH  20  22
ENDBRANCH  19  20
ENDBRANCH  18  19
ENDBRANCH   1  18
TORSDOF 8
ENDMDL
MODEL 8
REMARK VINA RESULT:    -9.990      3.836     10.337
REMARK INTER + INTRA:         -15.044
REMARK INTER:                 -14.555
REMARK INTRA:                  -0.490
REMARK UNBOUND:                -0.967
REMARK SMILES O=C1C(=NCCCNc2c3c(nc4cc(Cl)ccc24)CCCC3)C=C(O)c2c(O)cccc21
REMARK SMILES IDX 5 1 4 2 3 3 25 4 24 5 27 6 28 7 33 8 2 9 30 10 32 11 31 12
REMARK SMILES IDX 1 13 26 14 29 16 6 18 7 19 8 20 9 22 10 23 19 24 11 25 23 26
REMARK SMILES IDX 18 27 13 28 12 29 20 30 22 31 17 32 14 33 21 34 15 35 16 36
REMARK H PARENT 26 15 29 17 8 21
ROOT
ATOM      1  C   UNL     1      10.785 -54.377 -22.126  1.00  0.00     0.145 C 
ENDROOT
BRANCH   1   2
ATOM      2  N   UNL     1      11.170 -55.701 -22.592  1.00  0.00    -0.281 NA
BRANCH   2   3
ATOM      3  C   UNL     1      10.352 -56.691 -22.651  1.00  0.00     0.109 C 
ATOM      4  C   UNL     1       8.349 -57.860 -23.481  1.00  0.00     0.129 C 
ATOM      5  C   UNL     1       9.025 -56.717 -23.315  1.00  0.00     0.079 C 
ATOM      6  C   UNL     1       8.860 -59.169 -23.023  1.00  0.00     0.069 A 
ATOM      7  C   UNL     1       8.207 -60.389 -23.279  1.00  0.00     0.127 A 
ATOM      8  C   UNL     1      10.051 -59.229 -22.283  1.00  0.00     0.039 A 
ATOM      9  C   UNL     1      10.785 -57.988 -21.969  1.00  0.00     0.211 C 
ATOM     10  C   UNL     1       8.715 -61.607 -22.823  1.00  0.00     0.047 A 
ATOM     11  C   UNL     1      10.564 -60.450 -21.814  1.00  0.00     0.013 A 
ATOM     12  C   UNL     1       9.896 -61.639 -22.089  1.00  0.00     0.005 A 
ATOM     13  O   UNL     1      11.715 -57.992 -21.173  1.00  0.00    -0.287 OA
BRANCH   4  14
ATOM     14  O   UNL     1       7.120 -57.885 -24.118  1.00  0.00    -0.507 OA
ATOM     15  H   UNL     1       7.019 -57.073 -24.650  1.00  0.00     0.293 HD
ENDBRANCH   4  14
BRANCH   7  16
ATOM     16  O   UNL     1       7.036 -60.472 -23.986  1.00  0.00    -0.507 OA
ATOM     17  H   UNL     1       7.277 -60.499 -24.934  1.00  0.00     0.293 HD
ENDBRANCH   7  16
ENDBRANCH   2   3
ENDBRANCH   1   2
BRANCH   1  18
ATOM     18  C   UNL     1      11.381 -53.299 -23.027  1.00  0.00     0.045 C 
BRANCH  18  19
ATOM     19  C   UNL     1      11.022 -51.904 -22.518  1.00  0.00     0.115 C 
BRANCH  19  20
ATOM     20  N   UNL     1      12.216 -51.133 -22.116  1.00  0.00    -0.384 N 
ATOM     21  H   UNL     1      12.981 -51.781 -21.934  1.00  0.00     0.160 HD
BRANCH  20  22
ATOM     22  C   UNL     1      12.658 -50.222 -23.122  1.00  0.00     0.049 A 
ATOM     23  C   UNL     1      11.964 -49.033 -23.389  1.00  0.00    -0.003 A 
ATOM     24  C   UNL     1      13.859 -50.494 -23.833  1.00  0.00     0.024 A 
ATOM     25  C   UNL     1      12.503 -48.162 -24.338  1.00  0.00     0.046 A 
ATOM     26  C   UNL     1      10.638 -48.643 -22.788  1.00  0.00     0.039 C 
ATOM     27  C   UNL     1      14.607 -51.684 -23.673  1.00  0.00     0.014 A 
ATOM     28  C   UNL     1      14.312 -49.531 -24.763  1.00  0.00     0.074 A 
ATOM     29  N   UNL     1      13.651 -48.393 -25.009  1.00  0.00    -0.252 NA
ATOM     30  C   UNL     1      11.751 -46.896 -24.663  1.00  0.00     0.056 C 
ATOM     31  C   UNL     1      10.621 -47.168 -22.373  1.00  0.00     0.005 C 
ATOM     32  C   UNL     1      15.780 -51.903 -24.390  1.00  0.00     0.021 A 
ATOM     33  C   UNL     1      15.484 -49.767 -25.467  1.00  0.00     0.049 A 
ATOM     34  C   UNL     1      11.276 -46.213 -23.383  1.00  0.00     0.007 C 
ATOM     35  C   UNL     1      16.216 -50.937 -25.283  1.00  0.00     0.043 A 
ATOM     36  Cl  UNL     1      17.663 -51.191 -26.178  1.00  0.00    -0.084 Cl
ENDBRANCH  20  22
ENDBRANCH  19  20
ENDBRANCH  18  19
ENDBRANCH   1  18
TORSDOF 8
ENDMDL
