MODEL 1
REMARK VINA RESULT:   -10.264      0.000      0.000
REMARK INTER + INTRA:         -11.445
REMARK INTER:                 -11.164
REMARK INTRA:                  -0.281
REMARK UNBOUND:                -0.281
REMARK SMILES O=c1c(O)c(-c2ccc(Cl)cc2)oc2cc(F)c(I)cc12
REMARK SMILES IDX 1 1 2 2 3 3 5 4 13 5 14 6 15 7 16 8 17 9 18 10 19 11 20 12
REMARK SMILES IDX 21 13 4 14 6 16 7 17 12 18 8 19 11 20 9 21 10 22
REMARK H PARENT 4 15
ROOT
ATOM      1  O   UNL     1      10.844 -51.588 -21.203  1.00  0.00    -0.285 OA
ATOM      2  C   UNL     1      11.112 -52.452 -22.031  1.00  0.00     0.235 A 
ATOM      3  C   UNL     1      10.659 -53.848 -21.819  1.00  0.00     0.208 A 
ATOM      4  C   UNL     1      10.970 -54.777 -22.742  1.00  0.00     0.180 A 
ATOM      5  O   UNL     1      11.708 -54.514 -23.890  1.00  0.00    -0.452 OA
ATOM      6  C   UNL     1      12.134 -53.233 -24.124  1.00  0.00     0.141 A 
ATOM      7  C   UNL     1      12.858 -53.006 -25.293  1.00  0.00     0.088 A 
ATOM      8  C   UNL     1      13.316 -51.722 -25.579  1.00  0.00     0.140 A 
ATOM      9  F   UNL     1      14.010 -51.532 -26.710  1.00  0.00    -0.206 F 
ATOM     10  C   UNL     1      13.059 -50.662 -24.707  1.00  0.00     0.050 A 
ATOM     11  I   UNL     1      13.743 -48.745 -25.134  1.00  0.00    -0.041 I 
ATOM     12  C   UNL     1      12.334 -50.885 -23.535  1.00  0.00     0.034 A 
ATOM     13  C   UNL     1      11.875 -52.177 -23.253  1.00  0.00     0.070 A 
ENDROOT
BRANCH   3  14
ATOM     14  O   UNL     1       9.950 -54.106 -20.660  1.00  0.00    -0.502 OA
ATOM     15  H   UNL     1      10.267 -53.439 -20.013  1.00  0.00     0.293 HD
ENDBRANCH   3  14
BRANCH   4  16
ATOM     16  C   UNL     1      10.577 -56.197 -22.623  1.00  0.00     0.021 A 
ATOM     17  C   UNL     1      11.396 -57.089 -21.909  1.00  0.00     0.013 A 
ATOM     18  C   UNL     1       9.422 -56.698 -23.241  1.00  0.00     0.013 A 
ATOM     19  C   UNL     1      11.057 -58.442 -21.803  1.00  0.00     0.021 A 
ATOM     20  C   UNL     1       9.081 -58.050 -23.136  1.00  0.00     0.021 A 
ATOM     21  C   UNL     1       9.900 -58.916 -22.417  1.00  0.00     0.041 A 
ATOM     22  Cl  UNL     1       9.483 -60.580 -22.288  1.00  0.00    -0.084 Cl
ENDBRANCH   4  16
TORSDOF 2
ENDMDL
MODEL 2
REMARK VINA RESULT:    -9.370      2.423      3.253
REMARK INTER + INTRA:         -10.473
REMARK INTER:                 -10.328
REMARK INTRA:                  -0.146
REMARK UNBOUND:                -0.281
REMARK SMILES O=c1c(O)c(-c2ccc(Cl)cc2)oc2cc(F)c(I)cc12
REMARK SMILES IDX 1 1 2 2 3 3 5 4 13 5 14 6 15 7 16 8 17 9 18 10 19 11 20 12
REMARK SMILES IDX 21 13 4 14 6 16 7 17 12 18 8 19 11 20 9 21 10 22
REMARK H PARENT 4 15
ROOT
ATOM      1  O   UNL     1       9.118 -49.234 -22.030  1.00  0.00    -0.285 OA
ATOM      2  C   UNL     1      10.093 -49.915 -22.324  1.00  0.00     0.235 A 
ATOM      3  C   UNL     1       9.995 -51.395 -22.311  1.00  0.00     0.208 A 
ATOM      4  C   UNL     1      11.083 -52.119 -22.634  1.00  0.00     0.180 A 
ATOM      5  O   UNL     1      12.312 -51.565 -22.972  1.00  0.00    -0.452 OA
ATOM      6  C   UNL     1      12.436 -50.201 -23.004  1.00  0.00     0.141 A 
ATOM      7  C   UNL     1      13.680 -49.684 -23.361  1.00  0.00     0.088 A 
ATOM      8  C   UNL     1      13.862 -48.303 -23.408  1.00  0.00     0.140 A 
ATOM      9  F   UNL     1      15.068 -47.833 -23.755  1.00  0.00    -0.206 F 
ATOM     10  C   UNL     1      12.813 -47.434 -23.100  1.00  0.00     0.050 A 
ATOM     11  I   UNL     1      13.084 -45.374 -23.171  1.00  0.00    -0.041 I 
ATOM     12  C   UNL     1      11.565 -47.949 -22.742  1.00  0.00     0.034 A 
ATOM     13  C   UNL     1      11.388 -49.337 -22.697  1.00  0.00     0.070 A 
ENDROOT
BRANCH   3  14
ATOM     14  O   UNL     1       8.776 -51.937 -21.946  1.00  0.00    -0.502 OA
ATOM     15  H   UNL     1       8.983 -52.568 -21.225  1.00  0.00     0.293 HD
ENDBRANCH   3  14
BRANCH   4  16
ATOM     16  C   UNL     1      11.096 -53.598 -22.643  1.00  0.00     0.021 A 
ATOM     17  C   UNL     1      10.908 -54.304 -21.443  1.00  0.00     0.013 A 
ATOM     18  C   UNL     1      11.332 -54.326 -23.819  1.00  0.00     0.013 A 
ATOM     19  C   UNL     1      10.941 -55.701 -21.423  1.00  0.00     0.021 A 
ATOM     20  C   UNL     1      11.364 -55.725 -23.801  1.00  0.00     0.021 A 
ATOM     21  C   UNL     1      11.168 -56.406 -22.603  1.00  0.00     0.041 A 
ATOM     22  Cl  UNL     1      11.208 -58.125 -22.579  1.00  0.00    -0.084 Cl
ENDBRANCH   4  16
TORSDOF 2
ENDMDL
MODEL 3
REMARK VINA RESULT:    -9.310      2.090      3.099
REMARK INTER + INTRA:         -10.408
REMARK INTER:                 -10.160
REMARK INTRA:                  -0.247
REMARK UNBOUND:                -0.281
REMARK SMILES O=c1c(O)c(-c2ccc(Cl)cc2)oc2cc(F)c(I)cc12
REMARK SMILES IDX 1 1 2 2 3 3 5 4 13 5 14 6 15 7 16 8 17 9 18 10 19 11 20 12
REMARK SMILES IDX 21 13 4 14 6 16 7 17 12 18 8 19 11 20 9 21 10 22
REMARK H PARENT 4 15
ROOT
ATOM      1  O   UNL     1      12.915 -54.277 -25.628  1.00  0.00    -0.285 OA
ATOM      2  C   UNL     1      12.281 -54.488 -24.600  1.00  0.00     0.235 A 
ATOM      3  C   UNL     1      11.890 -55.872 -24.240  1.00  0.00     0.208 A 
ATOM      4  C   UNL     1      11.191 -56.074 -23.108  1.00  0.00     0.180 A 
ATOM      5  O   UNL     1      10.794 -55.056 -22.248  1.00  0.00    -0.452 OA
ATOM      6  C   UNL     1      11.146 -53.765 -22.544  1.00  0.00     0.141 A 
ATOM      7  C   UNL     1      10.743 -52.775 -21.651  1.00  0.00     0.088 A 
ATOM      8  C   UNL     1      11.073 -51.445 -21.905  1.00  0.00     0.140 A 
ATOM      9  F   UNL     1      10.672 -50.513 -21.029  1.00  0.00    -0.206 F 
ATOM     10  C   UNL     1      11.802 -51.096 -23.044  1.00  0.00     0.050 A 
ATOM     11  I   UNL     1      12.294 -49.112 -23.422  1.00  0.00    -0.041 I 
ATOM     12  C   UNL     1      12.207 -52.086 -23.941  1.00  0.00     0.034 A 
ATOM     13  C   UNL     1      11.873 -53.420 -23.681  1.00  0.00     0.070 A 
ENDROOT
BRANCH   3  14
ATOM     14  O   UNL     1      12.265 -56.875 -25.115  1.00  0.00    -0.502 OA
ATOM     15  H   UNL     1      13.171 -56.635 -25.405  1.00  0.00     0.293 HD
ENDBRANCH   3  14
BRANCH   4  16
ATOM     16  C   UNL     1      10.744 -57.411 -22.661  1.00  0.00     0.021 A 
ATOM     17  C   UNL     1      11.434 -58.067 -21.628  1.00  0.00     0.013 A 
ATOM     18  C   UNL     1       9.665 -58.069 -23.270  1.00  0.00     0.013 A 
ATOM     19  C   UNL     1      11.044 -59.342 -21.205  1.00  0.00     0.021 A 
ATOM     20  C   UNL     1       9.273 -59.344 -22.848  1.00  0.00     0.021 A 
ATOM     21  C   UNL     1       9.964 -59.974 -21.816  1.00  0.00     0.041 A 
ATOM     22  Cl  UNL     1       9.484 -61.542 -21.297  1.00  0.00    -0.084 Cl
ENDBRANCH   4  16
TORSDOF 2
ENDMDL
MODEL 4
REMARK VINA RESULT:    -9.135      5.397      7.964
REMARK INTER + INTRA:         -10.218
REMARK INTER:                 -10.105
REMARK INTRA:                  -0.112
REMARK UNBOUND:                -0.281
REMARK SMILES O=c1c(O)c(-c2ccc(Cl)cc2)oc2cc(F)c(I)cc12
REMARK SMILES IDX 1 1 2 2 3 3 5 4 13 5 14 6 15 7 16 8 17 9 18 10 19 11 20 12
REMARK SMILES IDX 21 13 4 14 6 16 7 17 12 18 8 19 11 20 9 21 10 22
REMARK H PARENT 4 15
ROOT
ATOM      1  O   UNL     1      11.883 -59.843 -24.781  1.00  0.00    -0.285 OA
ATOM      2  C   UNL     1      11.050 -59.082 -24.301  1.00  0.00     0.235 A 
ATOM      3  C   UNL     1      11.429 -57.691 -23.954  1.00  0.00     0.208 A 
ATOM      4  C   UNL     1      10.497 -56.879 -23.423  1.00  0.00     0.180 A 
ATOM      5  O   UNL     1       9.187 -57.266 -23.165  1.00  0.00    -0.452 OA
ATOM      6  C   UNL     1       8.798 -58.540 -23.483  1.00  0.00     0.141 A 
ATOM      7  C   UNL     1       7.474 -58.885 -23.223  1.00  0.00     0.088 A 
ATOM      8  C   UNL     1       7.027 -60.170 -23.525  1.00  0.00     0.140 A 
ATOM      9  F   UNL     1       5.748 -60.475 -23.265  1.00  0.00    -0.206 F 
ATOM     10  C   UNL     1       7.891 -61.113 -24.085  1.00  0.00     0.050 A 
ATOM     11  I   UNL     1       7.223 -63.030 -24.537  1.00  0.00    -0.041 I 
ATOM     12  C   UNL     1       9.219 -60.771 -24.347  1.00  0.00     0.034 A 
ATOM     13  C   UNL     1       9.663 -59.479 -24.041  1.00  0.00     0.070 A 
ENDROOT
BRANCH   3  14
ATOM     14  O   UNL     1      12.743 -57.324 -24.188  1.00  0.00    -0.502 OA
ATOM     15  H   UNL     1      12.797 -57.175 -25.156  1.00  0.00     0.293 HD
ENDBRANCH   3  14
BRANCH   4  16
ATOM     16  C   UNL     1      10.771 -55.479 -23.033  1.00  0.00     0.021 A 
ATOM     17  C   UNL     1      10.510 -55.059 -21.718  1.00  0.00     0.013 A 
ATOM     18  C   UNL     1      11.252 -54.537 -23.954  1.00  0.00     0.013 A 
ATOM     19  C   UNL     1      10.739 -53.735 -21.331  1.00  0.00     0.021 A 
ATOM     20  C   UNL     1      11.483 -53.212 -23.569  1.00  0.00     0.021 A 
ATOM     21  C   UNL     1      11.225 -52.817 -22.259  1.00  0.00     0.041 A 
ATOM     22  Cl  UNL     1      11.507 -51.188 -21.785  1.00  0.00    -0.084 Cl
ENDBRANCH   4  16
TORSDOF 2
ENDMDL
MODEL 5
REMARK VINA RESULT:    -8.547      2.585      3.914
REMARK INTER + INTRA:          -9.578
REMARK INTER:                  -9.753
REMARK INTRA:                   0.175
REMARK UNBOUND:                -0.281
REMARK SMILES O=c1c(O)c(-c2ccc(Cl)cc2)oc2cc(F)c(I)cc12
REMARK SMILES IDX 1 1 2 2 3 3 5 4 13 5 14 6 15 7 16 8 17 9 18 10 19 11 20 12
REMARK SMILES IDX 21 13 4 14 6 16 7 17 12 18 8 19 11 20 9 21 10 22
REMARK H PARENT 4 15
ROOT
ATOM      1  O   UNL     1      12.771 -55.545 -25.804  1.00  0.00    -0.285 OA
ATOM      2  C   UNL     1      12.143 -55.836 -24.792  1.00  0.00     0.235 A 
ATOM      3  C   UNL     1      11.760 -57.245 -24.536  1.00  0.00     0.208 A 
ATOM      4  C   UNL     1      11.067 -57.536 -23.420  1.00  0.00     0.180 A 
ATOM      5  O   UNL     1      10.671 -56.589 -22.484  1.00  0.00    -0.452 OA
ATOM      6  C   UNL     1      11.016 -55.278 -22.682  1.00  0.00     0.141 A 
ATOM      7  C   UNL     1      10.612 -54.360 -21.714  1.00  0.00     0.088 A 
ATOM      8  C   UNL     1      10.936 -53.014 -21.867  1.00  0.00     0.140 A 
ATOM      9  F   UNL     1      10.535 -52.153 -20.921  1.00  0.00    -0.206 F 
ATOM     10  C   UNL     1      11.657 -52.575 -22.979  1.00  0.00     0.050 A 
ATOM     11  I   UNL     1      12.140 -50.565 -23.207  1.00  0.00    -0.041 I 
ATOM     12  C   UNL     1      12.063 -53.492 -23.951  1.00  0.00     0.034 A 
ATOM     13  C   UNL     1      11.736 -54.843 -23.792  1.00  0.00     0.070 A 
ENDROOT
BRANCH   3  14
ATOM     14  O   UNL     1      12.135 -58.177 -25.488  1.00  0.00    -0.502 OA
ATOM     15  H   UNL     1      12.995 -57.857 -25.834  1.00  0.00     0.293 HD
ENDBRANCH   3  14
BRANCH   4  16
ATOM     16  C   UNL     1      10.628 -58.905 -23.075  1.00  0.00     0.021 A 
ATOM     17  C   UNL     1      10.590 -59.306 -21.729  1.00  0.00     0.013 A 
ATOM     18  C   UNL     1      10.282 -59.840 -24.062  1.00  0.00     0.013 A 
ATOM     19  C   UNL     1      10.200 -60.603 -21.379  1.00  0.00     0.021 A 
ATOM     20  C   UNL     1       9.892 -61.138 -23.715  1.00  0.00     0.021 A 
ATOM     21  C   UNL     1       9.852 -61.513 -22.375  1.00  0.00     0.041 A 
ATOM     22  Cl  UNL     1       9.374 -63.109 -21.946  1.00  0.00    -0.084 Cl
ENDBRANCH   4  16
TORSDOF 2
ENDMDL
MODEL 6
REMARK VINA RESULT:    -8.372      3.731      5.196
REMARK INTER + INTRA:          -9.387
REMARK INTER:                  -9.211
REMARK INTRA:                  -0.176
REMARK UNBOUND:                -0.281
REMARK SMILES O=c1c(O)c(-c2ccc(Cl)cc2)oc2cc(F)c(I)cc12
REMARK SMILES IDX 1 1 2 2 3 3 5 4 13 5 14 6 15 7 16 8 17 9 18 10 19 11 20 12
REMARK SMILES IDX 21 13 4 14 6 16 7 17 12 18 8 19 11 20 9 21 10 22
REMARK H PARENT 4 15
ROOT
ATOM      1  O   UNL     1      15.088 -48.751 -22.811  1.00  0.00    -0.285 OA
ATOM      2  C   UNL     1      13.898 -49.040 -22.767  1.00  0.00     0.235 A 
ATOM      3  C   UNL     1      13.479 -50.462 -22.787  1.00  0.00     0.208 A 
ATOM      4  C   UNL     1      12.165 -50.751 -22.741  1.00  0.00     0.180 A 
ATOM      5  O   UNL     1      11.161 -49.792 -22.687  1.00  0.00    -0.452 OA
ATOM      6  C   UNL     1      11.512 -48.468 -22.657  1.00  0.00     0.141 A 
ATOM      7  C   UNL     1      10.477 -47.537 -22.589  1.00  0.00     0.088 A 
ATOM      8  C   UNL     1      10.778 -46.177 -22.557  1.00  0.00     0.140 A 
ATOM      9  F   UNL     1       9.763 -45.303 -22.491  1.00  0.00    -0.206 F 
ATOM     10  C   UNL     1      12.103 -45.738 -22.594  1.00  0.00     0.050 A 
ATOM     11  I   UNL     1      12.552 -43.708 -22.546  1.00  0.00    -0.041 I 
ATOM     12  C   UNL     1      13.142 -46.668 -22.662  1.00  0.00     0.034 A 
ATOM     13  C   UNL     1      12.834 -48.033 -22.694  1.00  0.00     0.070 A 
ENDROOT
BRANCH   3  14
ATOM     14  O   UNL     1      14.485 -51.409 -22.868  1.00  0.00    -0.502 OA
ATOM     15  H   UNL     1      14.237 -52.101 -22.218  1.00  0.00     0.293 HD
ENDBRANCH   3  14
BRANCH   4  16
ATOM     16  C   UNL     1      11.640 -52.133 -22.765  1.00  0.00     0.021 A 
ATOM     17  C   UNL     1      11.001 -52.656 -21.628  1.00  0.00     0.013 A 
ATOM     18  C   UNL     1      11.797 -52.963 -23.886  1.00  0.00     0.013 A 
ATOM     19  C   UNL     1      10.517 -53.968 -21.620  1.00  0.00     0.021 A 
ATOM     20  C   UNL     1      11.313 -54.275 -23.880  1.00  0.00     0.021 A 
ATOM     21  C   UNL     1      10.675 -54.772 -22.746  1.00  0.00     0.041 A 
ATOM     22  Cl  UNL     1      10.081 -56.386 -22.737  1.00  0.00    -0.084 Cl
ENDBRANCH   4  16
TORSDOF 2
ENDMDL
MODEL 7
REMARK VINA RESULT:    -8.322      5.435      8.339
REMARK INTER + INTRA:          -9.333
REMARK INTER:                  -9.050
REMARK INTRA:                  -0.283
REMARK UNBOUND:                -0.281
REMARK SMILES O=c1c(O)c(-c2ccc(Cl)cc2)oc2cc(F)c(I)cc12
REMARK SMILES IDX 1 1 2 2 3 3 5 4 13 5 14 6 15 7 16 8 17 9 18 10 19 11 20 12
REMARK SMILES IDX 21 13 4 14 6 16 7 17 12 18 8 19 11 20 9 21 10 22
REMARK H PARENT 4 15
ROOT
ATOM      1  O   UNL     1      13.820 -51.753 -24.952  1.00  0.00    -0.285 OA
ATOM      2  C   UNL     1      12.952 -51.246 -24.250  1.00  0.00     0.235 A 
ATOM      3  C   UNL     1      12.871 -49.771 -24.122  1.00  0.00     0.208 A 
ATOM      4  C   UNL     1      11.911 -49.241 -23.342  1.00  0.00     0.180 A 
ATOM      5  O   UNL     1      10.985 -49.994 -22.630  1.00  0.00    -0.452 OA
ATOM      6  C   UNL     1      11.024 -51.360 -22.733  1.00  0.00     0.141 A 
ATOM      7  C   UNL     1      10.070 -52.080 -22.015  1.00  0.00     0.088 A 
ATOM      8  C   UNL     1      10.065 -53.471 -22.084  1.00  0.00     0.140 A 
ATOM      9  F   UNL     1       9.137 -54.139 -21.384  1.00  0.00    -0.206 F 
ATOM     10  C   UNL     1      11.006 -54.151 -22.862  1.00  0.00     0.050 A 
ATOM     11  I   UNL     1      10.998 -56.227 -22.964  1.00  0.00    -0.041 I 
ATOM     12  C   UNL     1      11.962 -53.433 -23.582  1.00  0.00     0.034 A 
ATOM     13  C   UNL     1      11.962 -52.035 -23.510  1.00  0.00     0.070 A 
ENDROOT
BRANCH   3  14
ATOM     14  O   UNL     1      13.814 -49.030 -24.812  1.00  0.00    -0.502 OA
ATOM     15  H   UNL     1      13.848 -49.432 -25.706  1.00  0.00     0.293 HD
ENDBRANCH   3  14
BRANCH   4  16
ATOM     16  C   UNL     1      11.748 -47.785 -23.137  1.00  0.00     0.021 A 
ATOM     17  C   UNL     1      12.311 -47.174 -22.004  1.00  0.00     0.013 A 
ATOM     18  C   UNL     1      11.006 -46.993 -24.026  1.00  0.00     0.013 A 
ATOM     19  C   UNL     1      12.150 -45.804 -21.776  1.00  0.00     0.021 A 
ATOM     20  C   UNL     1      10.845 -45.622 -23.801  1.00  0.00     0.021 A 
ATOM     21  C   UNL     1      11.418 -45.034 -22.677  1.00  0.00     0.041 A 
ATOM     22  Cl  UNL     1      11.219 -43.348 -22.398  1.00  0.00    -0.084 Cl
ENDBRANCH   4  16
TORSDOF 2
ENDMDL
MODEL 8
REMARK VINA RESULT:    -8.247      4.498      6.895
REMARK INTER + INTRA:          -9.251
REMARK INTER:                  -9.601
REMARK INTRA:                   0.350
REMARK UNBOUND:                -0.281
REMARK SMILES O=c1c(O)c(-c2ccc(Cl)cc2)oc2cc(F)c(I)cc12
REMARK SMILES IDX 1 1 2 2 3 3 5 4 13 5 14 6 15 7 16 8 17 9 18 10 19 11 20 12
REMARK SMILES IDX 21 13 4 14 6 16 7 17 12 18 8 19 11 20 9 21 10 22
REMARK H PARENT 4 15
ROOT
ATOM      1  O   UNL     1       9.726 -54.144 -21.263  1.00  0.00    -0.285 OA
ATOM      2  C   UNL     1      10.508 -54.218 -22.205  1.00  0.00     0.235 A 
ATOM      3  C   UNL     1      11.085 -52.983 -22.788  1.00  0.00     0.208 A 
ATOM      4  C   UNL     1      11.937 -53.093 -23.824  1.00  0.00     0.180 A 
ATOM      5  O   UNL     1      12.308 -54.303 -24.399  1.00  0.00    -0.452 OA
ATOM      6  C   UNL     1      11.802 -55.465 -23.879  1.00  0.00     0.141 A 
ATOM      7  C   UNL     1      12.209 -56.658 -24.474  1.00  0.00     0.088 A 
ATOM      8  C   UNL     1      11.723 -57.869 -23.985  1.00  0.00     0.140 A 
ATOM      9  F   UNL     1      12.131 -59.001 -24.575  1.00  0.00    -0.206 F 
ATOM     10  C   UNL     1      10.834 -57.899 -22.909  1.00  0.00     0.050 A 
ATOM     11  I   UNL     1      10.110 -59.707 -22.180  1.00  0.00    -0.041 I 
ATOM     12  C   UNL     1      10.424 -56.706 -22.311  1.00  0.00     0.034 A 
ATOM     13  C   UNL     1      10.915 -55.492 -22.805  1.00  0.00     0.070 A 
ENDROOT
BRANCH   3  14
ATOM     14  O   UNL     1      10.688 -51.782 -22.227  1.00  0.00    -0.502 OA
ATOM     15  H   UNL     1       9.734 -51.896 -22.029  1.00  0.00     0.293 HD
ENDBRANCH   3  14
BRANCH   4  16
ATOM     16  C   UNL     1      12.561 -51.926 -24.485  1.00  0.00     0.021 A 
ATOM     17  C   UNL     1      13.272 -52.103 -25.684  1.00  0.00     0.013 A 
ATOM     18  C   UNL     1      12.499 -50.641 -23.926  1.00  0.00     0.013 A 
ATOM     19  C   UNL     1      13.890 -51.019 -26.315  1.00  0.00     0.021 A 
ATOM     20  C   UNL     1      13.117 -49.555 -24.556  1.00  0.00     0.021 A 
ATOM     21  C   UNL     1      13.809 -49.749 -25.748  1.00  0.00     0.041 A 
ATOM     22  Cl  UNL     1      14.570 -48.415 -26.523  1.00  0.00    -0.084 Cl
ENDBRANCH   4  16
TORSDOF 2
ENDMDL
MODEL 9
REMARK VINA RESULT:    -8.046      2.275      3.566
REMARK INTER + INTRA:          -9.033
REMARK INTER:                  -9.397
REMARK INTRA:                   0.365
REMARK UNBOUND:                -0.281
REMARK SMILES O=c1c(O)c(-c2ccc(Cl)cc2)oc2cc(F)c(I)cc12
REMARK SMILES IDX 1 1 2 2 3 3 5 4 13 5 14 6 15 7 16 8 17 9 18 10 19 11 20 12
REMARK SMILES IDX 21 13 4 14 6 16 7 17 12 18 8 19 11 20 9 21 10 22
REMARK H PARENT 4 15
ROOT
ATOM      1  O   UNL     1      12.947 -48.419 -22.294  1.00  0.00    -0.285 OA
ATOM      2  C   UNL     1      12.931 -49.363 -23.076  1.00  0.00     0.235 A 
ATOM      3  C   UNL     1      12.303 -50.646 -22.678  1.00  0.00     0.208 A 
ATOM      4  C   UNL     1      12.303 -51.667 -23.554  1.00  0.00     0.180 A 
ATOM      5  O   UNL     1      12.871 -51.602 -24.821  1.00  0.00    -0.452 OA
ATOM      6  C   UNL     1      13.451 -50.430 -25.227  1.00  0.00     0.141 A 
ATOM      7  C   UNL     1      13.997 -50.400 -26.509  1.00  0.00     0.088 A 
ATOM      8  C   UNL     1      14.601 -49.233 -26.971  1.00  0.00     0.140 A 
ATOM      9  F   UNL     1      15.118 -49.232 -28.208  1.00  0.00    -0.206 F 
ATOM     10  C   UNL     1      14.666 -48.095 -26.164  1.00  0.00     0.050 A 
ATOM     11  I   UNL     1      15.567 -46.353 -26.855  1.00  0.00    -0.041 I 
ATOM     12  C   UNL     1      14.120 -48.121 -24.879  1.00  0.00     0.034 A 
ATOM     13  C   UNL     1      13.514 -49.297 -24.420  1.00  0.00     0.070 A 
ENDROOT
BRANCH   3  14
ATOM     14  O   UNL     1      11.764 -50.709 -21.405  1.00  0.00    -0.502 OA
ATOM     15  H   UNL     1      12.117 -51.540 -21.020  1.00  0.00     0.293 HD
ENDBRANCH   3  14
BRANCH   4  16
ATOM     16  C   UNL     1      11.713 -52.990 -23.255  1.00  0.00     0.021 A 
ATOM     17  C   UNL     1      11.830 -54.032 -24.190  1.00  0.00     0.013 A 
ATOM     18  C   UNL     1      10.998 -53.228 -22.072  1.00  0.00     0.013 A 
ATOM     19  C   UNL     1      11.260 -55.284 -23.939  1.00  0.00     0.021 A 
ATOM     20  C   UNL     1      10.427 -54.480 -21.819  1.00  0.00     0.021 A 
ATOM     21  C   UNL     1      10.562 -55.503 -22.754  1.00  0.00     0.041 A 
ATOM     22  Cl  UNL     1       9.860 -57.043 -22.445  1.00  0.00    -0.084 Cl
ENDBRANCH   4  16
TORSDOF 2
ENDMDL
