MODEL 1
REMARK VINA RESULT:   -12.266      0.000      0.000
REMARK INTER + INTRA:         -16.688
REMARK INTER:                 -16.568
REMARK INTRA:                  -0.120
REMARK UNBOUND:                -0.120
REMARK SMILES COc1cc2c(cc1OC)C(=O)[C@H](C[C@H]1CC[N@H+](Cc3ccccc3)CC1)C2
REMARK SMILES IDX 14 1 15 2 17 3 18 4 16 5 26 6 27 7 19 9 20 10 21 11 25 12
REMARK SMILES IDX 22 13 24 14 23 15 13 16 11 17 28 18 6 19 5 20 7 21 4 22 8 23
REMARK SMILES IDX 3 24 12 25 9 26 10 27 2 28 1 29
REMARK H PARENT 18 8
ROOT
ATOM      1  C   UNL     1      11.186 -56.200 -21.792  1.00  0.00     0.016 C 
ENDROOT
BRANCH   1   2
ATOM      2  C   UNL     1      10.856 -57.568 -22.424  1.00  0.00     0.001 C 
ATOM      3  C   UNL     1      10.839 -60.086 -22.083  1.00  0.00     0.262 C 
ATOM      4  N   UNL     1      11.772 -60.231 -23.254  1.00  0.00    -0.331 N 
ATOM      5  C   UNL     1      11.035 -58.724 -21.430  1.00  0.00     0.065 C 
ATOM      6  C   UNL     1      11.547 -59.157 -24.290  1.00  0.00     0.262 C 
ATOM      7  C   UNL     1      11.755 -57.790 -23.653  1.00  0.00     0.065 C 
ATOM      8  H   UNL     1      12.733 -60.119 -22.909  1.00  0.00     0.348 HD
BRANCH   4   9
ATOM      9  C   UNL     1      11.707 -61.629 -23.840  1.00  0.00     0.299 C 
BRANCH   9  10
ATOM     10  C   UNL     1      10.329 -62.228 -23.785  1.00  0.00     0.006 A 
ATOM     11  C   UNL     1       9.408 -61.997 -24.819  1.00  0.00     0.009 A 
ATOM     12  C   UNL     1       9.950 -63.044 -22.706  1.00  0.00     0.009 A 
ATOM     13  C   UNL     1       8.139 -62.576 -24.777  1.00  0.00     0.001 A 
ATOM     14  C   UNL     1       8.680 -63.621 -22.670  1.00  0.00     0.001 A 
ATOM     15  C   UNL     1       7.777 -63.389 -23.705  1.00  0.00     0.000 A 
ENDBRANCH   9  10
ENDBRANCH   4   9
ENDBRANCH   1   2
BRANCH   1  16
ATOM     16  C   UNL     1      10.641 -54.985 -22.551  1.00  0.00     0.066 C 
ATOM     17  C   UNL     1      10.684 -53.747 -21.673  1.00  0.00     0.166 C 
ATOM     18  C   UNL     1      11.466 -54.602 -23.801  1.00  0.00     0.048 C 
ATOM     19  C   UNL     1      11.315 -52.656 -22.401  1.00  0.00     0.025 A 
ATOM     20  C   UNL     1      11.743 -53.142 -23.630  1.00  0.00    -0.033 A 
ATOM     21  C   UNL     1      11.482 -51.342 -22.010  1.00  0.00     0.062 A 
ATOM     22  C   UNL     1      12.384 -52.293 -24.520  1.00  0.00     0.055 A 
ATOM     23  C   UNL     1      12.104 -50.480 -22.914  1.00  0.00     0.161 A 
ATOM     24  C   UNL     1      12.593 -50.956 -24.149  1.00  0.00     0.161 A 
ATOM     25  O   UNL     1      10.245 -53.658 -20.540  1.00  0.00    -0.294 OA
BRANCH  23  26
ATOM     26  O   UNL     1      12.246 -49.171 -22.533  1.00  0.00    -0.493 OA
ATOM     27  C   UNL     1      11.052 -48.443 -22.836  1.00  0.00     0.278 C 
ENDBRANCH  23  26
BRANCH  24  28
ATOM     28  O   UNL     1      13.240 -50.195 -25.086  1.00  0.00    -0.493 OA
ATOM     29  C   UNL     1      13.909 -50.954 -26.092  1.00  0.00     0.278 C 
ENDBRANCH  24  28
ENDBRANCH   1  16
TORSDOF 6
ENDMDL
MODEL 2
REMARK VINA RESULT:   -11.786      1.298      2.410
REMARK INTER + INTRA:         -16.040
REMARK INTER:                 -15.532
REMARK INTRA:                  -0.508
REMARK UNBOUND:                -0.120
REMARK SMILES COc1cc2c(cc1OC)C(=O)[C@H](C[C@H]1CC[N@H+](Cc3ccccc3)CC1)C2
REMARK SMILES IDX 14 1 15 2 17 3 18 4 16 5 26 6 27 7 19 9 20 10 21 11 25 12
REMARK SMILES IDX 22 13 24 14 23 15 13 16 11 17 28 18 6 19 5 20 7 21 4 22 8 23
REMARK SMILES IDX 3 24 12 25 9 26 10 27 2 28 1 29
REMARK H PARENT 18 8
ROOT
ATOM      1  C   UNL     1       9.824 -55.932 -22.986  1.00  0.00     0.016 C 
ENDROOT
BRANCH   1   2
ATOM      2  C   UNL     1       9.966 -57.436 -22.673  1.00  0.00     0.001 C 
ATOM      3  C   UNL     1      11.489 -59.467 -22.787  1.00  0.00     0.262 C 
ATOM      4  N   UNL     1      10.464 -60.162 -23.641  1.00  0.00    -0.331 N 
ATOM      5  C   UNL     1      11.379 -57.959 -22.969  1.00  0.00     0.065 C 
ATOM      6  C   UNL     1       9.059 -59.731 -23.299  1.00  0.00     0.262 C 
ATOM      7  C   UNL     1       8.932 -58.227 -23.492  1.00  0.00     0.065 C 
ATOM      8  H   UNL     1      10.632 -59.892 -24.619  1.00  0.00     0.348 HD
BRANCH   4   9
ATOM      9  C   UNL     1      10.639 -61.668 -23.596  1.00  0.00     0.299 C 
BRANCH   9  10
ATOM     10  C   UNL     1       9.429 -62.417 -24.083  1.00  0.00     0.006 A 
ATOM     11  C   UNL     1       8.984 -62.272 -25.406  1.00  0.00     0.009 A 
ATOM     12  C   UNL     1       8.736 -63.287 -23.224  1.00  0.00     0.009 A 
ATOM     13  C   UNL     1       7.877 -62.989 -25.862  1.00  0.00     0.001 A 
ATOM     14  C   UNL     1       7.630 -64.001 -23.685  1.00  0.00     0.001 A 
ATOM     15  C   UNL     1       7.202 -63.853 -25.003  1.00  0.00     0.000 A 
ENDBRANCH   9  10
ENDBRANCH   4   9
ENDBRANCH   1   2
BRANCH   1  16
ATOM     16  C   UNL     1      11.034 -55.072 -22.605  1.00  0.00     0.066 C 
ATOM     17  C   UNL     1      11.681 -54.484 -23.847  1.00  0.00     0.166 C 
ATOM     18  C   UNL     1      10.683 -53.844 -21.734  1.00  0.00     0.048 C 
ATOM     19  C   UNL     1      11.874 -53.054 -23.664  1.00  0.00     0.025 A 
ATOM     20  C   UNL     1      11.321 -52.692 -22.443  1.00  0.00    -0.033 A 
ATOM     21  C   UNL     1      12.499 -52.154 -24.506  1.00  0.00     0.062 A 
ATOM     22  C   UNL     1      11.373 -51.368 -22.030  1.00  0.00     0.055 A 
ATOM     23  C   UNL     1      12.574 -50.827 -24.081  1.00  0.00     0.161 A 
ATOM     24  C   UNL     1      11.979 -50.421 -22.868  1.00  0.00     0.161 A 
ATOM     25  O   UNL     1      12.012 -55.104 -24.842  1.00  0.00    -0.294 OA
BRANCH  23  26
ATOM     26  O   UNL     1      13.216 -49.942 -24.907  1.00  0.00    -0.493 OA
ATOM     27  C   UNL     1      13.752 -50.632 -26.040  1.00  0.00     0.278 C 
ENDBRANCH  23  26
BRANCH  24  28
ATOM     28  O   UNL     1      11.976 -49.140 -22.382  1.00  0.00    -0.493 OA
ATOM     29  C   UNL     1      10.852 -48.364 -22.793  1.00  0.00     0.278 C 
ENDBRANCH  24  28
ENDBRANCH   1  16
TORSDOF 6
ENDMDL
MODEL 3
REMARK VINA RESULT:   -11.474      1.471      2.067
REMARK INTER + INTRA:         -15.618
REMARK INTER:                 -14.800
REMARK INTRA:                  -0.818
REMARK UNBOUND:                -0.120
REMARK SMILES COc1cc2c(cc1OC)C(=O)[C@H](C[C@H]1CC[N@H+](Cc3ccccc3)CC1)C2
REMARK SMILES IDX 14 1 15 2 17 3 18 4 16 5 26 6 27 7 19 9 20 10 21 11 25 12
REMARK SMILES IDX 22 13 24 14 23 15 13 16 11 17 28 18 6 19 5 20 7 21 4 22 8 23
REMARK SMILES IDX 3 24 12 25 9 26 10 27 2 28 1 29
REMARK H PARENT 18 8
ROOT
ATOM      1  C   UNL     1      11.290 -56.666 -21.951  1.00  0.00     0.016 C 
ENDROOT
BRANCH   1   2
ATOM      2  C   UNL     1      10.512 -57.997 -21.998  1.00  0.00     0.001 C 
ATOM      3  C   UNL     1      10.654 -60.496 -22.439  1.00  0.00     0.262 C 
ATOM      4  N   UNL     1       9.641 -60.338 -23.539  1.00  0.00    -0.331 N 
ATOM      5  C   UNL     1      11.432 -59.198 -22.262  1.00  0.00     0.065 C 
ATOM      6  C   UNL     1       8.666 -59.222 -23.253  1.00  0.00     0.262 C 
ATOM      7  C   UNL     1       9.430 -57.916 -23.089  1.00  0.00     0.065 C 
ATOM      8  H   UNL     1      10.143 -60.085 -24.399  1.00  0.00     0.348 HD
BRANCH   4   9
ATOM      9  C   UNL     1       8.948 -61.653 -23.842  1.00  0.00     0.299 C 
BRANCH   9  10
ATOM     10  C   UNL     1       8.866 -61.951 -25.315  1.00  0.00     0.006 A 
ATOM     11  C   UNL     1       9.672 -61.256 -26.229  1.00  0.00     0.009 A 
ATOM     12  C   UNL     1       7.994 -62.943 -25.793  1.00  0.00     0.009 A 
ATOM     13  C   UNL     1       9.612 -61.554 -27.591  1.00  0.00     0.001 A 
ATOM     14  C   UNL     1       7.938 -63.237 -27.155  1.00  0.00     0.001 A 
ATOM     15  C   UNL     1       8.748 -62.544 -28.054  1.00  0.00     0.000 A 
ENDBRANCH   9  10
ENDBRANCH   4   9
ENDBRANCH   1   2
BRANCH   1  16
ATOM     16  C   UNL     1      10.806 -55.595 -22.935  1.00  0.00     0.066 C 
ATOM     17  C   UNL     1      10.779 -54.232 -22.266  1.00  0.00     0.166 C 
ATOM     18  C   UNL     1      11.728 -55.406 -24.162  1.00  0.00     0.048 C 
ATOM     19  C   UNL     1      11.465 -53.263 -23.108  1.00  0.00     0.025 A 
ATOM     20  C   UNL     1      11.989 -53.934 -24.206  1.00  0.00    -0.033 A 
ATOM     21  C   UNL     1      11.600 -51.901 -22.921  1.00  0.00     0.062 A 
ATOM     22  C   UNL     1      12.697 -53.228 -25.168  1.00  0.00     0.055 A 
ATOM     23  C   UNL     1      12.291 -51.187 -23.900  1.00  0.00     0.161 A 
ATOM     24  C   UNL     1      12.876 -51.847 -25.001  1.00  0.00     0.161 A 
ATOM     25  O   UNL     1      10.253 -53.969 -21.200  1.00  0.00    -0.294 OA
BRANCH  23  26
ATOM     26  O   UNL     1      12.401 -49.832 -23.723  1.00  0.00    -0.493 OA
ATOM     27  C   UNL     1      11.795 -49.450 -22.485  1.00  0.00     0.278 C 
ENDBRANCH  23  26
BRANCH  24  28
ATOM     28  O   UNL     1      13.594 -51.237 -25.995  1.00  0.00    -0.493 OA
ATOM     29  C   UNL     1      14.990 -51.126 -25.721  1.00  0.00     0.278 C 
ENDBRANCH  24  28
ENDBRANCH   1  16
TORSDOF 6
ENDMDL
MODEL 4
REMARK VINA RESULT:   -11.277      4.024      8.966
REMARK INTER + INTRA:         -15.352
REMARK INTER:                 -14.865
REMARK INTRA:                  -0.487
REMARK UNBOUND:                -0.120
REMARK SMILES COc1cc2c(cc1OC)C(=O)[C@H](C[C@H]1CC[N@H+](Cc3ccccc3)CC1)C2
REMARK SMILES IDX 14 1 15 2 17 3 18 4 16 5 26 6 27 7 19 9 20 10 21 11 25 12
REMARK SMILES IDX 22 13 24 14 23 15 13 16 11 17 28 18 6 19 5 20 7 21 4 22 8 23
REMARK SMILES IDX 3 24 12 25 9 26 10 27 2 28 1 29
REMARK H PARENT 18 8
ROOT
ATOM      1  C   UNL     1      10.870 -59.641 -22.202  1.00  0.00     0.016 C 
ENDROOT
BRANCH   1   2
ATOM      2  C   UNL     1      10.935 -58.138 -22.544  1.00  0.00     0.001 C 
ATOM      3  C   UNL     1      11.300 -55.794 -21.632  1.00  0.00     0.262 C 
ATOM      4  N   UNL     1       9.920 -55.420 -22.098  1.00  0.00    -0.331 N 
ATOM      5  C   UNL     1      11.361 -57.288 -21.338  1.00  0.00     0.065 C 
ATOM      6  C   UNL     1       9.520 -56.177 -23.341  1.00  0.00     0.262 C 
ATOM      7  C   UNL     1       9.561 -57.672 -23.055  1.00  0.00     0.065 C 
ATOM      8  H   UNL     1       9.255 -55.681 -21.360  1.00  0.00     0.348 HD
BRANCH   4   9
ATOM      9  C   UNL     1       9.782 -53.918 -22.262  1.00  0.00     0.299 C 
BRANCH   9  10
ATOM     10  C   UNL     1      10.917 -53.302 -23.034  1.00  0.00     0.006 A 
ATOM     11  C   UNL     1      11.476 -52.081 -22.629  1.00  0.00     0.009 A 
ATOM     12  C   UNL     1      11.444 -53.951 -24.163  1.00  0.00     0.009 A 
ATOM     13  C   UNL     1      12.545 -51.525 -23.332  1.00  0.00     0.001 A 
ATOM     14  C   UNL     1      12.514 -53.392 -24.862  1.00  0.00     0.001 A 
ATOM     15  C   UNL     1      13.065 -52.181 -24.446  1.00  0.00     0.000 A 
ENDBRANCH   9  10
ENDBRANCH   4   9
ENDBRANCH   1   2
BRANCH   1  16
ATOM     16  C   UNL     1      11.318 -60.583 -23.325  1.00  0.00     0.066 C 
ATOM     17  C   UNL     1      10.113 -61.133 -24.069  1.00  0.00     0.166 C 
ATOM     18  C   UNL     1      12.169 -59.899 -24.418  1.00  0.00     0.048 C 
ATOM     19  C   UNL     1      10.307 -60.963 -25.501  1.00  0.00     0.025 A 
ATOM     20  C   UNL     1      11.497 -60.275 -25.701  1.00  0.00    -0.033 A 
ATOM     21  C   UNL     1       9.502 -61.395 -26.537  1.00  0.00     0.062 A 
ATOM     22  C   UNL     1      11.913 -59.982 -26.991  1.00  0.00     0.055 A 
ATOM     23  C   UNL     1       9.932 -61.122 -27.836  1.00  0.00     0.161 A 
ATOM     24  C   UNL     1      11.110 -60.383 -28.069  1.00  0.00     0.161 A 
ATOM     25  O   UNL     1       9.137 -61.657 -23.562  1.00  0.00    -0.294 OA
BRANCH  23  26
ATOM     26  O   UNL     1       9.143 -61.574 -28.862  1.00  0.00    -0.493 OA
ATOM     27  C   UNL     1       8.390 -62.713 -28.434  1.00  0.00     0.278 C 
ENDBRANCH  23  26
BRANCH  24  28
ATOM     28  O   UNL     1      11.596 -60.044 -29.304  1.00  0.00    -0.493 OA
ATOM     29  C   UNL     1      12.019 -58.685 -29.410  1.00  0.00     0.278 C 
ENDBRANCH  24  28
ENDBRANCH   1  16
TORSDOF 6
ENDMDL
MODEL 5
REMARK VINA RESULT:   -10.184      3.372     10.440
REMARK INTER + INTRA:         -13.877
REMARK INTER:                 -13.470
REMARK INTRA:                  -0.407
REMARK UNBOUND:                -0.120
REMARK SMILES COc1cc2c(cc1OC)C(=O)[C@H](C[C@H]1CC[N@H+](Cc3ccccc3)CC1)C2
REMARK SMILES IDX 14 1 15 2 17 3 18 4 16 5 26 6 27 7 19 9 20 10 21 11 25 12
REMARK SMILES IDX 22 13 24 14 23 15 13 16 11 17 28 18 6 19 5 20 7 21 4 22 8 23
REMARK SMILES IDX 3 24 12 25 9 26 10 27 2 28 1 29
REMARK H PARENT 18 8
ROOT
ATOM      1  C   UNL     1       9.850 -55.044 -22.179  1.00  0.00     0.016 C 
ENDROOT
BRANCH   1   2
ATOM      2  C   UNL     1      11.003 -54.028 -22.307  1.00  0.00     0.001 C 
ATOM      3  C   UNL     1      11.758 -51.643 -21.855  1.00  0.00     0.262 C 
ATOM      4  N   UNL     1      11.974 -51.454 -23.332  1.00  0.00    -0.331 N 
ATOM      5  C   UNL     1      10.679 -52.693 -21.620  1.00  0.00     0.065 C 
ATOM      6  C   UNL     1      12.386 -52.737 -24.011  1.00  0.00     0.262 C 
ATOM      7  C   UNL     1      11.309 -53.790 -23.796  1.00  0.00     0.065 C 
ATOM      8  H   UNL     1      11.079 -51.168 -23.748  1.00  0.00     0.348 HD
BRANCH   4   9
ATOM      9  C   UNL     1      12.936 -50.314 -23.606  1.00  0.00     0.299 C 
BRANCH   9  10
ATOM     10  C   UNL     1      12.255 -48.975 -23.694  1.00  0.00     0.006 A 
ATOM     11  C   UNL     1      11.199 -48.653 -22.827  1.00  0.00     0.009 A 
ATOM     12  C   UNL     1      12.678 -48.021 -24.634  1.00  0.00     0.009 A 
ATOM     13  C   UNL     1      10.587 -47.401 -22.894  1.00  0.00     0.001 A 
ATOM     14  C   UNL     1      12.063 -46.771 -24.697  1.00  0.00     0.001 A 
ATOM     15  C   UNL     1      11.019 -46.461 -23.826  1.00  0.00     0.000 A 
ENDBRANCH   9  10
ENDBRANCH   4   9
ENDBRANCH   1   2
BRANCH   1  16
ATOM     16  C   UNL     1       9.939 -56.252 -23.118  1.00  0.00     0.066 C 
ATOM     17  C   UNL     1      10.648 -57.407 -22.432  1.00  0.00     0.166 C 
ATOM     18  C   UNL     1       8.566 -56.830 -23.532  1.00  0.00     0.048 C 
ATOM     19  C   UNL     1       9.857 -58.619 -22.582  1.00  0.00     0.025 A 
ATOM     20  C   UNL     1       8.674 -58.291 -23.232  1.00  0.00    -0.033 A 
ATOM     21  C   UNL     1      10.169 -59.905 -22.186  1.00  0.00     0.062 A 
ATOM     22  C   UNL     1       7.738 -59.280 -23.496  1.00  0.00     0.055 A 
ATOM     23  C   UNL     1       9.239 -60.906 -22.473  1.00  0.00     0.161 A 
ATOM     24  C   UNL     1       8.008 -60.595 -23.088  1.00  0.00     0.161 A 
ATOM     25  O   UNL     1      11.721 -57.349 -21.859  1.00  0.00    -0.294 OA
BRANCH  23  26
ATOM     26  O   UNL     1       9.563 -62.184 -22.101  1.00  0.00    -0.493 OA
ATOM     27  C   UNL     1      10.502 -62.739 -23.026  1.00  0.00     0.278 C 
ENDBRANCH  23  26
BRANCH  24  28
ATOM     28  O   UNL     1       7.025 -61.501 -23.384  1.00  0.00    -0.493 OA
ATOM     29  C   UNL     1       7.266 -62.256 -24.570  1.00  0.00     0.278 C 
ENDBRANCH  24  28
ENDBRANCH   1  16
TORSDOF 6
ENDMDL
MODEL 6
REMARK VINA RESULT:   -10.164      3.466     10.232
REMARK INTER + INTRA:         -13.849
REMARK INTER:                 -13.086
REMARK INTRA:                  -0.763
REMARK UNBOUND:                -0.120
REMARK SMILES COc1cc2c(cc1OC)C(=O)[C@H](C[C@H]1CC[N@H+](Cc3ccccc3)CC1)C2
REMARK SMILES IDX 14 1 15 2 17 3 18 4 16 5 26 6 27 7 19 9 20 10 21 11 25 12
REMARK SMILES IDX 22 13 24 14 23 15 13 16 11 17 28 18 6 19 5 20 7 21 4 22 8 23
REMARK SMILES IDX 3 24 12 25 9 26 10 27 2 28 1 29
REMARK H PARENT 18 8
ROOT
ATOM      1  C   UNL     1       9.766 -55.071 -23.120  1.00  0.00     0.016 C 
ENDROOT
BRANCH   1   2
ATOM      2  C   UNL     1      10.781 -54.009 -22.650  1.00  0.00     0.001 C 
ATOM      3  C   UNL     1      11.106 -51.849 -21.351  1.00  0.00     0.262 C 
ATOM      4  N   UNL     1      11.626 -51.198 -22.603  1.00  0.00    -0.331 N 
ATOM      5  C   UNL     1      10.143 -52.973 -21.713  1.00  0.00     0.065 C 
ATOM      6  C   UNL     1      12.341 -52.183 -23.496  1.00  0.00     0.262 C 
ATOM      7  C   UNL     1      11.384 -53.304 -23.877  1.00  0.00     0.065 C 
ATOM      8  H   UNL     1      10.820 -50.842 -23.133  1.00  0.00     0.348 HD
BRANCH   4   9
ATOM      9  C   UNL     1      12.474 -49.982 -22.281  1.00  0.00     0.299 C 
BRANCH   9  10
ATOM     10  C   UNL     1      12.110 -48.775 -23.101  1.00  0.00     0.006 A 
ATOM     11  C   UNL     1      11.015 -47.972 -22.744  1.00  0.00     0.009 A 
ATOM     12  C   UNL     1      12.872 -48.423 -24.228  1.00  0.00     0.009 A 
ATOM     13  C   UNL     1      10.697 -46.839 -23.492  1.00  0.00     0.001 A 
ATOM     14  C   UNL     1      12.549 -47.289 -24.972  1.00  0.00     0.001 A 
ATOM     15  C   UNL     1      11.463 -46.496 -24.603  1.00  0.00     0.000 A 
ENDBRANCH   9  10
ENDBRANCH   4   9
ENDBRANCH   1   2
BRANCH   1  16
ATOM     16  C   UNL     1       9.924 -56.452 -22.474  1.00  0.00     0.066 C 
ATOM     17  C   UNL     1       9.122 -57.491 -23.239  1.00  0.00     0.166 C 
ATOM     18  C   UNL     1      11.373 -56.991 -22.490  1.00  0.00     0.048 C 
ATOM     19  C   UNL     1       9.967 -58.640 -23.528  1.00  0.00     0.025 A 
ATOM     20  C   UNL     1      11.252 -58.361 -23.078  1.00  0.00    -0.033 A 
ATOM     21  C   UNL     1       9.621 -59.836 -24.126  1.00  0.00     0.062 A 
ATOM     22  C   UNL     1      12.256 -59.305 -23.237  1.00  0.00     0.055 A 
ATOM     23  C   UNL     1      10.624 -60.796 -24.265  1.00  0.00     0.161 A 
ATOM     24  C   UNL     1      11.948 -60.522 -23.862  1.00  0.00     0.161 A 
ATOM     25  O   UNL     1       7.949 -57.401 -23.552  1.00  0.00    -0.294 OA
BRANCH  23  26
ATOM     26  O   UNL     1      10.270 -61.990 -24.837  1.00  0.00    -0.493 OA
ATOM     27  C   UNL     1       9.346 -62.681 -23.992  1.00  0.00     0.278 C 
ENDBRANCH  23  26
BRANCH  24  28
ATOM     28  O   UNL     1      13.003 -61.388 -23.983  1.00  0.00    -0.493 OA
ATOM     29  C   UNL     1      14.077 -60.889 -24.778  1.00  0.00     0.278 C 
ENDBRANCH  24  28
ENDBRANCH   1  16
TORSDOF 6
ENDMDL
MODEL 7
REMARK VINA RESULT:   -10.039      3.566      9.843
REMARK INTER + INTRA:         -13.680
REMARK INTER:                 -13.257
REMARK INTRA:                  -0.423
REMARK UNBOUND:                -0.120
REMARK SMILES COc1cc2c(cc1OC)C(=O)[C@H](C[C@H]1CC[N@H+](Cc3ccccc3)CC1)C2
REMARK SMILES IDX 14 1 15 2 17 3 18 4 16 5 26 6 27 7 19 9 20 10 21 11 25 12
REMARK SMILES IDX 22 13 24 14 23 15 13 16 11 17 28 18 6 19 5 20 7 21 4 22 8 23
REMARK SMILES IDX 3 24 12 25 9 26 10 27 2 28 1 29
REMARK H PARENT 18 8
ROOT
ATOM      1  C   UNL     1       9.862 -55.434 -22.231  1.00  0.00     0.016 C 
ENDROOT
BRANCH   1   2
ATOM      2  C   UNL     1      10.991 -54.409 -22.460  1.00  0.00     0.001 C 
ATOM      3  C   UNL     1      11.654 -51.958 -22.346  1.00  0.00     0.262 C 
ATOM      4  N   UNL     1      11.939 -51.987 -23.823  1.00  0.00    -0.331 N 
ATOM      5  C   UNL     1      10.595 -52.998 -22.002  1.00  0.00     0.065 C 
ATOM      6  C   UNL     1      12.423 -53.343 -24.277  1.00  0.00     0.262 C 
ATOM      7  C   UNL     1      11.366 -54.389 -23.953  1.00  0.00     0.065 C 
ATOM      8  H   UNL     1      11.059 -51.800 -24.319  1.00  0.00     0.348 HD
BRANCH   4   9
ATOM      9  C   UNL     1      12.881 -50.868 -24.224  1.00  0.00     0.299 C 
BRANCH   9  10
ATOM     10  C   UNL     1      14.328 -51.280 -24.206  1.00  0.00     0.006 A 
ATOM     11  C   UNL     1      15.100 -51.126 -23.044  1.00  0.00     0.009 A 
ATOM     12  C   UNL     1      14.922 -51.843 -25.348  1.00  0.00     0.009 A 
ATOM     13  C   UNL     1      16.434 -51.534 -23.023  1.00  0.00     0.001 A 
ATOM     14  C   UNL     1      16.257 -52.249 -25.322  1.00  0.00     0.001 A 
ATOM     15  C   UNL     1      17.011 -52.096 -24.159  1.00  0.00     0.000 A 
ENDBRANCH   9  10
ENDBRANCH   4   9
ENDBRANCH   1   2
BRANCH   1  16
ATOM     16  C   UNL     1       9.903 -56.662 -23.147  1.00  0.00     0.066 C 
ATOM     17  C   UNL     1      10.531 -57.842 -22.426  1.00  0.00     0.166 C 
ATOM     18  C   UNL     1       8.509 -57.170 -23.581  1.00  0.00     0.048 C 
ATOM     19  C   UNL     1       9.676 -59.011 -22.572  1.00  0.00     0.025 A 
ATOM     20  C   UNL     1       8.528 -58.630 -23.253  1.00  0.00    -0.033 A 
ATOM     21  C   UNL     1       9.907 -60.305 -22.147  1.00  0.00     0.062 A 
ATOM     22  C   UNL     1       7.543 -59.570 -23.520  1.00  0.00     0.055 A 
ATOM     23  C   UNL     1       8.928 -61.257 -22.437  1.00  0.00     0.161 A 
ATOM     24  C   UNL     1       7.730 -60.889 -23.084  1.00  0.00     0.161 A 
ATOM     25  O   UNL     1      11.593 -57.834 -21.831  1.00  0.00    -0.294 OA
BRANCH  23  26
ATOM     26  O   UNL     1       9.172 -62.545 -22.036  1.00  0.00    -0.493 OA
ATOM     27  C   UNL     1      10.249 -63.098 -22.797  1.00  0.00     0.278 C 
ENDBRANCH  23  26
BRANCH  24  28
ATOM     28  O   UNL     1       6.704 -61.744 -23.385  1.00  0.00    -0.493 OA
ATOM     29  C   UNL     1       6.974 -62.615 -24.483  1.00  0.00     0.278 C 
ENDBRANCH  24  28
ENDBRANCH   1  16
TORSDOF 6
ENDMDL
MODEL 8
REMARK VINA RESULT:    -9.868      1.934      4.094
REMARK INTER + INTRA:         -13.449
REMARK INTER:                 -13.641
REMARK INTRA:                   0.193
REMARK UNBOUND:                -0.120
REMARK SMILES COc1cc2c(cc1OC)C(=O)[C@H](C[C@H]1CC[N@H+](Cc3ccccc3)CC1)C2
REMARK SMILES IDX 14 1 15 2 17 3 18 4 16 5 26 6 27 7 19 9 20 10 21 11 25 12
REMARK SMILES IDX 22 13 24 14 23 15 13 16 11 17 28 18 6 19 5 20 7 21 4 22 8 23
REMARK SMILES IDX 3 24 12 25 9 26 10 27 2 28 1 29
REMARK H PARENT 18 8
ROOT
ATOM      1  C   UNL     1      10.339 -52.828 -22.706  1.00  0.00     0.016 C 
ENDROOT
BRANCH   1   2
ATOM      2  C   UNL     1      11.189 -54.108 -22.844  1.00  0.00     0.001 C 
ATOM      3  C   UNL     1      11.989 -55.933 -24.420  1.00  0.00     0.262 C 
ATOM      4  N   UNL     1      11.333 -56.957 -23.534  1.00  0.00    -0.331 N 
ATOM      5  C   UNL     1      11.263 -54.600 -24.297  1.00  0.00     0.065 C 
ATOM      6  C   UNL     1      11.335 -56.534 -22.086  1.00  0.00     0.262 C 
ATOM      7  C   UNL     1      10.598 -55.209 -21.947  1.00  0.00     0.065 C 
ATOM      8  H   UNL     1      10.350 -57.041 -23.822  1.00  0.00     0.348 HD
BRANCH   4   9
ATOM      9  C   UNL     1      11.939 -58.333 -23.740  1.00  0.00     0.299 C 
BRANCH   9  10
ATOM     10  C   UNL     1      11.132 -59.433 -23.106  1.00  0.00     0.006 A 
ATOM     11  C   UNL     1      10.890 -59.435 -21.724  1.00  0.00     0.009 A 
ATOM     12  C   UNL     1      10.594 -60.465 -23.893  1.00  0.00     0.009 A 
ATOM     13  C   UNL     1      10.120 -60.443 -21.144  1.00  0.00     0.001 A 
ATOM     14  C   UNL     1       9.824 -61.470 -23.308  1.00  0.00     0.001 A 
ATOM     15  C   UNL     1       9.585 -61.458 -21.934  1.00  0.00     0.000 A 
ENDBRANCH   9  10
ENDBRANCH   4   9
ENDBRANCH   1   2
BRANCH   1  16
ATOM     16  C   UNL     1      11.093 -51.600 -22.184  1.00  0.00     0.066 C 
ATOM     17  C   UNL     1      12.123 -51.137 -23.199  1.00  0.00     0.166 C 
ATOM     18  C   UNL     1      10.196 -50.363 -21.950  1.00  0.00     0.048 C 
ATOM     19  C   UNL     1      11.980 -49.706 -23.419  1.00  0.00     0.025 A 
ATOM     20  C   UNL     1      10.888 -49.259 -22.685  1.00  0.00    -0.033 A 
ATOM     21  C   UNL     1      12.761 -48.870 -24.194  1.00  0.00     0.062 A 
ATOM     22  C   UNL     1      10.535 -47.918 -22.726  1.00  0.00     0.055 A 
ATOM     23  C   UNL     1      12.422 -47.517 -24.216  1.00  0.00     0.161 A 
ATOM     24  C   UNL     1      11.290 -47.043 -23.520  1.00  0.00     0.161 A 
ATOM     25  O   UNL     1      12.960 -51.838 -23.740  1.00  0.00    -0.294 OA
BRANCH  23  26
ATOM     26  O   UNL     1      13.214 -46.687 -24.966  1.00  0.00    -0.493 OA
ATOM     27  C   UNL     1      14.241 -46.122 -24.147  1.00  0.00     0.278 C 
ENDBRANCH  23  26
BRANCH  24  28
ATOM     28  O   UNL     1      10.863 -45.741 -23.505  1.00  0.00    -0.493 OA
ATOM     29  C   UNL     1      10.936 -45.120 -22.222  1.00  0.00     0.278 C 
ENDBRANCH  24  28
ENDBRANCH   1  16
TORSDOF 6
ENDMDL
MODEL 9
REMARK VINA RESULT:    -9.755      3.846      9.354
REMARK INTER + INTRA:         -13.296
REMARK INTER:                 -13.959
REMARK INTRA:                   0.663
REMARK UNBOUND:                -0.120
REMARK SMILES COc1cc2c(cc1OC)C(=O)[C@H](C[C@H]1CC[N@H+](Cc3ccccc3)CC1)C2
REMARK SMILES IDX 14 1 15 2 17 3 18 4 16 5 26 6 27 7 19 9 20 10 21 11 25 12
REMARK SMILES IDX 22 13 24 14 23 15 13 16 11 17 28 18 6 19 5 20 7 21 4 22 8 23
REMARK SMILES IDX 3 24 12 25 9 26 10 27 2 28 1 29
REMARK H PARENT 18 8
ROOT
ATOM      1  C   UNL     1      11.422 -58.266 -21.390  1.00  0.00     0.016 C 
ENDROOT
BRANCH   1   2
ATOM      2  C   UNL     1      10.932 -56.971 -22.070  1.00  0.00     0.001 C 
ATOM      3  C   UNL     1      11.363 -55.282 -23.920  1.00  0.00     0.262 C 
ATOM      4  N   UNL     1      11.482 -54.203 -22.879  1.00  0.00    -0.331 N 
ATOM      5  C   UNL     1      11.755 -56.626 -23.320  1.00  0.00     0.065 C 
ATOM      6  C   UNL     1      10.606 -54.476 -21.681  1.00  0.00     0.262 C 
ATOM      7  C   UNL     1      10.999 -55.810 -21.062  1.00  0.00     0.065 C 
ATOM      8  H   UNL     1      12.454 -54.192 -22.544  1.00  0.00     0.348 HD
BRANCH   4   9
ATOM      9  C   UNL     1      11.239 -52.830 -23.478  1.00  0.00     0.299 C 
BRANCH   9  10
ATOM     10  C   UNL     1      12.501 -52.163 -23.953  1.00  0.00     0.006 A 
ATOM     11  C   UNL     1      12.928 -52.309 -25.282  1.00  0.00     0.009 A 
ATOM     12  C   UNL     1      13.259 -51.369 -23.078  1.00  0.00     0.009 A 
ATOM     13  C   UNL     1      14.085 -51.667 -25.726  1.00  0.00     0.001 A 
ATOM     14  C   UNL     1      14.415 -50.729 -23.527  1.00  0.00     0.001 A 
ATOM     15  C   UNL     1      14.826 -50.876 -24.851  1.00  0.00     0.000 A 
ENDBRANCH   9  10
ENDBRANCH   4   9
ENDBRANCH   1   2
BRANCH   1  16
ATOM     16  C   UNL     1      11.797 -59.402 -22.349  1.00  0.00     0.066 C 
ATOM     17  C   UNL     1      10.647 -60.385 -22.483  1.00  0.00     0.166 C 
ATOM     18  C   UNL     1      12.080 -58.937 -23.795  1.00  0.00     0.048 C 
ATOM     19  C   UNL     1      10.383 -60.634 -23.892  1.00  0.00     0.025 A 
ATOM     20  C   UNL     1      11.220 -59.820 -24.643  1.00  0.00    -0.033 A 
ATOM     21  C   UNL     1       9.485 -61.519 -24.457  1.00  0.00     0.062 A 
ATOM     22  C   UNL     1      11.163 -59.866 -26.029  1.00  0.00     0.055 A 
ATOM     23  C   UNL     1       9.444 -61.585 -25.851  1.00  0.00     0.161 A 
ATOM     24  C   UNL     1      10.247 -60.735 -26.640  1.00  0.00     0.161 A 
ATOM     25  O   UNL     1      10.043 -60.909 -21.564  1.00  0.00    -0.294 OA
BRANCH  23  26
ATOM     26  O   UNL     1       8.569 -62.482 -26.407  1.00  0.00    -0.493 OA
ATOM     27  C   UNL     1       7.719 -63.028 -25.395  1.00  0.00     0.278 C 
ENDBRANCH  23  26
BRANCH  24  28
ATOM     28  O   UNL     1      10.256 -60.708 -28.009  1.00  0.00    -0.493 OA
ATOM     29  C   UNL     1      11.417 -60.100 -28.572  1.00  0.00     0.278 C 
ENDBRANCH  24  28
ENDBRANCH   1  16
TORSDOF 6
ENDMDL
