MODEL 1
REMARK VINA RESULT:    -9.819      0.000      0.000
REMARK INTER + INTRA:         -10.106
REMARK INTER:                 -10.106
REMARK INTRA:                   0.000
REMARK UNBOUND:                 0.000
REMARK SMILES CC1=C[C@@H]2Cc3nc4cc(Cl)ccc4c(N)c3[C@H](C1)C2
REMARK SMILES IDX 15 1 17 2 6 3 7 4 8 5 9 6 10 7 11 8 12 9 13 10 14 11 5 12
REMARK SMILES IDX 4 13 3 14 2 15 1 16 19 17 18 18 20 19 16 20
REMARK H PARENT 16 21 16 22
ROOT
ATOM      1  C   UNL     1      11.939 -56.532 -24.383  1.00  0.00     0.046 A 
ATOM      2  C   UNL     1      11.748 -57.693 -23.611  1.00  0.00     0.001 A 
ATOM      3  C   UNL     1      11.210 -57.544 -22.329  1.00  0.00     0.047 A 
ATOM      4  N   UNL     1      10.930 -56.337 -21.784  1.00  0.00    -0.252 NA
ATOM      5  C   UNL     1      11.169 -55.230 -22.495  1.00  0.00     0.074 A 
ATOM      6  C   UNL     1      10.895 -54.012 -21.894  1.00  0.00     0.049 A 
ATOM      7  C   UNL     1      11.136 -52.809 -22.552  1.00  0.00     0.043 A 
ATOM      8  Cl  UNL     1      10.784 -51.317 -21.772  1.00  0.00    -0.084 Cl
ATOM      9  C   UNL     1      11.663 -52.807 -23.836  1.00  0.00     0.021 A 
ATOM     10  C   UNL     1      11.942 -54.023 -24.459  1.00  0.00     0.014 A 
ATOM     11  C   UNL     1      11.695 -55.257 -23.805  1.00  0.00     0.024 A 
ATOM     12  C   UNL     1      10.953 -58.732 -21.428  1.00  0.00     0.064 C 
ATOM     13  C   UNL     1      11.036 -60.086 -22.146  1.00  0.00     0.018 C 
ATOM     14  C   UNL     1       9.781 -60.351 -22.949  1.00  0.00    -0.024 C 
ATOM     15  C   UNL     1       9.702 -60.138 -24.277  1.00  0.00    -0.076 C 
ATOM     16  C   UNL     1       8.457 -60.423 -25.063  1.00  0.00     0.039 C 
ATOM     17  C   UNL     1      10.873 -59.577 -25.062  1.00  0.00     0.039 C 
ATOM     18  C   UNL     1      12.040 -59.080 -24.175  1.00  0.00     0.028 C 
ATOM     19  C   UNL     1      12.277 -60.088 -23.044  1.00  0.00     0.017 C 
ENDROOT
BRANCH   1  20
ATOM     20  N   UNL     1      12.573 -56.660 -25.646  1.00  0.00    -0.398 N 
ATOM     21  H   UNL     1      13.549 -56.374 -25.578  1.00  0.00     0.156 HD
ATOM     22  H   UNL     1      12.110 -56.130 -26.377  1.00  0.00     0.156 HD
ENDBRANCH   1  20
TORSDOF 1
ENDMDL
MODEL 2
REMARK VINA RESULT:    -9.207      2.063      3.139
REMARK INTER + INTRA:          -9.476
REMARK INTER:                  -9.476
REMARK INTRA:                   0.000
REMARK UNBOUND:                 0.000
REMARK SMILES CC1=C[C@@H]2Cc3nc4cc(Cl)ccc4c(N)c3[C@H](C1)C2
REMARK SMILES IDX 15 1 17 2 6 3 7 4 8 5 9 6 10 7 11 8 12 9 13 10 14 11 5 12
REMARK SMILES IDX 4 13 3 14 2 15 1 16 19 17 18 18 20 19 16 20
REMARK H PARENT 16 21 16 22
ROOT
ATOM      1  C   UNL     1      11.019 -59.120 -23.411  1.00  0.00     0.046 A 
ATOM      2  C   UNL     1       9.971 -60.053 -23.311  1.00  0.00     0.001 A 
ATOM      3  C   UNL     1       8.668 -59.561 -23.176  1.00  0.00     0.047 A 
ATOM      4  N   UNL     1       8.387 -58.240 -23.072  1.00  0.00    -0.252 NA
ATOM      5  C   UNL     1       9.391 -57.356 -23.106  1.00  0.00     0.074 A 
ATOM      6  C   UNL     1       9.067 -56.016 -22.970  1.00  0.00     0.049 A 
ATOM      7  C   UNL     1      10.050 -55.030 -22.970  1.00  0.00     0.043 A 
ATOM      8  Cl  UNL     1       9.608 -53.377 -22.797  1.00  0.00    -0.084 Cl
ATOM      9  C   UNL     1      11.387 -55.375 -23.104  1.00  0.00     0.021 A 
ATOM     10  C   UNL     1      11.732 -56.719 -23.245  1.00  0.00     0.014 A 
ATOM     11  C   UNL     1      10.743 -57.734 -23.255  1.00  0.00     0.024 A 
ATOM     12  C   UNL     1       7.473 -60.483 -23.076  1.00  0.00     0.064 C 
ATOM     13  C   UNL     1       7.780 -61.940 -23.445  1.00  0.00     0.018 C 
ATOM     14  C   UNL     1       7.860 -62.114 -24.946  1.00  0.00    -0.024 C 
ATOM     15  C   UNL     1       9.027 -62.149 -25.618  1.00  0.00    -0.076 C 
ATOM     16  C   UNL     1       9.092 -62.340 -27.104  1.00  0.00     0.039 C 
ATOM     17  C   UNL     1      10.358 -61.981 -24.908  1.00  0.00     0.039 C 
ATOM     18  C   UNL     1      10.226 -61.552 -23.427  1.00  0.00     0.028 C 
ATOM     19  C   UNL     1       9.093 -62.349 -22.771  1.00  0.00     0.017 C 
ENDROOT
BRANCH   1  20
ATOM     20  N   UNL     1      12.351 -59.606 -23.452  1.00  0.00    -0.398 N 
ATOM     21  H   UNL     1      12.643 -59.906 -22.522  1.00  0.00     0.156 HD
ATOM     22  H   UNL     1      13.010 -58.926 -23.815  1.00  0.00     0.156 HD
ENDBRANCH   1  20
TORSDOF 1
ENDMDL
MODEL 3
REMARK VINA RESULT:    -8.919      4.266      7.324
REMARK INTER + INTRA:          -9.179
REMARK INTER:                  -9.179
REMARK INTRA:                   0.000
REMARK UNBOUND:                 0.000
REMARK SMILES CC1=C[C@@H]2Cc3nc4cc(Cl)ccc4c(N)c3[C@H](C1)C2
REMARK SMILES IDX 15 1 17 2 6 3 7 4 8 5 9 6 10 7 11 8 12 9 13 10 14 11 5 12
REMARK SMILES IDX 4 13 3 14 2 15 1 16 19 17 18 18 20 19 16 20
REMARK H PARENT 16 21 16 22
ROOT
ATOM      1  C   UNL     1       9.302 -61.634 -23.931  1.00  0.00     0.046 A 
ATOM      2  C   UNL     1      10.405 -60.762 -23.955  1.00  0.00     0.001 A 
ATOM      3  C   UNL     1      10.937 -60.415 -25.201  1.00  0.00     0.047 A 
ATOM      4  N   UNL     1      10.480 -60.931 -26.366  1.00  0.00    -0.252 NA
ATOM      5  C   UNL     1       9.470 -61.808 -26.338  1.00  0.00     0.074 A 
ATOM      6  C   UNL     1       9.046 -62.335 -27.548  1.00  0.00     0.049 A 
ATOM      7  C   UNL     1       8.019 -63.272 -27.609  1.00  0.00     0.043 A 
ATOM      8  Cl  UNL     1       7.523 -63.904 -29.130  1.00  0.00    -0.084 Cl
ATOM      9  C   UNL     1       7.394 -63.702 -26.448  1.00  0.00     0.021 A 
ATOM     10  C   UNL     1       7.804 -63.181 -25.221  1.00  0.00     0.014 A 
ATOM     11  C   UNL     1       8.844 -62.220 -25.142  1.00  0.00     0.024 A 
ATOM     12  C   UNL     1      12.112 -59.471 -25.333  1.00  0.00     0.064 C 
ATOM     13  C   UNL     1      12.448 -58.712 -24.042  1.00  0.00     0.018 C 
ATOM     14  C   UNL     1      11.482 -57.569 -23.820  1.00  0.00    -0.024 C 
ATOM     15  C   UNL     1      10.427 -57.652 -22.987  1.00  0.00    -0.076 C 
ATOM     16  C   UNL     1       9.488 -56.504 -22.763  1.00  0.00     0.039 C 
ATOM     17  C   UNL     1      10.112 -58.929 -22.230  1.00  0.00     0.039 C 
ATOM     18  C   UNL     1      10.960 -60.145 -22.675  1.00  0.00     0.028 C 
ATOM     19  C   UNL     1      12.414 -59.699 -22.871  1.00  0.00     0.017 C 
ENDROOT
BRANCH   1  20
ATOM     20  N   UNL     1       8.815 -62.069 -22.671  1.00  0.00    -0.398 N 
ATOM     21  H   UNL     1       9.389 -62.835 -22.319  1.00  0.00     0.156 HD
ATOM     22  H   UNL     1       7.842 -62.356 -22.699  1.00  0.00     0.156 HD
ENDBRANCH   1  20
TORSDOF 1
ENDMDL
MODEL 4
REMARK VINA RESULT:    -8.782      3.945      8.257
REMARK INTER + INTRA:          -9.038
REMARK INTER:                  -9.038
REMARK INTRA:                   0.000
REMARK UNBOUND:                 0.000
REMARK SMILES CC1=C[C@@H]2Cc3nc4cc(Cl)ccc4c(N)c3[C@H](C1)C2
REMARK SMILES IDX 15 1 17 2 6 3 7 4 8 5 9 6 10 7 11 8 12 9 13 10 14 11 5 12
REMARK SMILES IDX 4 13 3 14 2 15 1 16 19 17 18 18 20 19 16 20
REMARK H PARENT 16 21 16 22
ROOT
ATOM      1  C   UNL     1      11.954 -51.362 -22.084  1.00  0.00     0.046 A 
ATOM      2  C   UNL     1      12.853 -50.810 -23.015  1.00  0.00     0.001 A 
ATOM      3  C   UNL     1      13.015 -51.470 -24.237  1.00  0.00     0.047 A 
ATOM      4  N   UNL     1      12.399 -52.640 -24.529  1.00  0.00    -0.252 NA
ATOM      5  C   UNL     1      11.592 -53.196 -23.619  1.00  0.00     0.074 A 
ATOM      6  C   UNL     1      11.000 -54.406 -23.943  1.00  0.00     0.049 A 
ATOM      7  C   UNL     1      10.165 -55.067 -23.047  1.00  0.00     0.043 A 
ATOM      8  Cl  UNL     1       9.451 -56.569 -23.486  1.00  0.00    -0.084 Cl
ATOM      9  C   UNL     1       9.908 -54.522 -21.798  1.00  0.00     0.021 A 
ATOM     10  C   UNL     1      10.492 -53.303 -21.454  1.00  0.00     0.014 A 
ATOM     11  C   UNL     1      11.338 -52.613 -22.359  1.00  0.00     0.024 A 
ATOM     12  C   UNL     1      13.947 -50.948 -25.309  1.00  0.00     0.064 C 
ATOM     13  C   UNL     1      14.432 -49.513 -25.065  1.00  0.00     0.018 C 
ATOM     14  C   UNL     1      13.359 -48.509 -25.428  1.00  0.00    -0.024 C 
ATOM     15  C   UNL     1      12.554 -47.934 -24.515  1.00  0.00    -0.076 C 
ATOM     16  C   UNL     1      11.507 -46.927 -24.887  1.00  0.00     0.039 C 
ATOM     17  C   UNL     1      12.649 -48.285 -23.041  1.00  0.00     0.039 C 
ATOM     18  C   UNL     1      13.570 -49.492 -22.743  1.00  0.00     0.028 C 
ATOM     19  C   UNL     1      14.840 -49.377 -23.595  1.00  0.00     0.017 C 
ENDROOT
BRANCH   1  20
ATOM     20  N   UNL     1      11.852 -50.755 -20.805  1.00  0.00    -0.398 N 
ATOM     21  H   UNL     1      12.772 -50.448 -20.490  1.00  0.00     0.156 HD
ATOM     22  H   UNL     1      11.438 -51.366 -20.109  1.00  0.00     0.156 HD
ENDBRANCH   1  20
TORSDOF 1
ENDMDL
MODEL 5
REMARK VINA RESULT:    -8.602      4.863      5.893
REMARK INTER + INTRA:          -8.854
REMARK INTER:                  -8.854
REMARK INTRA:                   0.000
REMARK UNBOUND:                 0.000
REMARK SMILES CC1=C[C@@H]2Cc3nc4cc(Cl)ccc4c(N)c3[C@H](C1)C2
REMARK SMILES IDX 15 1 17 2 6 3 7 4 8 5 9 6 10 7 11 8 12 9 13 10 14 11 5 12
REMARK SMILES IDX 4 13 3 14 2 15 1 16 19 17 18 18 20 19 16 20
REMARK H PARENT 16 21 16 22
ROOT
ATOM      1  C   UNL     1      11.886 -60.514 -25.004  1.00  0.00     0.046 A 
ATOM      2  C   UNL     1      10.679 -60.266 -24.326  1.00  0.00     0.001 A 
ATOM      3  C   UNL     1       9.573 -59.868 -25.084  1.00  0.00     0.047 A 
ATOM      4  N   UNL     1       9.636 -59.651 -26.419  1.00  0.00    -0.252 NA
ATOM      5  C   UNL     1      10.800 -59.829 -27.054  1.00  0.00     0.074 A 
ATOM      6  C   UNL     1      10.832 -59.572 -28.415  1.00  0.00     0.049 A 
ATOM      7  C   UNL     1      12.006 -59.707 -29.150  1.00  0.00     0.043 A 
ATOM      8  Cl  UNL     1      12.006 -59.377 -30.838  1.00  0.00    -0.084 Cl
ATOM      9  C   UNL     1      13.180 -60.104 -28.526  1.00  0.00     0.021 A 
ATOM     10  C   UNL     1      13.167 -60.370 -27.158  1.00  0.00     0.014 A 
ATOM     11  C   UNL     1      11.978 -60.245 -26.396  1.00  0.00     0.024 A 
ATOM     12  C   UNL     1       8.228 -59.592 -24.450  1.00  0.00     0.064 C 
ATOM     13  C   UNL     1       8.112 -60.080 -23.000  1.00  0.00     0.018 C 
ATOM     14  C   UNL     1       7.893 -61.576 -22.948  1.00  0.00    -0.024 C 
ATOM     15  C   UNL     1       8.887 -62.454 -22.711  1.00  0.00    -0.076 C 
ATOM     16  C   UNL     1       8.652 -63.934 -22.644  1.00  0.00     0.039 C 
ATOM     17  C   UNL     1      10.320 -61.996 -22.510  1.00  0.00     0.039 C 
ATOM     18  C   UNL     1      10.547 -60.498 -22.824  1.00  0.00     0.028 C 
ATOM     19  C   UNL     1       9.385 -59.681 -22.247  1.00  0.00     0.017 C 
ENDROOT
BRANCH   1  20
ATOM     20  N   UNL     1      13.038 -60.825 -24.235  1.00  0.00    -0.398 N 
ATOM     21  H   UNL     1      12.806 -61.513 -23.520  1.00  0.00     0.156 HD
ATOM     22  H   UNL     1      13.457 -60.009 -23.803  1.00  0.00     0.156 HD
ENDBRANCH   1  20
TORSDOF 1
ENDMDL
MODEL 6
REMARK VINA RESULT:    -8.476      4.206      8.664
REMARK INTER + INTRA:          -8.723
REMARK INTER:                  -8.723
REMARK INTRA:                   0.000
REMARK UNBOUND:                 0.000
REMARK SMILES CC1=C[C@@H]2Cc3nc4cc(Cl)ccc4c(N)c3[C@H](C1)C2
REMARK SMILES IDX 15 1 17 2 6 3 7 4 8 5 9 6 10 7 11 8 12 9 13 10 14 11 5 12
REMARK SMILES IDX 4 13 3 14 2 15 1 16 19 17 18 18 20 19 16 20
REMARK H PARENT 16 21 16 22
ROOT
ATOM      1  C   UNL     1      13.214 -51.379 -25.156  1.00  0.00     0.046 A 
ATOM      2  C   UNL     1      13.033 -50.113 -24.572  1.00  0.00     0.001 A 
ATOM      3  C   UNL     1      12.275 -50.037 -23.398  1.00  0.00     0.047 A 
ATOM      4  N   UNL     1      11.663 -51.111 -22.847  1.00  0.00    -0.252 NA
ATOM      5  C   UNL     1      11.785 -52.305 -23.437  1.00  0.00     0.074 A 
ATOM      6  C   UNL     1      11.123 -53.376 -22.859  1.00  0.00     0.049 A 
ATOM      7  C   UNL     1      11.176 -54.648 -23.420  1.00  0.00     0.043 A 
ATOM      8  Cl  UNL     1      10.337 -55.952 -22.673  1.00  0.00    -0.084 Cl
ATOM      9  C   UNL     1      11.899 -54.871 -24.583  1.00  0.00     0.021 A 
ATOM     10  C   UNL     1      12.575 -53.807 -25.178  1.00  0.00     0.014 A 
ATOM     11  C   UNL     1      12.538 -52.506 -24.615  1.00  0.00     0.024 A 
ATOM     12  C   UNL     1      12.036 -48.724 -22.686  1.00  0.00     0.064 C 
ATOM     13  C   UNL     1      12.933 -47.578 -23.175  1.00  0.00     0.018 C 
ATOM     14  C   UNL     1      14.328 -47.701 -22.602  1.00  0.00    -0.024 C 
ATOM     15  C   UNL     1      15.359 -48.228 -23.289  1.00  0.00    -0.076 C 
ATOM     16  C   UNL     1      16.741 -48.326 -22.714  1.00  0.00     0.039 C 
ATOM     17  C   UNL     1      15.181 -48.774 -24.694  1.00  0.00     0.039 C 
ATOM     18  C   UNL     1      13.703 -48.868 -25.144  1.00  0.00     0.028 C 
ATOM     19  C   UNL     1      12.961 -47.600 -24.707  1.00  0.00     0.017 C 
ENDROOT
BRANCH   1  20
ATOM     20  N   UNL     1      13.899 -51.456 -26.397  1.00  0.00    -0.398 N 
ATOM     21  H   UNL     1      14.510 -52.272 -26.409  1.00  0.00     0.156 HD
ATOM     22  H   UNL     1      14.438 -50.622 -26.604  1.00  0.00     0.156 HD
ENDBRANCH   1  20
TORSDOF 1
ENDMDL
MODEL 7
REMARK VINA RESULT:    -8.245      4.689      9.299
REMARK INTER + INTRA:          -8.486
REMARK INTER:                  -8.486
REMARK INTRA:                   0.000
REMARK UNBOUND:                 0.000
REMARK SMILES CC1=C[C@@H]2Cc3nc4cc(Cl)ccc4c(N)c3[C@H](C1)C2
REMARK SMILES IDX 15 1 17 2 6 3 7 4 8 5 9 6 10 7 11 8 12 9 13 10 14 11 5 12
REMARK SMILES IDX 4 13 3 14 2 15 1 16 19 17 18 18 20 19 16 20
REMARK H PARENT 16 21 16 22
ROOT
ATOM      1  C   UNL     1      12.237 -50.802 -22.828  1.00  0.00     0.046 A 
ATOM      2  C   UNL     1      13.011 -49.670 -23.141  1.00  0.00     0.001 A 
ATOM      3  C   UNL     1      13.739 -49.687 -24.335  1.00  0.00     0.047 A 
ATOM      4  N   UNL     1      13.780 -50.761 -25.158  1.00  0.00    -0.252 NA
ATOM      5  C   UNL     1      13.092 -51.860 -24.829  1.00  0.00     0.074 A 
ATOM      6  C   UNL     1      13.178 -52.949 -25.682  1.00  0.00     0.049 A 
ATOM      7  C   UNL     1      12.515 -54.140 -25.404  1.00  0.00     0.043 A 
ATOM      8  Cl  UNL     1      12.649 -55.470 -26.487  1.00  0.00    -0.084 Cl
ATOM      9  C   UNL     1      11.748 -54.263 -24.255  1.00  0.00     0.021 A 
ATOM     10  C   UNL     1      11.645 -53.177 -23.386  1.00  0.00     0.014 A 
ATOM     11  C   UNL     1      12.308 -51.954 -23.658  1.00  0.00     0.024 A 
ATOM     12  C   UNL     1      14.589 -48.513 -24.768  1.00  0.00     0.064 C 
ATOM     13  C   UNL     1      14.334 -47.230 -23.964  1.00  0.00     0.018 C 
ATOM     14  C   UNL     1      13.061 -46.550 -24.421  1.00  0.00    -0.024 C 
ATOM     15  C   UNL     1      11.888 -46.678 -23.771  1.00  0.00    -0.076 C 
ATOM     16  C   UNL     1      10.639 -45.984 -24.224  1.00  0.00     0.039 C 
ATOM     17  C   UNL     1      11.755 -47.554 -22.539  1.00  0.00     0.039 C 
ATOM     18  C   UNL     1      13.000 -48.429 -22.256  1.00  0.00     0.028 C 
ATOM     19  C   UNL     1      14.265 -47.591 -22.477  1.00  0.00     0.017 C 
ENDROOT
BRANCH   1  20
ATOM     20  N   UNL     1      11.570 -50.836 -21.576  1.00  0.00    -0.398 N 
ATOM     21  H   UNL     1      10.722 -50.273 -21.615  1.00  0.00     0.156 HD
ATOM     22  H   UNL     1      12.154 -50.522 -20.808  1.00  0.00     0.156 HD
ENDBRANCH   1  20
TORSDOF 1
ENDMDL
MODEL 8
REMARK VINA RESULT:    -8.243      7.067      9.122
REMARK INTER + INTRA:          -8.484
REMARK INTER:                  -8.484
REMARK INTRA:                   0.000
REMARK UNBOUND:                 0.000
REMARK SMILES CC1=C[C@@H]2Cc3nc4cc(Cl)ccc4c(N)c3[C@H](C1)C2
REMARK SMILES IDX 15 1 17 2 6 3 7 4 8 5 9 6 10 7 11 8 12 9 13 10 14 11 5 12
REMARK SMILES IDX 4 13 3 14 2 15 1 16 19 17 18 18 20 19 16 20
REMARK H PARENT 16 21 16 22
ROOT
ATOM      1  C   UNL     1      11.783 -49.045 -23.118  1.00  0.00     0.046 A 
ATOM      2  C   UNL     1      12.582 -49.644 -24.109  1.00  0.00     0.001 A 
ATOM      3  C   UNL     1      13.180 -48.810 -25.059  1.00  0.00     0.047 A 
ATOM      4  N   UNL     1      12.968 -47.473 -25.102  1.00  0.00    -0.252 NA
ATOM      5  C   UNL     1      12.159 -46.912 -24.197  1.00  0.00     0.074 A 
ATOM      6  C   UNL     1      11.946 -45.546 -24.289  1.00  0.00     0.049 A 
ATOM      7  C   UNL     1      11.100 -44.884 -23.404  1.00  0.00     0.043 A 
ATOM      8  Cl  UNL     1      10.859 -43.187 -23.552  1.00  0.00    -0.084 Cl
ATOM      9  C   UNL     1      10.445 -45.588 -22.403  1.00  0.00     0.021 A 
ATOM     10  C   UNL     1      10.649 -46.963 -22.292  1.00  0.00     0.014 A 
ATOM     11  C   UNL     1      11.514 -47.651 -23.181  1.00  0.00     0.024 A 
ATOM     12  C   UNL     1      14.069 -49.356 -26.154  1.00  0.00     0.064 C 
ATOM     13  C   UNL     1      14.494 -50.815 -25.940  1.00  0.00     0.018 C 
ATOM     14  C   UNL     1      15.602 -50.911 -24.914  1.00  0.00    -0.024 C 
ATOM     15  C   UNL     1      15.382 -51.237 -23.626  1.00  0.00    -0.076 C 
ATOM     16  C   UNL     1      16.492 -51.346 -22.624  1.00  0.00     0.039 C 
ATOM     17  C   UNL     1      13.982 -51.500 -23.102  1.00  0.00     0.039 C 
ATOM     18  C   UNL     1      12.861 -51.143 -24.107  1.00  0.00     0.028 C 
ATOM     19  C   UNL     1      13.267 -51.623 -25.505  1.00  0.00     0.017 C 
ENDROOT
BRANCH   1  20
ATOM     20  N   UNL     1      11.094 -49.888 -22.208  1.00  0.00    -0.398 N 
ATOM     21  H   UNL     1      11.279 -50.866 -22.429  1.00  0.00     0.156 HD
ATOM     22  H   UNL     1      10.093 -49.724 -22.194  1.00  0.00     0.156 HD
ENDBRANCH   1  20
TORSDOF 1
ENDMDL
MODEL 9
REMARK VINA RESULT:    -8.025      5.222      9.868
REMARK INTER + INTRA:          -8.260
REMARK INTER:                  -8.260
REMARK INTRA:                   0.000
REMARK UNBOUND:                 0.000
REMARK SMILES CC1=C[C@@H]2Cc3nc4cc(Cl)ccc4c(N)c3[C@H](C1)C2
REMARK SMILES IDX 15 1 17 2 6 3 7 4 8 5 9 6 10 7 11 8 12 9 13 10 14 11 5 12
REMARK SMILES IDX 4 13 3 14 2 15 1 16 19 17 18 18 20 19 16 20
REMARK H PARENT 16 21 16 22
ROOT
ATOM      1  C   UNL     1      12.657 -49.735 -24.027  1.00  0.00     0.046 A 
ATOM      2  C   UNL     1      12.154 -48.452 -23.746  1.00  0.00     0.001 A 
ATOM      3  C   UNL     1      11.077 -48.353 -22.858  1.00  0.00     0.047 A 
ATOM      4  N   UNL     1      10.467 -49.434 -22.317  1.00  0.00    -0.252 NA
ATOM      5  C   UNL     1      10.908 -50.657 -22.634  1.00  0.00     0.074 A 
ATOM      6  C   UNL     1      10.242 -51.740 -22.082  1.00  0.00     0.049 A 
ATOM      7  C   UNL     1      10.618 -53.047 -22.376  1.00  0.00     0.043 A 
ATOM      8  Cl  UNL     1       9.764 -54.365 -21.673  1.00  0.00    -0.084 Cl
ATOM      9  C   UNL     1      11.676 -53.294 -23.238  1.00  0.00     0.021 A 
ATOM     10  C   UNL     1      12.361 -52.217 -23.800  1.00  0.00     0.014 A 
ATOM     11  C   UNL     1      11.996 -50.879 -23.505  1.00  0.00     0.024 A 
ATOM     12  C   UNL     1      10.474 -47.018 -22.479  1.00  0.00     0.064 C 
ATOM     13  C   UNL     1      11.326 -45.811 -22.895  1.00  0.00     0.018 C 
ATOM     14  C   UNL     1      12.491 -45.618 -21.948  1.00  0.00    -0.024 C 
ATOM     15  C   UNL     1      13.738 -46.048 -22.222  1.00  0.00    -0.076 C 
ATOM     16  C   UNL     1      14.886 -45.834 -21.281  1.00  0.00     0.039 C 
ATOM     17  C   UNL     1      14.055 -46.796 -23.504  1.00  0.00     0.039 C 
ATOM     18  C   UNL     1      12.804 -47.198 -24.320  1.00  0.00     0.028 C 
ATOM     19  C   UNL     1      11.813 -46.027 -24.331  1.00  0.00     0.017 C 
ENDROOT
BRANCH   1  20
ATOM     20  N   UNL     1      13.685 -49.856 -24.998  1.00  0.00    -0.398 N 
ATOM     21  H   UNL     1      14.271 -49.022 -24.993  1.00  0.00     0.156 HD
ATOM     22  H   UNL     1      13.328 -50.018 -25.934  1.00  0.00     0.156 HD
ENDBRANCH   1  20
TORSDOF 1
ENDMDL
