MODEL 1
REMARK VINA RESULT:   -12.960      0.000      0.000
REMARK INTER + INTRA:         -15.891
REMARK INTER:                 -15.990
REMARK INTRA:                   0.099
REMARK UNBOUND:                 0.099
REMARK SMILES Cc1cccc(C(=O)N2Cc3cc(NC(=O)c4cccc(Cl)c4)ccc3CC2=O)c1
REMARK SMILES IDX 9 1 10 2 11 3 12 4 13 5 24 6 25 7 26 8 27 9 28 10 29 11 7 12
REMARK SMILES IDX 8 13 6 14 2 15 3 16 30 17 4 18 5 19 1 20 14 21 15 22 16 24
REMARK SMILES IDX 17 25 18 26 23 27 19 28 21 29 20 30 22 31
REMARK H PARENT 14 23
ROOT
ATOM      1  N   UNL     1       8.683 -61.019 -23.581  1.00  0.00    -0.274 N 
ATOM      2  C   UNL     1       9.617 -60.053 -24.138  1.00  0.00     0.164 C 
ATOM      3  C   UNL     1      10.202 -59.169 -23.074  1.00  0.00    -0.022 A 
ATOM      4  C   UNL     1      10.495 -57.818 -23.306  1.00  0.00     0.032 A 
ATOM      5  C   UNL     1      11.071 -57.028 -22.303  1.00  0.00     0.041 A 
ATOM      6  C   UNL     1      11.369 -57.614 -21.072  1.00  0.00     0.026 A 
ATOM      7  C   UNL     1      11.091 -58.965 -20.840  1.00  0.00     0.007 A 
ATOM      8  C   UNL     1      10.499 -59.744 -21.836  1.00  0.00    -0.033 A 
ATOM      9  C   UNL     1      10.228 -61.209 -21.633  1.00  0.00     0.136 C 
ATOM     10  C   UNL     1       9.109 -61.785 -22.496  1.00  0.00     0.234 C 
ATOM     11  O   UNL     1       8.637 -62.884 -22.201  1.00  0.00    -0.274 OA
ENDROOT
BRANCH   1  12
ATOM     12  C   UNL     1       7.755 -61.528 -24.493  1.00  0.00     0.260 C 
ATOM     13  O   UNL     1       6.556 -61.625 -24.230  1.00  0.00    -0.269 OA
BRANCH  12  14
ATOM     14  C   UNL     1       8.239 -62.002 -25.820  1.00  0.00     0.040 A 
ATOM     15  C   UNL     1       9.630 -61.611 -27.778  1.00  0.00    -0.050 A 
ATOM     16  C   UNL     1       9.107 -62.771 -28.362  1.00  0.00     0.003 A 
ATOM     17  C   UNL     1       9.175 -61.222 -26.511  1.00  0.00     0.017 A 
ATOM     18  C   UNL     1       8.159 -63.542 -27.686  1.00  0.00     0.001 A 
ATOM     19  C   UNL     1       7.719 -63.157 -26.418  1.00  0.00     0.014 A 
ATOM     20  C   UNL     1      10.618 -60.763 -28.523  1.00  0.00     0.044 C 
ENDBRANCH  12  14
ENDBRANCH   1  12
BRANCH   5  21
ATOM     21  N   UNL     1      11.331 -55.677 -22.617  1.00  0.00    -0.322 N 
ATOM     22  C   UNL     1      10.613 -54.568 -22.204  1.00  0.00     0.255 C 
ATOM     23  H   UNL     1      12.085 -55.518 -23.273  1.00  0.00     0.170 HD
ATOM     24  O   UNL     1       9.579 -54.564 -21.546  1.00  0.00    -0.269 OA
BRANCH  22  25
ATOM     25  C   UNL     1      11.160 -53.260 -22.659  1.00  0.00     0.041 A 
ATOM     26  C   UNL     1      10.924 -52.126 -21.870  1.00  0.00     0.014 A 
ATOM     27  C   UNL     1      11.922 -53.149 -23.827  1.00  0.00     0.034 A 
ATOM     28  C   UNL     1      11.421 -50.882 -22.260  1.00  0.00     0.002 A 
ATOM     29  C   UNL     1      12.415 -51.902 -24.209  1.00  0.00     0.041 A 
ATOM     30  C   UNL     1      12.164 -50.769 -23.435  1.00  0.00     0.020 A 
ATOM     31  Cl  UNL     1      13.347 -51.761 -25.648  1.00  0.00    -0.084 Cl
ENDBRANCH  22  25
ENDBRANCH   5  21
TORSDOF 4
ENDMDL
MODEL 2
REMARK VINA RESULT:   -12.243      3.991     10.151
REMARK INTER + INTRA:         -15.007
REMARK INTER:                 -14.340
REMARK INTRA:                  -0.667
REMARK UNBOUND:                 0.099
REMARK SMILES Cc1cccc(C(=O)N2Cc3cc(NC(=O)c4cccc(Cl)c4)ccc3CC2=O)c1
REMARK SMILES IDX 9 1 10 2 11 3 12 4 13 5 24 6 25 7 26 8 27 9 28 10 29 11 7 12
REMARK SMILES IDX 8 13 6 14 2 15 3 16 30 17 4 18 5 19 1 20 14 21 15 22 16 24
REMARK SMILES IDX 17 25 18 26 23 27 19 28 21 29 20 30 22 31
REMARK H PARENT 14 23
ROOT
ATOM      1  N   UNL     1      12.933 -51.384 -23.957  1.00  0.00    -0.274 N 
ATOM      2  C   UNL     1      12.276 -52.528 -24.568  1.00  0.00     0.164 C 
ATOM      3  C   UNL     1      11.659 -53.430 -23.537  1.00  0.00    -0.022 A 
ATOM      4  C   UNL     1      11.628 -54.823 -23.690  1.00  0.00     0.032 A 
ATOM      5  C   UNL     1      11.015 -55.635 -22.726  1.00  0.00     0.041 A 
ATOM      6  C   UNL     1      10.416 -55.032 -21.619  1.00  0.00     0.026 A 
ATOM      7  C   UNL     1      10.433 -53.641 -21.470  1.00  0.00     0.007 A 
ATOM      8  C   UNL     1      11.062 -52.837 -22.422  1.00  0.00    -0.033 A 
ATOM      9  C   UNL     1      11.058 -51.337 -22.313  1.00  0.00     0.136 C 
ATOM     10  C   UNL     1      12.207 -50.635 -23.030  1.00  0.00     0.234 C 
ATOM     11  O   UNL     1      12.442 -49.455 -22.764  1.00  0.00    -0.274 OA
ENDROOT
BRANCH   1  12
ATOM     12  C   UNL     1      13.915 -50.783 -24.747  1.00  0.00     0.260 C 
ATOM     13  O   UNL     1      13.642 -50.089 -25.727  1.00  0.00    -0.269 OA
BRANCH  12  14
ATOM     14  C   UNL     1      15.349 -51.015 -24.410  1.00  0.00     0.040 A 
ATOM     15  C   UNL     1      17.548 -51.771 -25.126  1.00  0.00    -0.050 A 
ATOM     16  C   UNL     1      18.021 -51.579 -23.823  1.00  0.00     0.003 A 
ATOM     17  C   UNL     1      16.202 -51.505 -25.408  1.00  0.00     0.017 A 
ATOM     18  C   UNL     1      17.169 -51.111 -22.820  1.00  0.00     0.001 A 
ATOM     19  C   UNL     1      15.833 -50.833 -23.109  1.00  0.00     0.014 A 
ATOM     20  C   UNL     1      18.453 -52.313 -26.192  1.00  0.00     0.044 C 
ENDBRANCH  12  14
ENDBRANCH   1  12
BRANCH   5  21
ATOM     21  N   UNL     1      11.030 -57.028 -22.952  1.00  0.00    -0.322 N 
ATOM     22  C   UNL     1      11.217 -58.027 -22.014  1.00  0.00     0.255 C 
ATOM     23  H   UNL     1      10.967 -57.313 -23.921  1.00  0.00     0.170 HD
ATOM     24  O   UNL     1      11.472 -57.882 -20.824  1.00  0.00    -0.269 OA
BRANCH  22  25
ATOM     25  C   UNL     1      11.133 -59.415 -22.548  1.00  0.00     0.041 A 
ATOM     26  C   UNL     1      11.993 -59.782 -23.592  1.00  0.00     0.014 A 
ATOM     27  C   UNL     1      10.248 -60.356 -22.012  1.00  0.00     0.034 A 
ATOM     28  C   UNL     1      11.949 -61.073 -24.119  1.00  0.00     0.002 A 
ATOM     29  C   UNL     1      10.211 -61.644 -22.544  1.00  0.00     0.041 A 
ATOM     30  C   UNL     1      11.053 -62.005 -23.597  1.00  0.00     0.020 A 
ATOM     31  Cl  UNL     1       9.119 -62.802 -21.891  1.00  0.00    -0.084 Cl
ENDBRANCH  22  25
ENDBRANCH   5  21
TORSDOF 4
ENDMDL
MODEL 3
REMARK VINA RESULT:   -12.225      3.928     10.007
REMARK INTER + INTRA:         -14.985
REMARK INTER:                 -14.081
REMARK INTRA:                  -0.904
REMARK UNBOUND:                 0.099
REMARK SMILES Cc1cccc(C(=O)N2Cc3cc(NC(=O)c4cccc(Cl)c4)ccc3CC2=O)c1
REMARK SMILES IDX 9 1 10 2 11 3 12 4 13 5 24 6 25 7 26 8 27 9 28 10 29 11 7 12
REMARK SMILES IDX 8 13 6 14 2 15 3 16 30 17 4 18 5 19 1 20 14 21 15 22 16 24
REMARK SMILES IDX 17 25 18 26 23 27 19 28 21 29 20 30 22 31
REMARK H PARENT 14 23
ROOT
ATOM      1  N   UNL     1      13.119 -51.813 -24.678  1.00  0.00    -0.274 N 
ATOM      2  C   UNL     1      12.232 -52.923 -24.984  1.00  0.00     0.164 C 
ATOM      3  C   UNL     1      11.677 -53.549 -23.737  1.00  0.00    -0.022 A 
ATOM      4  C   UNL     1      11.443 -54.928 -23.637  1.00  0.00     0.032 A 
ATOM      5  C   UNL     1      10.893 -55.478 -22.471  1.00  0.00     0.041 A 
ATOM      6  C   UNL     1      10.560 -54.627 -21.417  1.00  0.00     0.026 A 
ATOM      7  C   UNL     1      10.779 -53.248 -21.518  1.00  0.00     0.007 A 
ATOM      8  C   UNL     1      11.345 -52.707 -22.673  1.00  0.00    -0.033 A 
ATOM      9  C   UNL     1      11.552 -51.226 -22.829  1.00  0.00     0.136 C 
ATOM     10  C   UNL     1      12.652 -50.827 -23.808  1.00  0.00     0.234 C 
ATOM     11  O   UNL     1      13.076 -49.670 -23.788  1.00  0.00    -0.274 OA
ENDROOT
BRANCH   1  12
ATOM     12  C   UNL     1      14.032 -51.498 -25.688  1.00  0.00     0.260 C 
ATOM     13  O   UNL     1      13.677 -51.155 -26.816  1.00  0.00    -0.269 OA
BRANCH  12  14
ATOM     14  C   UNL     1      15.490 -51.611 -25.398  1.00  0.00     0.040 A 
ATOM     15  C   UNL     1      17.639 -50.504 -25.123  1.00  0.00    -0.050 A 
ATOM     16  C   UNL     1      18.247 -51.756 -24.970  1.00  0.00     0.003 A 
ATOM     17  C   UNL     1      16.259 -50.441 -25.356  1.00  0.00     0.017 A 
ATOM     18  C   UNL     1      17.487 -52.927 -25.031  1.00  0.00     0.001 A 
ATOM     19  C   UNL     1      16.111 -52.858 -25.250  1.00  0.00     0.014 A 
ATOM     20  C   UNL     1      18.462 -49.251 -25.098  1.00  0.00     0.044 C 
ENDBRANCH  12  14
ENDBRANCH   1  12
BRANCH   5  21
ATOM     21  N   UNL     1      10.693 -56.875 -22.450  1.00  0.00    -0.322 N 
ATOM     22  C   UNL     1       9.675 -57.585 -23.061  1.00  0.00     0.255 C 
ATOM     23  H   UNL     1      11.329 -57.398 -21.862  1.00  0.00     0.170 HD
ATOM     24  O   UNL     1       8.721 -57.122 -23.677  1.00  0.00    -0.269 OA
BRANCH  22  25
ATOM     25  C   UNL     1       9.754 -59.063 -22.900  1.00  0.00     0.041 A 
ATOM     26  C   UNL     1      10.110 -59.581 -21.647  1.00  0.00     0.014 A 
ATOM     27  C   UNL     1       9.452 -59.934 -23.953  1.00  0.00     0.034 A 
ATOM     28  C   UNL     1      10.192 -60.960 -21.454  1.00  0.00     0.002 A 
ATOM     29  C   UNL     1       9.537 -61.311 -23.750  1.00  0.00     0.041 A 
ATOM     30  C   UNL     1       9.910 -61.827 -22.509  1.00  0.00     0.020 A 
ATOM     31  Cl  UNL     1       9.173 -62.384 -25.045  1.00  0.00    -0.084 Cl
ENDBRANCH  22  25
ENDBRANCH   5  21
TORSDOF 4
ENDMDL
MODEL 4
REMARK VINA RESULT:   -11.810      4.107     11.502
REMARK INTER + INTRA:         -14.473
REMARK INTER:                 -14.723
REMARK INTRA:                   0.251
REMARK UNBOUND:                 0.099
REMARK SMILES Cc1cccc(C(=O)N2Cc3cc(NC(=O)c4cccc(Cl)c4)ccc3CC2=O)c1
REMARK SMILES IDX 9 1 10 2 11 3 12 4 13 5 24 6 25 7 26 8 27 9 28 10 29 11 7 12
REMARK SMILES IDX 8 13 6 14 2 15 3 16 30 17 4 18 5 19 1 20 14 21 15 22 16 24
REMARK SMILES IDX 17 25 18 26 23 27 19 28 21 29 20 30 22 31
REMARK H PARENT 14 23
ROOT
ATOM      1  N   UNL     1      11.804 -49.721 -23.481  1.00  0.00    -0.274 N 
ATOM      2  C   UNL     1      12.014 -50.970 -22.766  1.00  0.00     0.164 C 
ATOM      3  C   UNL     1      12.168 -52.130 -23.708  1.00  0.00    -0.022 A 
ATOM      4  C   UNL     1      11.675 -53.406 -23.404  1.00  0.00     0.032 A 
ATOM      5  C   UNL     1      11.864 -54.476 -24.289  1.00  0.00     0.041 A 
ATOM      6  C   UNL     1      12.571 -54.255 -25.472  1.00  0.00     0.026 A 
ATOM      7  C   UNL     1      13.078 -52.986 -25.772  1.00  0.00     0.007 A 
ATOM      8  C   UNL     1      12.870 -51.918 -24.897  1.00  0.00    -0.033 A 
ATOM      9  C   UNL     1      13.439 -50.554 -25.170  1.00  0.00     0.136 C 
ATOM     10  C   UNL     1      12.697 -49.399 -24.503  1.00  0.00     0.234 C 
ATOM     11  O   UNL     1      12.914 -48.249 -24.891  1.00  0.00    -0.274 OA
ENDROOT
BRANCH   1  12
ATOM     12  C   UNL     1      11.182 -48.717 -22.735  1.00  0.00     0.260 C 
ATOM     13  O   UNL     1       9.970 -48.709 -22.520  1.00  0.00    -0.269 OA
BRANCH  12  14
ATOM     14  C   UNL     1      12.012 -47.598 -22.205  1.00  0.00     0.040 A 
ATOM     15  C   UNL     1      12.377 -45.200 -22.017  1.00  0.00    -0.050 A 
ATOM     16  C   UNL     1      13.577 -45.451 -21.341  1.00  0.00     0.003 A 
ATOM     17  C   UNL     1      11.608 -46.282 -22.464  1.00  0.00     0.017 A 
ATOM     18  C   UNL     1      13.995 -46.762 -21.098  1.00  0.00     0.001 A 
ATOM     19  C   UNL     1      13.218 -47.836 -21.534  1.00  0.00     0.014 A 
ATOM     20  C   UNL     1      11.951 -43.792 -22.312  1.00  0.00     0.044 C 
ENDBRANCH  12  14
ENDBRANCH   1  12
BRANCH   5  21
ATOM     21  N   UNL     1      11.333 -55.727 -23.911  1.00  0.00    -0.322 N 
ATOM     22  C   UNL     1      11.019 -56.152 -22.632  1.00  0.00     0.255 C 
ATOM     23  H   UNL     1      11.241 -56.406 -24.656  1.00  0.00     0.170 HD
ATOM     24  O   UNL     1      11.210 -55.542 -21.586  1.00  0.00    -0.269 OA
BRANCH  22  25
ATOM     25  C   UNL     1      10.426 -57.515 -22.549  1.00  0.00     0.041 A 
ATOM     26  C   UNL     1      11.073 -58.479 -21.764  1.00  0.00     0.014 A 
ATOM     27  C   UNL     1       9.233 -57.838 -23.205  1.00  0.00     0.034 A 
ATOM     28  C   UNL     1      10.549 -59.767 -21.658  1.00  0.00     0.002 A 
ATOM     29  C   UNL     1       8.716 -59.128 -23.093  1.00  0.00     0.041 A 
ATOM     30  C   UNL     1       9.370 -60.094 -22.328  1.00  0.00     0.020 A 
ATOM     31  Cl  UNL     1       7.253 -59.531 -23.904  1.00  0.00    -0.084 Cl
ENDBRANCH  22  25
ENDBRANCH   5  21
TORSDOF 4
ENDMDL
MODEL 5
REMARK VINA RESULT:   -11.757      4.284     10.580
REMARK INTER + INTRA:         -14.408
REMARK INTER:                 -14.116
REMARK INTRA:                  -0.293
REMARK UNBOUND:                 0.099
REMARK SMILES Cc1cccc(C(=O)N2Cc3cc(NC(=O)c4cccc(Cl)c4)ccc3CC2=O)c1
REMARK SMILES IDX 9 1 10 2 11 3 12 4 13 5 24 6 25 7 26 8 27 9 28 10 29 11 7 12
REMARK SMILES IDX 8 13 6 14 2 15 3 16 30 17 4 18 5 19 1 20 14 21 15 22 16 24
REMARK SMILES IDX 17 25 18 26 23 27 19 28 21 29 20 30 22 31
REMARK H PARENT 14 23
ROOT
ATOM      1  N   UNL     1      13.792 -50.661 -24.800  1.00  0.00    -0.274 N 
ATOM      2  C   UNL     1      12.832 -51.726 -25.043  1.00  0.00     0.164 C 
ATOM      3  C   UNL     1      12.129 -52.139 -23.781  1.00  0.00    -0.022 A 
ATOM      4  C   UNL     1      11.763 -53.469 -23.534  1.00  0.00     0.032 A 
ATOM      5  C   UNL     1      11.079 -53.818 -22.362  1.00  0.00     0.041 A 
ATOM      6  C   UNL     1      10.748 -52.813 -21.451  1.00  0.00     0.026 A 
ATOM      7  C   UNL     1      11.099 -51.482 -21.700  1.00  0.00     0.007 A 
ATOM      8  C   UNL     1      11.798 -51.143 -22.860  1.00  0.00    -0.033 A 
ATOM      9  C   UNL     1      12.150 -49.716 -23.177  1.00  0.00     0.136 C 
ATOM     10  C   UNL     1      13.353 -49.537 -24.099  1.00  0.00     0.234 C 
ATOM     11  O   UNL     1      13.878 -48.425 -24.184  1.00  0.00    -0.274 OA
ENDROOT
BRANCH   1  12
ATOM     12  C   UNL     1      14.803 -50.555 -25.758  1.00  0.00     0.260 C 
ATOM     13  O   UNL     1      14.570 -50.281 -26.936  1.00  0.00    -0.269 OA
BRANCH  12  14
ATOM     14  C   UNL     1      16.212 -50.812 -25.346  1.00  0.00     0.040 A 
ATOM     15  C   UNL     1      18.343 -49.919 -24.585  1.00  0.00    -0.050 A 
ATOM     16  C   UNL     1      18.893 -51.204 -24.667  1.00  0.00     0.003 A 
ATOM     17  C   UNL     1      17.004 -49.728 -24.946  1.00  0.00     0.017 A 
ATOM     18  C   UNL     1      18.113 -52.285 -25.084  1.00  0.00     0.001 A 
ATOM     19  C   UNL     1      16.775 -52.092 -25.429  1.00  0.00     0.014 A 
ATOM     20  C   UNL     1      19.193 -48.753 -24.176  1.00  0.00     0.044 C 
ENDBRANCH  12  14
ENDBRANCH   1  12
BRANCH   5  21
ATOM     21  N   UNL     1      10.751 -55.179 -22.188  1.00  0.00    -0.322 N 
ATOM     22  C   UNL     1      11.077 -56.233 -23.023  1.00  0.00     0.255 C 
ATOM     23  H   UNL     1      10.152 -55.386 -21.399  1.00  0.00     0.170 HD
ATOM     24  O   UNL     1      11.652 -56.165 -24.103  1.00  0.00    -0.269 OA
BRANCH  22  25
ATOM     25  C   UNL     1      10.631 -57.572 -22.549  1.00  0.00     0.041 A 
ATOM     26  C   UNL     1      11.298 -58.153 -21.462  1.00  0.00     0.014 A 
ATOM     27  C   UNL     1       9.551 -58.238 -23.139  1.00  0.00     0.034 A 
ATOM     28  C   UNL     1      10.909 -59.406 -20.986  1.00  0.00     0.002 A 
ATOM     29  C   UNL     1       9.169 -59.489 -22.656  1.00  0.00     0.041 A 
ATOM     30  C   UNL     1       9.845 -60.077 -21.587  1.00  0.00     0.020 A 
ATOM     31  Cl  UNL     1       7.846 -60.313 -23.384  1.00  0.00    -0.084 Cl
ENDBRANCH  22  25
ENDBRANCH   5  21
TORSDOF 4
ENDMDL
MODEL 6
REMARK VINA RESULT:   -11.529      4.085     10.466
REMARK INTER + INTRA:         -14.126
REMARK INTER:                 -13.584
REMARK INTRA:                  -0.542
REMARK UNBOUND:                 0.099
REMARK SMILES Cc1cccc(C(=O)N2Cc3cc(NC(=O)c4cccc(Cl)c4)ccc3CC2=O)c1
REMARK SMILES IDX 9 1 10 2 11 3 12 4 13 5 24 6 25 7 26 8 27 9 28 10 29 11 7 12
REMARK SMILES IDX 8 13 6 14 2 15 3 16 30 17 4 18 5 19 1 20 14 21 15 22 16 24
REMARK SMILES IDX 17 25 18 26 23 27 19 28 21 29 20 30 22 31
REMARK H PARENT 14 23
ROOT
ATOM      1  N   UNL     1      13.981 -51.604 -24.090  1.00  0.00    -0.274 N 
ATOM      2  C   UNL     1      13.037 -52.458 -24.791  1.00  0.00     0.164 C 
ATOM      3  C   UNL     1      11.954 -52.956 -23.877  1.00  0.00    -0.022 A 
ATOM      4  C   UNL     1      11.401 -54.238 -24.006  1.00  0.00     0.032 A 
ATOM      5  C   UNL     1      10.369 -54.661 -23.158  1.00  0.00     0.041 A 
ATOM      6  C   UNL     1       9.883 -53.776 -22.195  1.00  0.00     0.026 A 
ATOM      7  C   UNL     1      10.421 -52.490 -22.072  1.00  0.00     0.007 A 
ATOM      8  C   UNL     1      11.464 -52.080 -22.906  1.00  0.00    -0.033 A 
ATOM      9  C   UNL     1      12.034 -50.691 -22.828  1.00  0.00     0.136 C 
ATOM     10  C   UNL     1      13.468 -50.552 -23.331  1.00  0.00     0.234 C 
ATOM     11  O   UNL     1      14.101 -49.533 -23.049  1.00  0.00    -0.274 OA
ENDROOT
BRANCH   1  12
ATOM     12  C   UNL     1      15.237 -51.500 -24.694  1.00  0.00     0.260 C 
ATOM     13  O   UNL     1      16.179 -52.232 -24.387  1.00  0.00    -0.269 OA
BRANCH  12  14
ATOM     14  C   UNL     1      15.453 -50.446 -25.724  1.00  0.00     0.040 A 
ATOM     15  C   UNL     1      16.745 -48.531 -26.489  1.00  0.00    -0.050 A 
ATOM     16  C   UNL     1      15.853 -48.375 -27.557  1.00  0.00     0.003 A 
ATOM     17  C   UNL     1      16.526 -49.559 -25.563  1.00  0.00     0.017 A 
ATOM     18  C   UNL     1      14.770 -49.243 -27.710  1.00  0.00     0.001 A 
ATOM     19  C   UNL     1      14.565 -50.275 -26.794  1.00  0.00     0.014 A 
ATOM     20  C   UNL     1      17.883 -47.572 -26.302  1.00  0.00     0.044 C 
ENDBRANCH  12  14
ENDBRANCH   1  12
BRANCH   5  21
ATOM     21  N   UNL     1       9.871 -55.967 -23.351  1.00  0.00    -0.322 N 
ATOM     22  C   UNL     1      10.345 -57.136 -22.783  1.00  0.00     0.255 C 
ATOM     23  H   UNL     1       9.131 -56.055 -24.036  1.00  0.00     0.170 HD
ATOM     24  O   UNL     1      11.328 -57.259 -22.062  1.00  0.00    -0.269 OA
BRANCH  22  25
ATOM     25  C   UNL     1       9.580 -58.363 -23.140  1.00  0.00     0.041 A 
ATOM     26  C   UNL     1       8.242 -58.227 -23.533  1.00  0.00     0.014 A 
ATOM     27  C   UNL     1      10.175 -59.630 -23.123  1.00  0.00     0.034 A 
ATOM     28  C   UNL     1       7.492 -59.351 -23.878  1.00  0.00     0.002 A 
ATOM     29  C   UNL     1       9.418 -60.748 -23.470  1.00  0.00     0.041 A 
ATOM     30  C   UNL     1       8.080 -60.616 -23.842  1.00  0.00     0.020 A 
ATOM     31  Cl  UNL     1      10.144 -62.307 -23.444  1.00  0.00    -0.084 Cl
ENDBRANCH  22  25
ENDBRANCH   5  21
TORSDOF 4
ENDMDL
MODEL 7
REMARK VINA RESULT:   -11.396      3.559      6.244
REMARK INTER + INTRA:         -13.962
REMARK INTER:                 -13.524
REMARK INTRA:                  -0.438
REMARK UNBOUND:                 0.099
REMARK SMILES Cc1cccc(C(=O)N2Cc3cc(NC(=O)c4cccc(Cl)c4)ccc3CC2=O)c1
REMARK SMILES IDX 9 1 10 2 11 3 12 4 13 5 24 6 25 7 26 8 27 9 28 10 29 11 7 12
REMARK SMILES IDX 8 13 6 14 2 15 3 16 30 17 4 18 5 19 1 20 14 21 15 22 16 24
REMARK SMILES IDX 17 25 18 26 23 27 19 28 21 29 20 30 22 31
REMARK H PARENT 14 23
ROOT
ATOM      1  N   UNL     1      11.452 -56.061 -23.319  1.00  0.00    -0.274 N 
ATOM      2  C   UNL     1      10.790 -54.767 -23.299  1.00  0.00     0.164 C 
ATOM      3  C   UNL     1      11.659 -53.690 -23.883  1.00  0.00    -0.022 A 
ATOM      4  C   UNL     1      11.656 -52.379 -23.385  1.00  0.00     0.032 A 
ATOM      5  C   UNL     1      12.454 -51.389 -23.973  1.00  0.00     0.041 A 
ATOM      6  C   UNL     1      13.236 -51.723 -25.079  1.00  0.00     0.026 A 
ATOM      7  C   UNL     1      13.231 -53.026 -25.589  1.00  0.00     0.007 A 
ATOM      8  C   UNL     1      12.450 -54.015 -24.987  1.00  0.00    -0.033 A 
ATOM      9  C   UNL     1      12.389 -55.413 -25.537  1.00  0.00     0.136 C 
ATOM     10  C   UNL     1      12.008 -56.489 -24.525  1.00  0.00     0.234 C 
ATOM     11  O   UNL     1      12.205 -57.671 -24.811  1.00  0.00    -0.274 OA
ENDROOT
BRANCH   1  12
ATOM     12  C   UNL     1      10.960 -56.985 -22.394  1.00  0.00     0.260 C 
ATOM     13  O   UNL     1      11.459 -57.131 -21.277  1.00  0.00    -0.269 OA
BRANCH  12  14
ATOM     14  C   UNL     1       9.808 -57.847 -22.783  1.00  0.00     0.040 A 
ATOM     15  C   UNL     1       8.885 -60.085 -23.023  1.00  0.00    -0.050 A 
ATOM     16  C   UNL     1       7.733 -59.532 -23.597  1.00  0.00     0.003 A 
ATOM     17  C   UNL     1       9.929 -59.235 -22.636  1.00  0.00     0.017 A 
ATOM     18  C   UNL     1       7.617 -58.150 -23.764  1.00  0.00     0.001 A 
ATOM     19  C   UNL     1       8.654 -57.307 -23.364  1.00  0.00     0.014 A 
ATOM     20  C   UNL     1       9.025 -61.572 -22.882  1.00  0.00     0.044 C 
ENDBRANCH  12  14
ENDBRANCH   1  12
BRANCH   5  21
ATOM     21  N   UNL     1      12.397 -50.096 -23.410  1.00  0.00    -0.322 N 
ATOM     22  C   UNL     1      13.456 -49.339 -22.943  1.00  0.00     0.255 C 
ATOM     23  H   UNL     1      11.467 -49.721 -23.272  1.00  0.00     0.170 HD
ATOM     24  O   UNL     1      14.631 -49.682 -22.870  1.00  0.00    -0.269 OA
BRANCH  22  25
ATOM     25  C   UNL     1      13.089 -47.985 -22.444  1.00  0.00     0.041 A 
ATOM     26  C   UNL     1      14.068 -47.227 -21.785  1.00  0.00     0.014 A 
ATOM     27  C   UNL     1      11.813 -47.448 -22.647  1.00  0.00     0.034 A 
ATOM     28  C   UNL     1      13.766 -45.953 -21.305  1.00  0.00     0.002 A 
ATOM     29  C   UNL     1      11.521 -46.173 -22.164  1.00  0.00     0.041 A 
ATOM     30  C   UNL     1      12.488 -45.426 -21.491  1.00  0.00     0.020 A 
ATOM     31  Cl  UNL     1       9.950 -45.513 -22.406  1.00  0.00    -0.084 Cl
ENDBRANCH  22  25
ENDBRANCH   5  21
TORSDOF 4
ENDMDL
MODEL 8
REMARK VINA RESULT:   -10.991      4.415     11.201
REMARK INTER + INTRA:         -13.463
REMARK INTER:                 -12.886
REMARK INTRA:                  -0.577
REMARK UNBOUND:                 0.099
REMARK SMILES Cc1cccc(C(=O)N2Cc3cc(NC(=O)c4cccc(Cl)c4)ccc3CC2=O)c1
REMARK SMILES IDX 9 1 10 2 11 3 12 4 13 5 24 6 25 7 26 8 27 9 28 10 29 11 7 12
REMARK SMILES IDX 8 13 6 14 2 15 3 16 30 17 4 18 5 19 1 20 14 21 15 22 16 24
REMARK SMILES IDX 17 25 18 26 23 27 19 28 21 29 20 30 22 31
REMARK H PARENT 14 23
ROOT
ATOM      1  N   UNL     1      13.560 -48.954 -23.658  1.00  0.00    -0.274 N 
ATOM      2  C   UNL     1      13.167 -50.220 -24.256  1.00  0.00     0.164 C 
ATOM      3  C   UNL     1      12.163 -50.947 -23.408  1.00  0.00    -0.022 A 
ATOM      4  C   UNL     1      12.153 -52.345 -23.299  1.00  0.00     0.032 A 
ATOM      5  C   UNL     1      11.182 -52.996 -22.526  1.00  0.00     0.041 A 
ATOM      6  C   UNL     1      10.210 -52.230 -21.882  1.00  0.00     0.026 A 
ATOM      7  C   UNL     1      10.208 -50.836 -21.999  1.00  0.00     0.007 A 
ATOM      8  C   UNL     1      11.189 -50.190 -22.754  1.00  0.00    -0.033 A 
ATOM      9  C   UNL     1      11.187 -48.697 -22.935  1.00  0.00     0.136 C 
ATOM     10  C   UNL     1      12.548 -48.084 -23.253  1.00  0.00     0.234 C 
ATOM     11  O   UNL     1      12.692 -46.865 -23.139  1.00  0.00    -0.274 OA
ENDROOT
BRANCH   1  12
ATOM     12  C   UNL     1      14.794 -48.461 -24.088  1.00  0.00     0.260 C 
ATOM     13  O   UNL     1      15.741 -48.288 -23.320  1.00  0.00    -0.269 OA
BRANCH  12  14
ATOM     14  C   UNL     1      14.961 -48.101 -25.525  1.00  0.00     0.040 A 
ATOM     15  C   UNL     1      15.975 -48.598 -27.680  1.00  0.00    -0.050 A 
ATOM     16  C   UNL     1      15.409 -47.427 -28.199  1.00  0.00     0.003 A 
ATOM     17  C   UNL     1      15.762 -48.918 -26.333  1.00  0.00     0.017 A 
ATOM     18  C   UNL     1      14.626 -46.599 -27.392  1.00  0.00     0.001 A 
ATOM     19  C   UNL     1      14.405 -46.930 -26.055  1.00  0.00     0.014 A 
ATOM     20  C   UNL     1      16.849 -49.464 -28.537  1.00  0.00     0.044 C 
ENDBRANCH  12  14
ENDBRANCH   1  12
BRANCH   5  21
ATOM     21  N   UNL     1      11.245 -54.404 -22.466  1.00  0.00    -0.322 N 
ATOM     22  C   UNL     1      11.371 -55.283 -23.526  1.00  0.00     0.255 C 
ATOM     23  H   UNL     1      11.111 -54.808 -21.548  1.00  0.00     0.170 HD
ATOM     24  O   UNL     1      11.382 -55.001 -24.719  1.00  0.00    -0.269 OA
BRANCH  22  25
ATOM     25  C   UNL     1      11.458 -56.720 -23.146  1.00  0.00     0.041 A 
ATOM     26  C   UNL     1      11.144 -57.083 -21.828  1.00  0.00     0.014 A 
ATOM     27  C   UNL     1      11.810 -57.706 -24.074  1.00  0.00     0.034 A 
ATOM     28  C   UNL     1      11.211 -58.419 -21.432  1.00  0.00     0.002 A 
ATOM     29  C   UNL     1      11.873 -59.039 -23.669  1.00  0.00     0.041 A 
ATOM     30  C   UNL     1      11.581 -59.398 -22.353  1.00  0.00     0.020 A 
ATOM     31  Cl  UNL     1      12.312 -60.252 -24.806  1.00  0.00    -0.084 Cl
ENDBRANCH  22  25
ENDBRANCH   5  21
TORSDOF 4
ENDMDL
MODEL 9
REMARK VINA RESULT:   -10.983      4.184     11.018
REMARK INTER + INTRA:         -13.453
REMARK INTER:                 -12.822
REMARK INTRA:                  -0.631
REMARK UNBOUND:                 0.099
REMARK SMILES Cc1cccc(C(=O)N2Cc3cc(NC(=O)c4cccc(Cl)c4)ccc3CC2=O)c1
REMARK SMILES IDX 9 1 10 2 11 3 12 4 13 5 24 6 25 7 26 8 27 9 28 10 29 11 7 12
REMARK SMILES IDX 8 13 6 14 2 15 3 16 30 17 4 18 5 19 1 20 14 21 15 22 16 24
REMARK SMILES IDX 17 25 18 26 23 27 19 28 21 29 20 30 22 31
REMARK H PARENT 14 23
ROOT
ATOM      1  N   UNL     1      13.760 -49.554 -23.789  1.00  0.00    -0.274 N 
ATOM      2  C   UNL     1      13.117 -50.673 -24.459  1.00  0.00     0.164 C 
ATOM      3  C   UNL     1      12.108 -51.345 -23.572  1.00  0.00    -0.022 A 
ATOM      4  C   UNL     1      11.896 -52.731 -23.604  1.00  0.00     0.032 A 
ATOM      5  C   UNL     1      10.924 -53.324 -22.787  1.00  0.00     0.041 A 
ATOM      6  C   UNL     1      10.154 -52.510 -21.955  1.00  0.00     0.026 A 
ATOM      7  C   UNL     1      10.353 -51.125 -21.931  1.00  0.00     0.007 A 
ATOM      8  C   UNL     1      11.336 -50.540 -22.732  1.00  0.00    -0.033 A 
ATOM      9  C   UNL     1      11.545 -49.052 -22.760  1.00  0.00     0.136 C 
ATOM     10  C   UNL     1      12.942 -48.603 -23.179  1.00  0.00     0.234 C 
ATOM     11  O   UNL     1      13.283 -47.439 -22.962  1.00  0.00    -0.274 OA
ENDROOT
BRANCH   1  12
ATOM     12  C   UNL     1      15.003 -49.193 -24.315  1.00  0.00     0.260 C 
ATOM     13  O   UNL     1      16.027 -49.165 -23.632  1.00  0.00    -0.269 OA
BRANCH  12  14
ATOM     14  C   UNL     1      15.087 -48.797 -25.750  1.00  0.00     0.040 A 
ATOM     15  C   UNL     1      14.846 -47.059 -27.436  1.00  0.00    -0.050 A 
ATOM     16  C   UNL     1      15.116 -48.007 -28.430  1.00  0.00     0.003 A 
ATOM     17  C   UNL     1      14.814 -47.467 -26.096  1.00  0.00     0.017 A 
ATOM     18  C   UNL     1      15.369 -49.339 -28.091  1.00  0.00     0.001 A 
ATOM     19  C   UNL     1      15.350 -49.737 -26.754  1.00  0.00     0.014 A 
ATOM     20  C   UNL     1      14.534 -45.639 -27.804  1.00  0.00     0.044 C 
ENDBRANCH  12  14
ENDBRANCH   1  12
BRANCH   5  21
ATOM     21  N   UNL     1      10.775 -54.725 -22.876  1.00  0.00    -0.322 N 
ATOM     22  C   UNL     1      10.876 -55.645 -21.848  1.00  0.00     0.255 C 
ATOM     23  H   UNL     1      10.651 -55.092 -23.811  1.00  0.00     0.170 HD
ATOM     24  O   UNL     1      11.181 -55.416 -20.683  1.00  0.00    -0.269 OA
BRANCH  22  25
ATOM     25  C   UNL     1      10.621 -57.058 -22.241  1.00  0.00     0.041 A 
ATOM     26  C   UNL     1      11.379 -58.068 -21.634  1.00  0.00     0.014 A 
ATOM     27  C   UNL     1       9.628 -57.395 -23.169  1.00  0.00     0.034 A 
ATOM     28  C   UNL     1      11.169 -59.405 -21.972  1.00  0.00     0.002 A 
ATOM     29  C   UNL     1       9.425 -58.734 -23.500  1.00  0.00     0.041 A 
ATOM     30  C   UNL     1      10.193 -59.739 -22.911  1.00  0.00     0.020 A 
ATOM     31  Cl  UNL     1       8.211 -59.151 -24.645  1.00  0.00    -0.084 Cl
ENDBRANCH  22  25
ENDBRANCH   5  21
TORSDOF 4
ENDMDL
