MODEL 1
REMARK VINA RESULT:   -10.141      0.000      0.000
REMARK INTER + INTRA:         -11.126
REMARK INTER:                 -11.031
REMARK INTRA:                  -0.095
REMARK UNBOUND:                -0.095
REMARK SMILES CCC1=C[C@H]2Cc3nc4cc(Cl)ccc4c(N)c3[C@@H](C1)C2
REMARK SMILES IDX 3 1 4 2 5 3 6 4 7 5 8 6 9 7 10 8 11 9 12 10 13 11 14 12
REMARK SMILES IDX 15 13 16 14 18 15 19 16 20 17 21 18 2 19 1 20 17 21
REMARK H PARENT 17 22 17 23
ROOT
ATOM      1  C   UNL     1      10.138 -61.155 -24.548  1.00  0.00    -0.074 C 
ATOM      2  C   UNL     1      10.885 -60.804 -25.611  1.00  0.00    -0.024 C 
ATOM      3  C   UNL     1      12.296 -60.272 -25.492  1.00  0.00     0.018 C 
ATOM      4  C   UNL     1      12.312 -58.742 -25.601  1.00  0.00     0.064 C 
ATOM      5  C   UNL     1      11.881 -58.030 -24.338  1.00  0.00     0.047 A 
ATOM      6  N   UNL     1      11.697 -56.697 -24.475  1.00  0.00    -0.252 NA
ATOM      7  C   UNL     1      11.395 -55.968 -23.396  1.00  0.00     0.074 A 
ATOM      8  C   UNL     1      11.261 -54.599 -23.569  1.00  0.00     0.049 A 
ATOM      9  C   UNL     1      10.978 -53.758 -22.497  1.00  0.00     0.043 A 
ATOM     10  Cl  UNL     1      10.823 -52.064 -22.752  1.00  0.00    -0.084 Cl
ATOM     11  C   UNL     1      10.829 -54.280 -21.222  1.00  0.00     0.021 A 
ATOM     12  C   UNL     1      10.955 -55.655 -21.031  1.00  0.00     0.014 A 
ATOM     13  C   UNL     1      11.228 -56.531 -22.113  1.00  0.00     0.024 A 
ATOM     14  C   UNL     1      11.342 -57.945 -21.993  1.00  0.00     0.046 A 
ATOM     15  C   UNL     1      11.747 -58.700 -23.113  1.00  0.00     0.001 A 
ATOM     16  C   UNL     1      11.990 -60.204 -23.038  1.00  0.00     0.028 C 
ATOM     17  C   UNL     1      10.663 -60.996 -23.133  1.00  0.00     0.039 C 
ATOM     18  C   UNL     1      12.929 -60.670 -24.157  1.00  0.00     0.017 C 
ENDROOT
BRANCH   1  19
ATOM     19  C   UNL     1       8.729 -61.678 -24.703  1.00  0.00     0.027 C 
ATOM     20  C   UNL     1       8.547 -63.059 -24.089  1.00  0.00     0.008 C 
ENDBRANCH   1  19
BRANCH  14  21
ATOM     21  N   UNL     1      11.257 -58.561 -20.719  1.00  0.00    -0.398 N 
ATOM     22  H   UNL     1      11.739 -58.045 -19.990  1.00  0.00     0.156 HD
ATOM     23  H   UNL     1      10.313 -58.784 -20.427  1.00  0.00     0.156 HD
ENDBRANCH  14  21
TORSDOF 2
ENDMDL
MODEL 2
REMARK VINA RESULT:    -9.628      4.673      8.516
REMARK INTER + INTRA:         -10.567
REMARK INTER:                 -10.437
REMARK INTRA:                  -0.130
REMARK UNBOUND:                -0.095
REMARK SMILES CCC1=C[C@H]2Cc3nc4cc(Cl)ccc4c(N)c3[C@@H](C1)C2
REMARK SMILES IDX 3 1 4 2 5 3 6 4 7 5 8 6 9 7 10 8 11 9 12 10 13 11 14 12
REMARK SMILES IDX 15 13 16 14 18 15 19 16 20 17 21 18 2 19 1 20 17 21
REMARK H PARENT 17 22 17 23
ROOT
ATOM      1  C   UNL     1      15.860 -50.118 -24.009  1.00  0.00    -0.074 C 
ATOM      2  C   UNL     1      15.715 -50.462 -25.303  1.00  0.00    -0.024 C 
ATOM      3  C   UNL     1      14.419 -50.290 -26.065  1.00  0.00     0.018 C 
ATOM      4  C   UNL     1      13.653 -51.616 -26.140  1.00  0.00     0.064 C 
ATOM      5  C   UNL     1      12.918 -51.976 -24.867  1.00  0.00     0.047 A 
ATOM      6  N   UNL     1      12.405 -53.228 -24.846  1.00  0.00    -0.252 NA
ATOM      7  C   UNL     1      11.669 -53.611 -23.798  1.00  0.00     0.074 A 
ATOM      8  C   UNL     1      11.122 -54.885 -23.834  1.00  0.00     0.049 A 
ATOM      9  C   UNL     1      10.317 -55.357 -22.802  1.00  0.00     0.043 A 
ATOM     10  Cl  UNL     1       9.654 -56.941 -22.887  1.00  0.00    -0.084 Cl
ATOM     11  C   UNL     1      10.041 -54.551 -21.709  1.00  0.00     0.021 A 
ATOM     12  C   UNL     1      10.588 -53.270 -21.653  1.00  0.00     0.014 A 
ATOM     13  C   UNL     1      11.423 -52.776 -22.687  1.00  0.00     0.024 A 
ATOM     14  C   UNL     1      12.034 -51.489 -22.681  1.00  0.00     0.046 A 
ATOM     15  C   UNL     1      12.736 -51.056 -23.825  1.00  0.00     0.001 A 
ATOM     16  C   UNL     1      13.331 -49.656 -23.935  1.00  0.00     0.028 C 
ATOM     17  C   UNL     1      14.696 -49.565 -23.209  1.00  0.00     0.039 C 
ATOM     18  C   UNL     1      13.519 -49.247 -25.400  1.00  0.00     0.017 C 
ENDROOT
BRANCH   1  19
ATOM     19  C   UNL     1      17.168 -50.309 -23.277  1.00  0.00     0.027 C 
ATOM     20  C   UNL     1      17.130 -51.481 -22.307  1.00  0.00     0.008 C 
ENDBRANCH   1  19
BRANCH  14  21
ATOM     21  N   UNL     1      11.765 -50.578 -21.630  1.00  0.00    -0.398 N 
ATOM     22  H   UNL     1      11.097 -49.858 -21.882  1.00  0.00     0.156 HD
ATOM     23  H   UNL     1      11.496 -51.018 -20.757  1.00  0.00     0.156 HD
ENDBRANCH  14  21
TORSDOF 2
ENDMDL
MODEL 3
REMARK VINA RESULT:    -9.588      3.494      6.868
REMARK INTER + INTRA:         -10.524
REMARK INTER:                 -10.430
REMARK INTRA:                  -0.094
REMARK UNBOUND:                -0.095
REMARK SMILES CCC1=C[C@H]2Cc3nc4cc(Cl)ccc4c(N)c3[C@@H](C1)C2
REMARK SMILES IDX 3 1 4 2 5 3 6 4 7 5 8 6 9 7 10 8 11 9 12 10 13 11 14 12
REMARK SMILES IDX 15 13 16 14 18 15 19 16 20 17 21 18 2 19 1 20 17 21
REMARK H PARENT 17 22 17 23
ROOT
ATOM      1  C   UNL     1      10.785 -57.123 -22.859  1.00  0.00    -0.074 C 
ATOM      2  C   UNL     1      10.708 -57.771 -21.681  1.00  0.00    -0.024 C 
ATOM      3  C   UNL     1      11.385 -59.099 -21.420  1.00  0.00     0.018 C 
ATOM      4  C   UNL     1      10.385 -60.254 -21.556  1.00  0.00     0.064 C 
ATOM      5  C   UNL     1      10.074 -60.634 -22.987  1.00  0.00     0.047 A 
ATOM      6  N   UNL     1       9.052 -61.509 -23.129  1.00  0.00    -0.252 NA
ATOM      7  C   UNL     1       8.755 -61.968 -24.349  1.00  0.00     0.074 A 
ATOM      8  C   UNL     1       7.731 -62.899 -24.448  1.00  0.00     0.049 A 
ATOM      9  C   UNL     1       7.373 -63.454 -25.672  1.00  0.00     0.043 A 
ATOM     10  Cl  UNL     1       6.101 -64.609 -25.753  1.00  0.00    -0.084 Cl
ATOM     11  C   UNL     1       8.045 -63.086 -26.827  1.00  0.00     0.021 A 
ATOM     12  C   UNL     1       9.072 -62.147 -26.747  1.00  0.00     0.014 A 
ATOM     13  C   UNL     1       9.442 -61.558 -25.511  1.00  0.00     0.024 A 
ATOM     14  C   UNL     1      10.462 -60.575 -25.362  1.00  0.00     0.046 A 
ATOM     15  C   UNL     1      10.832 -60.159 -24.066  1.00  0.00     0.001 A 
ATOM     16  C   UNL     1      11.982 -59.188 -23.820  1.00  0.00     0.028 C 
ATOM     17  C   UNL     1      11.537 -57.720 -24.035  1.00  0.00     0.039 C 
ATOM     18  C   UNL     1      12.537 -59.336 -22.398  1.00  0.00     0.017 C 
ENDROOT
BRANCH   1  19
ATOM     19  C   UNL     1      10.092 -55.801 -23.087  1.00  0.00     0.027 C 
ATOM     20  C   UNL     1      10.607 -54.704 -22.166  1.00  0.00     0.008 C 
ENDBRANCH   1  19
BRANCH  14  21
ATOM     21  N   UNL     1      11.236 -60.177 -26.480  1.00  0.00    -0.398 N 
ATOM     22  H   UNL     1      11.440 -59.184 -26.496  1.00  0.00     0.156 HD
ATOM     23  H   UNL     1      12.086 -60.714 -26.610  1.00  0.00     0.156 HD
ENDBRANCH  14  21
TORSDOF 2
ENDMDL
MODEL 4
REMARK VINA RESULT:    -9.344      2.252      2.883
REMARK INTER + INTRA:         -10.259
REMARK INTER:                 -10.145
REMARK INTRA:                  -0.114
REMARK UNBOUND:                -0.095
REMARK SMILES CCC1=C[C@H]2Cc3nc4cc(Cl)ccc4c(N)c3[C@@H](C1)C2
REMARK SMILES IDX 3 1 4 2 5 3 6 4 7 5 8 6 9 7 10 8 11 9 12 10 13 11 14 12
REMARK SMILES IDX 15 13 16 14 18 15 19 16 20 17 21 18 2 19 1 20 17 21
REMARK H PARENT 17 22 17 23
ROOT
ATOM      1  C   UNL     1       9.067 -59.088 -23.808  1.00  0.00    -0.074 C 
ATOM      2  C   UNL     1      10.070 -59.680 -24.484  1.00  0.00    -0.024 C 
ATOM      3  C   UNL     1      11.518 -59.605 -24.052  1.00  0.00     0.018 C 
ATOM      4  C   UNL     1      12.271 -58.537 -24.854  1.00  0.00     0.064 C 
ATOM      5  C   UNL     1      12.006 -57.120 -24.394  1.00  0.00     0.047 A 
ATOM      6  N   UNL     1      12.499 -56.160 -25.209  1.00  0.00    -0.252 NA
ATOM      7  C   UNL     1      12.387 -54.879 -24.845  1.00  0.00     0.074 A 
ATOM      8  C   UNL     1      12.947 -53.927 -25.684  1.00  0.00     0.049 A 
ATOM      9  C   UNL     1      12.905 -52.572 -25.371  1.00  0.00     0.043 A 
ATOM     10  Cl  UNL     1      13.614 -51.422 -26.436  1.00  0.00    -0.084 Cl
ATOM     11  C   UNL     1      12.301 -52.146 -24.199  1.00  0.00     0.021 A 
ATOM     12  C   UNL     1      11.728 -53.088 -23.347  1.00  0.00     0.014 A 
ATOM     13  C   UNL     1      11.746 -54.472 -23.656  1.00  0.00     0.024 A 
ATOM     14  C   UNL     1      11.158 -55.484 -22.844  1.00  0.00     0.046 A 
ATOM     15  C   UNL     1      11.354 -56.839 -23.184  1.00  0.00     0.001 A 
ATOM     16  C   UNL     1      10.843 -57.981 -22.312  1.00  0.00     0.028 C 
ATOM     17  C   UNL     1       9.341 -58.257 -22.567  1.00  0.00     0.039 C 
ATOM     18  C   UNL     1      11.636 -59.268 -22.564  1.00  0.00     0.017 C 
ENDROOT
BRANCH   1  19
ATOM     19  C   UNL     1       7.632 -59.177 -24.271  1.00  0.00     0.027 C 
ATOM     20  C   UNL     1       6.648 -58.670 -23.227  1.00  0.00     0.008 C 
ENDBRANCH   1  19
BRANCH  14  21
ATOM     21  N   UNL     1      10.565 -55.146 -21.603  1.00  0.00    -0.398 N 
ATOM     22  H   UNL     1      11.242 -54.963 -20.870  1.00  0.00     0.156 HD
ATOM     23  H   UNL     1       9.891 -54.391 -21.655  1.00  0.00     0.156 HD
ENDBRANCH  14  21
TORSDOF 2
ENDMDL
MODEL 5
REMARK VINA RESULT:    -9.332      4.287      5.997
REMARK INTER + INTRA:         -10.245
REMARK INTER:                 -10.115
REMARK INTRA:                  -0.130
REMARK UNBOUND:                -0.095
REMARK SMILES CCC1=C[C@H]2Cc3nc4cc(Cl)ccc4c(N)c3[C@@H](C1)C2
REMARK SMILES IDX 3 1 4 2 5 3 6 4 7 5 8 6 9 7 10 8 11 9 12 10 13 11 14 12
REMARK SMILES IDX 15 13 16 14 18 15 19 16 20 17 21 18 2 19 1 20 17 21
REMARK H PARENT 17 22 17 23
ROOT
ATOM      1  C   UNL     1       7.252 -60.747 -23.123  1.00  0.00    -0.074 C 
ATOM      2  C   UNL     1       6.819 -61.846 -23.769  1.00  0.00    -0.024 C 
ATOM      3  C   UNL     1       7.729 -62.991 -24.157  1.00  0.00     0.018 C 
ATOM      4  C   UNL     1       8.134 -62.888 -25.632  1.00  0.00     0.064 C 
ATOM      5  C   UNL     1       9.216 -61.866 -25.905  1.00  0.00     0.047 A 
ATOM      6  N   UNL     1       9.443 -61.620 -27.215  1.00  0.00    -0.252 NA
ATOM      7  C   UNL     1      10.436 -60.794 -27.558  1.00  0.00     0.074 A 
ATOM      8  C   UNL     1      10.669 -60.603 -28.912  1.00  0.00     0.049 A 
ATOM      9  C   UNL     1      11.699 -59.784 -29.362  1.00  0.00     0.043 A 
ATOM     10  Cl  UNL     1      11.958 -59.577 -31.050  1.00  0.00    -0.084 Cl
ATOM     11  C   UNL     1      12.526 -59.142 -28.454  1.00  0.00     0.021 A 
ATOM     12  C   UNL     1      12.303 -59.317 -27.089  1.00  0.00     0.014 A 
ATOM     13  C   UNL     1      11.248 -60.135 -26.610  1.00  0.00     0.024 A 
ATOM     14  C   UNL     1      10.949 -60.336 -25.232  1.00  0.00     0.046 A 
ATOM     15  C   UNL     1       9.960 -61.275 -24.873  1.00  0.00     0.001 A 
ATOM     16  C   UNL     1       9.653 -61.620 -23.420  1.00  0.00     0.028 C 
ATOM     17  C   UNL     1       8.718 -60.567 -22.775  1.00  0.00     0.039 C 
ATOM     18  C   UNL     1       9.000 -63.002 -23.305  1.00  0.00     0.017 C 
ENDROOT
BRANCH   1  19
ATOM     19  C   UNL     1       6.316 -59.619 -22.756  1.00  0.00     0.027 C 
ATOM     20  C   UNL     1       6.734 -58.289 -23.368  1.00  0.00     0.008 C 
ENDBRANCH   1  19
BRANCH  14  21
ATOM     21  N   UNL     1      11.773 -59.760 -24.234  1.00  0.00    -0.398 N 
ATOM     22  H   UNL     1      12.009 -58.791 -24.417  1.00  0.00     0.156 HD
ATOM     23  H   UNL     1      11.418 -59.864 -23.290  1.00  0.00     0.156 HD
ENDBRANCH  14  21
TORSDOF 2
ENDMDL
MODEL 6
REMARK VINA RESULT:    -8.788      3.323      6.039
REMARK INTER + INTRA:          -9.653
REMARK INTER:                  -9.532
REMARK INTRA:                  -0.122
REMARK UNBOUND:                -0.095
REMARK SMILES CCC1=C[C@H]2Cc3nc4cc(Cl)ccc4c(N)c3[C@@H](C1)C2
REMARK SMILES IDX 3 1 4 2 5 3 6 4 7 5 8 6 9 7 10 8 11 9 12 10 13 11 14 12
REMARK SMILES IDX 15 13 16 14 18 15 19 16 20 17 21 18 2 19 1 20 17 21
REMARK H PARENT 17 22 17 23
ROOT
ATOM      1  C   UNL     1      10.690 -57.671 -22.046  1.00  0.00    -0.074 C 
ATOM      2  C   UNL     1       9.405 -57.948 -22.339  1.00  0.00    -0.024 C 
ATOM      3  C   UNL     1       8.923 -59.328 -22.729  1.00  0.00     0.018 C 
ATOM      4  C   UNL     1       8.777 -59.442 -24.252  1.00  0.00     0.064 C 
ATOM      5  C   UNL     1      10.088 -59.635 -24.983  1.00  0.00     0.047 A 
ATOM      6  N   UNL     1      10.002 -59.538 -26.330  1.00  0.00    -0.252 NA
ATOM      7  C   UNL     1      11.090 -59.774 -27.069  1.00  0.00     0.074 A 
ATOM      8  C   UNL     1      10.951 -59.711 -28.448  1.00  0.00     0.049 A 
ATOM      9  C   UNL     1      12.022 -59.972 -29.296  1.00  0.00     0.043 A 
ATOM     10  Cl  UNL     1      11.808 -59.887 -31.000  1.00  0.00    -0.084 Cl
ATOM     11  C   UNL     1      13.261 -60.309 -28.772  1.00  0.00     0.021 A 
ATOM     12  C   UNL     1      13.420 -60.371 -27.388  1.00  0.00     0.014 A 
ATOM     13  C   UNL     1      12.345 -60.093 -26.506  1.00  0.00     0.024 A 
ATOM     14  C   UNL     1      12.445 -60.113 -25.086  1.00  0.00     0.046 A 
ATOM     15  C   UNL     1      11.277 -59.951 -24.312  1.00  0.00     0.001 A 
ATOM     16  C   UNL     1      11.286 -60.060 -22.790  1.00  0.00     0.028 C 
ATOM     17  C   UNL     1      11.762 -58.741 -22.133  1.00  0.00     0.039 C 
ATOM     18  C   UNL     1       9.894 -60.410 -22.252  1.00  0.00     0.017 C 
ENDROOT
BRANCH   1  19
ATOM     19  C   UNL     1      11.137 -56.280 -21.665  1.00  0.00     0.027 C 
ATOM     20  C   UNL     1      11.093 -55.310 -22.837  1.00  0.00     0.008 C 
ENDBRANCH   1  19
BRANCH  14  21
ATOM     21  N   UNL     1      13.658 -60.498 -24.463  1.00  0.00    -0.398 N 
ATOM     22  H   UNL     1      13.857 -61.489 -24.548  1.00  0.00     0.156 HD
ATOM     23  H   UNL     1      14.463 -59.951 -24.747  1.00  0.00     0.156 HD
ENDBRANCH  14  21
TORSDOF 2
ENDMDL
MODEL 7
REMARK VINA RESULT:    -8.739      1.711      2.544
REMARK INTER + INTRA:          -9.600
REMARK INTER:                  -9.503
REMARK INTRA:                  -0.097
REMARK UNBOUND:                -0.095
REMARK SMILES CCC1=C[C@H]2Cc3nc4cc(Cl)ccc4c(N)c3[C@@H](C1)C2
REMARK SMILES IDX 3 1 4 2 5 3 6 4 7 5 8 6 9 7 10 8 11 9 12 10 13 11 14 12
REMARK SMILES IDX 15 13 16 14 18 15 19 16 20 17 21 18 2 19 1 20 17 21
REMARK H PARENT 17 22 17 23
ROOT
ATOM      1  C   UNL     1       9.188 -62.765 -23.574  1.00  0.00    -0.074 C 
ATOM      2  C   UNL     1       8.363 -62.379 -24.565  1.00  0.00    -0.024 C 
ATOM      3  C   UNL     1       8.806 -61.505 -25.718  1.00  0.00     0.018 C 
ATOM      4  C   UNL     1       8.399 -60.046 -25.482  1.00  0.00     0.064 C 
ATOM      5  C   UNL     1       9.294 -59.307 -24.511  1.00  0.00     0.047 A 
ATOM      6  N   UNL     1       8.838 -58.089 -24.138  1.00  0.00    -0.252 NA
ATOM      7  C   UNL     1       9.598 -57.325 -23.347  1.00  0.00     0.074 A 
ATOM      8  C   UNL     1       9.118 -56.064 -23.026  1.00  0.00     0.049 A 
ATOM      9  C   UNL     1       9.854 -55.190 -22.233  1.00  0.00     0.043 A 
ATOM     10  Cl  UNL     1       9.226 -53.632 -21.860  1.00  0.00    -0.084 Cl
ATOM     11  C   UNL     1      11.098 -55.566 -21.749  1.00  0.00     0.021 A 
ATOM     12  C   UNL     1      11.593 -56.832 -22.057  1.00  0.00     0.014 A 
ATOM     13  C   UNL     1      10.851 -57.744 -22.851  1.00  0.00     0.024 A 
ATOM     14  C   UNL     1      11.285 -59.059 -23.181  1.00  0.00     0.046 A 
ATOM     15  C   UNL     1      10.524 -59.828 -24.086  1.00  0.00     0.001 A 
ATOM     16  C   UNL     1      10.975 -61.203 -24.567  1.00  0.00     0.028 C 
ATOM     17  C   UNL     1      10.633 -62.303 -23.531  1.00  0.00     0.039 C 
ATOM     18  C   UNL     1      10.323 -61.563 -25.907  1.00  0.00     0.017 C 
ENDROOT
BRANCH   1  19
ATOM     19  C   UNL     1       8.711 -63.633 -22.434  1.00  0.00     0.027 C 
ATOM     20  C   UNL     1       7.676 -64.659 -22.873  1.00  0.00     0.008 C 
ENDBRANCH   1  19
BRANCH  14  21
ATOM     21  N   UNL     1      12.566 -59.510 -22.774  1.00  0.00    -0.398 N 
ATOM     22  H   UNL     1      13.150 -58.772 -22.395  1.00  0.00     0.156 HD
ATOM     23  H   UNL     1      12.547 -60.303 -22.143  1.00  0.00     0.156 HD
ENDBRANCH  14  21
TORSDOF 2
ENDMDL
MODEL 8
REMARK VINA RESULT:    -8.704      5.531     10.373
REMARK INTER + INTRA:          -9.562
REMARK INTER:                  -9.456
REMARK INTRA:                  -0.106
REMARK UNBOUND:                -0.095
REMARK SMILES CCC1=C[C@H]2Cc3nc4cc(Cl)ccc4c(N)c3[C@@H](C1)C2
REMARK SMILES IDX 3 1 4 2 5 3 6 4 7 5 8 6 9 7 10 8 11 9 12 10 13 11 14 12
REMARK SMILES IDX 15 13 16 14 18 15 19 16 20 17 21 18 2 19 1 20 17 21
REMARK H PARENT 17 22 17 23
ROOT
ATOM      1  C   UNL     1      13.041 -46.863 -21.810  1.00  0.00    -0.074 C 
ATOM      2  C   UNL     1      13.767 -47.060 -22.927  1.00  0.00    -0.024 C 
ATOM      3  C   UNL     1      13.152 -47.437 -24.257  1.00  0.00     0.018 C 
ATOM      4  C   UNL     1      13.278 -48.944 -24.506  1.00  0.00     0.064 C 
ATOM      5  C   UNL     1      12.272 -49.780 -23.745  1.00  0.00     0.047 A 
ATOM      6  N   UNL     1      12.494 -51.114 -23.795  1.00  0.00    -0.252 NA
ATOM      7  C   UNL     1      11.613 -51.940 -23.222  1.00  0.00     0.074 A 
ATOM      8  C   UNL     1      11.850 -53.303 -23.335  1.00  0.00     0.049 A 
ATOM      9  C   UNL     1      10.972 -54.237 -22.796  1.00  0.00     0.043 A 
ATOM     10  Cl  UNL     1      11.299 -55.918 -22.961  1.00  0.00    -0.084 Cl
ATOM     11  C   UNL     1       9.828 -53.818 -22.134  1.00  0.00     0.021 A 
ATOM     12  C   UNL     1       9.577 -52.453 -22.006  1.00  0.00     0.014 A 
ATOM     13  C   UNL     1      10.468 -51.484 -22.534  1.00  0.00     0.024 A 
ATOM     14  C   UNL     1      10.287 -50.077 -22.417  1.00  0.00     0.046 A 
ATOM     15  C   UNL     1      11.168 -49.210 -23.096  1.00  0.00     0.001 A 
ATOM     16  C   UNL     1      10.980 -47.697 -23.102  1.00  0.00     0.028 C 
ATOM     17  C   UNL     1      11.536 -47.054 -21.808  1.00  0.00     0.039 C 
ATOM     18  C   UNL     1      11.671 -47.057 -24.312  1.00  0.00     0.017 C 
ENDROOT
BRANCH   1  19
ATOM     19  C   UNL     1      13.688 -46.493 -20.496  1.00  0.00     0.027 C 
ATOM     20  C   UNL     1      15.179 -46.218 -20.634  1.00  0.00     0.008 C 
ENDBRANCH   1  19
BRANCH  14  21
ATOM     21  N   UNL     1       9.120 -49.559 -21.802  1.00  0.00    -0.398 N 
ATOM     22  H   UNL     1       9.304 -49.084 -20.925  1.00  0.00     0.156 HD
ATOM     23  H   UNL     1       8.555 -48.974 -22.407  1.00  0.00     0.156 HD
ENDBRANCH  14  21
TORSDOF 2
ENDMDL
MODEL 9
REMARK VINA RESULT:    -8.436      3.697      6.680
REMARK INTER + INTRA:          -9.271
REMARK INTER:                  -9.161
REMARK INTRA:                  -0.110
REMARK UNBOUND:                -0.095
REMARK SMILES CCC1=C[C@H]2Cc3nc4cc(Cl)ccc4c(N)c3[C@@H](C1)C2
REMARK SMILES IDX 3 1 4 2 5 3 6 4 7 5 8 6 9 7 10 8 11 9 12 10 13 11 14 12
REMARK SMILES IDX 15 13 16 14 18 15 19 16 20 17 21 18 2 19 1 20 17 21
REMARK H PARENT 17 22 17 23
ROOT
ATOM      1  C   UNL     1      10.873 -55.487 -21.878  1.00  0.00    -0.074 C 
ATOM      2  C   UNL     1      10.443 -54.480 -21.095  1.00  0.00    -0.024 C 
ATOM      3  C   UNL     1       9.908 -53.175 -21.642  1.00  0.00     0.018 C 
ATOM      4  C   UNL     1      10.986 -52.085 -21.601  1.00  0.00     0.064 C 
ATOM      5  C   UNL     1      12.011 -52.191 -22.709  1.00  0.00     0.047 A 
ATOM      6  N   UNL     1      13.075 -51.366 -22.575  1.00  0.00    -0.252 NA
ATOM      7  C   UNL     1      13.993 -51.327 -23.545  1.00  0.00     0.074 A 
ATOM      8  C   UNL     1      15.045 -50.435 -23.393  1.00  0.00     0.049 A 
ATOM      9  C   UNL     1      16.030 -50.305 -24.366  1.00  0.00     0.043 A 
ATOM     10  Cl  UNL     1      17.315 -49.184 -24.142  1.00  0.00    -0.084 Cl
ATOM     11  C   UNL     1      15.975 -51.070 -25.520  1.00  0.00     0.021 A 
ATOM     12  C   UNL     1      14.929 -51.976 -25.688  1.00  0.00     0.014 A 
ATOM     13  C   UNL     1      13.923 -52.135 -24.701  1.00  0.00     0.024 A 
ATOM     14  C   UNL     1      12.843 -53.059 -24.795  1.00  0.00     0.046 A 
ATOM     15  C   UNL     1      11.830 -53.035 -23.814  1.00  0.00     0.001 A 
ATOM     16  C   UNL     1      10.592 -53.922 -23.900  1.00  0.00     0.028 C 
ATOM     17  C   UNL     1      10.887 -55.354 -23.390  1.00  0.00     0.039 C 
ATOM     18  C   UNL     1       9.432 -53.334 -23.088  1.00  0.00     0.017 C 
ENDROOT
BRANCH   1  19
ATOM     19  C   UNL     1      11.407 -56.775 -21.298  1.00  0.00     0.027 C 
ATOM     20  C   UNL     1      11.398 -57.918 -22.303  1.00  0.00     0.008 C 
ENDBRANCH   1  19
BRANCH  14  21
ATOM     21  N   UNL     1      12.679 -53.843 -25.963  1.00  0.00    -0.398 N 
ATOM     22  H   UNL     1      12.003 -53.458 -26.615  1.00  0.00     0.156 HD
ATOM     23  H   UNL     1      13.544 -54.064 -26.442  1.00  0.00     0.156 HD
ENDBRANCH  14  21
TORSDOF 2
ENDMDL
