MODEL 1
REMARK VINA RESULT:   -12.274      0.000      0.000
REMARK INTER + INTRA:         -16.726
REMARK INTER:                 -16.580
REMARK INTRA:                  -0.146
REMARK UNBOUND:                -0.146
REMARK SMILES COc1cc2c(cc1OC)C(=O)[C@H](C[C@H]1CC[N@H+](Cc3ccccc3)CC1)C2
REMARK SMILES IDX 14 1 15 2 17 3 18 4 16 5 26 6 27 7 19 9 20 10 21 11 25 12
REMARK SMILES IDX 22 13 24 14 23 15 13 16 11 17 28 18 6 19 5 20 7 21 4 22 8 23
REMARK SMILES IDX 3 24 12 25 9 26 10 27 2 28 1 29
REMARK H PARENT 18 8
ROOT
ATOM      1  C   UNL     1      11.174 -56.240 -21.808  1.00  0.00     0.016 C 
ENDROOT
BRANCH   1   2
ATOM      2  C   UNL     1      10.830 -57.603 -22.442  1.00  0.00     0.001 C 
ATOM      3  C   UNL     1      10.768 -60.120 -22.097  1.00  0.00     0.262 C 
ATOM      4  N   UNL     1      11.712 -60.282 -23.256  1.00  0.00    -0.331 N 
ATOM      5  C   UNL     1      10.978 -58.760 -21.443  1.00  0.00     0.065 C 
ATOM      6  C   UNL     1      11.517 -59.207 -24.297  1.00  0.00     0.262 C 
ATOM      7  C   UNL     1      11.740 -57.842 -23.659  1.00  0.00     0.065 C 
ATOM      8  H   UNL     1      12.671 -60.185 -22.899  1.00  0.00     0.348 HD
BRANCH   4   9
ATOM      9  C   UNL     1      11.632 -61.680 -23.841  1.00  0.00     0.299 C 
BRANCH   9  10
ATOM     10  C   UNL     1      10.250 -62.270 -23.771  1.00  0.00     0.006 A 
ATOM     11  C   UNL     1       9.313 -62.013 -24.782  1.00  0.00     0.009 A 
ATOM     12  C   UNL     1       9.885 -63.102 -22.700  1.00  0.00     0.009 A 
ATOM     13  C   UNL     1       8.040 -62.584 -24.727  1.00  0.00     0.001 A 
ATOM     14  C   UNL     1       8.612 -63.670 -22.650  1.00  0.00     0.001 A 
ATOM     15  C   UNL     1       7.691 -63.413 -23.664  1.00  0.00     0.000 A 
ENDBRANCH   9  10
ENDBRANCH   4   9
ENDBRANCH   1   2
BRANCH   1  16
ATOM     16  C   UNL     1      10.652 -55.017 -22.571  1.00  0.00     0.066 C 
ATOM     17  C   UNL     1      10.687 -53.783 -21.687  1.00  0.00     0.166 C 
ATOM     18  C   UNL     1      11.503 -54.635 -23.804  1.00  0.00     0.048 C 
ATOM     19  C   UNL     1      11.339 -52.694 -22.398  1.00  0.00     0.025 A 
ATOM     20  C   UNL     1      11.787 -53.178 -23.621  1.00  0.00    -0.033 A 
ATOM     21  C   UNL     1      11.508 -51.383 -21.998  1.00  0.00     0.062 A 
ATOM     22  C   UNL     1      12.450 -52.329 -24.495  1.00  0.00     0.055 A 
ATOM     23  C   UNL     1      12.153 -50.521 -22.887  1.00  0.00     0.161 A 
ATOM     24  C   UNL     1      12.661 -50.995 -24.114  1.00  0.00     0.161 A 
ATOM     25  O   UNL     1      10.228 -53.696 -20.562  1.00  0.00    -0.294 OA
BRANCH  23  26
ATOM     26  O   UNL     1      12.296 -49.215 -22.497  1.00  0.00    -0.493 OA
ATOM     27  C   UNL     1      11.126 -48.470 -22.849  1.00  0.00     0.278 C 
ENDBRANCH  23  26
BRANCH  24  28
ATOM     28  O   UNL     1      13.330 -50.235 -25.036  1.00  0.00    -0.493 OA
ATOM     29  C   UNL     1      13.860 -50.979 -26.131  1.00  0.00     0.278 C 
ENDBRANCH  24  28
ENDBRANCH   1  16
TORSDOF 6
ENDMDL
MODEL 2
REMARK VINA RESULT:   -11.800      1.285      2.578
REMARK INTER + INTRA:         -16.085
REMARK INTER:                 -15.576
REMARK INTRA:                  -0.510
REMARK UNBOUND:                -0.146
REMARK SMILES COc1cc2c(cc1OC)C(=O)[C@H](C[C@H]1CC[N@H+](Cc3ccccc3)CC1)C2
REMARK SMILES IDX 14 1 15 2 17 3 18 4 16 5 26 6 27 7 19 9 20 10 21 11 25 12
REMARK SMILES IDX 22 13 24 14 23 15 13 16 11 17 28 18 6 19 5 20 7 21 4 22 8 23
REMARK SMILES IDX 3 24 12 25 9 26 10 27 2 28 1 29
REMARK H PARENT 18 8
ROOT
ATOM      1  C   UNL     1       9.847 -56.018 -23.011  1.00  0.00     0.016 C 
ENDROOT
BRANCH   1   2
ATOM      2  C   UNL     1       9.998 -57.509 -22.649  1.00  0.00     0.001 C 
ATOM      3  C   UNL     1      11.515 -59.546 -22.739  1.00  0.00     0.262 C 
ATOM      4  N   UNL     1      10.463 -60.269 -23.535  1.00  0.00    -0.331 N 
ATOM      5  C   UNL     1      11.401 -58.045 -22.972  1.00  0.00     0.065 C 
ATOM      6  C   UNL     1       9.070 -59.824 -23.163  1.00  0.00     0.262 C 
ATOM      7  C   UNL     1       8.937 -58.327 -23.406  1.00  0.00     0.065 C 
ATOM      8  H   UNL     1      10.599 -60.035 -24.526  1.00  0.00     0.348 HD
BRANCH   4   9
ATOM      9  C   UNL     1      10.638 -61.773 -23.442  1.00  0.00     0.299 C 
BRANCH   9  10
ATOM     10  C   UNL     1       9.435 -62.538 -23.924  1.00  0.00     0.006 A 
ATOM     11  C   UNL     1       8.761 -63.420 -23.067  1.00  0.00     0.009 A 
ATOM     12  C   UNL     1       8.960 -62.365 -25.234  1.00  0.00     0.009 A 
ATOM     13  C   UNL     1       7.630 -64.108 -23.509  1.00  0.00     0.001 A 
ATOM     14  C   UNL     1       7.829 -63.055 -25.671  1.00  0.00     0.001 A 
ATOM     15  C   UNL     1       7.164 -63.924 -24.808  1.00  0.00     0.000 A 
ENDBRANCH   9  10
ENDBRANCH   4   9
ENDBRANCH   1   2
BRANCH   1  16
ATOM     16  C   UNL     1      11.055 -55.139 -22.667  1.00  0.00     0.066 C 
ATOM     17  C   UNL     1      11.692 -54.591 -23.932  1.00  0.00     0.166 C 
ATOM     18  C   UNL     1      10.704 -53.884 -21.835  1.00  0.00     0.048 C 
ATOM     19  C   UNL     1      11.879 -53.154 -23.798  1.00  0.00     0.025 A 
ATOM     20  C   UNL     1      11.332 -52.754 -22.586  1.00  0.00    -0.033 A 
ATOM     21  C   UNL     1      12.495 -52.281 -24.673  1.00  0.00     0.062 A 
ATOM     22  C   UNL     1      11.381 -51.417 -22.218  1.00  0.00     0.055 A 
ATOM     23  C   UNL     1      12.567 -50.940 -24.293  1.00  0.00     0.161 A 
ATOM     24  C   UNL     1      11.977 -50.496 -23.091  1.00  0.00     0.161 A 
ATOM     25  O   UNL     1      12.020 -55.242 -24.908  1.00  0.00    -0.294 OA
BRANCH  23  26
ATOM     26  O   UNL     1      13.200 -50.080 -25.153  1.00  0.00    -0.493 OA
ATOM     27  C   UNL     1      13.942 -50.822 -26.126  1.00  0.00     0.278 C 
ENDBRANCH  23  26
BRANCH  24  28
ATOM     28  O   UNL     1      11.972 -49.199 -22.649  1.00  0.00    -0.493 OA
ATOM     29  C   UNL     1      10.700 -48.558 -22.740  1.00  0.00     0.278 C 
ENDBRANCH  24  28
ENDBRANCH   1  16
TORSDOF 6
ENDMDL
MODEL 3
REMARK VINA RESULT:   -11.270      1.589      2.724
REMARK INTER + INTRA:         -15.369
REMARK INTER:                 -14.565
REMARK INTRA:                  -0.804
REMARK UNBOUND:                -0.146
REMARK SMILES COc1cc2c(cc1OC)C(=O)[C@H](C[C@H]1CC[N@H+](Cc3ccccc3)CC1)C2
REMARK SMILES IDX 14 1 15 2 17 3 18 4 16 5 26 6 27 7 19 9 20 10 21 11 25 12
REMARK SMILES IDX 22 13 24 14 23 15 13 16 11 17 28 18 6 19 5 20 7 21 4 22 8 23
REMARK SMILES IDX 3 24 12 25 9 26 10 27 2 28 1 29
REMARK H PARENT 18 8
ROOT
ATOM      1  C   UNL     1       9.688 -55.472 -23.089  1.00  0.00     0.016 C 
ENDROOT
BRANCH   1   2
ATOM      2  C   UNL     1       9.677 -56.977 -22.756  1.00  0.00     0.001 C 
ATOM      3  C   UNL     1      10.942 -59.175 -22.937  1.00  0.00     0.262 C 
ATOM      4  N   UNL     1       9.783 -59.755 -23.702  1.00  0.00    -0.331 N 
ATOM      5  C   UNL     1      10.995 -57.666 -23.142  1.00  0.00     0.065 C 
ATOM      6  C   UNL     1       8.467 -59.158 -23.268  1.00  0.00     0.262 C 
ATOM      7  C   UNL     1       8.501 -57.651 -23.483  1.00  0.00     0.065 C 
ATOM      8  H   UNL     1       9.909 -59.518 -24.694  1.00  0.00     0.348 HD
BRANCH   4   9
ATOM      9  C   UNL     1       9.785 -61.270 -23.639  1.00  0.00     0.299 C 
BRANCH   9  10
ATOM     10  C   UNL     1       9.149 -61.911 -24.842  1.00  0.00     0.006 A 
ATOM     11  C   UNL     1       9.597 -61.602 -26.135  1.00  0.00     0.009 A 
ATOM     12  C   UNL     1       8.109 -62.842 -24.686  1.00  0.00     0.009 A 
ATOM     13  C   UNL     1       9.022 -62.219 -27.248  1.00  0.00     0.001 A 
ATOM     14  C   UNL     1       7.537 -63.455 -25.801  1.00  0.00     0.001 A 
ATOM     15  C   UNL     1       7.995 -63.145 -27.081  1.00  0.00     0.000 A 
ENDBRANCH   9  10
ENDBRANCH   4   9
ENDBRANCH   1   2
BRANCH   1  16
ATOM     16  C   UNL     1      10.989 -54.738 -22.741  1.00  0.00     0.066 C 
ATOM     17  C   UNL     1      11.629 -54.170 -23.996  1.00  0.00     0.166 C 
ATOM     18  C   UNL     1      10.793 -53.515 -21.817  1.00  0.00     0.048 C 
ATOM     19  C   UNL     1      11.962 -52.769 -23.779  1.00  0.00     0.025 A 
ATOM     20  C   UNL     1      11.502 -52.401 -22.521  1.00  0.00    -0.033 A 
ATOM     21  C   UNL     1      12.628 -51.902 -24.622  1.00  0.00     0.062 A 
ATOM     22  C   UNL     1      11.695 -51.103 -22.072  1.00  0.00     0.055 A 
ATOM     23  C   UNL     1      12.845 -50.602 -24.162  1.00  0.00     0.161 A 
ATOM     24  C   UNL     1      12.346 -50.186 -22.909  1.00  0.00     0.161 A 
ATOM     25  O   UNL     1      11.855 -54.782 -25.024  1.00  0.00    -0.294 OA
BRANCH  23  26
ATOM     26  O   UNL     1      13.528 -49.752 -24.991  1.00  0.00    -0.493 OA
ATOM     27  C   UNL     1      14.936 -49.881 -24.771  1.00  0.00     0.278 C 
ENDBRANCH  23  26
BRANCH  24  28
ATOM     28  O   UNL     1      12.484 -48.928 -22.385  1.00  0.00    -0.493 OA
ATOM     29  C   UNL     1      11.416 -48.041 -22.712  1.00  0.00     0.278 C 
ENDBRANCH  24  28
ENDBRANCH   1  16
TORSDOF 6
ENDMDL
MODEL 4
REMARK VINA RESULT:   -10.023      3.946      9.896
REMARK INTER + INTRA:         -13.685
REMARK INTER:                 -12.731
REMARK INTRA:                  -0.954
REMARK UNBOUND:                -0.146
REMARK SMILES COc1cc2c(cc1OC)C(=O)[C@H](C[C@H]1CC[N@H+](Cc3ccccc3)CC1)C2
REMARK SMILES IDX 14 1 15 2 17 3 18 4 16 5 26 6 27 7 19 9 20 10 21 11 25 12
REMARK SMILES IDX 22 13 24 14 23 15 13 16 11 17 28 18 6 19 5 20 7 21 4 22 8 23
REMARK SMILES IDX 3 24 12 25 9 26 10 27 2 28 1 29
REMARK H PARENT 18 8
ROOT
ATOM      1  C   UNL     1      12.324 -59.432 -22.900  1.00  0.00     0.016 C 
ENDROOT
BRANCH   1   2
ATOM      2  C   UNL     1      11.443 -58.235 -23.312  1.00  0.00     0.001 C 
ATOM      3  C   UNL     1      11.399 -55.942 -24.409  1.00  0.00     0.262 C 
ATOM      4  N   UNL     1      10.871 -55.361 -23.125  1.00  0.00    -0.331 N 
ATOM      5  C   UNL     1      12.228 -57.185 -24.112  1.00  0.00     0.065 C 
ATOM      6  C   UNL     1      10.016 -56.348 -22.369  1.00  0.00     0.262 C 
ATOM      7  C   UNL     1      10.839 -57.590 -22.053  1.00  0.00     0.065 C 
ATOM      8  H   UNL     1      11.675 -55.138 -22.525  1.00  0.00     0.348 HD
BRANCH   4   9
ATOM      9  C   UNL     1      10.162 -54.042 -23.368  1.00  0.00     0.299 C 
BRANCH   9  10
ATOM     10  C   UNL     1      11.014 -52.846 -23.042  1.00  0.00     0.006 A 
ATOM     11  C   UNL     1      12.144 -52.542 -23.816  1.00  0.00     0.009 A 
ATOM     12  C   UNL     1      10.680 -52.006 -21.966  1.00  0.00     0.009 A 
ATOM     13  C   UNL     1      12.917 -51.417 -23.526  1.00  0.00     0.001 A 
ATOM     14  C   UNL     1      11.456 -50.883 -21.681  1.00  0.00     0.001 A 
ATOM     15  C   UNL     1      12.572 -50.587 -22.462  1.00  0.00     0.000 A 
ENDBRANCH   9  10
ENDBRANCH   4   9
ENDBRANCH   1   2
BRANCH   1  16
ATOM     16  C   UNL     1      12.033 -60.740 -23.645  1.00  0.00     0.066 C 
ATOM     17  C   UNL     1      10.703 -61.321 -23.199  1.00  0.00     0.166 C 
ATOM     18  C   UNL     1      11.891 -60.574 -25.175  1.00  0.00     0.048 C 
ATOM     19  C   UNL     1       9.901 -61.650 -24.368  1.00  0.00     0.025 A 
ATOM     20  C   UNL     1      10.593 -61.242 -25.501  1.00  0.00    -0.033 A 
ATOM     21  C   UNL     1       8.669 -62.272 -24.420  1.00  0.00     0.062 A 
ATOM     22  C   UNL     1      10.037 -61.444 -26.756  1.00  0.00     0.055 A 
ATOM     23  C   UNL     1       8.119 -62.498 -25.683  1.00  0.00     0.161 A 
ATOM     24  C   UNL     1       8.776 -62.051 -26.849  1.00  0.00     0.161 A 
ATOM     25  O   UNL     1      10.353 -61.507 -22.047  1.00  0.00    -0.294 OA
BRANCH  23  26
ATOM     26  O   UNL     1       6.908 -63.137 -25.731  1.00  0.00    -0.493 OA
ATOM     27  C   UNL     1       6.975 -64.366 -25.002  1.00  0.00     0.278 C 
ENDBRANCH  23  26
BRANCH  24  28
ATOM     28  O   UNL     1       8.304 -62.201 -28.125  1.00  0.00    -0.493 OA
ATOM     29  C   UNL     1       8.665 -63.438 -28.737  1.00  0.00     0.278 C 
ENDBRANCH  24  28
ENDBRANCH   1  16
TORSDOF 6
ENDMDL
MODEL 5
REMARK VINA RESULT:    -9.955      1.944      4.010
REMARK INTER + INTRA:         -13.592
REMARK INTER:                 -14.097
REMARK INTRA:                   0.505
REMARK UNBOUND:                -0.146
REMARK SMILES COc1cc2c(cc1OC)C(=O)[C@H](C[C@H]1CC[N@H+](Cc3ccccc3)CC1)C2
REMARK SMILES IDX 14 1 15 2 17 3 18 4 16 5 26 6 27 7 19 9 20 10 21 11 25 12
REMARK SMILES IDX 22 13 24 14 23 15 13 16 11 17 28 18 6 19 5 20 7 21 4 22 8 23
REMARK SMILES IDX 3 24 12 25 9 26 10 27 2 28 1 29
REMARK H PARENT 18 8
ROOT
ATOM      1  C   UNL     1      10.141 -52.942 -22.523  1.00  0.00     0.016 C 
ENDROOT
BRANCH   1   2
ATOM      2  C   UNL     1      11.053 -54.167 -22.741  1.00  0.00     0.001 C 
ATOM      3  C   UNL     1      11.853 -55.915 -24.403  1.00  0.00     0.262 C 
ATOM      4  N   UNL     1      11.317 -56.990 -23.499  1.00  0.00    -0.331 N 
ATOM      5  C   UNL     1      11.061 -54.629 -24.206  1.00  0.00     0.065 C 
ATOM      6  C   UNL     1      11.388 -56.593 -22.045  1.00  0.00     0.262 C 
ATOM      7  C   UNL     1      10.586 -55.316 -21.832  1.00  0.00     0.065 C 
ATOM      8  H   UNL     1      10.323 -57.127 -23.725  1.00  0.00     0.348 HD
BRANCH   4   9
ATOM      9  C   UNL     1      11.986 -58.324 -23.772  1.00  0.00     0.299 C 
BRANCH   9  10
ATOM     10  C   UNL     1      11.265 -59.485 -23.143  1.00  0.00     0.006 A 
ATOM     11  C   UNL     1      10.578 -59.326 -21.930  1.00  0.00     0.009 A 
ATOM     12  C   UNL     1      11.255 -60.742 -23.771  1.00  0.00     0.009 A 
ATOM     13  C   UNL     1       9.889 -60.399 -21.362  1.00  0.00     0.001 A 
ATOM     14  C   UNL     1      10.565 -61.811 -23.199  1.00  0.00     0.001 A 
ATOM     15  C   UNL     1       9.880 -61.638 -21.997  1.00  0.00     0.000 A 
ENDBRANCH   9  10
ENDBRANCH   4   9
ENDBRANCH   1   2
BRANCH   1  16
ATOM     16  C   UNL     1      10.849 -51.692 -21.988  1.00  0.00     0.066 C 
ATOM     17  C   UNL     1      12.015 -51.316 -22.885  1.00  0.00     0.166 C 
ATOM     18  C   UNL     1       9.959 -50.428 -21.960  1.00  0.00     0.048 C 
ATOM     19  C   UNL     1      11.936 -49.901 -23.217  1.00  0.00     0.025 A 
ATOM     20  C   UNL     1      10.768 -49.389 -22.667  1.00  0.00    -0.033 A 
ATOM     21  C   UNL     1      12.832 -49.133 -23.935  1.00  0.00     0.062 A 
ATOM     22  C   UNL     1      10.456 -48.049 -22.844  1.00  0.00     0.055 A 
ATOM     23  C   UNL     1      12.532 -47.780 -24.093  1.00  0.00     0.161 A 
ATOM     24  C   UNL     1      11.330 -47.242 -23.587  1.00  0.00     0.161 A 
ATOM     25  O   UNL     1      12.899 -52.065 -23.261  1.00  0.00    -0.294 OA
BRANCH  23  26
ATOM     26  O   UNL     1      13.436 -47.016 -24.784  1.00  0.00    -0.493 OA
ATOM     27  C   UNL     1      14.193 -47.842 -25.674  1.00  0.00     0.278 C 
ENDBRANCH  23  26
BRANCH  24  28
ATOM     28  O   UNL     1      10.936 -45.936 -23.716  1.00  0.00    -0.493 OA
ATOM     29  C   UNL     1      10.226 -45.428 -22.588  1.00  0.00     0.278 C 
ENDBRANCH  24  28
ENDBRANCH   1  16
TORSDOF 6
ENDMDL
MODEL 6
REMARK VINA RESULT:    -9.935      3.731     10.185
REMARK INTER + INTRA:         -13.566
REMARK INTER:                 -13.196
REMARK INTRA:                  -0.370
REMARK UNBOUND:                -0.146
REMARK SMILES COc1cc2c(cc1OC)C(=O)[C@H](C[C@H]1CC[N@H+](Cc3ccccc3)CC1)C2
REMARK SMILES IDX 14 1 15 2 17 3 18 4 16 5 26 6 27 7 19 9 20 10 21 11 25 12
REMARK SMILES IDX 22 13 24 14 23 15 13 16 11 17 28 18 6 19 5 20 7 21 4 22 8 23
REMARK SMILES IDX 3 24 12 25 9 26 10 27 2 28 1 29
REMARK H PARENT 18 8
ROOT
ATOM      1  C   UNL     1      11.053 -56.716 -22.182  1.00  0.00     0.016 C 
ENDROOT
BRANCH   1   2
ATOM      2  C   UNL     1      10.604 -55.249 -22.019  1.00  0.00     0.001 C 
ATOM      3  C   UNL     1      10.644 -52.919 -23.033  1.00  0.00     0.262 C 
ATOM      4  N   UNL     1      11.334 -52.415 -21.795  1.00  0.00    -0.331 N 
ATOM      5  C   UNL     1      10.967 -54.393 -23.242  1.00  0.00     0.065 C 
ATOM      6  C   UNL     1      10.917 -53.183 -20.565  1.00  0.00     0.262 C 
ATOM      7  C   UNL     1      11.249 -54.656 -20.754  1.00  0.00     0.065 C 
ATOM      8  H   UNL     1      12.344 -52.561 -21.914  1.00  0.00     0.348 HD
BRANCH   4   9
ATOM      9  C   UNL     1      11.153 -50.917 -21.636  1.00  0.00     0.299 C 
BRANCH   9  10
ATOM     10  C   UNL     1      11.830 -50.123 -22.720  1.00  0.00     0.006 A 
ATOM     11  C   UNL     1      12.824 -50.708 -23.518  1.00  0.00     0.009 A 
ATOM     12  C   UNL     1      11.463 -48.788 -22.959  1.00  0.00     0.009 A 
ATOM     13  C   UNL     1      13.431 -49.976 -24.540  1.00  0.00     0.001 A 
ATOM     14  C   UNL     1      12.073 -48.061 -23.982  1.00  0.00     0.001 A 
ATOM     15  C   UNL     1      13.055 -48.656 -24.773  1.00  0.00     0.000 A 
ENDBRANCH   9  10
ENDBRANCH   4   9
ENDBRANCH   1   2
BRANCH   1  16
ATOM     16  C   UNL     1      10.344 -57.494 -23.295  1.00  0.00     0.066 C 
ATOM     17  C   UNL     1      10.276 -58.971 -22.951  1.00  0.00     0.166 C 
ATOM     18  C   UNL     1       8.871 -57.078 -23.513  1.00  0.00     0.048 C 
ATOM     19  C   UNL     1       8.912 -59.449 -23.127  1.00  0.00     0.025 A 
ATOM     20  C   UNL     1       8.112 -58.366 -23.470  1.00  0.00    -0.033 A 
ATOM     21  C   UNL     1       8.428 -60.736 -23.005  1.00  0.00     0.062 A 
ATOM     22  C   UNL     1       6.756 -58.558 -23.693  1.00  0.00     0.055 A 
ATOM     23  C   UNL     1       7.069 -60.934 -23.253  1.00  0.00     0.161 A 
ATOM     24  C   UNL     1       6.222 -59.847 -23.555  1.00  0.00     0.161 A 
ATOM     25  O   UNL     1      11.211 -59.668 -22.601  1.00  0.00    -0.294 OA
BRANCH  23  26
ATOM     26  O   UNL     1       6.597 -62.217 -23.155  1.00  0.00    -0.493 OA
ATOM     27  C   UNL     1       7.292 -63.065 -24.074  1.00  0.00     0.278 C 
ENDBRANCH  23  26
BRANCH  24  28
ATOM     28  O   UNL     1       4.875 -59.939 -23.786  1.00  0.00    -0.493 OA
ATOM     29  C   UNL     1       4.087 -59.055 -22.991  1.00  0.00     0.278 C 
ENDBRANCH  24  28
ENDBRANCH   1  16
TORSDOF 6
ENDMDL
MODEL 7
REMARK VINA RESULT:    -9.914      3.594     11.212
REMARK INTER + INTRA:         -13.538
REMARK INTER:                 -12.788
REMARK INTRA:                  -0.750
REMARK UNBOUND:                -0.146
REMARK SMILES COc1cc2c(cc1OC)C(=O)[C@H](C[C@H]1CC[N@H+](Cc3ccccc3)CC1)C2
REMARK SMILES IDX 14 1 15 2 17 3 18 4 16 5 26 6 27 7 19 9 20 10 21 11 25 12
REMARK SMILES IDX 22 13 24 14 23 15 13 16 11 17 28 18 6 19 5 20 7 21 4 22 8 23
REMARK SMILES IDX 3 24 12 25 9 26 10 27 2 28 1 29
REMARK H PARENT 18 8
ROOT
ATOM      1  C   UNL     1      11.906 -52.771 -22.712  1.00  0.00     0.016 C 
ENDROOT
BRANCH   1   2
ATOM      2  C   UNL     1      11.302 -51.398 -23.069  1.00  0.00     0.001 C 
ATOM      3  C   UNL     1      11.785 -48.935 -23.474  1.00  0.00     0.262 C 
ATOM      4  N   UNL     1      10.860 -48.588 -22.339  1.00  0.00    -0.331 N 
ATOM      5  C   UNL     1      12.380 -50.320 -23.252  1.00  0.00     0.065 C 
ATOM      6  C   UNL     1       9.736 -49.586 -22.202  1.00  0.00     0.262 C 
ATOM      7  C   UNL     1      10.319 -50.972 -21.964  1.00  0.00     0.065 C 
ATOM      8  H   UNL     1      11.402 -48.625 -21.467  1.00  0.00     0.348 HD
BRANCH   4   9
ATOM      9  C   UNL     1      10.361 -47.160 -22.452  1.00  0.00     0.299 C 
BRANCH   9  10
ATOM     10  C   UNL     1      11.470 -46.144 -22.417  1.00  0.00     0.006 A 
ATOM     11  C   UNL     1      12.397 -46.135 -21.364  1.00  0.00     0.009 A 
ATOM     12  C   UNL     1      11.603 -45.200 -23.449  1.00  0.00     0.009 A 
ATOM     13  C   UNL     1      13.439 -45.207 -21.348  1.00  0.00     0.001 A 
ATOM     14  C   UNL     1      12.647 -44.275 -23.429  1.00  0.00     0.001 A 
ATOM     15  C   UNL     1      13.565 -44.280 -22.380  1.00  0.00     0.000 A 
ENDBRANCH   9  10
ENDBRANCH   4   9
ENDBRANCH   1   2
BRANCH   1  16
ATOM     16  C   UNL     1      10.976 -53.969 -22.935  1.00  0.00     0.066 C 
ATOM     17  C   UNL     1      11.515 -54.863 -24.038  1.00  0.00     0.166 C 
ATOM     18  C   UNL     1      10.846 -54.901 -21.709  1.00  0.00     0.048 C 
ATOM     19  C   UNL     1      11.533 -56.243 -23.578  1.00  0.00     0.025 A 
ATOM     20  C   UNL     1      11.128 -56.267 -22.250  1.00  0.00    -0.033 A 
ATOM     21  C   UNL     1      11.867 -57.382 -24.285  1.00  0.00     0.062 A 
ATOM     22  C   UNL     1      11.061 -57.475 -21.573  1.00  0.00     0.055 A 
ATOM     23  C   UNL     1      11.777 -58.602 -23.613  1.00  0.00     0.161 A 
ATOM     24  C   UNL     1      11.416 -58.651 -22.250  1.00  0.00     0.161 A 
ATOM     25  O   UNL     1      11.863 -54.499 -25.147  1.00  0.00    -0.294 OA
BRANCH  23  26
ATOM     26  O   UNL     1      12.086 -59.731 -24.324  1.00  0.00    -0.493 OA
ATOM     27  C   UNL     1      10.965 -60.129 -25.119  1.00  0.00     0.278 C 
ENDBRANCH  23  26
BRANCH  24  28
ATOM     28  O   UNL     1      11.327 -59.794 -21.500  1.00  0.00    -0.493 OA
ATOM     29  C   UNL     1      10.027 -60.381 -21.485  1.00  0.00     0.278 C 
ENDBRANCH  24  28
ENDBRANCH   1  16
TORSDOF 6
ENDMDL
MODEL 8
REMARK VINA RESULT:    -9.800      2.568      4.664
REMARK INTER + INTRA:         -13.384
REMARK INTER:                 -12.666
REMARK INTRA:                  -0.718
REMARK UNBOUND:                -0.146
REMARK SMILES COc1cc2c(cc1OC)C(=O)[C@H](C[C@H]1CC[N@H+](Cc3ccccc3)CC1)C2
REMARK SMILES IDX 14 1 15 2 17 3 18 4 16 5 26 6 27 7 19 9 20 10 21 11 25 12
REMARK SMILES IDX 22 13 24 14 23 15 13 16 11 17 28 18 6 19 5 20 7 21 4 22 8 23
REMARK SMILES IDX 3 24 12 25 9 26 10 27 2 28 1 29
REMARK H PARENT 18 8
ROOT
ATOM      1  C   UNL     1      10.795 -51.717 -21.667  1.00  0.00     0.016 C 
ENDROOT
BRANCH   1   2
ATOM      2  C   UNL     1      11.301 -53.133 -22.007  1.00  0.00     0.001 C 
ATOM      3  C   UNL     1      11.358 -54.977 -23.755  1.00  0.00     0.262 C 
ATOM      4  N   UNL     1      10.683 -55.898 -22.776  1.00  0.00    -0.331 N 
ATOM      5  C   UNL     1      10.978 -53.533 -23.454  1.00  0.00     0.065 C 
ATOM      6  C   UNL     1      11.063 -55.582 -21.350  1.00  0.00     0.262 C 
ATOM      7  C   UNL     1      10.674 -54.145 -21.032  1.00  0.00     0.065 C 
ATOM      8  H   UNL     1       9.669 -55.756 -22.856  1.00  0.00     0.348 HD
BRANCH   4   9
ATOM      9  C   UNL     1      10.922 -57.353 -23.134  1.00  0.00     0.299 C 
BRANCH   9  10
ATOM     10  C   UNL     1       9.668 -58.184 -23.094  1.00  0.00     0.006 A 
ATOM     11  C   UNL     1       9.718 -59.533 -22.714  1.00  0.00     0.009 A 
ATOM     12  C   UNL     1       8.426 -57.614 -23.420  1.00  0.00     0.009 A 
ATOM     13  C   UNL     1       8.549 -60.293 -22.653  1.00  0.00     0.001 A 
ATOM     14  C   UNL     1       7.261 -58.378 -23.357  1.00  0.00     0.001 A 
ATOM     15  C   UNL     1       7.323 -59.716 -22.972  1.00  0.00     0.000 A 
ENDBRANCH   9  10
ENDBRANCH   4   9
ENDBRANCH   1   2
BRANCH   1  16
ATOM     16  C   UNL     1      10.901 -50.697 -22.807  1.00  0.00     0.066 C 
ATOM     17  C   UNL     1      10.224 -49.394 -22.420  1.00  0.00     0.166 C 
ATOM     18  C   UNL     1      12.352 -50.292 -23.155  1.00  0.00     0.048 C 
ATOM     19  C   UNL     1      11.123 -48.282 -22.687  1.00  0.00     0.025 A 
ATOM     20  C   UNL     1      12.335 -48.797 -23.130  1.00  0.00    -0.033 A 
ATOM     21  C   UNL     1      10.880 -46.928 -22.561  1.00  0.00     0.062 A 
ATOM     22  C   UNL     1      13.372 -47.933 -23.453  1.00  0.00     0.055 A 
ATOM     23  C   UNL     1      11.914 -46.057 -22.909  1.00  0.00     0.161 A 
ATOM     24  C   UNL     1      13.171 -46.552 -23.315  1.00  0.00     0.161 A 
ATOM     25  O   UNL     1       9.097 -49.279 -21.973  1.00  0.00    -0.294 OA
BRANCH  23  26
ATOM     26  O   UNL     1      11.660 -44.714 -22.806  1.00  0.00    -0.493 OA
ATOM     27  C   UNL     1      10.432 -44.397 -23.468  1.00  0.00     0.278 C 
ENDBRANCH  23  26
BRANCH  24  28
ATOM     28  O   UNL     1      14.251 -45.779 -23.649  1.00  0.00    -0.493 OA
ATOM     29  C   UNL     1      15.168 -45.565 -22.577  1.00  0.00     0.278 C 
ENDBRANCH  24  28
ENDBRANCH   1  16
TORSDOF 6
ENDMDL
MODEL 9
REMARK VINA RESULT:    -9.618      2.094      3.960
REMARK INTER + INTRA:         -13.137
REMARK INTER:                 -12.369
REMARK INTRA:                  -0.768
REMARK UNBOUND:                -0.146
REMARK SMILES COc1cc2c(cc1OC)C(=O)[C@H](C[C@H]1CC[N@H+](Cc3ccccc3)CC1)C2
REMARK SMILES IDX 14 1 15 2 17 3 18 4 16 5 26 6 27 7 19 9 20 10 21 11 25 12
REMARK SMILES IDX 22 13 24 14 23 15 13 16 11 17 28 18 6 19 5 20 7 21 4 22 8 23
REMARK SMILES IDX 3 24 12 25 9 26 10 27 2 28 1 29
REMARK H PARENT 18 8
ROOT
ATOM      1  C   UNL     1      11.918 -53.581 -24.636  1.00  0.00     0.016 C 
ENDROOT
BRANCH   1   2
ATOM      2  C   UNL     1      11.543 -54.768 -23.726  1.00  0.00     0.001 C 
ATOM      3  C   UNL     1      11.537 -57.298 -23.475  1.00  0.00     0.262 C 
ATOM      4  N   UNL     1      10.038 -57.261 -23.353  1.00  0.00    -0.331 N 
ATOM      5  C   UNL     1      12.018 -56.111 -24.301  1.00  0.00     0.065 C 
ATOM      6  C   UNL     1       9.556 -55.988 -22.702  1.00  0.00     0.262 C 
ATOM      7  C   UNL     1      10.017 -54.794 -23.526  1.00  0.00     0.065 C 
ATOM      8  H   UNL     1       9.642 -57.282 -24.301  1.00  0.00     0.348 HD
BRANCH   4   9
ATOM      9  C   UNL     1       9.511 -58.504 -22.661  1.00  0.00     0.299 C 
BRANCH   9  10
ATOM     10  C   UNL     1       9.652 -59.748 -23.496  1.00  0.00     0.006 A 
ATOM     11  C   UNL     1      10.431 -60.825 -23.046  1.00  0.00     0.009 A 
ATOM     12  C   UNL     1       8.990 -59.855 -24.730  1.00  0.00     0.009 A 
ATOM     13  C   UNL     1      10.537 -61.987 -23.811  1.00  0.00     0.001 A 
ATOM     14  C   UNL     1       9.101 -61.019 -25.491  1.00  0.00     0.001 A 
ATOM     15  C   UNL     1       9.872 -62.085 -25.031  1.00  0.00     0.000 A 
ENDBRANCH   9  10
ENDBRANCH   4   9
ENDBRANCH   1   2
BRANCH   1  16
ATOM     16  C   UNL     1      12.700 -52.456 -23.947  1.00  0.00     0.066 C 
ATOM     17  C   UNL     1      13.192 -51.448 -24.971  1.00  0.00     0.166 C 
ATOM     18  C   UNL     1      11.858 -51.621 -22.955  1.00  0.00     0.048 C 
ATOM     19  C   UNL     1      12.840 -50.104 -24.537  1.00  0.00     0.025 A 
ATOM     20  C   UNL     1      12.094 -50.204 -23.369  1.00  0.00    -0.033 A 
ATOM     21  C   UNL     1      13.166 -48.896 -25.123  1.00  0.00     0.062 A 
ATOM     22  C   UNL     1      11.630 -49.053 -22.749  1.00  0.00     0.055 A 
ATOM     23  C   UNL     1      12.721 -47.736 -24.487  1.00  0.00     0.161 A 
ATOM     24  C   UNL     1      11.921 -47.808 -23.327  1.00  0.00     0.161 A 
ATOM     25  O   UNL     1      13.806 -51.705 -25.991  1.00  0.00    -0.294 OA
BRANCH  23  26
ATOM     26  O   UNL     1      13.068 -46.539 -25.057  1.00  0.00    -0.493 OA
ATOM     27  C   UNL     1      14.486 -46.360 -24.992  1.00  0.00     0.278 C 
ENDBRANCH  23  26
BRANCH  24  28
ATOM     28  O   UNL     1      11.416 -46.730 -22.651  1.00  0.00    -0.493 OA
ATOM     29  C   UNL     1      12.278 -46.226 -21.631  1.00  0.00     0.278 C 
ENDBRANCH  24  28
ENDBRANCH   1  16
TORSDOF 6
ENDMDL
