MODEL 1
REMARK VINA RESULT:   -12.194      0.000      0.000
REMARK INTER + INTRA:         -16.234
REMARK INTER:                 -15.759
REMARK INTRA:                  -0.476
REMARK UNBOUND:                -0.476
REMARK SMILES Cn1c(=O)cc2cc3o[nH]c(CC[C@H]4CC[N@@H+](Cc5ccccc5)CC4)c3cc21
REMARK SMILES IDX 13 1 12 2 11 3 10 4 9 5 8 6 27 7 7 8 28 9 6 10 29 11 5 12
REMARK SMILES IDX 2 13 3 14 1 16 4 17 14 18 26 19 15 20 25 21 16 22 17 23
REMARK SMILES IDX 18 25 19 26 20 27 24 28 21 29 23 30 22 31
REMARK H PARENT 10 15 17 24
ROOT
ATOM      1  C   UNL     1       9.624 -61.892 -22.628  1.00  0.00     0.010 C 
ENDROOT
BRANCH   1   2
ATOM      2  C   UNL     1       8.601 -63.025 -22.788  1.00  0.00     0.058 C 
BRANCH   2   3
ATOM      3  C   UNL     1       8.247 -63.206 -24.228  1.00  0.00     0.060 A 
ATOM      4  N   UNL     1       7.225 -64.077 -24.614  1.00  0.00    -0.226 N 
ATOM      5  O   UNL     1       7.037 -64.022 -26.023  1.00  0.00    -0.382 OA
ATOM      6  C   UNL     1       8.021 -63.146 -26.444  1.00  0.00     0.164 A 
ATOM      7  C   UNL     1       8.777 -62.626 -25.311  1.00  0.00     0.044 A 
ATOM      8  C   UNL     1       8.293 -62.770 -27.705  1.00  0.00     0.061 A 
ATOM      9  C   UNL     1       9.852 -61.663 -25.468  1.00  0.00     0.041 A 
ATOM     10  C   UNL     1       9.379 -61.819 -27.869  1.00  0.00     0.008 A 
ATOM     11  C   UNL     1      10.124 -61.291 -26.729  1.00  0.00     0.052 A 
ATOM     12  C   UNL     1       9.850 -61.287 -29.003  1.00  0.00     0.082 A 
ATOM     13  N   UNL     1      11.052 -60.428 -27.231  1.00  0.00    -0.311 N 
ATOM     14  C   UNL     1      10.953 -60.369 -28.615  1.00  0.00     0.251 A 
ATOM     15  H   UNL     1       6.348 -63.889 -24.128  1.00  0.00     0.208 HD
ATOM     16  C   UNL     1      12.006 -59.669 -26.466  1.00  0.00     0.153 C 
ATOM     17  O   UNL     1      11.612 -59.717 -29.403  1.00  0.00    -0.269 OA
ENDBRANCH   2   3
ENDBRANCH   1   2
BRANCH   1  18
ATOM     18  C   UNL     1       9.138 -60.744 -21.718  1.00  0.00     0.000 C 
ATOM     19  C   UNL     1      10.264 -60.096 -20.898  1.00  0.00     0.065 C 
ATOM     20  C   UNL     1       8.428 -59.655 -22.539  1.00  0.00     0.065 C 
ATOM     21  C   UNL     1      11.224 -59.267 -21.745  1.00  0.00     0.262 C 
ATOM     22  C   UNL     1       9.384 -58.835 -23.398  1.00  0.00     0.262 C 
ATOM     23  N   UNL     1      10.457 -58.230 -22.523  1.00  0.00    -0.331 N 
ATOM     24  H   UNL     1       9.980 -57.621 -21.847  1.00  0.00     0.348 HD
BRANCH  23  25
ATOM     25  C   UNL     1      11.395 -57.325 -23.299  1.00  0.00     0.299 C 
BRANCH  25  26
ATOM     26  C   UNL     1      11.216 -55.868 -22.969  1.00  0.00     0.006 A 
ATOM     27  C   UNL     1      10.840 -55.470 -21.678  1.00  0.00     0.009 A 
ATOM     28  C   UNL     1      11.443 -54.884 -23.945  1.00  0.00     0.009 A 
ATOM     29  C   UNL     1      10.702 -54.117 -21.368  1.00  0.00     0.001 A 
ATOM     30  C   UNL     1      11.303 -53.532 -23.630  1.00  0.00     0.001 A 
ATOM     31  C   UNL     1      10.935 -53.149 -22.342  1.00  0.00     0.000 A 
ENDBRANCH  25  26
ENDBRANCH  23  25
ENDBRANCH   1  18
TORSDOF 5
ENDMDL
MODEL 2
REMARK VINA RESULT:   -11.928      3.821      9.182
REMARK INTER + INTRA:         -15.890
REMARK INTER:                 -15.307
REMARK INTRA:                  -0.583
REMARK UNBOUND:                -0.476
REMARK SMILES Cn1c(=O)cc2cc3o[nH]c(CC[C@H]4CC[N@@H+](Cc5ccccc5)CC4)c3cc21
REMARK SMILES IDX 13 1 12 2 11 3 10 4 9 5 8 6 27 7 7 8 28 9 6 10 29 11 5 12
REMARK SMILES IDX 2 13 3 14 1 16 4 17 14 18 26 19 15 20 25 21 16 22 17 23
REMARK SMILES IDX 18 25 19 26 20 27 24 28 21 29 23 30 22 31
REMARK H PARENT 10 15 17 24
ROOT
ATOM      1  C   UNL     1      11.392 -56.806 -22.892  1.00  0.00     0.010 C 
ENDROOT
BRANCH   1   2
ATOM      2  C   UNL     1      10.900 -55.378 -23.171  1.00  0.00     0.058 C 
BRANCH   2   3
ATOM      3  C   UNL     1      11.744 -54.734 -24.221  1.00  0.00     0.060 A 
ATOM      4  N   UNL     1      12.261 -55.478 -25.285  1.00  0.00    -0.226 N 
ATOM      5  O   UNL     1      12.971 -54.629 -26.180  1.00  0.00    -0.382 OA
ATOM      6  C   UNL     1      12.904 -53.391 -25.568  1.00  0.00     0.164 A 
ATOM      7  C   UNL     1      12.123 -53.456 -24.339  1.00  0.00     0.044 A 
ATOM      8  C   UNL     1      13.449 -52.239 -25.997  1.00  0.00     0.061 A 
ATOM      9  C   UNL     1      11.872 -52.289 -23.513  1.00  0.00     0.041 A 
ATOM     10  C   UNL     1      13.212 -51.071 -25.166  1.00  0.00     0.008 A 
ATOM     11  C   UNL     1      12.419 -51.141 -23.941  1.00  0.00     0.052 A 
ATOM     12  C   UNL     1      13.637 -49.816 -25.359  1.00  0.00     0.082 A 
ATOM     13  N   UNL     1      12.389 -49.881 -23.419  1.00  0.00    -0.311 N 
ATOM     14  C   UNL     1      13.113 -49.011 -24.225  1.00  0.00     0.251 A 
ATOM     15  H   UNL     1      11.540 -55.999 -25.782  1.00  0.00     0.208 HD
ATOM     16  C   UNL     1      11.713 -49.478 -22.215  1.00  0.00     0.153 C 
ATOM     17  O   UNL     1      13.312 -47.820 -24.081  1.00  0.00    -0.269 OA
ENDBRANCH   2   3
ENDBRANCH   1   2
BRANCH   1  18
ATOM     18  C   UNL     1      10.381 -57.665 -22.103  1.00  0.00     0.000 C 
ATOM     19  C   UNL     1       9.206 -58.164 -22.958  1.00  0.00     0.065 C 
ATOM     20  C   UNL     1      11.076 -58.873 -21.455  1.00  0.00     0.065 C 
ATOM     21  C   UNL     1       9.610 -59.233 -23.968  1.00  0.00     0.262 C 
ATOM     22  C   UNL     1      11.493 -59.937 -22.464  1.00  0.00     0.262 C 
ATOM     23  N   UNL     1      10.287 -60.377 -23.261  1.00  0.00    -0.331 N 
ATOM     24  H   UNL     1       9.616 -60.773 -22.590  1.00  0.00     0.348 HD
BRANCH  23  25
ATOM     25  C   UNL     1      10.611 -61.502 -24.227  1.00  0.00     0.299 C 
BRANCH  25  26
ATOM     26  C   UNL     1       9.408 -62.326 -24.598  1.00  0.00     0.006 A 
ATOM     27  C   UNL     1       8.741 -63.090 -23.629  1.00  0.00     0.009 A 
ATOM     28  C   UNL     1       8.925 -62.326 -25.916  1.00  0.00     0.009 A 
ATOM     29  C   UNL     1       7.610 -63.832 -23.971  1.00  0.00     0.001 A 
ATOM     30  C   UNL     1       7.793 -63.070 -26.252  1.00  0.00     0.001 A 
ATOM     31  C   UNL     1       7.135 -63.821 -25.280  1.00  0.00     0.000 A 
ENDBRANCH  25  26
ENDBRANCH  23  25
ENDBRANCH   1  18
TORSDOF 5
ENDMDL
MODEL 3
REMARK VINA RESULT:   -11.916      4.020      9.305
REMARK INTER + INTRA:         -15.874
REMARK INTER:                 -15.266
REMARK INTRA:                  -0.608
REMARK UNBOUND:                -0.476
REMARK SMILES Cn1c(=O)cc2cc3o[nH]c(CC[C@H]4CC[N@@H+](Cc5ccccc5)CC4)c3cc21
REMARK SMILES IDX 13 1 12 2 11 3 10 4 9 5 8 6 27 7 7 8 28 9 6 10 29 11 5 12
REMARK SMILES IDX 2 13 3 14 1 16 4 17 14 18 26 19 15 20 25 21 16 22 17 23
REMARK SMILES IDX 18 25 19 26 20 27 24 28 21 29 23 30 22 31
REMARK H PARENT 10 15 17 24
ROOT
ATOM      1  C   UNL     1      11.421 -56.600 -23.125  1.00  0.00     0.010 C 
ENDROOT
BRANCH   1   2
ATOM      2  C   UNL     1      10.598 -55.457 -23.738  1.00  0.00     0.058 C 
BRANCH   2   3
ATOM      3  C   UNL     1      10.691 -54.235 -22.884  1.00  0.00     0.060 A 
ATOM      4  N   UNL     1      10.050 -54.173 -21.644  1.00  0.00    -0.226 N 
ATOM      5  O   UNL     1      10.343 -52.939 -21.000  1.00  0.00    -0.382 OA
ATOM      6  C   UNL     1      11.114 -52.267 -21.930  1.00  0.00     0.164 A 
ATOM      7  C   UNL     1      11.340 -53.088 -23.114  1.00  0.00     0.044 A 
ATOM      8  C   UNL     1      11.629 -51.030 -21.821  1.00  0.00     0.061 A 
ATOM      9  C   UNL     1      12.142 -52.633 -24.235  1.00  0.00     0.041 A 
ATOM     10  C   UNL     1      12.421 -50.566 -22.948  1.00  0.00     0.008 A 
ATOM     11  C   UNL     1      12.654 -51.397 -24.125  1.00  0.00     0.052 A 
ATOM     12  C   UNL     1      13.040 -49.388 -23.096  1.00  0.00     0.082 A 
ATOM     13  N   UNL     1      13.433 -50.669 -24.974  1.00  0.00    -0.311 N 
ATOM     14  C   UNL     1      13.713 -49.426 -24.421  1.00  0.00     0.251 A 
ATOM     15  H   UNL     1      10.293 -54.959 -21.041  1.00  0.00     0.208 HD
ATOM     16  C   UNL     1      13.917 -51.097 -26.260  1.00  0.00     0.153 C 
ATOM     17  O   UNL     1      14.369 -48.512 -24.883  1.00  0.00    -0.269 OA
ENDBRANCH   2   3
ENDBRANCH   1   2
BRANCH   1  18
ATOM     18  C   UNL     1      10.614 -57.494 -22.159  1.00  0.00     0.000 C 
ATOM     19  C   UNL     1       9.351 -58.095 -22.796  1.00  0.00     0.065 C 
ATOM     20  C   UNL     1      11.486 -58.633 -21.608  1.00  0.00     0.065 C 
ATOM     21  C   UNL     1       9.655 -59.170 -23.834  1.00  0.00     0.262 C 
ATOM     22  C   UNL     1      11.803 -59.702 -22.647  1.00  0.00     0.262 C 
ATOM     23  N   UNL     1      10.515 -60.244 -23.223  1.00  0.00    -0.331 N 
ATOM     24  H   UNL     1       9.993 -60.658 -22.441  1.00  0.00     0.348 HD
BRANCH  23  25
ATOM     25  C   UNL     1      10.752 -61.378 -24.203  1.00  0.00     0.299 C 
BRANCH  25  26
ATOM     26  C   UNL     1       9.555 -62.274 -24.369  1.00  0.00     0.006 A 
ATOM     27  C   UNL     1       9.123 -63.090 -23.313  1.00  0.00     0.009 A 
ATOM     28  C   UNL     1       8.841 -62.291 -25.578  1.00  0.00     0.009 A 
ATOM     29  C   UNL     1       7.997 -63.900 -23.461  1.00  0.00     0.001 A 
ATOM     30  C   UNL     1       7.715 -63.103 -25.720  1.00  0.00     0.001 A 
ATOM     31  C   UNL     1       7.292 -63.905 -24.662  1.00  0.00     0.000 A 
ENDBRANCH  25  26
ENDBRANCH  23  25
ENDBRANCH   1  18
TORSDOF 5
ENDMDL
MODEL 4
REMARK VINA RESULT:   -11.740      1.561      2.630
REMARK INTER + INTRA:         -15.647
REMARK INTER:                 -15.079
REMARK INTRA:                  -0.568
REMARK UNBOUND:                -0.476
REMARK SMILES Cn1c(=O)cc2cc3o[nH]c(CC[C@H]4CC[N@@H+](Cc5ccccc5)CC4)c3cc21
REMARK SMILES IDX 13 1 12 2 11 3 10 4 9 5 8 6 27 7 7 8 28 9 6 10 29 11 5 12
REMARK SMILES IDX 2 13 3 14 1 16 4 17 14 18 26 19 15 20 25 21 16 22 17 23
REMARK SMILES IDX 18 25 19 26 20 27 24 28 21 29 23 30 22 31
REMARK H PARENT 10 15 17 24
ROOT
ATOM      1  C   UNL     1      10.132 -59.925 -22.012  1.00  0.00     0.010 C 
ENDROOT
BRANCH   1   2
ATOM      2  C   UNL     1      10.168 -61.405 -21.601  1.00  0.00     0.058 C 
BRANCH   2   3
ATOM      3  C   UNL     1       9.285 -62.213 -22.495  1.00  0.00     0.060 A 
ATOM      4  N   UNL     1       8.394 -63.151 -21.968  1.00  0.00    -0.226 N 
ATOM      5  O   UNL     1       7.623 -63.737 -23.011  1.00  0.00    -0.382 OA
ATOM      6  C   UNL     1       8.141 -63.160 -24.156  1.00  0.00     0.164 A 
ATOM      7  C   UNL     1       9.183 -62.193 -23.829  1.00  0.00     0.044 A 
ATOM      8  C   UNL     1       7.776 -63.400 -25.427  1.00  0.00     0.061 A 
ATOM      9  C   UNL     1       9.875 -61.422 -24.845  1.00  0.00     0.041 A 
ATOM     10  C   UNL     1       8.477 -62.641 -26.448  1.00  0.00     0.008 A 
ATOM     11  C   UNL     1       9.510 -61.665 -26.114  1.00  0.00     0.052 A 
ATOM     12  C   UNL     1       8.311 -62.687 -27.776  1.00  0.00     0.082 A 
ATOM     13  N   UNL     1       9.948 -61.135 -27.291  1.00  0.00    -0.311 N 
ATOM     14  C   UNL     1       9.266 -61.708 -28.357  1.00  0.00     0.251 A 
ATOM     15  H   UNL     1       7.784 -62.751 -21.255  1.00  0.00     0.208 HD
ATOM     16  C   UNL     1      10.962 -60.125 -27.443  1.00  0.00     0.153 C 
ATOM     17  O   UNL     1       9.387 -61.493 -29.549  1.00  0.00    -0.269 OA
ENDBRANCH   2   3
ENDBRANCH   1   2
BRANCH   1  18
ATOM     18  C   UNL     1      11.532 -59.296 -22.178  1.00  0.00     0.000 C 
ATOM     19  C   UNL     1      11.800 -58.771 -23.597  1.00  0.00     0.065 C 
ATOM     20  C   UNL     1      11.741 -58.150 -21.174  1.00  0.00     0.065 C 
ATOM     21  C   UNL     1      10.993 -57.523 -23.939  1.00  0.00     0.262 C 
ATOM     22  C   UNL     1      10.924 -56.907 -21.506  1.00  0.00     0.262 C 
ATOM     23  N   UNL     1      11.245 -56.452 -22.911  1.00  0.00    -0.331 N 
ATOM     24  H   UNL     1      12.249 -56.230 -22.929  1.00  0.00     0.348 HD
BRANCH  23  25
ATOM     25  C   UNL     1      10.534 -55.163 -23.279  1.00  0.00     0.299 C 
BRANCH  25  26
ATOM     26  C   UNL     1      11.454 -54.129 -23.869  1.00  0.00     0.006 A 
ATOM     27  C   UNL     1      12.163 -54.396 -25.049  1.00  0.00     0.009 A 
ATOM     28  C   UNL     1      11.598 -52.874 -23.257  1.00  0.00     0.009 A 
ATOM     29  C   UNL     1      12.995 -53.425 -25.608  1.00  0.00     0.001 A 
ATOM     30  C   UNL     1      12.431 -51.906 -23.820  1.00  0.00     0.001 A 
ATOM     31  C   UNL     1      13.126 -52.181 -24.996  1.00  0.00     0.000 A 
ENDBRANCH  25  26
ENDBRANCH  23  25
ENDBRANCH   1  18
TORSDOF 5
ENDMDL
MODEL 5
REMARK VINA RESULT:   -11.656      2.728      5.427
REMARK INTER + INTRA:         -15.539
REMARK INTER:                 -14.867
REMARK INTRA:                  -0.671
REMARK UNBOUND:                -0.476
REMARK SMILES Cn1c(=O)cc2cc3o[nH]c(CC[C@H]4CC[N@@H+](Cc5ccccc5)CC4)c3cc21
REMARK SMILES IDX 13 1 12 2 11 3 10 4 9 5 8 6 27 7 7 8 28 9 6 10 29 11 5 12
REMARK SMILES IDX 2 13 3 14 1 16 4 17 14 18 26 19 15 20 25 21 16 22 17 23
REMARK SMILES IDX 18 25 19 26 20 27 24 28 21 29 23 30 22 31
REMARK H PARENT 10 15 17 24
ROOT
ATOM      1  C   UNL     1      11.199 -56.299 -22.097  1.00  0.00     0.010 C 
ENDROOT
BRANCH   1   2
ATOM      2  C   UNL     1      10.716 -57.756 -22.147  1.00  0.00     0.058 C 
BRANCH   2   3
ATOM      3  C   UNL     1      10.983 -58.346 -23.494  1.00  0.00     0.060 A 
ATOM      4  N   UNL     1      12.001 -57.846 -24.309  1.00  0.00    -0.226 N 
ATOM      5  O   UNL     1      12.097 -58.613 -25.503  1.00  0.00    -0.382 OA
ATOM      6  C   UNL     1      11.065 -59.525 -25.382  1.00  0.00     0.164 A 
ATOM      7  C   UNL     1      10.368 -59.361 -24.112  1.00  0.00     0.044 A 
ATOM      8  C   UNL     1      10.703 -60.469 -26.268  1.00  0.00     0.061 A 
ATOM      9  C   UNL     1       9.259 -60.210 -23.717  1.00  0.00     0.041 A 
ATOM     10  C   UNL     1       9.583 -61.311 -25.883  1.00  0.00     0.008 A 
ATOM     11  C   UNL     1       8.897 -61.150 -24.604  1.00  0.00     0.052 A 
ATOM     12  C   UNL     1       9.025 -62.314 -26.573  1.00  0.00     0.082 A 
ATOM     13  N   UNL     1       7.915 -62.095 -24.562  1.00  0.00    -0.311 N 
ATOM     14  C   UNL     1       7.924 -62.848 -25.729  1.00  0.00     0.251 A 
ATOM     15  H   UNL     1      12.902 -57.813 -23.831  1.00  0.00     0.208 HD
ATOM     16  C   UNL     1       6.991 -62.310 -23.480  1.00  0.00     0.153 C 
ATOM     17  O   UNL     1       7.199 -63.770 -26.052  1.00  0.00    -0.269 OA
ENDBRANCH   2   3
ENDBRANCH   1   2
BRANCH   1  18
ATOM     18  C   UNL     1      10.127 -55.278 -22.535  1.00  0.00     0.000 C 
ATOM     19  C   UNL     1       9.909 -54.148 -21.517  1.00  0.00     0.065 C 
ATOM     20  C   UNL     1      10.483 -54.661 -23.897  1.00  0.00     0.065 C 
ATOM     21  C   UNL     1      11.078 -53.172 -21.443  1.00  0.00     0.262 C 
ATOM     22  C   UNL     1      11.660 -53.695 -23.829  1.00  0.00     0.262 C 
ATOM     23  N   UNL     1      11.369 -52.615 -22.812  1.00  0.00    -0.331 N 
ATOM     24  H   UNL     1      10.528 -52.122 -23.136  1.00  0.00     0.348 HD
BRANCH  23  25
ATOM     25  C   UNL     1      12.462 -51.565 -22.754  1.00  0.00     0.299 C 
BRANCH  25  26
ATOM     26  C   UNL     1      11.962 -50.175 -23.041  1.00  0.00     0.006 A 
ATOM     27  C   UNL     1      10.744 -49.731 -22.506  1.00  0.00     0.009 A 
ATOM     28  C   UNL     1      12.718 -49.297 -23.833  1.00  0.00     0.009 A 
ATOM     29  C   UNL     1      10.295 -48.433 -22.752  1.00  0.00     0.001 A 
ATOM     30  C   UNL     1      12.265 -47.999 -24.076  1.00  0.00     0.001 A 
ATOM     31  C   UNL     1      11.056 -47.568 -23.535  1.00  0.00     0.000 A 
ENDBRANCH  25  26
ENDBRANCH  23  25
ENDBRANCH   1  18
TORSDOF 5
ENDMDL
MODEL 6
REMARK VINA RESULT:   -11.291      1.192      3.752
REMARK INTER + INTRA:         -15.068
REMARK INTER:                 -15.934
REMARK INTRA:                   0.866
REMARK UNBOUND:                -0.476
REMARK SMILES Cn1c(=O)cc2cc3o[nH]c(CC[C@H]4CC[N@@H+](Cc5ccccc5)CC4)c3cc21
REMARK SMILES IDX 13 1 12 2 11 3 10 4 9 5 8 6 27 7 7 8 28 9 6 10 29 11 5 12
REMARK SMILES IDX 2 13 3 14 1 16 4 17 14 18 26 19 15 20 25 21 16 22 17 23
REMARK SMILES IDX 18 25 19 26 20 27 24 28 21 29 23 30 22 31
REMARK H PARENT 10 15 17 24
ROOT
ATOM      1  C   UNL     1      11.796 -60.112 -23.085  1.00  0.00     0.010 C 
ENDROOT
BRANCH   1   2
ATOM      2  C   UNL     1      12.131 -59.081 -24.172  1.00  0.00     0.058 C 
BRANCH   2   3
ATOM      3  C   UNL     1      11.625 -59.543 -25.500  1.00  0.00     0.060 A 
ATOM      4  N   UNL     1      12.144 -59.023 -26.688  1.00  0.00    -0.226 N 
ATOM      5  O   UNL     1      11.550 -59.668 -27.808  1.00  0.00    -0.382 OA
ATOM      6  C   UNL     1      10.629 -60.525 -27.234  1.00  0.00     0.164 A 
ATOM      7  C   UNL     1      10.683 -60.452 -25.779  1.00  0.00     0.044 A 
ATOM      8  C   UNL     1       9.777 -61.350 -27.867  1.00  0.00     0.061 A 
ATOM      9  C   UNL     1       9.840 -61.269 -24.926  1.00  0.00     0.041 A 
ATOM     10  C   UNL     1       8.920 -62.159 -27.017  1.00  0.00     0.008 A 
ATOM     11  C   UNL     1       8.988 -62.090 -25.560  1.00  0.00     0.052 A 
ATOM     12  C   UNL     1       7.993 -63.051 -27.385  1.00  0.00     0.082 A 
ATOM     13  N   UNL     1       8.068 -62.975 -25.080  1.00  0.00    -0.311 N 
ATOM     14  C   UNL     1       7.414 -63.603 -26.133  1.00  0.00     0.251 A 
ATOM     15  H   UNL     1      13.160 -59.093 -26.733  1.00  0.00     0.208 HD
ATOM     16  C   UNL     1       7.793 -63.245 -23.694  1.00  0.00     0.153 C 
ATOM     17  O   UNL     1       6.534 -64.443 -26.096  1.00  0.00    -0.269 OA
ENDBRANCH   2   3
ENDBRANCH   1   2
BRANCH   1  18
ATOM     18  C   UNL     1      11.074 -59.508 -21.861  1.00  0.00     0.000 C 
ATOM     19  C   UNL     1      11.656 -58.158 -21.415  1.00  0.00     0.065 C 
ATOM     20  C   UNL     1       9.572 -59.337 -22.141  1.00  0.00     0.065 C 
ATOM     21  C   UNL     1      11.355 -57.023 -22.388  1.00  0.00     0.262 C 
ATOM     22  C   UNL     1       9.270 -58.213 -23.124  1.00  0.00     0.262 C 
ATOM     23  N   UNL     1       9.870 -56.922 -22.615  1.00  0.00    -0.331 N 
ATOM     24  H   UNL     1       9.426 -56.726 -21.709  1.00  0.00     0.348 HD
BRANCH  23  25
ATOM     25  C   UNL     1       9.531 -55.738 -23.501  1.00  0.00     0.299 C 
BRANCH  25  26
ATOM     26  C   UNL     1      10.310 -54.498 -23.153  1.00  0.00     0.006 A 
ATOM     27  C   UNL     1      11.336 -54.041 -23.994  1.00  0.00     0.009 A 
ATOM     28  C   UNL     1      10.007 -53.770 -21.992  1.00  0.00     0.009 A 
ATOM     29  C   UNL     1      12.038 -52.877 -23.683  1.00  0.00     0.001 A 
ATOM     30  C   UNL     1      10.713 -52.606 -21.685  1.00  0.00     0.001 A 
ATOM     31  C   UNL     1      11.725 -52.159 -22.531  1.00  0.00     0.000 A 
ENDBRANCH  25  26
ENDBRANCH  23  25
ENDBRANCH   1  18
TORSDOF 5
ENDMDL
MODEL 7
REMARK VINA RESULT:   -10.804      7.695     13.086
REMARK INTER + INTRA:         -14.437
REMARK INTER:                 -13.863
REMARK INTRA:                  -0.574
REMARK UNBOUND:                -0.476
REMARK SMILES Cn1c(=O)cc2cc3o[nH]c(CC[C@H]4CC[N@@H+](Cc5ccccc5)CC4)c3cc21
REMARK SMILES IDX 13 1 12 2 11 3 10 4 9 5 8 6 27 7 7 8 28 9 6 10 29 11 5 12
REMARK SMILES IDX 2 13 3 14 1 16 4 17 14 18 26 19 15 20 25 21 16 22 17 23
REMARK SMILES IDX 18 25 19 26 20 27 24 28 21 29 23 30 22 31
REMARK H PARENT 10 15 17 24
ROOT
ATOM      1  C   UNL     1      11.049 -50.299 -22.721  1.00  0.00     0.010 C 
ENDROOT
BRANCH   1   2
ATOM      2  C   UNL     1      11.828 -49.148 -23.374  1.00  0.00     0.058 C 
BRANCH   2   3
ATOM      3  C   UNL     1      11.200 -47.836 -23.033  1.00  0.00     0.060 A 
ATOM      4  N   UNL     1      10.250 -47.738 -22.013  1.00  0.00    -0.226 N 
ATOM      5  O   UNL     1       9.855 -46.382 -21.838  1.00  0.00    -0.382 OA
ATOM      6  C   UNL     1      10.553 -45.714 -22.827  1.00  0.00     0.164 A 
ATOM      7  C   UNL     1      11.407 -46.631 -23.574  1.00  0.00     0.044 A 
ATOM      8  C   UNL     1      10.509 -44.401 -23.112  1.00  0.00     0.061 A 
ATOM      9  C   UNL     1      12.270 -46.186 -24.653  1.00  0.00     0.041 A 
ATOM     10  C   UNL     1      11.360 -43.954 -24.201  1.00  0.00     0.008 A 
ATOM     11  C   UNL     1      12.223 -44.875 -24.937  1.00  0.00     0.052 A 
ATOM     12  C   UNL     1      11.505 -42.714 -24.685  1.00  0.00     0.082 A 
ATOM     13  N   UNL     1      12.883 -44.134 -25.872  1.00  0.00    -0.311 N 
ATOM     14  C   UNL     1      12.499 -42.801 -25.786  1.00  0.00     0.251 A 
ATOM     15  H   UNL     1      10.582 -48.130 -21.132  1.00  0.00     0.208 HD
ATOM     16  C   UNL     1      13.847 -44.627 -26.820  1.00  0.00     0.153 C 
ATOM     17  O   UNL     1      12.868 -41.853 -26.453  1.00  0.00    -0.269 OA
ENDBRANCH   2   3
ENDBRANCH   1   2
BRANCH   1  18
ATOM     18  C   UNL     1      11.954 -51.373 -22.081  1.00  0.00     0.000 C 
ATOM     19  C   UNL     1      11.219 -52.268 -21.070  1.00  0.00     0.065 C 
ATOM     20  C   UNL     1      12.597 -52.262 -23.158  1.00  0.00     0.065 C 
ATOM     21  C   UNL     1      10.228 -53.224 -21.724  1.00  0.00     0.262 C 
ATOM     22  C   UNL     1      11.605 -53.210 -23.824  1.00  0.00     0.262 C 
ATOM     23  N   UNL     1      10.928 -54.053 -22.768  1.00  0.00    -0.331 N 
ATOM     24  H   UNL     1      11.668 -54.591 -22.299  1.00  0.00     0.348 HD
BRANCH  23  25
ATOM     25  C   UNL     1       9.990 -55.085 -23.367  1.00  0.00     0.299 C 
BRANCH  25  26
ATOM     26  C   UNL     1      10.222 -56.473 -22.835  1.00  0.00     0.006 A 
ATOM     27  C   UNL     1       9.435 -57.547 -23.277  1.00  0.00     0.009 A 
ATOM     28  C   UNL     1      11.245 -56.717 -21.904  1.00  0.00     0.009 A 
ATOM     29  C   UNL     1       9.671 -58.837 -22.803  1.00  0.00     0.001 A 
ATOM     30  C   UNL     1      11.476 -58.010 -21.434  1.00  0.00     0.001 A 
ATOM     31  C   UNL     1      10.691 -59.069 -21.884  1.00  0.00     0.000 A 
ENDBRANCH  25  26
ENDBRANCH  23  25
ENDBRANCH   1  18
TORSDOF 5
ENDMDL
MODEL 8
REMARK VINA RESULT:   -10.605      5.673     10.938
REMARK INTER + INTRA:         -14.181
REMARK INTER:                 -13.602
REMARK INTRA:                  -0.579
REMARK UNBOUND:                -0.476
REMARK SMILES Cn1c(=O)cc2cc3o[nH]c(CC[C@H]4CC[N@@H+](Cc5ccccc5)CC4)c3cc21
REMARK SMILES IDX 13 1 12 2 11 3 10 4 9 5 8 6 27 7 7 8 28 9 6 10 29 11 5 12
REMARK SMILES IDX 2 13 3 14 1 16 4 17 14 18 26 19 15 20 25 21 16 22 17 23
REMARK SMILES IDX 18 25 19 26 20 27 24 28 21 29 23 30 22 31
REMARK H PARENT 10 15 17 24
ROOT
ATOM      1  C   UNL     1      11.552 -52.845 -23.045  1.00  0.00     0.010 C 
ENDROOT
BRANCH   1   2
ATOM      2  C   UNL     1      11.617 -51.868 -21.862  1.00  0.00     0.058 C 
BRANCH   2   3
ATOM      3  C   UNL     1      11.045 -50.543 -22.251  1.00  0.00     0.060 A 
ATOM      4  N   UNL     1       9.757 -50.174 -21.857  1.00  0.00    -0.226 N 
ATOM      5  O   UNL     1       9.471 -48.849 -22.292  1.00  0.00    -0.382 OA
ATOM      6  C   UNL     1      10.602 -48.493 -23.001  1.00  0.00     0.164 A 
ATOM      7  C   UNL     1      11.598 -49.558 -22.968  1.00  0.00     0.044 A 
ATOM      8  C   UNL     1      10.829 -47.337 -23.649  1.00  0.00     0.061 A 
ATOM      9  C   UNL     1      12.893 -49.435 -23.611  1.00  0.00     0.041 A 
ATOM     10  C   UNL     1      12.118 -47.215 -24.307  1.00  0.00     0.008 A 
ATOM     11  C   UNL     1      13.116 -48.280 -24.259  1.00  0.00     0.052 A 
ATOM     12  C   UNL     1      12.594 -46.182 -25.014  1.00  0.00     0.082 A 
ATOM     13  N   UNL     1      14.198 -47.839 -24.962  1.00  0.00    -0.311 N 
ATOM     14  C   UNL     1      13.959 -46.564 -25.459  1.00  0.00     0.251 A 
ATOM     15  H   UNL     1       9.617 -50.258 -20.850  1.00  0.00     0.208 HD
ATOM     16  C   UNL     1      15.425 -48.561 -25.173  1.00  0.00     0.153 C 
ATOM     17  O   UNL     1      14.684 -45.856 -26.131  1.00  0.00    -0.269 OA
ENDBRANCH   2   3
ENDBRANCH   1   2
BRANCH   1  18
ATOM     18  C   UNL     1      10.277 -53.715 -23.058  1.00  0.00     0.000 C 
ATOM     19  C   UNL     1      10.402 -54.968 -23.939  1.00  0.00     0.065 C 
ATOM     20  C   UNL     1       9.891 -54.144 -21.633  1.00  0.00     0.065 C 
ATOM     21  C   UNL     1      11.339 -56.020 -23.358  1.00  0.00     0.262 C 
ATOM     22  C   UNL     1      10.835 -55.186 -21.044  1.00  0.00     0.262 C 
ATOM     23  N   UNL     1      10.902 -56.383 -21.964  1.00  0.00    -0.331 N 
ATOM     24  H   UNL     1       9.949 -56.765 -22.023  1.00  0.00     0.348 HD
BRANCH  23  25
ATOM     25  C   UNL     1      11.756 -57.501 -21.396  1.00  0.00     0.299 C 
BRANCH  25  26
ATOM     26  C   UNL     1      11.352 -58.863 -21.893  1.00  0.00     0.006 A 
ATOM     27  C   UNL     1      10.351 -59.594 -21.236  1.00  0.00     0.009 A 
ATOM     28  C   UNL     1      11.959 -59.413 -23.033  1.00  0.00     0.009 A 
ATOM     29  C   UNL     1       9.960 -60.844 -21.715  1.00  0.00     0.001 A 
ATOM     30  C   UNL     1      11.564 -60.665 -23.508  1.00  0.00     0.001 A 
ATOM     31  C   UNL     1      10.564 -61.378 -22.851  1.00  0.00     0.000 A 
ENDBRANCH  25  26
ENDBRANCH  23  25
ENDBRANCH   1  18
TORSDOF 5
ENDMDL
MODEL 9
REMARK VINA RESULT:   -10.432      5.748     10.855
REMARK INTER + INTRA:         -13.957
REMARK INTER:                 -13.305
REMARK INTRA:                  -0.651
REMARK UNBOUND:                -0.476
REMARK SMILES Cn1c(=O)cc2cc3o[nH]c(CC[C@H]4CC[N@@H+](Cc5ccccc5)CC4)c3cc21
REMARK SMILES IDX 13 1 12 2 11 3 10 4 9 5 8 6 27 7 7 8 28 9 6 10 29 11 5 12
REMARK SMILES IDX 2 13 3 14 1 16 4 17 14 18 26 19 15 20 25 21 16 22 17 23
REMARK SMILES IDX 18 25 19 26 20 27 24 28 21 29 23 30 22 31
REMARK H PARENT 10 15 17 24
ROOT
ATOM      1  C   UNL     1      11.887 -52.499 -22.629  1.00  0.00     0.010 C 
ENDROOT
BRANCH   1   2
ATOM      2  C   UNL     1      11.941 -51.097 -23.253  1.00  0.00     0.058 C 
BRANCH   2   3
ATOM      3  C   UNL     1      12.790 -51.108 -24.482  1.00  0.00     0.060 A 
ATOM      4  N   UNL     1      13.112 -52.307 -25.123  1.00  0.00    -0.226 N 
ATOM      5  O   UNL     1      13.869 -52.048 -26.300  1.00  0.00    -0.382 OA
ATOM      6  C   UNL     1      14.030 -50.676 -26.282  1.00  0.00     0.164 A 
ATOM      7  C   UNL     1      13.343 -50.083 -25.141  1.00  0.00     0.044 A 
ATOM      8  C   UNL     1      14.704 -49.922 -27.167  1.00  0.00     0.061 A 
ATOM      9  C   UNL     1      13.328 -48.652 -24.898  1.00  0.00     0.041 A 
ATOM     10  C   UNL     1      14.705 -48.490 -26.920  1.00  0.00     0.008 A 
ATOM     11  C   UNL     1      14.004 -47.902 -25.782  1.00  0.00     0.052 A 
ATOM     12  C   UNL     1      15.293 -47.525 -27.638  1.00  0.00     0.082 A 
ATOM     13  N   UNL     1      14.198 -46.554 -25.854  1.00  0.00    -0.311 N 
ATOM     14  C   UNL     1      14.979 -46.241 -26.960  1.00  0.00     0.251 A 
ATOM     15  H   UNL     1      12.287 -52.864 -25.344  1.00  0.00     0.208 HD
ATOM     16  C   UNL     1      13.681 -45.572 -24.938  1.00  0.00     0.153 C 
ATOM     17  O   UNL     1      15.361 -45.151 -27.344  1.00  0.00    -0.269 OA
ENDBRANCH   2   3
ENDBRANCH   1   2
BRANCH   1  18
ATOM     18  C   UNL     1      10.486 -53.144 -22.681  1.00  0.00     0.000 C 
ATOM     19  C   UNL     1      10.302 -54.109 -23.863  1.00  0.00     0.065 C 
ATOM     20  C   UNL     1      10.177 -53.892 -21.374  1.00  0.00     0.065 C 
ATOM     21  C   UNL     1      11.097 -55.402 -23.712  1.00  0.00     0.262 C 
ATOM     22  C   UNL     1      10.981 -55.177 -21.214  1.00  0.00     0.262 C 
ATOM     23  N   UNL     1      10.746 -56.071 -22.410  1.00  0.00    -0.331 N 
ATOM     24  H   UNL     1       9.740 -56.284 -22.427  1.00  0.00     0.348 HD
BRANCH  23  25
ATOM     25  C   UNL     1      11.446 -57.411 -22.277  1.00  0.00     0.299 C 
BRANCH  25  26
ATOM     26  C   UNL     1      10.495 -58.577 -22.279  1.00  0.00     0.006 A 
ATOM     27  C   UNL     1       9.360 -58.570 -23.104  1.00  0.00     0.009 A 
ATOM     28  C   UNL     1      10.741 -59.697 -21.470  1.00  0.00     0.009 A 
ATOM     29  C   UNL     1       8.495 -59.664 -23.123  1.00  0.00     0.001 A 
ATOM     30  C   UNL     1       9.873 -60.789 -21.493  1.00  0.00     0.001 A 
ATOM     31  C   UNL     1       8.752 -60.773 -22.321  1.00  0.00     0.000 A 
ENDBRANCH  25  26
ENDBRANCH  23  25
ENDBRANCH   1  18
TORSDOF 5
ENDMDL
