MODEL 1
REMARK VINA RESULT:   -10.153      0.000      0.000
REMARK INTER + INTRA:         -16.501
REMARK INTER:                 -15.792
REMARK INTRA:                  -0.709
REMARK UNBOUND:                -0.709
REMARK SMILES N#Cc1cc(C#N)c(=N)[nH]c1NCCC[C@H]1CC[N@@H+](Cc2ccccc2)CC1
REMARK SMILES IDX 13 1 12 2 11 4 10 5 8 6 3 7 5 8 4 9 9 11 2 13 1 14 6 15 7 16
REMARK SMILES IDX 14 17 15 18 16 19 17 20 28 21 18 22 27 23 19 24 20 26 21 27
REMARK SMILES IDX 22 28 26 29 23 30 25 31 24 32
REMARK H PARENT 12 3 10 10 9 12 19 25
ROOT
ATOM      1  C   UNL     1      10.941 -54.186 -22.357  1.00  0.00     0.114 C 
ENDROOT
BRANCH   1   2
ATOM      2  N   UNL     1      11.745 -53.129 -22.957  1.00  0.00    -0.370 N 
ATOM      3  H   UNL     1      12.736 -53.373 -22.994  1.00  0.00     0.162 HD
BRANCH   2   4
ATOM      4  C   UNL     1      11.503 -51.766 -22.825  1.00  0.00     0.123 A 
ATOM      5  N   UNL     1      10.302 -51.341 -22.280  1.00  0.00    -0.325 N 
ATOM      6  C   UNL     1       9.931 -50.024 -22.147  1.00  0.00     0.141 A 
ATOM      7  C   UNL     1      12.388 -50.808 -23.223  1.00  0.00     0.094 A 
ATOM      8  C   UNL     1      10.903 -48.956 -22.542  1.00  0.00     0.096 A 
ATOM      9  C   UNL     1      12.070 -49.388 -23.057  1.00  0.00     0.046 A 
ATOM     10  H   UNL     1       9.596 -52.058 -22.201  1.00  0.00     0.170 HD
BRANCH   6  11
ATOM     11  N   UNL     1       8.762 -49.701 -21.694  1.00  0.00    -0.283 NA
ATOM     12  H   UNL     1       8.299 -50.504 -21.267  1.00  0.00     0.189 HD
ENDBRANCH   6  11
BRANCH   7  13
ATOM     13  C   UNL     1      13.665 -51.147 -23.759  1.00  0.00     0.103 C 
ATOM     14  N   UNL     1      14.696 -51.375 -24.238  1.00  0.00    -0.192 NA
ENDBRANCH   7  13
BRANCH   8  15
ATOM     15  C   UNL     1      10.608 -47.577 -22.378  1.00  0.00     0.103 C 
ATOM     16  N   UNL     1      10.309 -46.472 -22.187  1.00  0.00    -0.192 NA
ENDBRANCH   8  15
ENDBRANCH   2   4
ENDBRANCH   1   2
BRANCH   1  17
ATOM     17  C   UNL     1      10.631 -55.266 -23.400  1.00  0.00     0.021 C 
BRANCH  17  18
ATOM     18  C   UNL     1      11.395 -56.565 -23.123  1.00  0.00     0.006 C 
BRANCH  18  19
ATOM     19  C   UNL     1      10.649 -57.522 -22.165  1.00  0.00     0.000 C 
ATOM     20  C   UNL     1      11.501 -58.691 -21.649  1.00  0.00     0.065 C 
ATOM     21  C   UNL     1       9.374 -58.078 -22.821  1.00  0.00     0.065 C 
ATOM     22  C   UNL     1      11.794 -59.735 -22.719  1.00  0.00     0.262 C 
ATOM     23  C   UNL     1       9.653 -59.135 -23.886  1.00  0.00     0.262 C 
ATOM     24  N   UNL     1      10.496 -60.241 -23.295  1.00  0.00    -0.331 N 
ATOM     25  H   UNL     1       9.952 -60.652 -22.526  1.00  0.00     0.348 HD
BRANCH  24  26
ATOM     26  C   UNL     1      10.737 -61.376 -24.274  1.00  0.00     0.299 C 
BRANCH  26  27
ATOM     27  C   UNL     1       9.537 -62.264 -24.453  1.00  0.00     0.006 A 
ATOM     28  C   UNL     1       9.064 -63.045 -23.386  1.00  0.00     0.009 A 
ATOM     29  C   UNL     1       8.861 -62.312 -25.682  1.00  0.00     0.009 A 
ATOM     30  C   UNL     1       7.934 -63.849 -23.546  1.00  0.00     0.001 A 
ATOM     31  C   UNL     1       7.731 -63.117 -25.836  1.00  0.00     0.001 A 
ATOM     32  C   UNL     1       7.269 -63.883 -24.769  1.00  0.00     0.000 A 
ENDBRANCH  26  27
ENDBRANCH  24  26
ENDBRANCH  18  19
ENDBRANCH  17  18
ENDBRANCH   1  17
TORSDOF 10
ENDMDL
MODEL 2
REMARK VINA RESULT:    -9.885      2.075     11.080
REMARK INTER + INTRA:         -16.085
REMARK INTER:                 -15.345
REMARK INTRA:                  -0.739
REMARK UNBOUND:                -0.709
REMARK SMILES N#Cc1cc(C#N)c(=N)[nH]c1NCCC[C@H]1CC[N@@H+](Cc2ccccc2)CC1
REMARK SMILES IDX 13 1 12 2 11 4 10 5 8 6 3 7 5 8 4 9 9 11 2 13 1 14 6 15 7 16
REMARK SMILES IDX 14 17 15 18 16 19 17 20 28 21 18 22 27 23 19 24 20 26 21 27
REMARK SMILES IDX 22 28 26 29 23 30 25 31 24 32
REMARK H PARENT 12 3 10 10 9 12 19 25
ROOT
ATOM      1  C   UNL     1      10.295 -58.252 -22.781  1.00  0.00     0.114 C 
ENDROOT
BRANCH   1   2
ATOM      2  N   UNL     1       9.939 -58.616 -24.146  1.00  0.00    -0.370 N 
ATOM      3  H   UNL     1       9.647 -57.806 -24.697  1.00  0.00     0.162 HD
BRANCH   2   4
ATOM      4  C   UNL     1       9.328 -59.806 -24.525  1.00  0.00     0.123 A 
ATOM      5  N   UNL     1       8.198 -60.233 -23.845  1.00  0.00    -0.325 N 
ATOM      6  C   UNL     1       7.540 -61.414 -24.095  1.00  0.00     0.141 A 
ATOM      7  C   UNL     1       9.793 -60.599 -25.532  1.00  0.00     0.094 A 
ATOM      8  C   UNL     1       8.011 -62.280 -25.222  1.00  0.00     0.096 A 
ATOM      9  C   UNL     1       9.103 -61.842 -25.879  1.00  0.00     0.046 A 
ATOM     10  H   UNL     1       8.014 -59.744 -22.981  1.00  0.00     0.170 HD
BRANCH   6  11
ATOM     11  N   UNL     1       6.532 -61.784 -23.372  1.00  0.00    -0.283 NA
ATOM     12  H   UNL     1       6.202 -62.710 -23.646  1.00  0.00     0.189 HD
ENDBRANCH   6  11
BRANCH   7  13
ATOM     13  C   UNL     1      10.926 -60.224 -26.314  1.00  0.00     0.103 C 
ATOM     14  N   UNL     1      11.862 -59.877 -26.904  1.00  0.00    -0.192 NA
ENDBRANCH   7  13
BRANCH   8  15
ATOM     15  C   UNL     1       7.345 -63.483 -25.571  1.00  0.00     0.103 C 
ATOM     16  N   UNL     1       6.742 -64.448 -25.799  1.00  0.00    -0.192 NA
ENDBRANCH   8  15
ENDBRANCH   2   4
ENDBRANCH   1   2
BRANCH   1  17
ATOM     17  C   UNL     1      11.363 -57.153 -22.792  1.00  0.00     0.021 C 
BRANCH  17  18
ATOM     18  C   UNL     1      10.990 -55.983 -21.875  1.00  0.00     0.006 C 
BRANCH  18  19
ATOM     19  C   UNL     1      10.052 -54.954 -22.546  1.00  0.00     0.000 C 
ATOM     20  C   UNL     1      10.531 -54.465 -23.921  1.00  0.00     0.065 C 
ATOM     21  C   UNL     1       9.818 -53.740 -21.632  1.00  0.00     0.065 C 
ATOM     22  C   UNL     1      11.741 -53.544 -23.839  1.00  0.00     0.262 C 
ATOM     23  C   UNL     1      11.019 -52.803 -21.552  1.00  0.00     0.262 C 
ATOM     24  N   UNL     1      11.423 -52.375 -22.943  1.00  0.00    -0.331 N 
ATOM     25  H   UNL     1      10.617 -51.880 -23.348  1.00  0.00     0.348 HD
BRANCH  24  26
ATOM     26  C   UNL     1      12.557 -51.365 -22.936  1.00  0.00     0.299 C 
BRANCH  26  27
ATOM     27  C   UNL     1      12.101 -49.965 -23.243  1.00  0.00     0.006 A 
ATOM     28  C   UNL     1      10.961 -49.435 -22.619  1.00  0.00     0.009 A 
ATOM     29  C   UNL     1      12.820 -49.162 -24.141  1.00  0.00     0.009 A 
ATOM     30  C   UNL     1      10.555 -48.126 -22.884  1.00  0.00     0.001 A 
ATOM     31  C   UNL     1      12.410 -47.853 -24.402  1.00  0.00     0.001 A 
ATOM     32  C   UNL     1      11.279 -47.337 -23.773  1.00  0.00     0.000 A 
ENDBRANCH  26  27
ENDBRANCH  24  26
ENDBRANCH  18  19
ENDBRANCH  17  18
ENDBRANCH   1  17
TORSDOF 10
ENDMDL
MODEL 3
REMARK VINA RESULT:    -9.791      1.708      2.462
REMARK INTER + INTRA:         -15.938
REMARK INTER:                 -15.283
REMARK INTRA:                  -0.654
REMARK UNBOUND:                -0.709
REMARK SMILES N#Cc1cc(C#N)c(=N)[nH]c1NCCC[C@H]1CC[N@@H+](Cc2ccccc2)CC1
REMARK SMILES IDX 13 1 12 2 11 4 10 5 8 6 3 7 5 8 4 9 9 11 2 13 1 14 6 15 7 16
REMARK SMILES IDX 14 17 15 18 16 19 17 20 28 21 18 22 27 23 19 24 20 26 21 27
REMARK SMILES IDX 22 28 26 29 23 30 25 31 24 32
REMARK H PARENT 12 3 10 10 9 12 19 25
ROOT
ATOM      1  C   UNL     1       9.921 -54.829 -22.115  1.00  0.00     0.114 C 
ENDROOT
BRANCH   1   2
ATOM      2  N   UNL     1      10.410 -54.234 -23.351  1.00  0.00    -0.370 N 
ATOM      3  H   UNL     1      10.497 -54.922 -24.102  1.00  0.00     0.162 HD
BRANCH   2   4
ATOM      4  C   UNL     1      11.329 -53.193 -23.431  1.00  0.00     0.123 A 
ATOM      5  N   UNL     1      11.290 -52.183 -22.484  1.00  0.00    -0.325 N 
ATOM      6  C   UNL     1      12.112 -51.080 -22.489  1.00  0.00     0.141 A 
ATOM      7  C   UNL     1      12.270 -53.100 -24.414  1.00  0.00     0.094 A 
ATOM      8  C   UNL     1      13.177 -50.977 -23.536  1.00  0.00     0.096 A 
ATOM      9  C   UNL     1      13.207 -51.975 -24.440  1.00  0.00     0.046 A 
ATOM     10  H   UNL     1      10.459 -52.170 -21.912  1.00  0.00     0.170 HD
BRANCH   6  11
ATOM     11  N   UNL     1      11.973 -50.139 -21.612  1.00  0.00    -0.283 NA
ATOM     12  H   UNL     1      10.986 -49.937 -21.443  1.00  0.00     0.189 HD
ENDBRANCH   6  11
BRANCH   7  13
ATOM     13  C   UNL     1      12.412 -54.110 -25.410  1.00  0.00     0.103 C 
ATOM     14  N   UNL     1      12.472 -54.957 -26.200  1.00  0.00    -0.192 NA
ENDBRANCH   7  13
BRANCH   8  15
ATOM     15  C   UNL     1      14.095 -49.896 -23.566  1.00  0.00     0.103 C 
ATOM     16  N   UNL     1      14.784 -48.962 -23.563  1.00  0.00    -0.192 NA
ENDBRANCH   8  15
ENDBRANCH   2   4
ENDBRANCH   1   2
BRANCH   1  17
ATOM     17  C   UNL     1      11.074 -55.505 -21.364  1.00  0.00     0.021 C 
BRANCH  17  18
ATOM     18  C   UNL     1      11.192 -56.991 -21.714  1.00  0.00     0.006 C 
BRANCH  18  19
ATOM     19  C   UNL     1      10.755 -57.316 -23.161  1.00  0.00     0.000 C 
ATOM     20  C   UNL     1       9.437 -58.099 -23.262  1.00  0.00     0.065 C 
ATOM     21  C   UNL     1      11.855 -58.082 -23.913  1.00  0.00     0.065 C 
ATOM     22  C   UNL     1       9.566 -59.547 -22.807  1.00  0.00     0.262 C 
ATOM     23  C   UNL     1      11.986 -59.538 -23.476  1.00  0.00     0.262 C 
ATOM     24  N   UNL     1      10.649 -60.229 -23.604  1.00  0.00    -0.331 N 
ATOM     25  H   UNL     1      10.383 -60.182 -24.596  1.00  0.00     0.348 HD
BRANCH  24  26
ATOM     26  C   UNL     1      10.723 -61.709 -23.273  1.00  0.00     0.299 C 
BRANCH  26  27
ATOM     27  C   UNL     1       9.534 -62.484 -23.770  1.00  0.00     0.006 A 
ATOM     28  C   UNL     1       8.888 -63.409 -22.934  1.00  0.00     0.009 A 
ATOM     29  C   UNL     1       9.040 -62.280 -25.067  1.00  0.00     0.009 A 
ATOM     30  C   UNL     1       7.769 -64.109 -23.387  1.00  0.00     0.001 A 
ATOM     31  C   UNL     1       7.920 -62.982 -25.515  1.00  0.00     0.001 A 
ATOM     32  C   UNL     1       7.285 -63.893 -24.674  1.00  0.00     0.000 A 
ENDBRANCH  26  27
ENDBRANCH  24  26
ENDBRANCH  18  19
ENDBRANCH  17  18
ENDBRANCH   1  17
TORSDOF 10
ENDMDL
MODEL 4
REMARK VINA RESULT:    -9.691      2.118     10.923
REMARK INTER + INTRA:         -15.783
REMARK INTER:                 -15.050
REMARK INTRA:                  -0.733
REMARK UNBOUND:                -0.709
REMARK SMILES N#Cc1cc(C#N)c(=N)[nH]c1NCCC[C@H]1CC[N@@H+](Cc2ccccc2)CC1
REMARK SMILES IDX 13 1 12 2 11 4 10 5 8 6 3 7 5 8 4 9 9 11 2 13 1 14 6 15 7 16
REMARK SMILES IDX 14 17 15 18 16 19 17 20 28 21 18 22 27 23 19 24 20 26 21 27
REMARK SMILES IDX 22 28 26 29 23 30 25 31 24 32
REMARK H PARENT 12 3 10 10 9 12 19 25
ROOT
ATOM      1  C   UNL     1      11.277 -58.515 -22.338  1.00  0.00     0.114 C 
ENDROOT
BRANCH   1   2
ATOM      2  N   UNL     1      11.846 -59.516 -23.232  1.00  0.00    -0.370 N 
ATOM      3  H   UNL     1      12.856 -59.411 -23.334  1.00  0.00     0.162 HD
BRANCH   2   4
ATOM      4  C   UNL     1      11.215 -60.035 -24.357  1.00  0.00     0.123 A 
ATOM      5  N   UNL     1      11.421 -59.432 -25.588  1.00  0.00    -0.325 N 
ATOM      6  C   UNL     1      10.814 -59.825 -26.758  1.00  0.00     0.141 A 
ATOM      7  C   UNL     1      10.378 -61.111 -24.316  1.00  0.00     0.094 A 
ATOM      8  C   UNL     1       9.923 -61.027 -26.742  1.00  0.00     0.096 A 
ATOM      9  C   UNL     1       9.744 -61.607 -25.539  1.00  0.00     0.046 A 
ATOM     10  H   UNL     1      11.863 -58.525 -25.546  1.00  0.00     0.170 HD
BRANCH   6  11
ATOM     11  N   UNL     1      10.999 -59.169 -27.859  1.00  0.00    -0.283 NA
ATOM     12  H   UNL     1      11.772 -59.565 -28.396  1.00  0.00     0.189 HD
ENDBRANCH   6  11
BRANCH   7  13
ATOM     13  C   UNL     1      10.134 -61.822 -23.103  1.00  0.00     0.103 C 
ATOM     14  N   UNL     1       9.894 -62.353 -22.101  1.00  0.00    -0.192 NA
ENDBRANCH   7  13
BRANCH   8  15
ATOM     15  C   UNL     1       9.310 -61.520 -27.923  1.00  0.00     0.103 C 
ATOM     16  N   UNL     1       8.736 -61.920 -28.849  1.00  0.00    -0.192 NA
ENDBRANCH   8  15
ENDBRANCH   2   4
ENDBRANCH   1   2
BRANCH   1  17
ATOM     17  C   UNL     1      11.399 -57.122 -22.963  1.00  0.00     0.021 C 
BRANCH  17  18
ATOM     18  C   UNL     1      11.016 -56.016 -21.975  1.00  0.00     0.006 C 
BRANCH  18  19
ATOM     19  C   UNL     1      10.077 -54.949 -22.583  1.00  0.00     0.000 C 
ATOM     20  C   UNL     1      10.557 -54.375 -23.925  1.00  0.00     0.065 C 
ATOM     21  C   UNL     1       9.839 -53.794 -21.597  1.00  0.00     0.065 C 
ATOM     22  C   UNL     1      11.765 -53.459 -23.784  1.00  0.00     0.262 C 
ATOM     23  C   UNL     1      11.037 -52.861 -21.457  1.00  0.00     0.262 C 
ATOM     24  N   UNL     1      11.443 -52.347 -22.818  1.00  0.00    -0.331 N 
ATOM     25  H   UNL     1      10.637 -51.831 -23.194  1.00  0.00     0.348 HD
BRANCH  24  26
ATOM     26  C   UNL     1      12.574 -51.338 -22.748  1.00  0.00     0.299 C 
BRANCH  26  27
ATOM     27  C   UNL     1      12.166 -49.962 -23.198  1.00  0.00     0.006 A 
ATOM     28  C   UNL     1      11.050 -49.328 -22.627  1.00  0.00     0.009 A 
ATOM     29  C   UNL     1      12.904 -49.284 -24.180  1.00  0.00     0.009 A 
ATOM     30  C   UNL     1      10.689 -48.041 -23.026  1.00  0.00     0.001 A 
ATOM     31  C   UNL     1      12.538 -47.997 -24.575  1.00  0.00     0.001 A 
ATOM     32  C   UNL     1      11.433 -47.377 -23.997  1.00  0.00     0.000 A 
ENDBRANCH  26  27
ENDBRANCH  24  26
ENDBRANCH  18  19
ENDBRANCH  17  18
ENDBRANCH   1  17
TORSDOF 10
ENDMDL
MODEL 5
REMARK VINA RESULT:    -9.522      1.937      2.837
REMARK INTER + INTRA:         -15.520
REMARK INTER:                 -15.201
REMARK INTRA:                  -0.319
REMARK UNBOUND:                -0.709
REMARK SMILES N#Cc1cc(C#N)c(=N)[nH]c1NCCC[C@H]1CC[N@@H+](Cc2ccccc2)CC1
REMARK SMILES IDX 13 1 12 2 11 4 10 5 8 6 3 7 5 8 4 9 9 11 2 13 1 14 6 15 7 16
REMARK SMILES IDX 14 17 15 18 16 19 17 20 28 21 18 22 27 23 19 24 20 26 21 27
REMARK SMILES IDX 22 28 26 29 23 30 25 31 24 32
REMARK H PARENT 12 3 10 10 9 12 19 25
ROOT
ATOM      1  C   UNL     1      11.025 -55.843 -22.060  1.00  0.00     0.114 C 
ENDROOT
BRANCH   1   2
ATOM      2  N   UNL     1      10.675 -54.816 -23.032  1.00  0.00    -0.370 N 
ATOM      3  H   UNL     1      10.293 -55.214 -23.891  1.00  0.00     0.162 HD
BRANCH   2   4
ATOM      4  C   UNL     1      11.362 -53.622 -23.220  1.00  0.00     0.123 A 
ATOM      5  N   UNL     1      11.275 -52.632 -22.254  1.00  0.00    -0.325 N 
ATOM      6  C   UNL     1      11.868 -51.395 -22.353  1.00  0.00     0.141 A 
ATOM      7  C   UNL     1      12.115 -53.358 -24.326  1.00  0.00     0.094 A 
ATOM      8  C   UNL     1      12.731 -51.099 -23.540  1.00  0.00     0.096 A 
ATOM      9  C   UNL     1      12.813 -52.078 -24.462  1.00  0.00     0.046 A 
ATOM     10  H   UNL     1      10.549 -52.772 -21.568  1.00  0.00     0.170 HD
BRANCH   6  11
ATOM     11  N   UNL     1      11.686 -50.492 -21.444  1.00  0.00    -0.283 NA
ATOM     12  H   UNL     1      11.826 -50.878 -20.509  1.00  0.00     0.189 HD
ENDBRANCH   6  11
BRANCH   7  13
ATOM     13  C   UNL     1      12.295 -54.329 -25.355  1.00  0.00     0.103 C 
ATOM     14  N   UNL     1      12.418 -55.162 -26.152  1.00  0.00    -0.192 NA
ENDBRANCH   7  13
BRANCH   8  15
ATOM     15  C   UNL     1      13.417 -49.865 -23.678  1.00  0.00     0.103 C 
ATOM     16  N   UNL     1      13.906 -48.817 -23.775  1.00  0.00    -0.192 NA
ENDBRANCH   8  15
ENDBRANCH   2   4
ENDBRANCH   1   2
BRANCH   1  17
ATOM     17  C   UNL     1      11.212 -57.191 -22.763  1.00  0.00     0.021 C 
BRANCH  17  18
ATOM     18  C   UNL     1      11.427 -58.333 -21.765  1.00  0.00     0.006 C 
BRANCH  18  19
ATOM     19  C   UNL     1      10.332 -59.423 -21.836  1.00  0.00     0.000 C 
ATOM     20  C   UNL     1      10.838 -60.797 -22.298  1.00  0.00     0.065 C 
ATOM     21  C   UNL     1       9.170 -58.982 -22.741  1.00  0.00     0.065 C 
ATOM     22  C   UNL     1      11.194 -60.835 -23.778  1.00  0.00     0.262 C 
ATOM     23  C   UNL     1       9.510 -59.029 -24.227  1.00  0.00     0.262 C 
ATOM     24  N   UNL     1      10.000 -60.410 -24.593  1.00  0.00    -0.331 N 
ATOM     25  H   UNL     1       9.233 -61.063 -24.387  1.00  0.00     0.348 HD
BRANCH  24  26
ATOM     26  C   UNL     1      10.271 -60.558 -26.080  1.00  0.00     0.299 C 
BRANCH  26  27
ATOM     27  C   UNL     1       9.423 -61.616 -26.731  1.00  0.00     0.006 A 
ATOM     28  C   UNL     1       9.541 -61.877 -28.106  1.00  0.00     0.009 A 
ATOM     29  C   UNL     1       8.514 -62.370 -25.972  1.00  0.00     0.009 A 
ATOM     30  C   UNL     1       8.773 -62.876 -28.704  1.00  0.00     0.001 A 
ATOM     31  C   UNL     1       7.748 -63.369 -26.575  1.00  0.00     0.001 A 
ATOM     32  C   UNL     1       7.880 -63.622 -27.938  1.00  0.00     0.000 A 
ENDBRANCH  26  27
ENDBRANCH  24  26
ENDBRANCH  18  19
ENDBRANCH  17  18
ENDBRANCH   1  17
TORSDOF 10
ENDMDL
MODEL 6
REMARK VINA RESULT:    -9.298      1.491      2.362
REMARK INTER + INTRA:         -15.171
REMARK INTER:                 -14.613
REMARK INTRA:                  -0.558
REMARK UNBOUND:                -0.709
REMARK SMILES N#Cc1cc(C#N)c(=N)[nH]c1NCCC[C@H]1CC[N@@H+](Cc2ccccc2)CC1
REMARK SMILES IDX 13 1 12 2 11 4 10 5 8 6 3 7 5 8 4 9 9 11 2 13 1 14 6 15 7 16
REMARK SMILES IDX 14 17 15 18 16 19 17 20 28 21 18 22 27 23 19 24 20 26 21 27
REMARK SMILES IDX 22 28 26 29 23 30 25 31 24 32
REMARK H PARENT 12 3 10 10 9 12 19 25
ROOT
ATOM      1  C   UNL     1      11.157 -54.172 -24.109  1.00  0.00     0.114 C 
ENDROOT
BRANCH   1   2
ATOM      2  N   UNL     1      11.772 -53.320 -23.099  1.00  0.00    -0.370 N 
ATOM      3  H   UNL     1      11.948 -53.822 -22.227  1.00  0.00     0.162 HD
BRANCH   2   4
ATOM      4  C   UNL     1      11.512 -51.965 -22.928  1.00  0.00     0.123 A 
ATOM      5  N   UNL     1      10.343 -51.575 -22.292  1.00  0.00    -0.325 N 
ATOM      6  C   UNL     1       9.956 -50.268 -22.111  1.00  0.00     0.141 A 
ATOM      7  C   UNL     1      12.345 -50.981 -23.372  1.00  0.00     0.094 A 
ATOM      8  C   UNL     1      10.874 -49.173 -22.556  1.00  0.00     0.096 A 
ATOM      9  C   UNL     1      12.009 -49.571 -23.161  1.00  0.00     0.046 A 
ATOM     10  H   UNL     1       9.660 -52.309 -22.174  1.00  0.00     0.170 HD
BRANCH   6  11
ATOM     11  N   UNL     1       8.816 -49.978 -21.570  1.00  0.00    -0.283 NA
ATOM     12  H   UNL     1       8.902 -49.886 -20.557  1.00  0.00     0.189 HD
ENDBRANCH   6  11
BRANCH   7  13
ATOM     13  C   UNL     1      13.587 -51.283 -24.004  1.00  0.00     0.103 C 
ATOM     14  N   UNL     1      14.614 -51.562 -24.465  1.00  0.00    -0.192 NA
ENDBRANCH   7  13
BRANCH   8  15
ATOM     15  C   UNL     1      10.562 -47.804 -22.349  1.00  0.00     0.103 C 
ATOM     16  N   UNL     1      10.276 -46.706 -22.105  1.00  0.00    -0.192 NA
ENDBRANCH   8  15
ENDBRANCH   2   4
ENDBRANCH   1   2
BRANCH   1  17
ATOM     17  C   UNL     1      10.349 -55.286 -23.435  1.00  0.00     0.021 C 
BRANCH  17  18
ATOM     18  C   UNL     1      11.235 -56.467 -23.025  1.00  0.00     0.006 C 
BRANCH  18  19
ATOM     19  C   UNL     1      10.525 -57.465 -22.081  1.00  0.00     0.000 C 
ATOM     20  C   UNL     1      11.435 -58.579 -21.541  1.00  0.00     0.065 C 
ATOM     21  C   UNL     1       9.303 -58.099 -22.765  1.00  0.00     0.065 C 
ATOM     22  C   UNL     1      11.815 -59.606 -22.600  1.00  0.00     0.262 C 
ATOM     23  C   UNL     1       9.670 -59.139 -23.819  1.00  0.00     0.262 C 
ATOM     24  N   UNL     1      10.564 -60.191 -23.204  1.00  0.00    -0.331 N 
ATOM     25  H   UNL     1      10.027 -60.632 -22.447  1.00  0.00     0.348 HD
BRANCH  24  26
ATOM     26  C   UNL     1      10.896 -61.312 -24.173  1.00  0.00     0.299 C 
BRANCH  26  27
ATOM     27  C   UNL     1      11.084 -60.834 -25.586  1.00  0.00     0.006 A 
ATOM     28  C   UNL     1      10.122 -61.120 -26.568  1.00  0.00     0.009 A 
ATOM     29  C   UNL     1      12.212 -60.078 -25.940  1.00  0.00     0.009 A 
ATOM     30  C   UNL     1      10.284 -60.653 -27.873  1.00  0.00     0.001 A 
ATOM     31  C   UNL     1      12.369 -59.613 -27.247  1.00  0.00     0.001 A 
ATOM     32  C   UNL     1      11.405 -59.900 -28.210  1.00  0.00     0.000 A 
ENDBRANCH  26  27
ENDBRANCH  24  26
ENDBRANCH  18  19
ENDBRANCH  17  18
ENDBRANCH   1  17
TORSDOF 10
ENDMDL
MODEL 7
REMARK VINA RESULT:    -9.157      1.518      3.453
REMARK INTER + INTRA:         -14.952
REMARK INTER:                 -14.148
REMARK INTRA:                  -0.803
REMARK UNBOUND:                -0.709
REMARK SMILES N#Cc1cc(C#N)c(=N)[nH]c1NCCC[C@H]1CC[N@@H+](Cc2ccccc2)CC1
REMARK SMILES IDX 13 1 12 2 11 4 10 5 8 6 3 7 5 8 4 9 9 11 2 13 1 14 6 15 7 16
REMARK SMILES IDX 14 17 15 18 16 19 17 20 28 21 18 22 27 23 19 24 20 26 21 27
REMARK SMILES IDX 22 28 26 29 23 30 25 31 24 32
REMARK H PARENT 12 3 10 10 9 12 19 25
ROOT
ATOM      1  C   UNL     1      10.543 -53.874 -22.459  1.00  0.00     0.114 C 
ENDROOT
BRANCH   1   2
ATOM      2  N   UNL     1      11.367 -52.679 -22.334  1.00  0.00    -0.370 N 
ATOM      3  H   UNL     1      10.988 -52.020 -21.653  1.00  0.00     0.162 HD
BRANCH   2   4
ATOM      4  C   UNL     1      12.068 -52.077 -23.373  1.00  0.00     0.123 A 
ATOM      5  N   UNL     1      12.835 -52.864 -24.218  1.00  0.00    -0.325 N 
ATOM      6  C   UNL     1      13.608 -52.376 -25.246  1.00  0.00     0.141 A 
ATOM      7  C   UNL     1      12.059 -50.732 -23.602  1.00  0.00     0.094 A 
ATOM      8  C   UNL     1      13.581 -50.909 -25.538  1.00  0.00     0.096 A 
ATOM      9  C   UNL     1      12.822 -50.162 -24.713  1.00  0.00     0.046 A 
ATOM     10  H   UNL     1      12.990 -53.806 -23.894  1.00  0.00     0.170 HD
BRANCH   6  11
ATOM     11  N   UNL     1      14.355 -53.164 -25.951  1.00  0.00    -0.283 NA
ATOM     12  H   UNL     1      14.210 -54.140 -25.689  1.00  0.00     0.189 HD
ENDBRANCH   6  11
BRANCH   7  13
ATOM     13  C   UNL     1      11.270 -49.846 -22.810  1.00  0.00     0.103 C 
ATOM     14  N   UNL     1      10.577 -49.148 -22.196  1.00  0.00    -0.192 NA
ENDBRANCH   7  13
BRANCH   8  15
ATOM     15  C   UNL     1      14.311 -50.347 -26.617  1.00  0.00     0.103 C 
ATOM     16  N   UNL     1      14.891 -49.957 -27.544  1.00  0.00    -0.192 NA
ENDBRANCH   8  15
ENDBRANCH   2   4
ENDBRANCH   1   2
BRANCH   1  17
ATOM     17  C   UNL     1      10.759 -54.791 -21.250  1.00  0.00     0.021 C 
BRANCH  17  18
ATOM     18  C   UNL     1      11.086 -56.227 -21.672  1.00  0.00     0.006 C 
BRANCH  18  19
ATOM     19  C   UNL     1      10.544 -56.592 -23.073  1.00  0.00     0.000 C 
ATOM     20  C   UNL     1       9.402 -57.619 -23.060  1.00  0.00     0.065 C 
ATOM     21  C   UNL     1      11.671 -57.100 -23.987  1.00  0.00     0.065 C 
ATOM     22  C   UNL     1       9.868 -59.024 -22.700  1.00  0.00     0.262 C 
ATOM     23  C   UNL     1      12.137 -58.512 -23.645  1.00  0.00     0.262 C 
ATOM     24  N   UNL     1      10.955 -59.453 -23.653  1.00  0.00    -0.331 N 
ATOM     25  H   UNL     1      10.564 -59.432 -24.603  1.00  0.00     0.348 HD
BRANCH  24  26
ATOM     26  C   UNL     1      11.357 -60.897 -23.410  1.00  0.00     0.299 C 
BRANCH  26  27
ATOM     27  C   UNL     1      10.207 -61.858 -23.535  1.00  0.00     0.006 A 
ATOM     28  C   UNL     1       9.455 -61.919 -24.719  1.00  0.00     0.009 A 
ATOM     29  C   UNL     1       9.880 -62.720 -22.477  1.00  0.00     0.009 A 
ATOM     30  C   UNL     1       8.405 -62.830 -24.843  1.00  0.00     0.001 A 
ATOM     31  C   UNL     1       8.829 -63.629 -22.606  1.00  0.00     0.001 A 
ATOM     32  C   UNL     1       8.095 -63.684 -23.788  1.00  0.00     0.000 A 
ENDBRANCH  26  27
ENDBRANCH  24  26
ENDBRANCH  18  19
ENDBRANCH  17  18
ENDBRANCH   1  17
TORSDOF 10
ENDMDL
MODEL 8
REMARK VINA RESULT:    -8.872      2.336      4.477
REMARK INTER + INTRA:         -14.509
REMARK INTER:                 -13.564
REMARK INTRA:                  -0.945
REMARK UNBOUND:                -0.709
REMARK SMILES N#Cc1cc(C#N)c(=N)[nH]c1NCCC[C@H]1CC[N@@H+](Cc2ccccc2)CC1
REMARK SMILES IDX 13 1 12 2 11 4 10 5 8 6 3 7 5 8 4 9 9 11 2 13 1 14 6 15 7 16
REMARK SMILES IDX 14 17 15 18 16 19 17 20 28 21 18 22 27 23 19 24 20 26 21 27
REMARK SMILES IDX 22 28 26 29 23 30 25 31 24 32
REMARK H PARENT 12 3 10 10 9 12 19 25
ROOT
ATOM      1  C   UNL     1      12.870 -50.808 -24.720  1.00  0.00     0.114 C 
ENDROOT
BRANCH   1   2
ATOM      2  N   UNL     1      12.751 -49.897 -23.589  1.00  0.00    -0.370 N 
ATOM      3  H   UNL     1      12.499 -50.384 -22.727  1.00  0.00     0.162 HD
BRANCH   2   4
ATOM      4  C   UNL     1      12.277 -48.592 -23.658  1.00  0.00     0.123 A 
ATOM      5  N   UNL     1      13.037 -47.630 -24.306  1.00  0.00    -0.325 N 
ATOM      6  C   UNL     1      12.697 -46.300 -24.394  1.00  0.00     0.141 A 
ATOM      7  C   UNL     1      11.098 -48.193 -23.102  1.00  0.00     0.094 A 
ATOM      8  C   UNL     1      11.388 -45.849 -23.824  1.00  0.00     0.096 A 
ATOM      9  C   UNL     1      10.659 -46.800 -23.210  1.00  0.00     0.046 A 
ATOM     10  H   UNL     1      13.986 -47.907 -24.510  1.00  0.00     0.170 HD
BRANCH   6  11
ATOM     11  N   UNL     1      13.490 -45.444 -24.953  1.00  0.00    -0.283 NA
ATOM     12  H   UNL     1      13.603 -45.642 -25.948  1.00  0.00     0.189 HD
ENDBRANCH   6  11
BRANCH   7  13
ATOM     13  C   UNL     1      10.230 -49.117 -22.449  1.00  0.00     0.103 C 
ATOM     14  N   UNL     1       9.478 -49.824 -21.919  1.00  0.00    -0.192 NA
ENDBRANCH   7  13
BRANCH   8  15
ATOM     15  C   UNL     1      10.950 -44.504 -23.930  1.00  0.00     0.103 C 
ATOM     16  N   UNL     1      10.617 -43.392 -23.938  1.00  0.00    -0.192 NA
ENDBRANCH   8  15
ENDBRANCH   2   4
ENDBRANCH   1   2
BRANCH   1  17
ATOM     17  C   UNL     1      12.736 -52.259 -24.243  1.00  0.00     0.021 C 
BRANCH  17  18
ATOM     18  C   UNL     1      11.970 -52.358 -22.920  1.00  0.00     0.006 C 
BRANCH  18  19
ATOM     19  C   UNL     1      10.599 -53.059 -23.057  1.00  0.00     0.000 C 
ATOM     20  C   UNL     1      10.042 -53.620 -21.740  1.00  0.00     0.065 C 
ATOM     21  C   UNL     1      10.656 -54.185 -24.102  1.00  0.00     0.065 C 
ATOM     22  C   UNL     1      10.798 -54.847 -21.247  1.00  0.00     0.262 C 
ATOM     23  C   UNL     1      11.399 -55.425 -23.615  1.00  0.00     0.262 C 
ATOM     24  N   UNL     1      10.790 -55.906 -22.319  1.00  0.00    -0.331 N 
ATOM     25  H   UNL     1       9.809 -56.140 -22.520  1.00  0.00     0.348 HD
BRANCH  24  26
ATOM     26  C   UNL     1      11.420 -57.194 -21.821  1.00  0.00     0.299 C 
BRANCH  26  27
ATOM     27  C   UNL     1      10.561 -58.404 -22.064  1.00  0.00     0.006 A 
ATOM     28  C   UNL     1      10.749 -59.574 -21.310  1.00  0.00     0.009 A 
ATOM     29  C   UNL     1       9.546 -58.376 -23.033  1.00  0.00     0.009 A 
ATOM     30  C   UNL     1       9.933 -60.687 -21.518  1.00  0.00     0.001 A 
ATOM     31  C   UNL     1       8.733 -59.492 -23.236  1.00  0.00     0.001 A 
ATOM     32  C   UNL     1       8.926 -60.644 -22.479  1.00  0.00     0.000 A 
ENDBRANCH  26  27
ENDBRANCH  24  26
ENDBRANCH  18  19
ENDBRANCH  17  18
ENDBRANCH   1  17
TORSDOF 10
ENDMDL
MODEL 9
REMARK VINA RESULT:    -8.835      1.463      2.184
REMARK INTER + INTRA:         -14.451
REMARK INTER:                 -13.794
REMARK INTRA:                  -0.657
REMARK UNBOUND:                -0.709
REMARK SMILES N#Cc1cc(C#N)c(=N)[nH]c1NCCC[C@H]1CC[N@@H+](Cc2ccccc2)CC1
REMARK SMILES IDX 13 1 12 2 11 4 10 5 8 6 3 7 5 8 4 9 9 11 2 13 1 14 6 15 7 16
REMARK SMILES IDX 14 17 15 18 16 19 17 20 28 21 18 22 27 23 19 24 20 26 21 27
REMARK SMILES IDX 22 28 26 29 23 30 25 31 24 32
REMARK H PARENT 12 3 10 10 9 12 19 25
ROOT
ATOM      1  C   UNL     1      10.707 -53.418 -22.663  1.00  0.00     0.114 C 
ENDROOT
BRANCH   1   2
ATOM      2  N   UNL     1      11.775 -52.504 -22.281  1.00  0.00    -0.370 N 
ATOM      3  H   UNL     1      11.982 -52.551 -21.282  1.00  0.00     0.162 HD
BRANCH   2   4
ATOM      4  C   UNL     1      12.000 -51.254 -22.846  1.00  0.00     0.123 A 
ATOM      5  N   UNL     1      11.606 -50.118 -22.157  1.00  0.00    -0.325 N 
ATOM      6  C   UNL     1      11.731 -48.835 -22.636  1.00  0.00     0.141 A 
ATOM      7  C   UNL     1      12.580 -51.079 -24.068  1.00  0.00     0.094 A 
ATOM      8  C   UNL     1      12.400 -48.619 -23.957  1.00  0.00     0.096 A 
ATOM      9  C   UNL     1      12.787 -49.733 -24.607  1.00  0.00     0.046 A 
ATOM     10  H   UNL     1      10.995 -50.290 -21.372  1.00  0.00     0.170 HD
BRANCH   6  11
ATOM     11  N   UNL     1      11.276 -47.825 -21.967  1.00  0.00    -0.283 NA
ATOM     12  H   UNL     1      10.361 -48.033 -21.564  1.00  0.00     0.189 HD
ENDBRANCH   6  11
BRANCH   7  13
ATOM     13  C   UNL     1      13.053 -52.185 -24.835  1.00  0.00     0.103 C 
ATOM     14  N   UNL     1      13.472 -53.102 -25.408  1.00  0.00    -0.192 NA
ENDBRANCH   7  13
BRANCH   8  15
ATOM     15  C   UNL     1      12.612 -47.318 -24.485  1.00  0.00     0.103 C 
ATOM     16  N   UNL     1      12.787 -46.289 -24.992  1.00  0.00    -0.192 NA
ENDBRANCH   8  15
ENDBRANCH   2   4
ENDBRANCH   1   2
BRANCH   1  17
ATOM     17  C   UNL     1      10.459 -54.435 -21.543  1.00  0.00     0.021 C 
BRANCH  17  18
ATOM     18  C   UNL     1      11.040 -55.812 -21.882  1.00  0.00     0.006 C 
BRANCH  18  19
ATOM     19  C   UNL     1      10.537 -56.374 -23.231  1.00  0.00     0.000 C 
ATOM     20  C   UNL     1       9.330 -57.317 -23.112  1.00  0.00     0.065 C 
ATOM     21  C   UNL     1      11.666 -57.092 -23.987  1.00  0.00     0.065 C 
ATOM     22  C   UNL     1       9.686 -58.667 -22.502  1.00  0.00     0.262 C 
ATOM     23  C   UNL     1      12.023 -58.452 -23.393  1.00  0.00     0.262 C 
ATOM     24  N   UNL     1      10.783 -59.311 -23.310  1.00  0.00    -0.331 N 
ATOM     25  H   UNL     1      10.436 -59.426 -24.271  1.00  0.00     0.348 HD
BRANCH  24  26
ATOM     26  C   UNL     1      11.078 -60.714 -22.813  1.00  0.00     0.299 C 
BRANCH  26  27
ATOM     27  C   UNL     1      10.027 -61.714 -23.211  1.00  0.00     0.006 A 
ATOM     28  C   UNL     1       9.440 -61.660 -24.486  1.00  0.00     0.009 A 
ATOM     29  C   UNL     1       9.632 -62.726 -22.323  1.00  0.00     0.009 A 
ATOM     30  C   UNL     1       8.484 -62.604 -24.864  1.00  0.00     0.001 A 
ATOM     31  C   UNL     1       8.676 -63.668 -22.707  1.00  0.00     0.001 A 
ATOM     32  C   UNL     1       8.105 -63.607 -23.976  1.00  0.00     0.000 A 
ENDBRANCH  26  27
ENDBRANCH  24  26
ENDBRANCH  18  19
ENDBRANCH  17  18
ENDBRANCH   1  17
TORSDOF 10
ENDMDL
