MODEL 1
REMARK VINA RESULT:   -11.438      0.000      0.000
REMARK INTER + INTRA:         -16.160
REMARK INTER:                 -15.784
REMARK INTRA:                  -0.376
REMARK UNBOUND:                -0.376
REMARK SMILES COc1cc2c(cc1OC)C(O)=C(C[C@H]1CC[N@H+](Cc3ccccc3)CC1)C2
REMARK SMILES IDX 14 1 13 2 11 3 6 4 28 5 7 6 5 7 8 8 4 9 3 10 12 11 9 13
REMARK SMILES IDX 10 14 2 15 1 16 15 17 27 18 16 19 26 20 17 21 18 22 19 24
REMARK SMILES IDX 20 25 21 26 25 27 22 28 24 29 23 30
REMARK H PARENT 12 12 18 23
ROOT
ATOM      1  C   UNL     1      10.172 -55.886 -22.361  1.00  0.00     0.039 C 
ENDROOT
BRANCH   1   2
ATOM      2  C   UNL     1      10.866 -54.653 -22.860  1.00  0.00    -0.023 C 
ATOM      3  C   UNL     1      10.925 -53.405 -22.364  1.00  0.00     0.122 C 
ATOM      4  C   UNL     1      11.716 -52.560 -23.250  1.00  0.00     0.024 A 
ATOM      5  C   UNL     1      11.630 -54.742 -24.175  1.00  0.00     0.071 C 
ATOM      6  C   UNL     1      12.079 -51.228 -23.172  1.00  0.00     0.062 A 
ATOM      7  C   UNL     1      12.135 -53.340 -24.329  1.00  0.00    -0.029 A 
ATOM      8  C   UNL     1      12.874 -50.673 -24.190  1.00  0.00     0.161 A 
ATOM      9  C   UNL     1      12.902 -52.809 -25.359  1.00  0.00     0.055 A 
ATOM     10  C   UNL     1      13.268 -51.455 -25.305  1.00  0.00     0.161 A 
BRANCH   3  11
ATOM     11  O   UNL     1      10.331 -52.926 -21.237  1.00  0.00    -0.507 OA
ATOM     12  H   UNL     1      11.019 -52.859 -20.552  1.00  0.00     0.293 HD
ENDBRANCH   3  11
BRANCH   8  13
ATOM     13  O   UNL     1      13.142 -49.343 -23.973  1.00  0.00    -0.493 OA
ATOM     14  C   UNL     1      12.077 -48.540 -23.479  1.00  0.00     0.278 C 
ENDBRANCH   8  13
BRANCH  10  15
ATOM     15  O   UNL     1      13.982 -50.833 -26.294  1.00  0.00    -0.493 OA
ATOM     16  C   UNL     1      15.358 -50.563 -26.061  1.00  0.00     0.278 C 
ENDBRANCH  10  15
ENDBRANCH   1   2
BRANCH   1  17
ATOM     17  C   UNL     1      10.540 -57.226 -23.027  1.00  0.00     0.004 C 
ATOM     18  C   UNL     1      11.509 -58.022 -22.140  1.00  0.00     0.065 C 
ATOM     19  C   UNL     1       9.299 -58.088 -23.308  1.00  0.00     0.065 C 
ATOM     20  C   UNL     1      11.892 -59.349 -22.785  1.00  0.00     0.262 C 
ATOM     21  C   UNL     1       9.686 -59.399 -23.973  1.00  0.00     0.262 C 
ATOM     22  N   UNL     1      10.648 -60.151 -23.086  1.00  0.00    -0.331 N 
ATOM     23  H   UNL     1      10.176 -60.320 -22.189  1.00  0.00     0.348 HD
BRANCH  22  24
ATOM     24  C   UNL     1      10.961 -61.519 -23.656  1.00  0.00     0.299 C 
BRANCH  24  25
ATOM     25  C   UNL     1       9.732 -62.348 -23.911  1.00  0.00     0.006 A 
ATOM     26  C   UNL     1       9.088 -62.302 -25.157  1.00  0.00     0.009 A 
ATOM     27  C   UNL     1       9.200 -63.164 -22.901  1.00  0.00     0.009 A 
ATOM     28  C   UNL     1       7.932 -63.052 -25.383  1.00  0.00     0.001 A 
ATOM     29  C   UNL     1       8.044 -63.910 -23.131  1.00  0.00     0.001 A 
ATOM     30  C   UNL     1       7.410 -63.853 -24.369  1.00  0.00     0.000 A 
ENDBRANCH  24  25
ENDBRANCH  22  24
ENDBRANCH   1  17
TORSDOF 7
ENDMDL
MODEL 2
REMARK VINA RESULT:   -11.189      1.098      2.159
REMARK INTER + INTRA:         -15.817
REMARK INTER:                 -15.583
REMARK INTRA:                  -0.233
REMARK UNBOUND:                -0.376
REMARK SMILES COc1cc2c(cc1OC)C(O)=C(C[C@H]1CC[N@H+](Cc3ccccc3)CC1)C2
REMARK SMILES IDX 14 1 13 2 11 3 6 4 28 5 7 6 5 7 8 8 4 9 3 10 12 11 9 13
REMARK SMILES IDX 10 14 2 15 1 16 15 17 27 18 16 19 26 20 17 21 18 22 19 24
REMARK SMILES IDX 20 25 21 26 25 27 22 28 24 29 23 30
REMARK H PARENT 12 12 18 23
ROOT
ATOM      1  C   UNL     1       9.853 -55.677 -22.359  1.00  0.00     0.039 C 
ENDROOT
BRANCH   1   2
ATOM      2  C   UNL     1      10.596 -54.430 -22.739  1.00  0.00    -0.023 C 
ATOM      3  C   UNL     1      11.345 -54.136 -23.816  1.00  0.00     0.122 C 
ATOM      4  C   UNL     1      11.875 -52.784 -23.692  1.00  0.00     0.024 A 
ATOM      5  C   UNL     1      10.577 -53.260 -21.764  1.00  0.00     0.071 C 
ATOM      6  C   UNL     1      12.670 -52.025 -24.530  1.00  0.00     0.062 A 
ATOM      7  C   UNL     1      11.432 -52.256 -22.478  1.00  0.00    -0.029 A 
ATOM      8  C   UNL     1      13.023 -50.720 -24.146  1.00  0.00     0.161 A 
ATOM      9  C   UNL     1      11.785 -50.978 -22.066  1.00  0.00     0.055 A 
ATOM     10  C   UNL     1      12.604 -50.198 -22.896  1.00  0.00     0.161 A 
BRANCH   3  11
ATOM     11  O   UNL     1      11.636 -54.940 -24.875  1.00  0.00    -0.507 OA
ATOM     12  H   UNL     1      10.927 -54.823 -25.532  1.00  0.00     0.293 HD
ENDBRANCH   3  11
BRANCH   8  13
ATOM     13  O   UNL     1      13.820 -50.101 -25.079  1.00  0.00    -0.493 OA
ATOM     14  C   UNL     1      14.042 -50.793 -26.302  1.00  0.00     0.278 C 
ENDBRANCH   8  13
BRANCH  10  15
ATOM     15  O   UNL     1      13.041 -48.946 -22.554  1.00  0.00    -0.493 OA
ATOM     16  C   UNL     1      12.136 -47.858 -22.690  1.00  0.00     0.278 C 
ENDBRANCH  10  15
ENDBRANCH   1   2
BRANCH   1  17
ATOM     17  C   UNL     1      10.276 -56.992 -23.042  1.00  0.00     0.004 C 
ATOM     18  C   UNL     1      11.372 -57.696 -22.228  1.00  0.00     0.065 C 
ATOM     19  C   UNL     1       9.092 -57.954 -23.221  1.00  0.00     0.065 C 
ATOM     20  C   UNL     1      11.811 -58.996 -22.892  1.00  0.00     0.262 C 
ATOM     21  C   UNL     1       9.532 -59.239 -23.905  1.00  0.00     0.262 C 
ATOM     22  N   UNL     1      10.616 -59.900 -23.090  1.00  0.00    -0.331 N 
ATOM     23  H   UNL     1      10.230 -60.094 -22.158  1.00  0.00     0.348 HD
BRANCH  22  24
ATOM     24  C   UNL     1      10.995 -61.245 -23.674  1.00  0.00     0.299 C 
BRANCH  24  25
ATOM     25  C   UNL     1       9.822 -62.173 -23.827  1.00  0.00     0.006 A 
ATOM     26  C   UNL     1       9.103 -62.219 -25.033  1.00  0.00     0.009 A 
ATOM     27  C   UNL     1       9.415 -62.992 -22.762  1.00  0.00     0.009 A 
ATOM     28  C   UNL     1       7.998 -63.062 -25.164  1.00  0.00     0.001 A 
ATOM     29  C   UNL     1       8.310 -63.831 -22.899  1.00  0.00     0.001 A 
ATOM     30  C   UNL     1       7.601 -63.865 -24.097  1.00  0.00     0.000 A 
ENDBRANCH  24  25
ENDBRANCH  22  24
ENDBRANCH   1  17
TORSDOF 7
ENDMDL
MODEL 3
REMARK VINA RESULT:   -10.274      2.320      3.613
REMARK INTER + INTRA:         -14.553
REMARK INTER:                 -14.424
REMARK INTRA:                  -0.129
REMARK UNBOUND:                -0.376
REMARK SMILES COc1cc2c(cc1OC)C(O)=C(C[C@H]1CC[N@H+](Cc3ccccc3)CC1)C2
REMARK SMILES IDX 14 1 13 2 11 3 6 4 28 5 7 6 5 7 8 8 4 9 3 10 12 11 9 13
REMARK SMILES IDX 10 14 2 15 1 16 15 17 27 18 16 19 26 20 17 21 18 22 19 24
REMARK SMILES IDX 20 25 21 26 25 27 22 28 24 29 23 30
REMARK H PARENT 12 12 18 23
ROOT
ATOM      1  C   UNL     1       9.967 -52.928 -21.994  1.00  0.00     0.039 C 
ENDROOT
BRANCH   1   2
ATOM      2  C   UNL     1      10.503 -51.565 -22.317  1.00  0.00    -0.023 C 
ATOM      3  C   UNL     1       9.964 -50.341 -22.171  1.00  0.00     0.122 C 
ATOM      4  C   UNL     1      10.892 -49.333 -22.669  1.00  0.00     0.024 A 
ATOM      5  C   UNL     1      11.879 -51.470 -22.962  1.00  0.00     0.071 C 
ATOM      6  C   UNL     1      10.813 -47.954 -22.721  1.00  0.00     0.062 A 
ATOM      7  C   UNL     1      12.028 -49.990 -23.145  1.00  0.00    -0.029 A 
ATOM      8  C   UNL     1      11.888 -47.225 -23.257  1.00  0.00     0.161 A 
ATOM      9  C   UNL     1      13.094 -49.293 -23.699  1.00  0.00     0.055 A 
ATOM     10  C   UNL     1      13.026 -47.893 -23.775  1.00  0.00     0.161 A 
BRANCH   3  11
ATOM     11  O   UNL     1       8.736 -50.024 -21.679  1.00  0.00    -0.507 OA
ATOM     12  H   UNL     1       8.297 -50.857 -21.434  1.00  0.00     0.293 HD
ENDBRANCH   3  11
BRANCH   8  13
ATOM     13  O   UNL     1      11.655 -45.871 -23.246  1.00  0.00    -0.493 OA
ATOM     14  C   UNL     1      10.359 -45.440 -22.849  1.00  0.00     0.278 C 
ENDBRANCH   8  13
BRANCH  10  15
ATOM     15  O   UNL     1      14.006 -47.126 -24.346  1.00  0.00    -0.493 OA
ATOM     16  C   UNL     1      15.198 -46.898 -23.604  1.00  0.00     0.278 C 
ENDBRANCH  10  15
ENDBRANCH   1   2
BRANCH   1  17
ATOM     17  C   UNL     1      10.834 -54.142 -22.381  1.00  0.00     0.004 C 
ATOM     18  C   UNL     1      10.527 -55.339 -21.469  1.00  0.00     0.065 C 
ATOM     19  C   UNL     1      10.618 -54.561 -23.843  1.00  0.00     0.065 C 
ATOM     20  C   UNL     1      11.381 -56.548 -21.830  1.00  0.00     0.262 C 
ATOM     21  C   UNL     1      11.491 -55.752 -24.204  1.00  0.00     0.262 C 
ATOM     22  N   UNL     1      11.175 -56.906 -23.284  1.00  0.00    -0.331 N 
ATOM     23  H   UNL     1      10.180 -57.132 -23.399  1.00  0.00     0.348 HD
BRANCH  22  24
ATOM     24  C   UNL     1      11.936 -58.151 -23.690  1.00  0.00     0.299 C 
BRANCH  24  25
ATOM     25  C   UNL     1      11.308 -59.419 -23.179  1.00  0.00     0.006 A 
ATOM     26  C   UNL     1      11.474 -60.626 -23.876  1.00  0.00     0.009 A 
ATOM     27  C   UNL     1      10.531 -59.410 -22.011  1.00  0.00     0.009 A 
ATOM     28  C   UNL     1      10.869 -61.797 -23.415  1.00  0.00     0.001 A 
ATOM     29  C   UNL     1       9.928 -60.582 -21.555  1.00  0.00     0.001 A 
ATOM     30  C   UNL     1      10.095 -61.773 -22.257  1.00  0.00     0.000 A 
ENDBRANCH  24  25
ENDBRANCH  22  24
ENDBRANCH   1  17
TORSDOF 7
ENDMDL
MODEL 4
REMARK VINA RESULT:   -10.006      3.786     10.362
REMARK INTER + INTRA:         -14.184
REMARK INTER:                 -13.459
REMARK INTRA:                  -0.724
REMARK UNBOUND:                -0.376
REMARK SMILES COc1cc2c(cc1OC)C(O)=C(C[C@H]1CC[N@H+](Cc3ccccc3)CC1)C2
REMARK SMILES IDX 14 1 13 2 11 3 6 4 28 5 7 6 5 7 8 8 4 9 3 10 12 11 9 13
REMARK SMILES IDX 10 14 2 15 1 16 15 17 27 18 16 19 26 20 17 21 18 22 19 24
REMARK SMILES IDX 20 25 21 26 25 27 22 28 24 29 23 30
REMARK H PARENT 12 12 18 23
ROOT
ATOM      1  C   UNL     1      11.413 -57.539 -22.282  1.00  0.00     0.039 C 
ENDROOT
BRANCH   1   2
ATOM      2  C   UNL     1      10.796 -58.616 -23.125  1.00  0.00    -0.023 C 
ATOM      3  C   UNL     1      11.170 -59.145 -24.303  1.00  0.00     0.122 C 
ATOM      4  C   UNL     1      10.204 -60.155 -24.718  1.00  0.00     0.024 A 
ATOM      5  C   UNL     1       9.493 -59.242 -22.647  1.00  0.00     0.071 C 
ATOM      6  C   UNL     1      10.152 -60.982 -25.824  1.00  0.00     0.062 A 
ATOM      7  C   UNL     1       9.203 -60.218 -23.747  1.00  0.00    -0.029 A 
ATOM      8  C   UNL     1       9.083 -61.884 -25.957  1.00  0.00     0.161 A 
ATOM      9  C   UNL     1       8.124 -61.085 -23.867  1.00  0.00     0.055 A 
ATOM     10  C   UNL     1       8.046 -61.922 -24.990  1.00  0.00     0.161 A 
BRANCH   3  11
ATOM     11  O   UNL     1      12.248 -58.811 -25.064  1.00  0.00    -0.507 OA
ATOM     12  H   UNL     1      12.002 -58.954 -25.994  1.00  0.00     0.293 HD
ENDBRANCH   3  11
BRANCH   8  13
ATOM     13  O   UNL     1       9.170 -62.628 -27.109  1.00  0.00    -0.493 OA
ATOM     14  C   UNL     1       8.945 -61.948 -28.338  1.00  0.00     0.278 C 
ENDBRANCH   8  13
BRANCH  10  15
ATOM     15  O   UNL     1       7.000 -62.775 -25.217  1.00  0.00    -0.493 OA
ATOM     16  C   UNL     1       7.101 -64.107 -24.730  1.00  0.00     0.278 C 
ENDBRANCH  10  15
ENDBRANCH   1   2
BRANCH   1  17
ATOM     17  C   UNL     1      10.751 -56.148 -22.310  1.00  0.00     0.004 C 
ATOM     18  C   UNL     1      11.066 -55.372 -21.023  1.00  0.00     0.065 C 
ATOM     19  C   UNL     1      11.209 -55.316 -23.518  1.00  0.00     0.065 C 
ATOM     20  C   UNL     1      10.412 -53.996 -21.027  1.00  0.00     0.262 C 
ATOM     21  C   UNL     1      10.535 -53.954 -23.530  1.00  0.00     0.262 C 
ATOM     22  N   UNL     1      10.852 -53.222 -22.248  1.00  0.00    -0.331 N 
ATOM     23  H   UNL     1      11.874 -53.126 -22.190  1.00  0.00     0.348 HD
BRANCH  22  24
ATOM     24  C   UNL     1      10.300 -51.812 -22.274  1.00  0.00     0.299 C 
BRANCH  24  25
ATOM     25  C   UNL     1      11.321 -50.787 -22.684  1.00  0.00     0.006 A 
ATOM     26  C   UNL     1      11.007 -49.419 -22.658  1.00  0.00     0.009 A 
ATOM     27  C   UNL     1      12.597 -51.182 -23.117  1.00  0.00     0.009 A 
ATOM     28  C   UNL     1      11.947 -48.470 -23.064  1.00  0.00     0.001 A 
ATOM     29  C   UNL     1      13.531 -50.230 -23.523  1.00  0.00     0.001 A 
ATOM     30  C   UNL     1      13.207 -48.876 -23.498  1.00  0.00     0.000 A 
ENDBRANCH  24  25
ENDBRANCH  22  24
ENDBRANCH   1  17
TORSDOF 7
ENDMDL
MODEL 5
REMARK VINA RESULT:    -9.813      3.027      5.945
REMARK INTER + INTRA:         -13.918
REMARK INTER:                 -13.127
REMARK INTRA:                  -0.790
REMARK UNBOUND:                -0.376
REMARK SMILES COc1cc2c(cc1OC)C(O)=C(C[C@H]1CC[N@H+](Cc3ccccc3)CC1)C2
REMARK SMILES IDX 14 1 13 2 11 3 6 4 28 5 7 6 5 7 8 8 4 9 3 10 12 11 9 13
REMARK SMILES IDX 10 14 2 15 1 16 15 17 27 18 16 19 26 20 17 21 18 22 19 24
REMARK SMILES IDX 20 25 21 26 25 27 22 28 24 29 23 30
REMARK H PARENT 12 12 18 23
ROOT
ATOM      1  C   UNL     1      12.821 -50.796 -22.920  1.00  0.00     0.039 C 
ENDROOT
BRANCH   1   2
ATOM      2  C   UNL     1      12.477 -49.371 -23.237  1.00  0.00    -0.023 C 
ATOM      3  C   UNL     1      11.464 -48.589 -22.825  1.00  0.00     0.122 C 
ATOM      4  C   UNL     1      11.567 -47.278 -23.454  1.00  0.00     0.024 A 
ATOM      5  C   UNL     1      13.363 -48.623 -24.224  1.00  0.00     0.071 C 
ATOM      6  C   UNL     1      10.793 -46.139 -23.342  1.00  0.00     0.062 A 
ATOM      7  C   UNL     1      12.686 -47.287 -24.289  1.00  0.00    -0.029 A 
ATOM      8  C   UNL     1      11.146 -44.994 -24.077  1.00  0.00     0.161 A 
ATOM      9  C   UNL     1      13.043 -46.176 -25.042  1.00  0.00     0.055 A 
ATOM     10  C   UNL     1      12.260 -45.015 -24.953  1.00  0.00     0.161 A 
BRANCH   3  11
ATOM     11  O   UNL     1      10.446 -48.917 -21.984  1.00  0.00    -0.507 OA
ATOM     12  H   UNL     1       9.621 -48.886 -22.500  1.00  0.00     0.293 HD
ENDBRANCH   3  11
BRANCH   8  13
ATOM     13  O   UNL     1      10.277 -43.951 -23.864  1.00  0.00    -0.493 OA
ATOM     14  C   UNL     1      10.647 -42.988 -22.885  1.00  0.00     0.278 C 
ENDBRANCH   8  13
BRANCH  10  15
ATOM     15  O   UNL     1      12.507 -43.888 -25.691  1.00  0.00    -0.493 OA
ATOM     16  C   UNL     1      13.559 -43.028 -25.272  1.00  0.00     0.278 C 
ENDBRANCH  10  15
ENDBRANCH   1   2
BRANCH   1  17
ATOM     17  C   UNL     1      11.766 -51.871 -23.243  1.00  0.00     0.004 C 
ATOM     18  C   UNL     1      12.408 -53.055 -23.981  1.00  0.00     0.065 C 
ATOM     19  C   UNL     1      11.069 -52.393 -21.977  1.00  0.00     0.065 C 
ATOM     20  C   UNL     1      11.378 -54.127 -24.319  1.00  0.00     0.262 C 
ATOM     21  C   UNL     1      10.025 -53.443 -22.323  1.00  0.00     0.262 C 
ATOM     22  N   UNL     1      10.683 -54.585 -23.058  1.00  0.00    -0.331 N 
ATOM     23  H   UNL     1      11.407 -54.976 -22.442  1.00  0.00     0.348 HD
BRANCH  22  24
ATOM     24  C   UNL     1       9.700 -55.709 -23.311  1.00  0.00     0.299 C 
BRANCH  24  25
ATOM     25  C   UNL     1      10.102 -57.003 -22.657  1.00  0.00     0.006 A 
ATOM     26  C   UNL     1      11.136 -57.029 -21.707  1.00  0.00     0.009 A 
ATOM     27  C   UNL     1       9.463 -58.205 -23.000  1.00  0.00     0.009 A 
ATOM     28  C   UNL     1      11.525 -58.235 -21.120  1.00  0.00     0.001 A 
ATOM     29  C   UNL     1       9.857 -59.406 -22.411  1.00  0.00     0.001 A 
ATOM     30  C   UNL     1      10.887 -59.422 -21.474  1.00  0.00     0.000 A 
ENDBRANCH  24  25
ENDBRANCH  22  24
ENDBRANCH   1  17
TORSDOF 7
ENDMDL
MODEL 6
REMARK VINA RESULT:    -9.796      2.441      3.990
REMARK INTER + INTRA:         -13.895
REMARK INTER:                 -13.203
REMARK INTRA:                  -0.692
REMARK UNBOUND:                -0.376
REMARK SMILES COc1cc2c(cc1OC)C(O)=C(C[C@H]1CC[N@H+](Cc3ccccc3)CC1)C2
REMARK SMILES IDX 14 1 13 2 11 3 6 4 28 5 7 6 5 7 8 8 4 9 3 10 12 11 9 13
REMARK SMILES IDX 10 14 2 15 1 16 15 17 27 18 16 19 26 20 17 21 18 22 19 24
REMARK SMILES IDX 20 25 21 26 25 27 22 28 24 29 23 30
REMARK H PARENT 12 12 18 23
ROOT
ATOM      1  C   UNL     1      10.610 -51.824 -21.736  1.00  0.00     0.039 C 
ENDROOT
BRANCH   1   2
ATOM      2  C   UNL     1      11.213 -50.693 -22.516  1.00  0.00    -0.023 C 
ATOM      3  C   UNL     1      10.880 -49.393 -22.598  1.00  0.00     0.122 C 
ATOM      4  C   UNL     1      11.775 -48.714 -23.527  1.00  0.00     0.024 A 
ATOM      5  C   UNL     1      12.391 -51.002 -23.430  1.00  0.00     0.071 C 
ATOM      6  C   UNL     1      11.854 -47.395 -23.932  1.00  0.00     0.062 A 
ATOM      7  C   UNL     1      12.671 -49.658 -24.031  1.00  0.00    -0.029 A 
ATOM      8  C   UNL     1      12.848 -47.018 -24.853  1.00  0.00     0.161 A 
ATOM      9  C   UNL     1      13.647 -49.315 -24.959  1.00  0.00     0.055 A 
ATOM     10  C   UNL     1      13.734 -47.983 -25.393  1.00  0.00     0.161 A 
BRANCH   3  11
ATOM     11  O   UNL     1       9.857 -48.753 -21.969  1.00  0.00    -0.507 OA
ATOM     12  H   UNL     1      10.096 -47.811 -21.912  1.00  0.00     0.293 HD
ENDBRANCH   3  11
BRANCH   8  13
ATOM     13  O   UNL     1      12.791 -45.679 -25.159  1.00  0.00    -0.493 OA
ATOM     14  C   UNL     1      13.492 -44.788 -24.299  1.00  0.00     0.278 C 
ENDBRANCH   8  13
BRANCH  10  15
ATOM     15  O   UNL     1      14.632 -47.561 -26.336  1.00  0.00    -0.493 OA
ATOM     16  C   UNL     1      16.013 -47.565 -25.999  1.00  0.00     0.278 C 
ENDBRANCH  10  15
ENDBRANCH   1   2
BRANCH   1  17
ATOM     17  C   UNL     1      10.996 -53.257 -22.148  1.00  0.00     0.004 C 
ATOM     18  C   UNL     1      10.686 -54.248 -21.016  1.00  0.00     0.065 C 
ATOM     19  C   UNL     1      10.260 -53.708 -23.420  1.00  0.00     0.065 C 
ATOM     20  C   UNL     1      11.070 -55.672 -21.401  1.00  0.00     0.262 C 
ATOM     21  C   UNL     1      10.665 -55.120 -23.813  1.00  0.00     0.262 C 
ATOM     22  N   UNL     1      10.361 -56.066 -22.677  1.00  0.00    -0.331 N 
ATOM     23  H   UNL     1       9.353 -56.013 -22.488  1.00  0.00     0.348 HD
BRANCH  22  24
ATOM     24  C   UNL     1      10.636 -57.502 -23.075  1.00  0.00     0.299 C 
BRANCH  24  25
ATOM     25  C   UNL     1       9.392 -58.344 -23.141  1.00  0.00     0.006 A 
ATOM     26  C   UNL     1       8.175 -57.784 -23.562  1.00  0.00     0.009 A 
ATOM     27  C   UNL     1       9.423 -59.696 -22.766  1.00  0.00     0.009 A 
ATOM     28  C   UNL     1       7.015 -58.560 -23.598  1.00  0.00     0.001 A 
ATOM     29  C   UNL     1       8.261 -60.467 -22.803  1.00  0.00     0.001 A 
ATOM     30  C   UNL     1       7.059 -59.899 -23.216  1.00  0.00     0.000 A 
ENDBRANCH  24  25
ENDBRANCH  22  24
ENDBRANCH   1  17
TORSDOF 7
ENDMDL
MODEL 7
REMARK VINA RESULT:    -9.757      1.776      2.574
REMARK INTER + INTRA:         -13.840
REMARK INTER:                 -13.689
REMARK INTRA:                  -0.150
REMARK UNBOUND:                -0.376
REMARK SMILES COc1cc2c(cc1OC)C(O)=C(C[C@H]1CC[N@H+](Cc3ccccc3)CC1)C2
REMARK SMILES IDX 14 1 13 2 11 3 6 4 28 5 7 6 5 7 8 8 4 9 3 10 12 11 9 13
REMARK SMILES IDX 10 14 2 15 1 16 15 17 27 18 16 19 26 20 17 21 18 22 19 24
REMARK SMILES IDX 20 25 21 26 25 27 22 28 24 29 23 30
REMARK H PARENT 12 12 18 23
ROOT
ATOM      1  C   UNL     1      10.149 -55.391 -22.303  1.00  0.00     0.039 C 
ENDROOT
BRANCH   1   2
ATOM      2  C   UNL     1      10.858 -54.143 -22.738  1.00  0.00    -0.023 C 
ATOM      3  C   UNL     1      10.940 -52.925 -22.174  1.00  0.00     0.122 C 
ATOM      4  C   UNL     1      11.737 -52.044 -23.019  1.00  0.00     0.024 A 
ATOM      5  C   UNL     1      11.609 -54.170 -24.063  1.00  0.00     0.071 C 
ATOM      6  C   UNL     1      12.121 -50.725 -22.871  1.00  0.00     0.062 A 
ATOM      7  C   UNL     1      12.134 -52.769 -24.144  1.00  0.00    -0.029 A 
ATOM      8  C   UNL     1      12.916 -50.126 -23.864  1.00  0.00     0.161 A 
ATOM      9  C   UNL     1      12.901 -52.193 -25.149  1.00  0.00     0.055 A 
ATOM     10  C   UNL     1      13.288 -50.850 -25.024  1.00  0.00     0.161 A 
BRANCH   3  11
ATOM     11  O   UNL     1      10.363 -52.501 -21.017  1.00  0.00    -0.507 OA
ATOM     12  H   UNL     1      10.499 -53.198 -20.352  1.00  0.00     0.293 HD
ENDBRANCH   3  11
BRANCH   8  13
ATOM     13  O   UNL     1      13.206 -48.814 -23.576  1.00  0.00    -0.493 OA
ATOM     14  C   UNL     1      12.459 -47.819 -24.264  1.00  0.00     0.278 C 
ENDBRANCH   8  13
BRANCH  10  15
ATOM     15  O   UNL     1      14.004 -50.185 -25.983  1.00  0.00    -0.493 OA
ATOM     16  C   UNL     1      15.422 -50.277 -25.948  1.00  0.00     0.278 C 
ENDBRANCH  10  15
ENDBRANCH   1   2
BRANCH   1  17
ATOM     17  C   UNL     1      10.316 -56.646 -23.181  1.00  0.00     0.004 C 
ATOM     18  C   UNL     1      11.591 -57.410 -22.795  1.00  0.00     0.065 C 
ATOM     19  C   UNL     1       9.113 -57.594 -23.065  1.00  0.00     0.065 C 
ATOM     20  C   UNL     1      11.780 -58.652 -23.659  1.00  0.00     0.262 C 
ATOM     21  C   UNL     1       9.296 -58.819 -23.947  1.00  0.00     0.262 C 
ATOM     22  N   UNL     1      10.562 -59.540 -23.553  1.00  0.00    -0.331 N 
ATOM     23  H   UNL     1      10.472 -59.809 -22.566  1.00  0.00     0.348 HD
BRANCH  22  24
ATOM     24  C   UNL     1      10.716 -60.833 -24.327  1.00  0.00     0.299 C 
BRANCH  24  25
ATOM     25  C   UNL     1      11.102 -60.618 -25.765  1.00  0.00     0.006 A 
ATOM     26  C   UNL     1      12.400 -60.200 -26.099  1.00  0.00     0.009 A 
ATOM     27  C   UNL     1      10.165 -60.812 -26.792  1.00  0.00     0.009 A 
ATOM     28  C   UNL     1      12.748 -59.976 -27.433  1.00  0.00     0.001 A 
ATOM     29  C   UNL     1      10.518 -60.585 -28.122  1.00  0.00     0.001 A 
ATOM     30  C   UNL     1      11.806 -60.166 -28.442  1.00  0.00     0.000 A 
ENDBRANCH  24  25
ENDBRANCH  22  24
ENDBRANCH   1  17
TORSDOF 7
ENDMDL
MODEL 8
REMARK VINA RESULT:    -9.649      2.586      4.749
REMARK INTER + INTRA:         -13.692
REMARK INTER:                 -13.202
REMARK INTRA:                  -0.490
REMARK UNBOUND:                -0.376
REMARK SMILES COc1cc2c(cc1OC)C(O)=C(C[C@H]1CC[N@H+](Cc3ccccc3)CC1)C2
REMARK SMILES IDX 14 1 13 2 11 3 6 4 28 5 7 6 5 7 8 8 4 9 3 10 12 11 9 13
REMARK SMILES IDX 10 14 2 15 1 16 15 17 27 18 16 19 26 20 17 21 18 22 19 24
REMARK SMILES IDX 20 25 21 26 25 27 22 28 24 29 23 30
REMARK H PARENT 12 12 18 23
ROOT
ATOM      1  C   UNL     1      10.011 -51.838 -22.008  1.00  0.00     0.039 C 
ENDROOT
BRANCH   1   2
ATOM      2  C   UNL     1      10.719 -50.557 -22.337  1.00  0.00    -0.023 C 
ATOM      3  C   UNL     1      12.025 -50.278 -22.489  1.00  0.00     0.122 C 
ATOM      4  C   UNL     1      12.195 -48.860 -22.780  1.00  0.00     0.024 A 
ATOM      5  C   UNL     1       9.880 -49.298 -22.506  1.00  0.00     0.071 C 
ATOM      6  C   UNL     1      13.321 -48.100 -23.033  1.00  0.00     0.062 A 
ATOM      7  C   UNL     1      10.931 -48.267 -22.788  1.00  0.00    -0.029 A 
ATOM      8  C   UNL     1      13.176 -46.726 -23.298  1.00  0.00     0.161 A 
ATOM      9  C   UNL     1      10.764 -46.909 -23.026  1.00  0.00     0.055 A 
ATOM     10  C   UNL     1      11.897 -46.117 -23.269  1.00  0.00     0.161 A 
BRANCH   3  11
ATOM     11  O   UNL     1      13.080 -51.129 -22.365  1.00  0.00    -0.507 OA
ATOM     12  H   UNL     1      13.817 -50.624 -21.980  1.00  0.00     0.293 HD
ENDBRANCH   3  11
BRANCH   8  13
ATOM     13  O   UNL     1      14.384 -46.110 -23.521  1.00  0.00    -0.493 OA
ATOM     14  C   UNL     1      15.202 -46.643 -24.555  1.00  0.00     0.278 C 
ENDBRANCH   8  13
BRANCH  10  15
ATOM     15  O   UNL     1      11.835 -44.764 -23.468  1.00  0.00    -0.493 OA
ATOM     16  C   UNL     1      10.870 -44.020 -22.736  1.00  0.00     0.278 C 
ENDBRANCH  10  15
ENDBRANCH   1   2
BRANCH   1  17
ATOM     17  C   UNL     1      10.780 -53.154 -22.237  1.00  0.00     0.004 C 
ATOM     18  C   UNL     1      10.278 -54.247 -21.282  1.00  0.00     0.065 C 
ATOM     19  C   UNL     1      10.645 -53.655 -23.683  1.00  0.00     0.065 C 
ATOM     20  C   UNL     1      11.033 -55.555 -21.486  1.00  0.00     0.262 C 
ATOM     21  C   UNL     1      11.420 -54.947 -23.887  1.00  0.00     0.262 C 
ATOM     22  N   UNL     1      10.914 -55.996 -22.927  1.00  0.00    -0.331 N 
ATOM     23  H   UNL     1       9.913 -56.135 -23.116  1.00  0.00     0.348 HD
BRANCH  22  24
ATOM     24  C   UNL     1      11.576 -57.334 -23.182  1.00  0.00     0.299 C 
BRANCH  24  25
ATOM     25  C   UNL     1      10.719 -58.503 -22.779  1.00  0.00     0.006 A 
ATOM     26  C   UNL     1       9.554 -58.812 -23.498  1.00  0.00     0.009 A 
ATOM     27  C   UNL     1      11.060 -59.289 -21.668  1.00  0.00     0.009 A 
ATOM     28  C   UNL     1       8.745 -59.881 -23.107  1.00  0.00     0.001 A 
ATOM     29  C   UNL     1      10.248 -60.355 -21.281  1.00  0.00     0.001 A 
ATOM     30  C   UNL     1       9.092 -60.650 -21.998  1.00  0.00     0.000 A 
ENDBRANCH  24  25
ENDBRANCH  22  24
ENDBRANCH   1  17
TORSDOF 7
ENDMDL
MODEL 9
REMARK VINA RESULT:    -9.488      3.455      9.985
REMARK INTER + INTRA:         -13.469
REMARK INTER:                 -12.751
REMARK INTRA:                  -0.719
REMARK UNBOUND:                -0.376
REMARK SMILES COc1cc2c(cc1OC)C(O)=C(C[C@H]1CC[N@H+](Cc3ccccc3)CC1)C2
REMARK SMILES IDX 14 1 13 2 11 3 6 4 28 5 7 6 5 7 8 8 4 9 3 10 12 11 9 13
REMARK SMILES IDX 10 14 2 15 1 16 15 17 27 18 16 19 26 20 17 21 18 22 19 24
REMARK SMILES IDX 20 25 21 26 25 27 22 28 24 29 23 30
REMARK H PARENT 12 12 18 23
ROOT
ATOM      1  C   UNL     1      10.111 -55.361 -22.268  1.00  0.00     0.039 C 
ENDROOT
BRANCH   1   2
ATOM      2  C   UNL     1       9.952 -56.817 -22.596  1.00  0.00    -0.023 C 
ATOM      3  C   UNL     1      10.680 -57.891 -22.242  1.00  0.00     0.122 C 
ATOM      4  C   UNL     1      10.117 -59.089 -22.852  1.00  0.00     0.024 A 
ATOM      5  C   UNL     1       8.811 -57.223 -23.518  1.00  0.00     0.071 C 
ATOM      6  C   UNL     1      10.484 -60.419 -22.781  1.00  0.00     0.062 A 
ATOM      7  C   UNL     1       9.012 -58.705 -23.616  1.00  0.00    -0.029 A 
ATOM      8  C   UNL     1       9.732 -61.378 -23.483  1.00  0.00     0.161 A 
ATOM      9  C   UNL     1       8.267 -59.630 -24.336  1.00  0.00     0.055 A 
ATOM     10  C   UNL     1       8.633 -60.984 -24.287  1.00  0.00     0.161 A 
BRANCH   3  11
ATOM     11  O   UNL     1      11.800 -57.923 -21.469  1.00  0.00    -0.507 OA
ATOM     12  H   UNL     1      11.786 -58.760 -20.973  1.00  0.00     0.293 HD
ENDBRANCH   3  11
BRANCH   8  13
ATOM     13  O   UNL     1      10.226 -62.649 -23.317  1.00  0.00    -0.493 OA
ATOM     14  C   UNL     1       9.533 -63.501 -22.414  1.00  0.00     0.278 C 
ENDBRANCH   8  13
BRANCH  10  15
ATOM     15  O   UNL     1       7.988 -61.960 -24.999  1.00  0.00    -0.493 OA
ATOM     16  C   UNL     1       8.554 -62.377 -26.235  1.00  0.00     0.278 C 
ENDBRANCH  10  15
ENDBRANCH   1   2
BRANCH   1  17
ATOM     17  C   UNL     1      10.692 -54.446 -23.363  1.00  0.00     0.004 C 
ATOM     18  C   UNL     1      11.366 -53.215 -22.738  1.00  0.00     0.065 C 
ATOM     19  C   UNL     1      11.714 -55.180 -24.244  1.00  0.00     0.065 C 
ATOM     20  C   UNL     1      11.940 -52.292 -23.806  1.00  0.00     0.262 C 
ATOM     21  C   UNL     1      12.265 -54.261 -25.323  1.00  0.00     0.262 C 
ATOM     22  N   UNL     1      12.908 -53.056 -24.679  1.00  0.00    -0.331 N 
ATOM     23  H   UNL     1      13.660 -53.395 -24.066  1.00  0.00     0.348 HD
BRANCH  22  24
ATOM     24  C   UNL     1      13.577 -52.176 -25.715  1.00  0.00     0.299 C 
BRANCH  24  25
ATOM     25  C   UNL     1      15.023 -51.898 -25.406  1.00  0.00     0.006 A 
ATOM     26  C   UNL     1      15.480 -50.577 -25.269  1.00  0.00     0.009 A 
ATOM     27  C   UNL     1      15.940 -52.952 -25.271  1.00  0.00     0.009 A 
ATOM     28  C   UNL     1      16.827 -50.320 -25.009  1.00  0.00     0.001 A 
ATOM     29  C   UNL     1      17.285 -52.688 -25.012  1.00  0.00     0.001 A 
ATOM     30  C   UNL     1      17.728 -51.375 -24.883  1.00  0.00     0.000 A 
ENDBRANCH  24  25
ENDBRANCH  22  24
ENDBRANCH   1  17
TORSDOF 7
ENDMDL
