MODEL 1
REMARK VINA RESULT:   -11.313      0.000      0.000
REMARK INTER + INTRA:         -16.016
REMARK INTER:                 -15.612
REMARK INTRA:                  -0.404
REMARK UNBOUND:                -0.404
REMARK SMILES COc1cc2c(cc1OC)C(O)=C(C[C@H]1CC[N@H+](Cc3ccccc3)CC1)C2
REMARK SMILES IDX 14 1 13 2 11 3 6 4 28 5 7 6 5 7 8 8 4 9 3 10 12 11 9 13
REMARK SMILES IDX 10 14 2 15 1 16 15 17 16 18 27 19 17 20 26 21 18 22 19 24
REMARK SMILES IDX 20 25 21 26 25 27 22 28 24 29 23 30
REMARK H PARENT 12 12 18 23
ROOT
ATOM      1  C   UNL     1      10.057 -55.810 -22.374  1.00  0.00     0.039 C 
ENDROOT
BRANCH   1   2
ATOM      2  C   UNL     1      10.812 -54.619 -22.871  1.00  0.00    -0.023 C 
ATOM      3  C   UNL     1      10.972 -53.422 -22.278  1.00  0.00     0.122 C 
ATOM      4  C   UNL     1      11.745 -52.548 -23.141  1.00  0.00     0.024 A 
ATOM      5  C   UNL     1      11.569 -54.668 -24.192  1.00  0.00     0.071 C 
ATOM      6  C   UNL     1      12.116 -51.224 -22.980  1.00  0.00     0.062 A 
ATOM      7  C   UNL     1      12.108 -53.270 -24.282  1.00  0.00    -0.029 A 
ATOM      8  C   UNL     1      12.868 -50.615 -23.993  1.00  0.00     0.161 A 
ATOM      9  C   UNL     1      12.853 -52.690 -25.295  1.00  0.00     0.055 A 
ATOM     10  C   UNL     1      13.239 -51.351 -25.152  1.00  0.00     0.161 A 
BRANCH   3  11
ATOM     11  O   UNL     1      10.512 -52.983 -21.081  1.00  0.00    -0.507 OA
ATOM     12  H   UNL     1      10.076 -52.127 -21.220  1.00  0.00     0.293 HD
ENDBRANCH   3  11
BRANCH   8  13
ATOM     13  O   UNL     1      13.286 -49.306 -23.959  1.00  0.00    -0.493 OA
ATOM     14  C   UNL     1      12.288 -48.299 -23.879  1.00  0.00     0.278 C 
ENDBRANCH   8  13
BRANCH  10  15
ATOM     15  O   UNL     1      13.965 -50.657 -26.090  1.00  0.00    -0.493 OA
ATOM     16  C   UNL     1      15.382 -50.731 -26.013  1.00  0.00     0.278 C 
ENDBRANCH  10  15
ENDBRANCH   1   2
BRANCH   1  17
ATOM     17  C   UNL     1      10.449 -57.169 -22.999  1.00  0.00     0.004 C 
ATOM     18  C   UNL     1       9.239 -58.041 -23.362  1.00  0.00     0.065 C 
ATOM     19  C   UNL     1      11.418 -57.970 -22.115  1.00  0.00     0.065 C 
ATOM     20  C   UNL     1       9.661 -59.353 -24.011  1.00  0.00     0.262 C 
ATOM     21  C   UNL     1      11.831 -59.285 -22.766  1.00  0.00     0.262 C 
ATOM     22  N   UNL     1      10.596 -60.093 -23.090  1.00  0.00    -0.331 N 
ATOM     23  H   UNL     1      10.103 -60.249 -22.201  1.00  0.00     0.348 HD
BRANCH  22  24
ATOM     24  C   UNL     1      10.923 -61.472 -23.627  1.00  0.00     0.299 C 
BRANCH  24  25
ATOM     25  C   UNL     1       9.703 -62.322 -23.860  1.00  0.00     0.006 A 
ATOM     26  C   UNL     1       9.070 -62.331 -25.113  1.00  0.00     0.009 A 
ATOM     27  C   UNL     1       9.170 -63.102 -22.823  1.00  0.00     0.009 A 
ATOM     28  C   UNL     1       7.923 -63.099 -25.319  1.00  0.00     0.001 A 
ATOM     29  C   UNL     1       8.023 -63.869 -23.034  1.00  0.00     0.001 A 
ATOM     30  C   UNL     1       7.400 -63.865 -24.279  1.00  0.00     0.000 A 
ENDBRANCH  24  25
ENDBRANCH  22  24
ENDBRANCH   1  17
TORSDOF 7
ENDMDL
MODEL 2
REMARK VINA RESULT:   -11.028      1.057      2.098
REMARK INTER + INTRA:         -15.623
REMARK INTER:                 -15.357
REMARK INTRA:                  -0.266
REMARK UNBOUND:                -0.404
REMARK SMILES COc1cc2c(cc1OC)C(O)=C(C[C@H]1CC[N@H+](Cc3ccccc3)CC1)C2
REMARK SMILES IDX 14 1 13 2 11 3 6 4 28 5 7 6 5 7 8 8 4 9 3 10 12 11 9 13
REMARK SMILES IDX 10 14 2 15 1 16 15 17 16 18 27 19 17 20 26 21 18 22 19 24
REMARK SMILES IDX 20 25 21 26 25 27 22 28 24 29 23 30
REMARK H PARENT 12 12 18 23
ROOT
ATOM      1  C   UNL     1      10.085 -55.673 -21.947  1.00  0.00     0.039 C 
ENDROOT
BRANCH   1   2
ATOM      2  C   UNL     1      10.704 -54.402 -22.434  1.00  0.00    -0.023 C 
ATOM      3  C   UNL     1      11.352 -54.176 -23.590  1.00  0.00     0.122 C 
ATOM      4  C   UNL     1      11.825 -52.803 -23.625  1.00  0.00     0.024 A 
ATOM      5  C   UNL     1      10.614 -53.123 -21.611  1.00  0.00     0.071 C 
ATOM      6  C   UNL     1      12.575 -52.135 -24.578  1.00  0.00     0.062 A 
ATOM      7  C   UNL     1      11.397 -52.164 -22.459  1.00  0.00    -0.029 A 
ATOM      8  C   UNL     1      12.902 -50.793 -24.347  1.00  0.00     0.161 A 
ATOM      9  C   UNL     1      11.704 -50.837 -22.210  1.00  0.00     0.055 A 
ATOM     10  C   UNL     1      12.463 -50.142 -23.161  1.00  0.00     0.161 A 
BRANCH   3  11
ATOM     11  O   UNL     1      11.605 -55.022 -24.619  1.00  0.00    -0.507 OA
ATOM     12  H   UNL     1      11.052 -55.811 -24.504  1.00  0.00     0.293 HD
ENDBRANCH   3  11
BRANCH   8  13
ATOM     13  O   UNL     1      13.650 -50.025 -25.207  1.00  0.00    -0.493 OA
ATOM     14  C   UNL     1      14.072 -50.623 -26.425  1.00  0.00     0.278 C 
ENDBRANCH   8  13
BRANCH  10  15
ATOM     15  O   UNL     1      12.847 -48.829 -23.027  1.00  0.00    -0.493 OA
ATOM     16  C   UNL     1      11.825 -47.842 -23.016  1.00  0.00     0.278 C 
ENDBRANCH  10  15
ENDBRANCH   1   2
BRANCH   1  17
ATOM     17  C   UNL     1      10.545 -56.966 -22.660  1.00  0.00     0.004 C 
ATOM     18  C   UNL     1       9.383 -57.788 -23.234  1.00  0.00     0.065 C 
ATOM     19  C   UNL     1      11.418 -57.859 -21.763  1.00  0.00     0.065 C 
ATOM     20  C   UNL     1       9.875 -59.032 -23.962  1.00  0.00     0.262 C 
ATOM     21  C   UNL     1      11.901 -59.106 -22.495  1.00  0.00     0.262 C 
ATOM     22  N   UNL     1      10.710 -59.867 -23.026  1.00  0.00    -0.331 N 
ATOM     23  H   UNL     1      10.126 -60.108 -22.214  1.00  0.00     0.348 HD
BRANCH  22  24
ATOM     24  C   UNL     1      11.097 -61.188 -23.661  1.00  0.00     0.299 C 
BRANCH  24  25
ATOM     25  C   UNL     1       9.948 -62.155 -23.763  1.00  0.00     0.006 A 
ATOM     26  C   UNL     1       9.184 -62.231 -24.939  1.00  0.00     0.009 A 
ATOM     27  C   UNL     1       9.611 -62.980 -22.680  1.00  0.00     0.009 A 
ATOM     28  C   UNL     1       8.102 -63.109 -25.023  1.00  0.00     0.001 A 
ATOM     29  C   UNL     1       8.529 -63.856 -22.768  1.00  0.00     0.001 A 
ATOM     30  C   UNL     1       7.774 -63.919 -23.937  1.00  0.00     0.000 A 
ENDBRANCH  24  25
ENDBRANCH  22  24
ENDBRANCH   1  17
TORSDOF 7
ENDMDL
MODEL 3
REMARK VINA RESULT:   -10.244      1.202      2.459
REMARK INTER + INTRA:         -14.541
REMARK INTER:                 -14.727
REMARK INTRA:                   0.186
REMARK UNBOUND:                -0.404
REMARK SMILES COc1cc2c(cc1OC)C(O)=C(C[C@H]1CC[N@H+](Cc3ccccc3)CC1)C2
REMARK SMILES IDX 14 1 13 2 11 3 6 4 28 5 7 6 5 7 8 8 4 9 3 10 12 11 9 13
REMARK SMILES IDX 10 14 2 15 1 16 15 17 16 18 27 19 17 20 26 21 18 22 19 24
REMARK SMILES IDX 20 25 21 26 25 27 22 28 24 29 23 30
REMARK H PARENT 12 12 18 23
ROOT
ATOM      1  C   UNL     1      10.105 -55.421 -22.198  1.00  0.00     0.039 C 
ENDROOT
BRANCH   1   2
ATOM      2  C   UNL     1      10.833 -54.262 -22.801  1.00  0.00    -0.023 C 
ATOM      3  C   UNL     1      11.541 -54.223 -23.944  1.00  0.00     0.122 C 
ATOM      4  C   UNL     1      12.113 -52.900 -24.119  1.00  0.00     0.024 A 
ATOM      5  C   UNL     1      10.803 -52.890 -22.141  1.00  0.00     0.071 C 
ATOM      6  C   UNL     1      12.946 -52.404 -25.107  1.00  0.00     0.062 A 
ATOM      7  C   UNL     1      11.686 -52.096 -23.058  1.00  0.00    -0.029 A 
ATOM      8  C   UNL     1      13.360 -51.069 -25.021  1.00  0.00     0.161 A 
ATOM      9  C   UNL     1      12.079 -50.772 -22.954  1.00  0.00     0.055 A 
ATOM     10  C   UNL     1      12.923 -50.250 -23.943  1.00  0.00     0.161 A 
BRANCH   3  11
ATOM     11  O   UNL     1      11.772 -55.202 -24.852  1.00  0.00    -0.507 OA
ATOM     12  H   UNL     1      11.160 -55.933 -24.671  1.00  0.00     0.293 HD
ENDBRANCH   3  11
BRANCH   8  13
ATOM     13  O   UNL     1      14.195 -50.463 -25.929  1.00  0.00    -0.493 OA
ATOM     14  C   UNL     1      15.585 -50.737 -25.829  1.00  0.00     0.278 C 
ENDBRANCH   8  13
BRANCH  10  15
ATOM     15  O   UNL     1      13.396 -48.959 -23.947  1.00  0.00    -0.493 OA
ATOM     16  C   UNL     1      12.969 -48.099 -22.899  1.00  0.00     0.278 C 
ENDBRANCH  10  15
ENDBRANCH   1   2
BRANCH   1  17
ATOM     17  C   UNL     1      10.469 -56.816 -22.758  1.00  0.00     0.004 C 
ATOM     18  C   UNL     1       9.240 -57.656 -23.134  1.00  0.00     0.065 C 
ATOM     19  C   UNL     1      11.375 -57.618 -21.811  1.00  0.00     0.065 C 
ATOM     20  C   UNL     1       9.637 -59.005 -23.720  1.00  0.00     0.262 C 
ATOM     21  C   UNL     1      11.761 -58.970 -22.399  1.00  0.00     0.262 C 
ATOM     22  N   UNL     1      10.510 -59.744 -22.739  1.00  0.00    -0.331 N 
ATOM     23  H   UNL     1       9.980 -59.850 -21.864  1.00  0.00     0.348 HD
BRANCH  22  24
ATOM     24  C   UNL     1      10.805 -61.153 -23.214  1.00  0.00     0.299 C 
BRANCH  24  25
ATOM     25  C   UNL     1      10.094 -61.508 -24.492  1.00  0.00     0.006 A 
ATOM     26  C   UNL     1       8.992 -62.379 -24.476  1.00  0.00     0.009 A 
ATOM     27  C   UNL     1      10.532 -60.990 -25.720  1.00  0.00     0.009 A 
ATOM     28  C   UNL     1       8.351 -62.728 -25.665  1.00  0.00     0.001 A 
ATOM     29  C   UNL     1       9.888 -61.341 -26.906  1.00  0.00     0.001 A 
ATOM     30  C   UNL     1       8.800 -62.211 -26.879  1.00  0.00     0.000 A 
ENDBRANCH  24  25
ENDBRANCH  22  24
ENDBRANCH   1  17
TORSDOF 7
ENDMDL
MODEL 4
REMARK VINA RESULT:   -10.138      2.334      3.708
REMARK INTER + INTRA:         -14.394
REMARK INTER:                 -14.413
REMARK INTRA:                   0.020
REMARK UNBOUND:                -0.404
REMARK SMILES COc1cc2c(cc1OC)C(O)=C(C[C@H]1CC[N@H+](Cc3ccccc3)CC1)C2
REMARK SMILES IDX 14 1 13 2 11 3 6 4 28 5 7 6 5 7 8 8 4 9 3 10 12 11 9 13
REMARK SMILES IDX 10 14 2 15 1 16 15 17 16 18 27 19 17 20 26 21 18 22 19 24
REMARK SMILES IDX 20 25 21 26 25 27 22 28 24 29 23 30
REMARK H PARENT 12 12 18 23
ROOT
ATOM      1  C   UNL     1       9.979 -52.843 -21.928  1.00  0.00     0.039 C 
ENDROOT
BRANCH   1   2
ATOM      2  C   UNL     1      10.518 -51.506 -22.328  1.00  0.00    -0.023 C 
ATOM      3  C   UNL     1       9.945 -50.297 -22.189  1.00  0.00     0.122 C 
ATOM      4  C   UNL     1      10.809 -49.279 -22.758  1.00  0.00     0.024 A 
ATOM      5  C   UNL     1      11.903 -51.375 -22.948  1.00  0.00     0.071 C 
ATOM      6  C   UNL     1      10.623 -47.913 -22.890  1.00  0.00     0.062 A 
ATOM      7  C   UNL     1      11.975 -49.900 -23.214  1.00  0.00    -0.029 A 
ATOM      8  C   UNL     1      11.634 -47.158 -23.497  1.00  0.00     0.161 A 
ATOM      9  C   UNL     1      12.990 -49.174 -23.814  1.00  0.00     0.055 A 
ATOM     10  C   UNL     1      12.822 -47.791 -23.958  1.00  0.00     0.161 A 
BRANCH   3  11
ATOM     11  O   UNL     1       8.749 -49.965 -21.643  1.00  0.00    -0.507 OA
ATOM     12  H   UNL     1       8.206 -49.553 -22.334  1.00  0.00     0.293 HD
ENDBRANCH   3  11
BRANCH   8  13
ATOM     13  O   UNL     1      11.565 -45.801 -23.697  1.00  0.00    -0.493 OA
ATOM     14  C   UNL     1      10.512 -45.094 -23.056  1.00  0.00     0.278 C 
ENDBRANCH   8  13
BRANCH  10  15
ATOM     15  O   UNL     1      13.746 -46.962 -24.549  1.00  0.00    -0.493 OA
ATOM     16  C   UNL     1      15.094 -47.063 -24.113  1.00  0.00     0.278 C 
ENDBRANCH  10  15
ENDBRANCH   1   2
BRANCH   1  17
ATOM     17  C   UNL     1      10.821 -54.068 -22.355  1.00  0.00     0.004 C 
ATOM     18  C   UNL     1      10.683 -54.407 -23.846  1.00  0.00     0.065 C 
ATOM     19  C   UNL     1      10.524 -55.316 -21.509  1.00  0.00     0.065 C 
ATOM     20  C   UNL     1      11.556 -55.592 -24.239  1.00  0.00     0.262 C 
ATOM     21  C   UNL     1      11.394 -56.500 -21.913  1.00  0.00     0.262 C 
ATOM     22  N   UNL     1      11.205 -56.782 -23.385  1.00  0.00    -0.331 N 
ATOM     23  H   UNL     1      10.206 -56.984 -23.522  1.00  0.00     0.348 HD
BRANCH  22  24
ATOM     24  C   UNL     1      11.942 -58.026 -23.842  1.00  0.00     0.299 C 
BRANCH  24  25
ATOM     25  C   UNL     1      11.344 -59.299 -23.306  1.00  0.00     0.006 A 
ATOM     26  C   UNL     1      10.637 -59.298 -22.092  1.00  0.00     0.009 A 
ATOM     27  C   UNL     1      11.499 -60.508 -24.001  1.00  0.00     0.009 A 
ATOM     28  C   UNL     1      10.106 -60.484 -21.583  1.00  0.00     0.001 A 
ATOM     29  C   UNL     1      10.966 -61.691 -23.488  1.00  0.00     0.001 A 
ATOM     30  C   UNL     1      10.273 -61.679 -22.280  1.00  0.00     0.000 A 
ENDBRANCH  24  25
ENDBRANCH  22  24
ENDBRANCH   1  17
TORSDOF 7
ENDMDL
MODEL 5
REMARK VINA RESULT:   -10.055      3.796     10.274
REMARK INTER + INTRA:         -14.280
REMARK INTER:                 -13.524
REMARK INTRA:                  -0.756
REMARK UNBOUND:                -0.404
REMARK SMILES COc1cc2c(cc1OC)C(O)=C(C[C@H]1CC[N@H+](Cc3ccccc3)CC1)C2
REMARK SMILES IDX 14 1 13 2 11 3 6 4 28 5 7 6 5 7 8 8 4 9 3 10 12 11 9 13
REMARK SMILES IDX 10 14 2 15 1 16 15 17 16 18 27 19 17 20 26 21 18 22 19 24
REMARK SMILES IDX 20 25 21 26 25 27 22 28 24 29 23 30
REMARK H PARENT 12 12 18 23
ROOT
ATOM      1  C   UNL     1      11.407 -57.597 -22.014  1.00  0.00     0.039 C 
ENDROOT
BRANCH   1   2
ATOM      2  C   UNL     1      10.836 -58.642 -22.918  1.00  0.00    -0.023 C 
ATOM      3  C   UNL     1      11.355 -59.140 -24.054  1.00  0.00     0.122 C 
ATOM      4  C   UNL     1      10.438 -60.107 -24.629  1.00  0.00     0.024 A 
ATOM      5  C   UNL     1       9.518 -59.329 -22.585  1.00  0.00     0.071 C 
ATOM      6  C   UNL     1      10.517 -60.834 -25.804  1.00  0.00     0.062 A 
ATOM      7  C   UNL     1       9.341 -60.232 -23.771  1.00  0.00    -0.029 A 
ATOM      8  C   UNL     1       9.466 -61.703 -26.123  1.00  0.00     0.161 A 
ATOM      9  C   UNL     1       8.292 -61.088 -24.062  1.00  0.00     0.055 A 
ATOM     10  C   UNL     1       8.352 -61.832 -25.248  1.00  0.00     0.161 A 
BRANCH   3  11
ATOM     11  O   UNL     1      12.525 -58.844 -24.672  1.00  0.00    -0.507 OA
ATOM     12  H   UNL     1      12.551 -59.323 -25.516  1.00  0.00     0.293 HD
ENDBRANCH   3  11
BRANCH   8  13
ATOM     13  O   UNL     1       9.420 -62.468 -27.263  1.00  0.00    -0.493 OA
ATOM     14  C   UNL     1       9.166 -61.802 -28.492  1.00  0.00     0.278 C 
ENDBRANCH   8  13
BRANCH  10  15
ATOM     15  O   UNL     1       7.371 -62.703 -25.658  1.00  0.00    -0.493 OA
ATOM     16  C   UNL     1       7.110 -63.834 -24.839  1.00  0.00     0.278 C 
ENDBRANCH  10  15
ENDBRANCH   1   2
BRANCH   1  17
ATOM     17  C   UNL     1      10.760 -56.195 -22.105  1.00  0.00     0.004 C 
ATOM     18  C   UNL     1      11.132 -55.439 -23.389  1.00  0.00     0.065 C 
ATOM     19  C   UNL     1      11.066 -55.319 -20.880  1.00  0.00     0.065 C 
ATOM     20  C   UNL     1      10.446 -54.082 -23.464  1.00  0.00     0.262 C 
ATOM     21  C   UNL     1      10.384 -53.959 -20.965  1.00  0.00     0.262 C 
ATOM     22  N   UNL     1      10.797 -53.270 -22.244  1.00  0.00    -0.331 N 
ATOM     23  H   UNL     1      11.822 -53.178 -22.213  1.00  0.00     0.348 HD
BRANCH  22  24
ATOM     24  C   UNL     1      10.260 -51.857 -22.347  1.00  0.00     0.299 C 
BRANCH  24  25
ATOM     25  C   UNL     1      11.306 -50.853 -22.751  1.00  0.00     0.006 A 
ATOM     26  C   UNL     1      11.034 -49.477 -22.691  1.00  0.00     0.009 A 
ATOM     27  C   UNL     1      12.562 -51.278 -23.210  1.00  0.00     0.009 A 
ATOM     28  C   UNL     1      11.997 -48.549 -23.091  1.00  0.00     0.001 A 
ATOM     29  C   UNL     1      13.521 -50.346 -23.608  1.00  0.00     0.001 A 
ATOM     30  C   UNL     1      13.238 -48.984 -23.551  1.00  0.00     0.000 A 
ENDBRANCH  24  25
ENDBRANCH  22  24
ENDBRANCH   1  17
TORSDOF 7
ENDMDL
MODEL 6
REMARK VINA RESULT:    -9.700      4.105      9.404
REMARK INTER + INTRA:         -13.790
REMARK INTER:                 -13.027
REMARK INTRA:                  -0.763
REMARK UNBOUND:                -0.404
REMARK SMILES COc1cc2c(cc1OC)C(O)=C(C[C@H]1CC[N@H+](Cc3ccccc3)CC1)C2
REMARK SMILES IDX 14 1 13 2 11 3 6 4 28 5 7 6 5 7 8 8 4 9 3 10 12 11 9 13
REMARK SMILES IDX 10 14 2 15 1 16 15 17 16 18 27 19 17 20 26 21 18 22 19 24
REMARK SMILES IDX 20 25 21 26 25 27 22 28 24 29 23 30
REMARK H PARENT 12 12 18 23
ROOT
ATOM      1  C   UNL     1      10.876 -59.510 -22.384  1.00  0.00     0.039 C 
ENDROOT
BRANCH   1   2
ATOM      2  C   UNL     1      10.731 -59.910 -23.818  1.00  0.00    -0.023 C 
ATOM      3  C   UNL     1      11.383 -59.429 -24.891  1.00  0.00     0.122 C 
ATOM      4  C   UNL     1      10.893 -60.080 -26.093  1.00  0.00     0.024 A 
ATOM      5  C   UNL     1       9.777 -61.025 -24.225  1.00  0.00     0.071 C 
ATOM      6  C   UNL     1      11.224 -59.880 -27.422  1.00  0.00     0.062 A 
ATOM      7  C   UNL     1       9.938 -61.029 -25.717  1.00  0.00    -0.029 A 
ATOM      8  C   UNL     1      10.577 -60.654 -28.393  1.00  0.00     0.161 A 
ATOM      9  C   UNL     1       9.288 -61.809 -26.659  1.00  0.00     0.055 A 
ATOM     10  C   UNL     1       9.608 -61.623 -28.010  1.00  0.00     0.161 A 
BRANCH   3  11
ATOM     11  O   UNL     1      12.344 -58.476 -24.963  1.00  0.00    -0.507 OA
ATOM     12  H   UNL     1      13.198 -58.917 -25.101  1.00  0.00     0.293 HD
ENDBRANCH   3  11
BRANCH   8  13
ATOM     13  O   UNL     1      10.808 -60.544 -29.743  1.00  0.00    -0.493 OA
ATOM     14  C   UNL     1      11.784 -59.604 -30.169  1.00  0.00     0.278 C 
ENDBRANCH   8  13
BRANCH  10  15
ATOM     15  O   UNL     1       9.025 -62.321 -29.041  1.00  0.00    -0.493 OA
ATOM     16  C   UNL     1       8.290 -63.491 -28.710  1.00  0.00     0.278 C 
ENDBRANCH  10  15
ENDBRANCH   1   2
BRANCH   1  17
ATOM     17  C   UNL     1      10.424 -58.072 -22.034  1.00  0.00     0.004 C 
ATOM     18  C   UNL     1       9.552 -57.430 -23.121  1.00  0.00     0.065 C 
ATOM     19  C   UNL     1      11.604 -57.145 -21.700  1.00  0.00     0.065 C 
ATOM     20  C   UNL     1       9.092 -56.033 -22.724  1.00  0.00     0.262 C 
ATOM     21  C   UNL     1      11.138 -55.746 -21.312  1.00  0.00     0.262 C 
ATOM     22  N   UNL     1      10.293 -55.173 -22.424  1.00  0.00    -0.331 N 
ATOM     23  H   UNL     1      10.884 -55.155 -23.266  1.00  0.00     0.348 HD
BRANCH  22  24
ATOM     24  C   UNL     1       9.891 -53.733 -22.172  1.00  0.00     0.299 C 
BRANCH  24  25
ATOM     25  C   UNL     1      10.921 -52.741 -22.641  1.00  0.00     0.006 A 
ATOM     26  C   UNL     1      11.067 -51.505 -21.990  1.00  0.00     0.009 A 
ATOM     27  C   UNL     1      11.738 -53.028 -23.745  1.00  0.00     0.009 A 
ATOM     28  C   UNL     1      12.004 -50.575 -22.443  1.00  0.00     0.001 A 
ATOM     29  C   UNL     1      12.674 -52.095 -24.193  1.00  0.00     0.001 A 
ATOM     30  C   UNL     1      12.804 -50.870 -23.544  1.00  0.00     0.000 A 
ENDBRANCH  24  25
ENDBRANCH  22  24
ENDBRANCH   1  17
TORSDOF 7
ENDMDL
MODEL 7
REMARK VINA RESULT:    -9.617      3.600     10.318
REMARK INTER + INTRA:         -13.675
REMARK INTER:                 -13.193
REMARK INTRA:                  -0.482
REMARK UNBOUND:                -0.404
REMARK SMILES COc1cc2c(cc1OC)C(O)=C(C[C@H]1CC[N@H+](Cc3ccccc3)CC1)C2
REMARK SMILES IDX 14 1 13 2 11 3 6 4 28 5 7 6 5 7 8 8 4 9 3 10 12 11 9 13
REMARK SMILES IDX 10 14 2 15 1 16 15 17 16 18 27 19 17 20 26 21 18 22 19 24
REMARK SMILES IDX 20 25 21 26 25 27 22 28 24 29 23 30
REMARK H PARENT 12 12 18 23
ROOT
ATOM      1  C   UNL     1       9.597 -54.991 -22.419  1.00  0.00     0.039 C 
ENDROOT
BRANCH   1   2
ATOM      2  C   UNL     1      10.015 -56.371 -22.813  1.00  0.00    -0.023 C 
ATOM      3  C   UNL     1       9.239 -57.437 -23.078  1.00  0.00     0.122 C 
ATOM      4  C   UNL     1      10.074 -58.587 -23.378  1.00  0.00     0.024 A 
ATOM      5  C   UNL     1      11.486 -56.717 -23.007  1.00  0.00     0.071 C 
ATOM      6  C   UNL     1       9.730 -59.898 -23.659  1.00  0.00     0.062 A 
ATOM      7  C   UNL     1      11.410 -58.178 -23.339  1.00  0.00    -0.029 A 
ATOM      8  C   UNL     1      10.758 -60.818 -23.905  1.00  0.00     0.161 A 
ATOM      9  C   UNL     1      12.442 -59.068 -23.583  1.00  0.00     0.055 A 
ATOM     10  C   UNL     1      12.117 -60.401 -23.869  1.00  0.00     0.161 A 
BRANCH   3  11
ATOM     11  O   UNL     1       7.888 -57.545 -23.074  1.00  0.00    -0.507 OA
ATOM     12  H   UNL     1       7.645 -58.322 -23.602  1.00  0.00     0.293 HD
ENDBRANCH   3  11
BRANCH   8  13
ATOM     13  O   UNL     1      10.549 -62.147 -24.183  1.00  0.00    -0.493 OA
ATOM     14  C   UNL     1       9.849 -62.919 -23.217  1.00  0.00     0.278 C 
ENDBRANCH   8  13
BRANCH  10  15
ATOM     15  O   UNL     1      13.047 -61.383 -24.114  1.00  0.00    -0.493 OA
ATOM     16  C   UNL     1      14.310 -60.981 -24.626  1.00  0.00     0.278 C 
ENDBRANCH  10  15
ENDBRANCH   1   2
BRANCH   1  17
ATOM     17  C   UNL     1      10.711 -53.918 -22.422  1.00  0.00     0.004 C 
ATOM     18  C   UNL     1      10.336 -52.654 -21.636  1.00  0.00     0.065 C 
ATOM     19  C   UNL     1      11.160 -53.533 -23.841  1.00  0.00     0.065 C 
ATOM     20  C   UNL     1      11.471 -51.638 -21.626  1.00  0.00     0.262 C 
ATOM     21  C   UNL     1      12.290 -52.510 -23.824  1.00  0.00     0.262 C 
ATOM     22  N   UNL     1      11.853 -51.294 -23.043  1.00  0.00    -0.331 N 
ATOM     23  H   UNL     1      11.016 -50.925 -23.513  1.00  0.00     0.348 HD
BRANCH  22  24
ATOM     24  C   UNL     1      12.874 -50.175 -23.084  1.00  0.00     0.299 C 
BRANCH  24  25
ATOM     25  C   UNL     1      12.279 -48.843 -23.454  1.00  0.00     0.006 A 
ATOM     26  C   UNL     1      12.790 -48.111 -24.538  1.00  0.00     0.009 A 
ATOM     27  C   UNL     1      11.218 -48.305 -22.711  1.00  0.00     0.009 A 
ATOM     28  C   UNL     1      12.254 -46.865 -24.864  1.00  0.00     0.001 A 
ATOM     29  C   UNL     1      10.685 -47.058 -23.040  1.00  0.00     0.001 A 
ATOM     30  C   UNL     1      11.205 -46.338 -24.114  1.00  0.00     0.000 A 
ENDBRANCH  24  25
ENDBRANCH  22  24
ENDBRANCH   1  17
TORSDOF 7
ENDMDL
MODEL 8
REMARK VINA RESULT:    -9.564      1.775      2.398
REMARK INTER + INTRA:         -13.602
REMARK INTER:                 -13.324
REMARK INTRA:                  -0.278
REMARK UNBOUND:                -0.404
REMARK SMILES COc1cc2c(cc1OC)C(O)=C(C[C@H]1CC[N@H+](Cc3ccccc3)CC1)C2
REMARK SMILES IDX 14 1 13 2 11 3 6 4 28 5 7 6 5 7 8 8 4 9 3 10 12 11 9 13
REMARK SMILES IDX 10 14 2 15 1 16 15 17 16 18 27 19 17 20 26 21 18 22 19 24
REMARK SMILES IDX 20 25 21 26 25 27 22 28 24 29 23 30
REMARK H PARENT 12 12 18 23
ROOT
ATOM      1  C   UNL     1      10.570 -54.232 -22.080  1.00  0.00     0.039 C 
ENDROOT
BRANCH   1   2
ATOM      2  C   UNL     1      11.326 -53.215 -22.873  1.00  0.00    -0.023 C 
ATOM      3  C   UNL     1      11.491 -51.905 -22.614  1.00  0.00     0.122 C 
ATOM      4  C   UNL     1      12.263 -51.290 -23.678  1.00  0.00     0.024 A 
ATOM      5  C   UNL     1      12.079 -53.610 -24.137  1.00  0.00     0.071 C 
ATOM      6  C   UNL     1      12.638 -49.971 -23.870  1.00  0.00     0.062 A 
ATOM      7  C   UNL     1      12.620 -52.286 -24.591  1.00  0.00    -0.029 A 
ATOM      8  C   UNL     1      13.387 -49.650 -25.009  1.00  0.00     0.161 A 
ATOM      9  C   UNL     1      13.363 -51.994 -25.722  1.00  0.00     0.055 A 
ATOM     10  C   UNL     1      13.753 -50.665 -25.936  1.00  0.00     0.161 A 
BRANCH   3  11
ATOM     11  O   UNL     1      11.036 -51.167 -21.573  1.00  0.00    -0.507 OA
ATOM     12  H   UNL     1      10.183 -50.780 -21.826  1.00  0.00     0.293 HD
ENDBRANCH   3  11
BRANCH   8  13
ATOM     13  O   UNL     1      13.808 -48.379 -25.319  1.00  0.00    -0.493 OA
ATOM     14  C   UNL     1      13.044 -47.292 -24.817  1.00  0.00     0.278 C 
ENDBRANCH   8  13
BRANCH  10  15
ATOM     15  O   UNL     1      14.477 -50.242 -27.025  1.00  0.00    -0.493 OA
ATOM     16  C   UNL     1      15.882 -50.097 -26.865  1.00  0.00     0.278 C 
ENDBRANCH  10  15
ENDBRANCH   1   2
BRANCH   1  17
ATOM     17  C   UNL     1      10.607 -55.679 -22.625  1.00  0.00     0.004 C 
ATOM     18  C   UNL     1       9.216 -56.233 -22.966  1.00  0.00     0.065 C 
ATOM     19  C   UNL     1      11.334 -56.651 -21.681  1.00  0.00     0.065 C 
ATOM     20  C   UNL     1       9.294 -57.643 -23.538  1.00  0.00     0.262 C 
ATOM     21  C   UNL     1      11.401 -58.061 -22.254  1.00  0.00     0.262 C 
ATOM     22  N   UNL     1      10.003 -58.544 -22.561  1.00  0.00    -0.331 N 
ATOM     23  H   UNL     1       9.481 -58.521 -21.675  1.00  0.00     0.348 HD
BRANCH  22  24
ATOM     24  C   UNL     1       9.971 -59.989 -23.019  1.00  0.00     0.299 C 
BRANCH  24  25
ATOM     25  C   UNL     1      10.227 -60.149 -24.493  1.00  0.00     0.006 A 
ATOM     26  C   UNL     1       9.218 -60.627 -25.344  1.00  0.00     0.009 A 
ATOM     27  C   UNL     1      11.484 -59.841 -25.036  1.00  0.00     0.009 A 
ATOM     28  C   UNL     1       9.465 -60.800 -26.706  1.00  0.00     0.001 A 
ATOM     29  C   UNL     1      11.726 -60.015 -26.399  1.00  0.00     0.001 A 
ATOM     30  C   UNL     1      10.719 -60.496 -27.232  1.00  0.00     0.000 A 
ENDBRANCH  24  25
ENDBRANCH  22  24
ENDBRANCH   1  17
TORSDOF 7
ENDMDL
MODEL 9
REMARK VINA RESULT:    -9.515      2.782      5.514
REMARK INTER + INTRA:         -13.535
REMARK INTER:                 -12.777
REMARK INTRA:                  -0.758
REMARK UNBOUND:                -0.404
REMARK SMILES COc1cc2c(cc1OC)C(O)=C(C[C@H]1CC[N@H+](Cc3ccccc3)CC1)C2
REMARK SMILES IDX 14 1 13 2 11 3 6 4 28 5 7 6 5 7 8 8 4 9 3 10 12 11 9 13
REMARK SMILES IDX 10 14 2 15 1 16 15 17 16 18 27 19 17 20 26 21 18 22 19 24
REMARK SMILES IDX 20 25 21 26 25 27 22 28 24 29 23 30
REMARK H PARENT 12 12 18 23
ROOT
ATOM      1  C   UNL     1      12.980 -51.223 -22.891  1.00  0.00     0.039 C 
ENDROOT
BRANCH   1   2
ATOM      2  C   UNL     1      12.688 -49.801 -23.247  1.00  0.00    -0.023 C 
ATOM      3  C   UNL     1      11.691 -49.015 -22.804  1.00  0.00     0.122 C 
ATOM      4  C   UNL     1      11.767 -47.717 -23.449  1.00  0.00     0.024 A 
ATOM      5  C   UNL     1      13.596 -49.030 -24.196  1.00  0.00     0.071 C 
ATOM      6  C   UNL     1      10.937 -46.613 -23.350  1.00  0.00     0.062 A 
ATOM      7  C   UNL     1      12.891 -47.708 -24.280  1.00  0.00    -0.029 A 
ATOM      8  C   UNL     1      11.248 -45.476 -24.106  1.00  0.00     0.161 A 
ATOM      9  C   UNL     1      13.220 -46.594 -25.034  1.00  0.00     0.055 A 
ATOM     10  C   UNL     1      12.394 -45.466 -24.948  1.00  0.00     0.161 A 
BRANCH   3  11
ATOM     11  O   UNL     1      10.703 -49.290 -21.917  1.00  0.00    -0.507 OA
ATOM     12  H   UNL     1      11.044 -49.126 -21.023  1.00  0.00     0.293 HD
ENDBRANCH   3  11
BRANCH   8  13
ATOM     13  O   UNL     1      10.499 -44.324 -24.104  1.00  0.00    -0.493 OA
ATOM     14  C   UNL     1      10.530 -43.521 -22.932  1.00  0.00     0.278 C 
ENDBRANCH   8  13
BRANCH  10  15
ATOM     15  O   UNL     1      12.602 -44.306 -25.656  1.00  0.00    -0.493 OA
ATOM     16  C   UNL     1      13.654 -43.453 -25.226  1.00  0.00     0.278 C 
ENDBRANCH  10  15
ENDBRANCH   1   2
BRANCH   1  17
ATOM     17  C   UNL     1      11.832 -52.231 -23.131  1.00  0.00     0.004 C 
ATOM     18  C   UNL     1      11.213 -52.764 -21.831  1.00  0.00     0.065 C 
ATOM     19  C   UNL     1      12.253 -53.408 -24.025  1.00  0.00     0.065 C 
ATOM     20  C   UNL     1      10.060 -53.721 -22.105  1.00  0.00     0.262 C 
ATOM     21  C   UNL     1      11.097 -54.367 -24.289  1.00  0.00     0.262 C 
ATOM     22  N   UNL     1      10.541 -54.855 -22.973  1.00  0.00    -0.331 N 
ATOM     23  H   UNL     1      11.314 -55.322 -22.479  1.00  0.00     0.348 HD
BRANCH  22  24
ATOM     24  C   UNL     1       9.468 -55.911 -23.147  1.00  0.00     0.299 C 
BRANCH  24  25
ATOM     25  C   UNL     1       9.914 -57.285 -22.724  1.00  0.00     0.006 A 
ATOM     26  C   UNL     1       9.171 -58.419 -23.089  1.00  0.00     0.009 A 
ATOM     27  C   UNL     1      11.068 -57.451 -21.944  1.00  0.00     0.009 A 
ATOM     28  C   UNL     1       9.572 -59.689 -22.674  1.00  0.00     0.001 A 
ATOM     29  C   UNL     1      11.466 -58.723 -21.532  1.00  0.00     0.001 A 
ATOM     30  C   UNL     1      10.716 -59.840 -21.894  1.00  0.00     0.000 A 
ENDBRANCH  24  25
ENDBRANCH  22  24
ENDBRANCH   1  17
TORSDOF 7
ENDMDL
