MODEL 1
REMARK VINA RESULT:    -9.019      0.000      0.000
REMARK INTER + INTRA:         -13.814
REMARK INTER:                 -12.446
REMARK INTRA:                  -1.367
REMARK UNBOUND:                -1.367
REMARK SMILES COc1ccc([C@H]2C=C(c3cc(F)cc(F)c3)NN2c2ccc(S(N)(=O)=O)cc2)c(OC)c1
REMARK SMILES IDX 20 1 21 2 22 3 23 4 28 5 29 6 19 7 18 8 9 9 8 10 7 11 10 13
REMARK SMILES IDX 11 14 17 15 12 16 15 17 14 18 13 19 16 20 6 21 5 22 30 23
REMARK SMILES IDX 4 24 33 25 3 26 31 27 32 28 2 29 1 30 24 31 26 32 27 33
REMARK SMILES IDX 25 34
REMARK H PARENT 18 12 25 35 25 36
ROOT
ATOM      1  C   UNL     1      12.737 -48.366 -24.211  1.00  0.00     0.058 A 
ATOM      2  C   UNL     1      13.527 -47.579 -25.066  1.00  0.00     0.029 A 
ATOM      3  C   UNL     1      13.342 -46.194 -25.175  1.00  0.00     0.024 A 
ATOM      4  C   UNL     1      12.350 -45.573 -24.420  1.00  0.00     0.082 A 
ATOM      5  C   UNL     1      11.564 -46.315 -23.543  1.00  0.00     0.024 A 
ATOM      6  C   UNL     1      11.762 -47.696 -23.446  1.00  0.00     0.029 A 
ENDROOT
BRANCH   1   7
ATOM      7  N   UNL     1      12.918 -49.750 -24.069  1.00  0.00    -0.276 N 
ATOM      8  N   UNL     1      12.079 -50.541 -23.284  1.00  0.00    -0.297 N 
ATOM      9  C   UNL     1      12.112 -51.859 -23.722  1.00  0.00     0.060 C 
ATOM     10  C   UNL     1      12.867 -51.959 -24.827  1.00  0.00     0.033 C 
ATOM     11  C   UNL     1      13.455 -50.603 -25.175  1.00  0.00     0.164 C 
ATOM     12  H   UNL     1      12.271 -50.485 -22.281  1.00  0.00     0.188 HD
BRANCH   9  13
ATOM     13  C   UNL     1      11.422 -52.930 -23.001  1.00  0.00     0.005 A 
ATOM     14  C   UNL     1      10.820 -53.996 -23.684  1.00  0.00     0.049 A 
ATOM     15  C   UNL     1      11.370 -52.921 -21.599  1.00  0.00     0.049 A 
ATOM     16  C   UNL     1      10.179 -55.011 -22.976  1.00  0.00     0.126 A 
ATOM     17  C   UNL     1      10.723 -53.946 -20.913  1.00  0.00     0.126 A 
ATOM     18  C   UNL     1      10.122 -54.997 -21.590  1.00  0.00     0.078 A 
ATOM     19  F   UNL     1       9.610 -56.020 -23.646  1.00  0.00    -0.207 F 
ATOM     20  F   UNL     1      10.680 -53.915 -19.575  1.00  0.00    -0.207 F 
ENDBRANCH   9  13
BRANCH  11  21
ATOM     21  C   UNL     1      14.970 -50.637 -25.269  1.00  0.00     0.023 A 
ATOM     22  C   UNL     1      15.704 -50.971 -24.114  1.00  0.00     0.014 A 
ATOM     23  C   UNL     1      15.693 -50.328 -26.431  1.00  0.00     0.128 A 
ATOM     24  C   UNL     1      17.104 -51.007 -24.120  1.00  0.00     0.047 A 
ATOM     25  C   UNL     1      17.094 -50.341 -26.428  1.00  0.00     0.093 A 
ATOM     26  C   UNL     1      17.805 -50.690 -25.280  1.00  0.00     0.122 A 
BRANCH  23  27
ATOM     27  O   UNL     1      15.032 -49.925 -27.562  1.00  0.00    -0.496 OA
ATOM     28  C   UNL     1      15.695 -48.825 -28.186  1.00  0.00     0.278 C 
ENDBRANCH  23  27
BRANCH  26  29
ATOM     29  O   UNL     1      19.165 -50.673 -25.420  1.00  0.00    -0.497 OA
ATOM     30  C   UNL     1      19.783 -51.872 -25.869  1.00  0.00     0.278 C 
ENDBRANCH  26  29
ENDBRANCH  11  21
ENDBRANCH   1   7
BRANCH   4  31
ATOM     31  S   UNL     1      12.101 -43.823 -24.542  1.00  0.00     0.238 S 
ATOM     32  O   UNL     1      13.145 -43.155 -23.799  1.00  0.00    -0.207 OA
ATOM     33  O   UNL     1      10.700 -43.546 -24.338  1.00  0.00    -0.207 OA
BRANCH  31  34
ATOM     34  N   UNL     1      12.459 -43.545 -26.165  1.00  0.00    -0.225 NA
ATOM     35  H   UNL     1      12.237 -42.574 -26.390  1.00  0.00     0.137 HD
ATOM     36  H   UNL     1      13.419 -43.784 -26.412  1.00  0.00     0.137 HD
ENDBRANCH  31  34
ENDBRANCH   4  31
TORSDOF 7
ENDMDL
MODEL 2
REMARK VINA RESULT:    -8.982      0.560      1.508
REMARK INTER + INTRA:         -13.762
REMARK INTER:                 -12.352
REMARK INTRA:                  -1.410
REMARK UNBOUND:                -1.367
REMARK SMILES COc1ccc([C@H]2C=C(c3cc(F)cc(F)c3)NN2c2ccc(S(N)(=O)=O)cc2)c(OC)c1
REMARK SMILES IDX 20 1 21 2 22 3 23 4 28 5 29 6 19 7 18 8 9 9 8 10 7 11 10 13
REMARK SMILES IDX 11 14 17 15 12 16 15 17 14 18 13 19 16 20 6 21 5 22 30 23
REMARK SMILES IDX 4 24 33 25 3 26 31 27 32 28 2 29 1 30 24 31 26 32 27 33
REMARK SMILES IDX 25 34
REMARK H PARENT 18 12 25 35 25 36
ROOT
ATOM      1  C   UNL     1      12.853 -48.394 -24.364  1.00  0.00     0.058 A 
ATOM      2  C   UNL     1      13.891 -47.488 -24.639  1.00  0.00     0.029 A 
ATOM      3  C   UNL     1      13.671 -46.104 -24.682  1.00  0.00     0.024 A 
ATOM      4  C   UNL     1      12.393 -45.605 -24.447  1.00  0.00     0.082 A 
ATOM      5  C   UNL     1      11.344 -46.469 -24.146  1.00  0.00     0.024 A 
ATOM      6  C   UNL     1      11.581 -47.847 -24.107  1.00  0.00     0.029 A 
ENDROOT
BRANCH   1   7
ATOM      7  N   UNL     1      13.054 -49.780 -24.293  1.00  0.00    -0.276 N 
ATOM      8  N   UNL     1      12.316 -50.604 -23.443  1.00  0.00    -0.297 N 
ATOM      9  C   UNL     1      12.300 -51.905 -23.929  1.00  0.00     0.060 C 
ATOM     10  C   UNL     1      12.918 -51.961 -25.118  1.00  0.00     0.033 C 
ATOM     11  C   UNL     1      13.457 -50.590 -25.485  1.00  0.00     0.164 C 
ATOM     12  H   UNL     1      12.626 -50.582 -22.469  1.00  0.00     0.188 HD
BRANCH   9  13
ATOM     13  C   UNL     1      11.703 -53.006 -23.170  1.00  0.00     0.005 A 
ATOM     14  C   UNL     1      11.378 -52.863 -21.814  1.00  0.00     0.049 A 
ATOM     15  C   UNL     1      11.423 -54.229 -23.799  1.00  0.00     0.049 A 
ATOM     16  C   UNL     1      10.799 -53.921 -21.116  1.00  0.00     0.126 A 
ATOM     17  C   UNL     1      10.844 -55.272 -23.079  1.00  0.00     0.126 A 
ATOM     18  C   UNL     1      10.529 -55.131 -21.737  1.00  0.00     0.078 A 
ATOM     19  F   UNL     1      10.496 -53.765 -19.821  1.00  0.00    -0.207 F 
ATOM     20  F   UNL     1      10.590 -56.432 -23.698  1.00  0.00    -0.207 F 
ENDBRANCH   9  13
BRANCH  11  21
ATOM     21  C   UNL     1      14.950 -50.611 -25.760  1.00  0.00     0.023 A 
ATOM     22  C   UNL     1      15.779 -51.350 -24.894  1.00  0.00     0.014 A 
ATOM     23  C   UNL     1      15.566 -49.914 -26.811  1.00  0.00     0.128 A 
ATOM     24  C   UNL     1      17.166 -51.403 -25.075  1.00  0.00     0.047 A 
ATOM     25  C   UNL     1      16.957 -49.948 -26.975  1.00  0.00     0.093 A 
ATOM     26  C   UNL     1      17.761 -50.699 -26.118  1.00  0.00     0.122 A 
BRANCH  23  27
ATOM     27  O   UNL     1      14.816 -49.120 -27.638  1.00  0.00    -0.496 OA
ATOM     28  C   UNL     1      15.645 -48.339 -28.500  1.00  0.00     0.278 C 
ENDBRANCH  23  27
BRANCH  26  29
ATOM     29  O   UNL     1      19.099 -50.653 -26.400  1.00  0.00    -0.497 OA
ATOM     30  C   UNL     1      19.900 -51.717 -25.903  1.00  0.00     0.278 C 
ENDBRANCH  26  29
ENDBRANCH  11  21
ENDBRANCH   1   7
BRANCH   4  31
ATOM     31  S   UNL     1      12.094 -43.859 -24.495  1.00  0.00     0.238 S 
ATOM     32  O   UNL     1      13.135 -43.192 -23.747  1.00  0.00    -0.207 OA
ATOM     33  O   UNL     1      10.691 -43.629 -24.253  1.00  0.00    -0.207 OA
BRANCH  31  34
ATOM     34  N   UNL     1      12.411 -43.509 -26.112  1.00  0.00    -0.225 NA
ATOM     35  H   UNL     1      11.825 -44.104 -26.699  1.00  0.00     0.137 HD
ATOM     36  H   UNL     1      12.299 -42.521 -26.340  1.00  0.00     0.137 HD
ENDBRANCH  31  34
ENDBRANCH   4  31
TORSDOF 7
ENDMDL
MODEL 3
REMARK VINA RESULT:    -8.945      4.562      7.423
REMARK INTER + INTRA:         -13.712
REMARK INTER:                 -12.336
REMARK INTRA:                  -1.376
REMARK UNBOUND:                -1.367
REMARK SMILES COc1ccc([C@H]2C=C(c3cc(F)cc(F)c3)NN2c2ccc(S(N)(=O)=O)cc2)c(OC)c1
REMARK SMILES IDX 20 1 21 2 22 3 23 4 28 5 29 6 19 7 18 8 9 9 8 10 7 11 10 13
REMARK SMILES IDX 11 14 17 15 12 16 15 17 14 18 13 19 16 20 6 21 5 22 30 23
REMARK SMILES IDX 4 24 33 25 3 26 31 27 32 28 2 29 1 30 24 31 26 32 27 33
REMARK SMILES IDX 25 34
REMARK H PARENT 18 12 25 35 25 36
ROOT
ATOM      1  C   UNL     1      12.070 -52.679 -23.507  1.00  0.00     0.058 A 
ATOM      2  C   UNL     1      11.373 -53.043 -22.343  1.00  0.00     0.029 A 
ATOM      3  C   UNL     1      10.843 -54.329 -22.171  1.00  0.00     0.024 A 
ATOM      4  C   UNL     1      11.008 -55.279 -23.175  1.00  0.00     0.082 A 
ATOM      5  C   UNL     1      11.715 -54.965 -24.332  1.00  0.00     0.024 A 
ATOM      6  C   UNL     1      12.237 -53.677 -24.488  1.00  0.00     0.029 A 
ENDROOT
BRANCH   1   7
ATOM      7  N   UNL     1      12.628 -51.406 -23.692  1.00  0.00    -0.276 N 
ATOM      8  N   UNL     1      11.850 -50.252 -23.796  1.00  0.00    -0.297 N 
ATOM      9  C   UNL     1      12.592 -49.137 -23.430  1.00  0.00     0.060 C 
ATOM     10  C   UNL     1      13.805 -49.512 -22.995  1.00  0.00     0.033 C 
ATOM     11  C   UNL     1      13.949 -51.019 -23.105  1.00  0.00     0.164 C 
ATOM     12  H   UNL     1      11.422 -50.120 -24.716  1.00  0.00     0.188 HD
BRANCH   9  13
ATOM     13  C   UNL     1      12.063 -47.778 -23.564  1.00  0.00     0.005 A 
ATOM     14  C   UNL     1      11.026 -47.317 -22.742  1.00  0.00     0.049 A 
ATOM     15  C   UNL     1      12.605 -46.898 -24.513  1.00  0.00     0.049 A 
ATOM     16  C   UNL     1      10.547 -46.015 -22.880  1.00  0.00     0.126 A 
ATOM     17  C   UNL     1      12.109 -45.602 -24.633  1.00  0.00     0.126 A 
ATOM     18  C   UNL     1      11.079 -45.149 -23.823  1.00  0.00     0.078 A 
ATOM     19  F   UNL     1       9.556 -45.593 -22.085  1.00  0.00    -0.207 F 
ATOM     20  F   UNL     1      12.637 -44.780 -25.549  1.00  0.00    -0.207 F 
ENDBRANCH   9  13
BRANCH  11  21
ATOM     21  C   UNL     1      15.153 -51.426 -23.937  1.00  0.00     0.023 A 
ATOM     22  C   UNL     1      16.322 -51.835 -23.265  1.00  0.00     0.014 A 
ATOM     23  C   UNL     1      15.189 -51.394 -25.339  1.00  0.00     0.128 A 
ATOM     24  C   UNL     1      17.476 -52.208 -23.963  1.00  0.00     0.047 A 
ATOM     25  C   UNL     1      16.352 -51.745 -26.035  1.00  0.00     0.093 A 
ATOM     26  C   UNL     1      17.495 -52.164 -25.354  1.00  0.00     0.122 A 
BRANCH  23  27
ATOM     27  O   UNL     1      14.105 -50.934 -26.041  1.00  0.00    -0.496 OA
ATOM     28  C   UNL     1      14.449 -49.808 -26.848  1.00  0.00     0.278 C 
ENDBRANCH  23  27
BRANCH  26  29
ATOM     29  O   UNL     1      18.554 -52.487 -26.157  1.00  0.00    -0.497 OA
ATOM     30  C   UNL     1      19.813 -51.916 -25.825  1.00  0.00     0.278 C 
ENDBRANCH  26  29
ENDBRANCH  11  21
ENDBRANCH   1   7
BRANCH   4  31
ATOM     31  S   UNL     1      10.348 -56.911 -22.976  1.00  0.00     0.238 S 
ATOM     32  O   UNL     1       8.993 -56.925 -23.477  1.00  0.00    -0.207 OA
ATOM     33  O   UNL     1      10.697 -57.387 -21.660  1.00  0.00    -0.207 OA
BRANCH  31  34
ATOM     34  N   UNL     1      11.252 -57.778 -24.103  1.00  0.00    -0.225 NA
ATOM     35  H   UNL     1      11.182 -57.313 -25.010  1.00  0.00     0.137 HD
ATOM     36  H   UNL     1      12.221 -57.918 -23.821  1.00  0.00     0.137 HD
ENDBRANCH  31  34
ENDBRANCH   4  31
TORSDOF 7
ENDMDL
MODEL 4
REMARK VINA RESULT:    -8.826      1.890      2.636
REMARK INTER + INTRA:         -13.548
REMARK INTER:                 -12.201
REMARK INTRA:                  -1.346
REMARK UNBOUND:                -1.367
REMARK SMILES COc1ccc([C@H]2C=C(c3cc(F)cc(F)c3)NN2c2ccc(S(N)(=O)=O)cc2)c(OC)c1
REMARK SMILES IDX 20 1 21 2 22 3 23 4 28 5 29 6 19 7 18 8 9 9 8 10 7 11 10 13
REMARK SMILES IDX 11 14 17 15 12 16 15 17 14 18 13 19 16 20 6 21 5 22 30 23
REMARK SMILES IDX 4 24 33 25 3 26 31 27 32 28 2 29 1 30 24 31 26 32 27 33
REMARK SMILES IDX 25 34
REMARK H PARENT 18 12 25 35 25 36
ROOT
ATOM      1  C   UNL     1      12.057 -50.190 -23.491  1.00  0.00     0.058 A 
ATOM      2  C   UNL     1      11.016 -49.875 -22.602  1.00  0.00     0.029 A 
ATOM      3  C   UNL     1      10.641 -48.550 -22.344  1.00  0.00     0.024 A 
ATOM      4  C   UNL     1      11.314 -47.510 -22.981  1.00  0.00     0.082 A 
ATOM      5  C   UNL     1      12.334 -47.783 -23.888  1.00  0.00     0.024 A 
ATOM      6  C   UNL     1      12.695 -49.111 -24.134  1.00  0.00     0.029 A 
ENDROOT
BRANCH   1   7
ATOM      7  N   UNL     1      12.435 -51.510 -23.782  1.00  0.00    -0.276 N 
ATOM      8  N   UNL     1      11.724 -52.616 -23.314  1.00  0.00    -0.297 N 
ATOM      9  C   UNL     1      11.941 -53.711 -24.140  1.00  0.00     0.060 C 
ATOM     10  C   UNL     1      12.691 -53.353 -25.194  1.00  0.00     0.033 C 
ATOM     11  C   UNL     1      13.076 -51.889 -25.080  1.00  0.00     0.164 C 
ATOM     12  H   UNL     1      11.917 -52.851 -22.337  1.00  0.00     0.188 HD
BRANCH   9  13
ATOM     13  C   UNL     1      11.417 -55.039 -23.816  1.00  0.00     0.005 A 
ATOM     14  C   UNL     1      10.156 -55.200 -23.227  1.00  0.00     0.049 A 
ATOM     15  C   UNL     1      12.167 -56.187 -24.111  1.00  0.00     0.049 A 
ATOM     16  C   UNL     1       9.673 -56.475 -22.938  1.00  0.00     0.126 A 
ATOM     17  C   UNL     1      11.664 -57.451 -23.813  1.00  0.00     0.126 A 
ATOM     18  C   UNL     1      10.418 -57.608 -23.225  1.00  0.00     0.078 A 
ATOM     19  F   UNL     1       8.465 -56.608 -22.376  1.00  0.00    -0.207 F 
ATOM     20  F   UNL     1      12.399 -58.534 -24.099  1.00  0.00    -0.207 F 
ENDBRANCH   9  13
BRANCH  11  21
ATOM     21  C   UNL     1      14.580 -51.682 -25.126  1.00  0.00     0.023 A 
ATOM     22  C   UNL     1      15.358 -52.189 -24.066  1.00  0.00     0.014 A 
ATOM     23  C   UNL     1      15.248 -50.990 -26.147  1.00  0.00     0.128 A 
ATOM     24  C   UNL     1      16.747 -52.023 -24.032  1.00  0.00     0.047 A 
ATOM     25  C   UNL     1      16.635 -50.803 -26.099  1.00  0.00     0.093 A 
ATOM     26  C   UNL     1      17.392 -51.326 -25.051  1.00  0.00     0.122 A 
BRANCH  23  27
ATOM     27  O   UNL     1      14.532 -50.412 -27.164  1.00  0.00    -0.496 OA
ATOM     28  C   UNL     1      15.175 -49.231 -27.645  1.00  0.00     0.278 C 
ENDBRANCH  23  27
BRANCH  26  29
ATOM     29  O   UNL     1      18.734 -51.081 -25.135  1.00  0.00    -0.497 OA
ATOM     30  C   UNL     1      19.128 -49.765 -25.502  1.00  0.00     0.278 C 
ENDBRANCH  26  29
ENDBRANCH  11  21
ENDBRANCH   1   7
BRANCH   4  31
ATOM     31  S   UNL     1      10.854 -45.827 -22.671  1.00  0.00     0.238 S 
ATOM     32  O   UNL     1      12.017 -45.111 -22.197  1.00  0.00    -0.207 OA
ATOM     33  O   UNL     1       9.595 -45.821 -21.967  1.00  0.00    -0.207 OA
BRANCH  31  34
ATOM     34  N   UNL     1      10.584 -45.259 -24.233  1.00  0.00    -0.225 NA
ATOM     35  H   UNL     1      10.059 -45.963 -24.754  1.00  0.00     0.137 HD
ATOM     36  H   UNL     1      10.126 -44.348 -24.257  1.00  0.00     0.137 HD
ENDBRANCH  31  34
ENDBRANCH   4  31
TORSDOF 7
ENDMDL
MODEL 5
REMARK VINA RESULT:    -8.734      1.227      2.271
REMARK INTER + INTRA:         -13.420
REMARK INTER:                 -12.158
REMARK INTRA:                  -1.262
REMARK UNBOUND:                -1.367
REMARK SMILES COc1ccc([C@H]2C=C(c3cc(F)cc(F)c3)NN2c2ccc(S(N)(=O)=O)cc2)c(OC)c1
REMARK SMILES IDX 20 1 21 2 22 3 23 4 28 5 29 6 19 7 18 8 9 9 8 10 7 11 10 13
REMARK SMILES IDX 11 14 17 15 12 16 15 17 14 18 13 19 16 20 6 21 5 22 30 23
REMARK SMILES IDX 4 24 33 25 3 26 31 27 32 28 2 29 1 30 24 31 26 32 27 33
REMARK SMILES IDX 25 34
REMARK H PARENT 18 12 25 35 25 36
ROOT
ATOM      1  C   UNL     1      12.606 -47.981 -23.997  1.00  0.00     0.058 A 
ATOM      2  C   UNL     1      13.593 -46.981 -23.991  1.00  0.00     0.029 A 
ATOM      3  C   UNL     1      13.265 -45.621 -23.914  1.00  0.00     0.024 A 
ATOM      4  C   UNL     1      11.928 -45.240 -23.843  1.00  0.00     0.082 A 
ATOM      5  C   UNL     1      10.922 -46.202 -23.821  1.00  0.00     0.024 A 
ATOM      6  C   UNL     1      11.267 -47.556 -23.897  1.00  0.00     0.029 A 
ENDROOT
BRANCH   1   7
ATOM      7  N   UNL     1      12.911 -49.349 -24.050  1.00  0.00    -0.276 N 
ATOM      8  N   UNL     1      12.233 -50.301 -23.286  1.00  0.00    -0.297 N 
ATOM      9  C   UNL     1      12.318 -51.549 -23.888  1.00  0.00     0.060 C 
ATOM     10  C   UNL     1      12.944 -51.450 -25.071  1.00  0.00     0.033 C 
ATOM     11  C   UNL     1      13.379 -50.015 -25.306  1.00  0.00     0.164 C 
ATOM     12  H   UNL     1      12.537 -50.344 -22.311  1.00  0.00     0.188 HD
BRANCH   9  13
ATOM     13  C   UNL     1      11.803 -52.756 -23.240  1.00  0.00     0.005 A 
ATOM     14  C   UNL     1      11.295 -52.720 -21.934  1.00  0.00     0.049 A 
ATOM     15  C   UNL     1      11.789 -53.979 -23.928  1.00  0.00     0.049 A 
ATOM     16  C   UNL     1      10.798 -53.880 -21.342  1.00  0.00     0.126 A 
ATOM     17  C   UNL     1      11.288 -55.125 -23.315  1.00  0.00     0.126 A 
ATOM     18  C   UNL     1      10.790 -55.089 -22.021  1.00  0.00     0.078 A 
ATOM     19  F   UNL     1      10.316 -53.825 -20.094  1.00  0.00    -0.207 F 
ATOM     20  F   UNL     1      11.289 -56.282 -23.988  1.00  0.00    -0.207 F 
ENDBRANCH   9  13
BRANCH  11  21
ATOM     21  C   UNL     1      14.871 -49.898 -25.565  1.00  0.00     0.023 A 
ATOM     22  C   UNL     1      15.302 -49.624 -26.878  1.00  0.00     0.014 A 
ATOM     23  C   UNL     1      15.856 -50.073 -24.582  1.00  0.00     0.128 A 
ATOM     24  C   UNL     1      16.661 -49.517 -27.196  1.00  0.00     0.047 A 
ATOM     25  C   UNL     1      17.217 -49.990 -24.907  1.00  0.00     0.093 A 
ATOM     26  C   UNL     1      17.625 -49.702 -26.208  1.00  0.00     0.122 A 
BRANCH  23  27
ATOM     27  O   UNL     1      15.496 -50.414 -23.304  1.00  0.00    -0.496 OA
ATOM     28  C   UNL     1      16.352 -51.427 -22.776  1.00  0.00     0.278 C 
ENDBRANCH  23  27
BRANCH  26  29
ATOM     29  O   UNL     1      18.980 -49.639 -26.384  1.00  0.00    -0.497 OA
ATOM     30  C   UNL     1      19.561 -50.586 -27.272  1.00  0.00     0.278 C 
ENDBRANCH  26  29
ENDBRANCH  11  21
ENDBRANCH   1   7
BRANCH   4  31
ATOM     31  S   UNL     1      11.493 -43.526 -23.743  1.00  0.00     0.238 S 
ATOM     32  O   UNL     1      12.616 -42.794 -23.205  1.00  0.00    -0.207 OA
ATOM     33  O   UNL     1      10.162 -43.423 -23.196  1.00  0.00    -0.207 OA
BRANCH  31  34
ATOM     34  N   UNL     1      11.422 -43.102 -25.373  1.00  0.00    -0.225 NA
ATOM     35  H   UNL     1      11.986 -42.264 -25.520  1.00  0.00     0.137 HD
ATOM     36  H   UNL     1      11.696 -43.860 -25.998  1.00  0.00     0.137 HD
ENDBRANCH  31  34
ENDBRANCH   4  31
TORSDOF 7
ENDMDL
MODEL 6
REMARK VINA RESULT:    -8.613      4.887      8.208
REMARK INTER + INTRA:         -13.253
REMARK INTER:                 -11.958
REMARK INTRA:                  -1.296
REMARK UNBOUND:                -1.367
REMARK SMILES COc1ccc([C@H]2C=C(c3cc(F)cc(F)c3)NN2c2ccc(S(N)(=O)=O)cc2)c(OC)c1
REMARK SMILES IDX 20 1 21 2 22 3 23 4 28 5 29 6 19 7 18 8 9 9 8 10 7 11 10 13
REMARK SMILES IDX 11 14 17 15 12 16 15 17 14 18 13 19 16 20 6 21 5 22 30 23
REMARK SMILES IDX 4 24 33 25 3 26 31 27 32 28 2 29 1 30 24 31 26 32 27 33
REMARK SMILES IDX 25 34
REMARK H PARENT 18 12 25 35 25 36
ROOT
ATOM      1  C   UNL     1      13.050 -51.630 -24.578  1.00  0.00     0.058 A 
ATOM      2  C   UNL     1      12.920 -52.876 -25.213  1.00  0.00     0.029 A 
ATOM      3  C   UNL     1      12.138 -53.904 -24.669  1.00  0.00     0.024 A 
ATOM      4  C   UNL     1      11.469 -53.694 -23.466  1.00  0.00     0.082 A 
ATOM      5  C   UNL     1      11.553 -52.465 -22.819  1.00  0.00     0.024 A 
ATOM      6  C   UNL     1      12.337 -51.450 -23.376  1.00  0.00     0.029 A 
ENDROOT
BRANCH   1   7
ATOM      7  N   UNL     1      13.809 -50.580 -25.114  1.00  0.00    -0.276 N 
ATOM      8  N   UNL     1      14.580 -50.722 -26.269  1.00  0.00    -0.297 N 
ATOM      9  C   UNL     1      14.769 -49.487 -26.875  1.00  0.00     0.060 C 
ATOM     10  C   UNL     1      14.075 -48.541 -26.224  1.00  0.00     0.033 C 
ATOM     11  C   UNL     1      13.370 -49.152 -25.026  1.00  0.00     0.164 C 
ATOM     12  H   UNL     1      15.474 -51.195 -26.117  1.00  0.00     0.188 HD
BRANCH   9  13
ATOM     13  C   UNL     1      15.645 -49.323 -28.037  1.00  0.00     0.005 A 
ATOM     14  C   UNL     1      15.163 -48.795 -29.243  1.00  0.00     0.049 A 
ATOM     15  C   UNL     1      17.001 -49.675 -27.956  1.00  0.00     0.049 A 
ATOM     16  C   UNL     1      16.019 -48.637 -30.331  1.00  0.00     0.126 A 
ATOM     17  C   UNL     1      17.837 -49.508 -29.058  1.00  0.00     0.126 A 
ATOM     18  C   UNL     1      17.357 -48.991 -30.252  1.00  0.00     0.078 A 
ATOM     19  F   UNL     1      15.541 -48.131 -31.475  1.00  0.00    -0.207 F 
ATOM     20  F   UNL     1      19.126 -49.855 -28.961  1.00  0.00    -0.207 F 
ENDBRANCH   9  13
BRANCH  11  21
ATOM     21  C   UNL     1      13.735 -48.458 -23.725  1.00  0.00     0.023 A 
ATOM     22  C   UNL     1      15.014 -48.688 -23.180  1.00  0.00     0.014 A 
ATOM     23  C   UNL     1      12.867 -47.619 -23.010  1.00  0.00     0.128 A 
ATOM     24  C   UNL     1      15.415 -48.096 -21.977  1.00  0.00     0.047 A 
ATOM     25  C   UNL     1      13.261 -47.047 -21.794  1.00  0.00     0.093 A 
ATOM     26  C   UNL     1      14.537 -47.272 -21.278  1.00  0.00     0.122 A 
BRANCH  23  27
ATOM     27  O   UNL     1      11.586 -47.419 -23.457  1.00  0.00    -0.496 OA
ATOM     28  C   UNL     1      10.736 -46.961 -22.405  1.00  0.00     0.278 C 
ENDBRANCH  23  27
BRANCH  26  29
ATOM     29  O   UNL     1      14.794 -46.645 -20.090  1.00  0.00    -0.497 OA
ATOM     30  C   UNL     1      16.115 -46.755 -19.575  1.00  0.00     0.278 C 
ENDBRANCH  26  29
ENDBRANCH  11  21
ENDBRANCH   1   7
BRANCH   4  31
ATOM     31  S   UNL     1      10.474 -54.980 -22.762  1.00  0.00     0.238 S 
ATOM     32  O   UNL     1      11.318 -55.823 -21.947  1.00  0.00    -0.207 OA
ATOM     33  O   UNL     1       9.610 -55.505 -23.792  1.00  0.00    -0.207 OA
BRANCH  31  34
ATOM     34  N   UNL     1       9.524 -54.112 -21.675  1.00  0.00    -0.225 NA
ATOM     35  H   UNL     1      10.135 -53.637 -21.009  1.00  0.00     0.137 HD
ATOM     36  H   UNL     1       8.880 -53.465 -22.129  1.00  0.00     0.137 HD
ENDBRANCH  31  34
ENDBRANCH   4  31
TORSDOF 7
ENDMDL
MODEL 7
REMARK VINA RESULT:    -8.517      3.059      5.900
REMARK INTER + INTRA:         -13.121
REMARK INTER:                 -11.800
REMARK INTRA:                  -1.321
REMARK UNBOUND:                -1.367
REMARK SMILES COc1ccc([C@H]2C=C(c3cc(F)cc(F)c3)NN2c2ccc(S(N)(=O)=O)cc2)c(OC)c1
REMARK SMILES IDX 20 1 21 2 22 3 23 4 28 5 29 6 19 7 18 8 9 9 8 10 7 11 10 13
REMARK SMILES IDX 11 14 17 15 12 16 15 17 14 18 13 19 16 20 6 21 5 22 30 23
REMARK SMILES IDX 4 24 33 25 3 26 31 27 32 28 2 29 1 30 24 31 26 32 27 33
REMARK SMILES IDX 25 34
REMARK H PARENT 18 12 25 35 25 36
ROOT
ATOM      1  C   UNL     1      14.407 -48.513 -26.638  1.00  0.00     0.058 A 
ATOM      2  C   UNL     1      14.742 -47.150 -26.592  1.00  0.00     0.029 A 
ATOM      3  C   UNL     1      15.448 -46.528 -27.630  1.00  0.00     0.024 A 
ATOM      4  C   UNL     1      15.833 -47.273 -28.742  1.00  0.00     0.082 A 
ATOM      5  C   UNL     1      15.497 -48.621 -28.836  1.00  0.00     0.024 A 
ATOM      6  C   UNL     1      14.791 -49.226 -27.791  1.00  0.00     0.029 A 
ENDROOT
BRANCH   1   7
ATOM      7  N   UNL     1      13.682 -49.153 -25.622  1.00  0.00    -0.276 N 
ATOM      8  N   UNL     1      13.258 -50.479 -25.720  1.00  0.00    -0.297 N 
ATOM      9  C   UNL     1      13.073 -51.019 -24.454  1.00  0.00     0.060 C 
ATOM     10  C   UNL     1      13.447 -50.136 -23.516  1.00  0.00     0.033 C 
ATOM     11  C   UNL     1      13.894 -48.843 -24.173  1.00  0.00     0.164 C 
ATOM     12  H   UNL     1      12.425 -50.608 -26.298  1.00  0.00     0.188 HD
BRANCH   9  13
ATOM     13  C   UNL     1      12.511 -52.357 -24.260  1.00  0.00     0.005 A 
ATOM     14  C   UNL     1      11.670 -52.643 -23.176  1.00  0.00     0.049 A 
ATOM     15  C   UNL     1      12.790 -53.382 -25.177  1.00  0.00     0.049 A 
ATOM     16  C   UNL     1      11.137 -53.921 -23.019  1.00  0.00     0.126 A 
ATOM     17  C   UNL     1      12.247 -54.652 -24.999  1.00  0.00     0.126 A 
ATOM     18  C   UNL     1      11.419 -54.935 -23.923  1.00  0.00     0.078 A 
ATOM     19  F   UNL     1      10.335 -54.175 -21.978  1.00  0.00    -0.207 F 
ATOM     20  F   UNL     1      12.530 -55.616 -25.883  1.00  0.00    -0.207 F 
ENDBRANCH   9  13
BRANCH  11  21
ATOM     21  C   UNL     1      13.120 -47.639 -23.665  1.00  0.00     0.023 A 
ATOM     22  C   UNL     1      11.867 -47.356 -24.243  1.00  0.00     0.014 A 
ATOM     23  C   UNL     1      13.587 -46.766 -22.670  1.00  0.00     0.128 A 
ATOM     24  C   UNL     1      11.104 -46.255 -23.838  1.00  0.00     0.047 A 
ATOM     25  C   UNL     1      12.833 -45.651 -22.282  1.00  0.00     0.093 A 
ATOM     26  C   UNL     1      11.587 -45.396 -22.854  1.00  0.00     0.122 A 
BRANCH  23  27
ATOM     27  O   UNL     1      14.831 -46.951 -22.126  1.00  0.00    -0.496 OA
ATOM     28  C   UNL     1      15.703 -45.866 -22.443  1.00  0.00     0.278 C 
ENDBRANCH  23  27
BRANCH  26  29
ATOM     29  O   UNL     1      10.954 -44.282 -22.376  1.00  0.00    -0.497 OA
ATOM     30  C   UNL     1      10.258 -43.479 -23.321  1.00  0.00     0.278 C 
ENDBRANCH  26  29
ENDBRANCH  11  21
ENDBRANCH   1   7
BRANCH   4  31
ATOM     31  S   UNL     1      16.724 -46.505 -30.066  1.00  0.00     0.238 S 
ATOM     32  O   UNL     1      17.597 -47.487 -30.666  1.00  0.00    -0.207 OA
ATOM     33  O   UNL     1      17.193 -45.218 -29.614  1.00  0.00    -0.207 OA
BRANCH  31  34
ATOM     34  N   UNL     1      15.498 -46.249 -31.193  1.00  0.00    -0.225 NA
ATOM     35  H   UNL     1      14.630 -46.648 -30.831  1.00  0.00     0.137 HD
ATOM     36  H   UNL     1      15.387 -45.269 -31.452  1.00  0.00     0.137 HD
ENDBRANCH  31  34
ENDBRANCH   4  31
TORSDOF 7
ENDMDL
MODEL 8
REMARK VINA RESULT:    -8.445      4.489      7.530
REMARK INTER + INTRA:         -13.021
REMARK INTER:                 -11.622
REMARK INTRA:                  -1.399
REMARK UNBOUND:                -1.367
REMARK SMILES COc1ccc([C@H]2C=C(c3cc(F)cc(F)c3)NN2c2ccc(S(N)(=O)=O)cc2)c(OC)c1
REMARK SMILES IDX 20 1 21 2 22 3 23 4 28 5 29 6 19 7 18 8 9 9 8 10 7 11 10 13
REMARK SMILES IDX 11 14 17 15 12 16 15 17 14 18 13 19 16 20 6 21 5 22 30 23
REMARK SMILES IDX 4 24 33 25 3 26 31 27 32 28 2 29 1 30 24 31 26 32 27 33
REMARK SMILES IDX 25 34
REMARK H PARENT 18 12 25 35 25 36
ROOT
ATOM      1  C   UNL     1      12.271 -50.452 -23.358  1.00  0.00     0.058 A 
ATOM      2  C   UNL     1      12.576 -51.551 -24.179  1.00  0.00     0.029 A 
ATOM      3  C   UNL     1      12.029 -52.820 -23.946  1.00  0.00     0.024 A 
ATOM      4  C   UNL     1      11.159 -53.007 -22.875  1.00  0.00     0.082 A 
ATOM      5  C   UNL     1      10.814 -51.937 -22.054  1.00  0.00     0.024 A 
ATOM      6  C   UNL     1      11.368 -50.677 -22.301  1.00  0.00     0.029 A 
ENDROOT
BRANCH   1   7
ATOM      7  N   UNL     1      12.789 -49.168 -23.584  1.00  0.00    -0.276 N 
ATOM      8  N   UNL     1      12.126 -48.009 -23.179  1.00  0.00    -0.297 N 
ATOM      9  C   UNL     1      13.033 -46.969 -23.016  1.00  0.00     0.060 C 
ATOM     10  C   UNL     1      14.285 -47.415 -23.203  1.00  0.00     0.033 C 
ATOM     11  C   UNL     1      14.258 -48.886 -23.575  1.00  0.00     0.164 C 
ATOM     12  H   UNL     1      11.359 -47.731 -23.796  1.00  0.00     0.188 HD
BRANCH   9  13
ATOM     13  C   UNL     1      12.597 -45.604 -22.716  1.00  0.00     0.005 A 
ATOM     14  C   UNL     1      13.441 -44.699 -22.059  1.00  0.00     0.049 A 
ATOM     15  C   UNL     1      11.322 -45.167 -23.105  1.00  0.00     0.049 A 
ATOM     16  C   UNL     1      13.009 -43.400 -21.795  1.00  0.00     0.126 A 
ATOM     17  C   UNL     1      10.912 -43.864 -22.830  1.00  0.00     0.126 A 
ATOM     18  C   UNL     1      11.746 -42.971 -22.174  1.00  0.00     0.078 A 
ATOM     19  F   UNL     1      13.830 -42.550 -21.166  1.00  0.00    -0.207 F 
ATOM     20  F   UNL     1       9.689 -43.469 -23.205  1.00  0.00    -0.207 F 
ENDBRANCH   9  13
BRANCH  11  21
ATOM     21  C   UNL     1      14.962 -49.162 -24.892  1.00  0.00     0.023 A 
ATOM     22  C   UNL     1      14.442 -48.577 -26.064  1.00  0.00     0.014 A 
ATOM     23  C   UNL     1      16.088 -49.989 -25.025  1.00  0.00     0.128 A 
ATOM     24  C   UNL     1      15.028 -48.798 -27.316  1.00  0.00     0.047 A 
ATOM     25  C   UNL     1      16.658 -50.229 -26.282  1.00  0.00     0.093 A 
ATOM     26  C   UNL     1      16.140 -49.628 -27.429  1.00  0.00     0.122 A 
BRANCH  23  27
ATOM     27  O   UNL     1      16.590 -50.643 -23.930  1.00  0.00    -0.496 OA
ATOM     28  C   UNL     1      16.837 -52.020 -24.215  1.00  0.00     0.278 C 
ENDBRANCH  23  27
BRANCH  26  29
ATOM     29  O   UNL     1      16.799 -49.939 -28.587  1.00  0.00    -0.497 OA
ATOM     30  C   UNL     1      16.776 -48.966 -29.623  1.00  0.00     0.278 C 
ENDBRANCH  26  29
ENDBRANCH  11  21
ENDBRANCH   1   7
BRANCH   4  31
ATOM     31  S   UNL     1      10.456 -54.603 -22.565  1.00  0.00     0.238 S 
ATOM     32  O   UNL     1      11.331 -55.328 -21.673  1.00  0.00    -0.207 OA
ATOM     33  O   UNL     1       9.994 -55.149 -23.818  1.00  0.00    -0.207 OA
BRANCH  31  34
ATOM     34  N   UNL     1       9.106 -54.201 -21.640  1.00  0.00    -0.225 NA
ATOM     35  H   UNL     1       9.264 -54.504 -20.678  1.00  0.00     0.137 HD
ATOM     36  H   UNL     1       8.861 -53.213 -21.692  1.00  0.00     0.137 HD
ENDBRANCH  31  34
ENDBRANCH   4  31
TORSDOF 7
ENDMDL
MODEL 9
REMARK VINA RESULT:    -8.209      4.051      6.280
REMARK INTER + INTRA:         -12.696
REMARK INTER:                 -11.270
REMARK INTRA:                  -1.426
REMARK UNBOUND:                -1.367
REMARK SMILES COc1ccc([C@H]2C=C(c3cc(F)cc(F)c3)NN2c2ccc(S(N)(=O)=O)cc2)c(OC)c1
REMARK SMILES IDX 20 1 21 2 22 3 23 4 28 5 29 6 19 7 18 8 9 9 8 10 7 11 10 13
REMARK SMILES IDX 11 14 17 15 12 16 15 17 14 18 13 19 16 20 6 21 5 22 30 23
REMARK SMILES IDX 4 24 33 25 3 26 31 27 32 28 2 29 1 30 24 31 26 32 27 33
REMARK SMILES IDX 25 34
REMARK H PARENT 18 12 25 35 25 36
ROOT
ATOM      1  C   UNL     1      14.884 -47.637 -21.233  1.00  0.00     0.058 A 
ATOM      2  C   UNL     1      16.282 -47.755 -21.309  1.00  0.00     0.029 A 
ATOM      3  C   UNL     1      17.125 -47.185 -20.346  1.00  0.00     0.024 A 
ATOM      4  C   UNL     1      16.571 -46.479 -19.280  1.00  0.00     0.082 A 
ATOM      5  C   UNL     1      15.190 -46.362 -19.156  1.00  0.00     0.024 A 
ATOM      6  C   UNL     1      14.363 -46.938 -20.126  1.00  0.00     0.029 A 
ENDROOT
BRANCH   1   7
ATOM      7  N   UNL     1      14.020 -48.218 -22.172  1.00  0.00    -0.276 N 
ATOM      8  N   UNL     1      13.907 -49.599 -22.337  1.00  0.00    -0.297 N 
ATOM      9  C   UNL     1      12.670 -49.919 -22.882  1.00  0.00     0.060 C 
ATOM     10  C   UNL     1      11.917 -48.814 -22.997  1.00  0.00     0.033 C 
ATOM     11  C   UNL     1      12.706 -47.602 -22.537  1.00  0.00     0.164 C 
ATOM     12  H   UNL     1      14.665 -50.016 -22.883  1.00  0.00     0.188 HD
BRANCH   9  13
ATOM     13  C   UNL     1      12.331 -51.287 -23.277  1.00  0.00     0.005 A 
ATOM     14  C   UNL     1      11.489 -52.084 -22.490  1.00  0.00     0.049 A 
ATOM     15  C   UNL     1      12.829 -51.822 -24.475  1.00  0.00     0.049 A 
ATOM     16  C   UNL     1      11.170 -53.380 -22.894  1.00  0.00     0.126 A 
ATOM     17  C   UNL     1      12.497 -53.120 -24.857  1.00  0.00     0.126 A 
ATOM     18  C   UNL     1      11.669 -53.909 -24.074  1.00  0.00     0.078 A 
ATOM     19  F   UNL     1      10.365 -54.126 -22.128  1.00  0.00    -0.207 F 
ATOM     20  F   UNL     1      12.989 -53.612 -26.001  1.00  0.00    -0.207 F 
ENDBRANCH   9  13
BRANCH  11  21
ATOM     21  C   UNL     1      12.787 -46.525 -23.605  1.00  0.00     0.023 A 
ATOM     22  C   UNL     1      13.416 -46.841 -24.826  1.00  0.00     0.014 A 
ATOM     23  C   UNL     1      12.299 -45.219 -23.445  1.00  0.00     0.128 A 
ATOM     24  C   UNL     1      13.542 -45.896 -25.851  1.00  0.00     0.047 A 
ATOM     25  C   UNL     1      12.449 -44.268 -24.463  1.00  0.00     0.093 A 
ATOM     26  C   UNL     1      13.059 -44.603 -25.671  1.00  0.00     0.122 A 
BRANCH  23  27
ATOM     27  O   UNL     1      11.745 -44.837 -22.251  1.00  0.00    -0.496 OA
ATOM     28  C   UNL     1      11.737 -43.416 -22.114  1.00  0.00     0.278 C 
ENDBRANCH  23  27
BRANCH  26  29
ATOM     29  O   UNL     1      13.128 -43.583 -26.580  1.00  0.00    -0.497 OA
ATOM     30  C   UNL     1      13.735 -42.373 -26.147  1.00  0.00     0.278 C 
ENDBRANCH  26  29
ENDBRANCH  11  21
ENDBRANCH   1   7
BRANCH   4  31
ATOM     31  S   UNL     1      17.619 -45.753 -18.051  1.00  0.00     0.238 S 
ATOM     32  O   UNL     1      17.800 -44.354 -18.367  1.00  0.00    -0.207 OA
ATOM     33  O   UNL     1      18.725 -46.646 -17.808  1.00  0.00    -0.207 OA
BRANCH  31  34
ATOM     34  N   UNL     1      16.617 -45.780 -16.697  1.00  0.00    -0.225 NA
ATOM     35  H   UNL     1      15.863 -45.105 -16.831  1.00  0.00     0.137 HD
ATOM     36  H   UNL     1      16.261 -46.710 -16.477  1.00  0.00     0.137 HD
ENDBRANCH  31  34
ENDBRANCH   4  31
TORSDOF 7
ENDMDL
