MODEL 1
REMARK VINA RESULT:    -9.069      0.000      0.000
REMARK INTER + INTRA:         -16.998
REMARK INTER:                 -15.961
REMARK INTRA:                  -1.037
REMARK UNBOUND:                -1.037
REMARK SMILES O=[N+]([O-])OCCCCCC[NH2+]CCCN=c1c2c([nH]c3ccccc13)CCCC2
REMARK SMILES IDX 10 1 11 2 12 5 13 6 14 7 15 8 16 9 19 10 18 11 20 12 17 13
REMARK SMILES IDX 26 14 21 15 25 16 29 17 27 18 22 19 24 20 28 21 23 22 9 24
REMARK SMILES IDX 8 25 7 26 6 27 5 28 4 29 2 30 1 31 3 32
REMARK H PARENT 11 3 11 4 19 23
ROOT
ATOM      1  C   UNL     1      10.419 -55.420 -22.394  1.00  0.00     0.260 C 
ENDROOT
BRANCH   1   2
ATOM      2  N   UNL     1      10.585 -56.270 -23.614  1.00  0.00    -0.346 N 
ATOM      3  H   UNL     1      10.830 -55.680 -24.421  1.00  0.00     0.346 HD
ATOM      4  H   UNL     1       9.679 -56.698 -23.845  1.00  0.00     0.346 HD
BRANCH   2   5
ATOM      5  C   UNL     1      11.600 -57.371 -23.503  1.00  0.00     0.262 C 
BRANCH   5   6
ATOM      6  C   UNL     1      11.470 -58.080 -22.168  1.00  0.00     0.085 C 
BRANCH   6   7
ATOM      7  C   UNL     1      10.520 -59.276 -22.267  1.00  0.00     0.148 C 
BRANCH   7   8
ATOM      8  N   UNL     1      11.225 -60.301 -23.000  1.00  0.00    -0.284 NA
BRANCH   8   9
ATOM      9  C   UNL     1      10.786 -60.890 -24.065  1.00  0.00     0.072 A 
ATOM     10  N   UNL     1       8.992 -61.634 -26.093  1.00  0.00    -0.358 N 
ATOM     11  C   UNL     1       8.929 -62.271 -24.869  1.00  0.00     0.021 A 
ATOM     12  C   UNL     1      10.161 -60.952 -26.469  1.00  0.00     0.048 A 
ATOM     13  C   UNL     1       9.777 -61.989 -23.859  1.00  0.00    -0.003 A 
ATOM     14  C   UNL     1       7.841 -63.312 -24.709  1.00  0.00     0.054 C 
ATOM     15  C   UNL     1      10.375 -60.609 -27.810  1.00  0.00     0.027 A 
ATOM     16  C   UNL     1      11.112 -60.586 -25.498  1.00  0.00     0.024 A 
ATOM     17  C   UNL     1       9.739 -62.667 -22.517  1.00  0.00     0.039 C 
ATOM     18  C   UNL     1       7.584 -63.724 -23.258  1.00  0.00     0.007 C 
ATOM     19  C   UNL     1      11.564 -59.992 -28.199  1.00  0.00     0.002 A 
ATOM     20  C   UNL     1      12.326 -60.022 -25.906  1.00  0.00     0.012 A 
ATOM     21  C   UNL     1       8.894 -63.942 -22.513  1.00  0.00     0.005 C 
ATOM     22  C   UNL     1      12.547 -59.720 -27.252  1.00  0.00     0.001 A 
ATOM     23  H   UNL     1       8.463 -62.062 -26.846  1.00  0.00     0.166 HD
ENDBRANCH   8   9
ENDBRANCH   7   8
ENDBRANCH   6   7
ENDBRANCH   5   6
ENDBRANCH   2   5
ENDBRANCH   1   2
BRANCH   1  24
ATOM     24  C   UNL     1      11.260 -54.148 -22.508  1.00  0.00     0.061 C 
BRANCH  24  25
ATOM     25  C   UNL     1      11.259 -53.543 -23.916  1.00  0.00     0.006 C 
BRANCH  25  26
ATOM     26  C   UNL     1      12.461 -52.632 -24.190  1.00  0.00     0.002 C 
BRANCH  26  27
ATOM     27  C   UNL     1      12.773 -51.665 -23.041  1.00  0.00     0.028 C 
BRANCH  27  28
ATOM     28  C   UNL     1      11.723 -50.556 -22.918  1.00  0.00     0.208 C 
BRANCH  28  29
ATOM     29  O   UNL     1      11.015 -50.733 -21.696  1.00  0.00    -0.314 OA
BRANCH  29  30
ATOM     30  N   UNL     1       9.616 -50.577 -21.850  1.00  0.00     0.294 N 
ATOM     31  O   UNL     1       9.182 -49.426 -21.920  1.00  0.00    -0.109 OA
ATOM     32  O   UNL     1       9.021 -51.652 -21.882  1.00  0.00    -0.109 OA
ENDBRANCH  29  30
ENDBRANCH  28  29
ENDBRANCH  27  28
ENDBRANCH  26  27
ENDBRANCH  25  26
ENDBRANCH  24  25
ENDBRANCH   1  24
TORSDOF 13
ENDMDL
MODEL 2
REMARK VINA RESULT:    -8.953      3.931      7.646
REMARK INTER + INTRA:         -16.795
REMARK INTER:                 -14.627
REMARK INTRA:                  -2.168
REMARK UNBOUND:                -1.037
REMARK SMILES O=[N+]([O-])OCCCCCC[NH2+]CCCN=c1c2c([nH]c3ccccc13)CCCC2
REMARK SMILES IDX 10 1 11 2 12 5 13 6 14 7 15 8 16 9 19 10 18 11 20 12 17 13
REMARK SMILES IDX 26 14 21 15 25 16 29 17 27 18 22 19 24 20 28 21 23 22 9 24
REMARK SMILES IDX 8 25 7 26 6 27 5 28 4 29 2 30 1 31 3 32
REMARK H PARENT 11 3 11 4 19 23
ROOT
ATOM      1  C   UNL     1       7.206 -62.216 -23.414  1.00  0.00     0.260 C 
ENDROOT
BRANCH   1   2
ATOM      2  N   UNL     1       6.980 -60.803 -23.852  1.00  0.00    -0.346 N 
ATOM      3  H   UNL     1       6.826 -60.772 -24.869  1.00  0.00     0.346 HD
ATOM      4  H   UNL     1       7.838 -60.262 -23.682  1.00  0.00     0.346 HD
BRANCH   2   5
ATOM      5  C   UNL     1       5.844 -60.090 -23.176  1.00  0.00     0.262 C 
BRANCH   5   6
ATOM      6  C   UNL     1       6.093 -58.594 -23.158  1.00  0.00     0.085 C 
BRANCH   6   7
ATOM      7  C   UNL     1       7.391 -58.240 -23.888  1.00  0.00     0.148 C 
BRANCH   7   8
ATOM      8  N   UNL     1       8.375 -57.965 -22.867  1.00  0.00    -0.284 NA
BRANCH   8   9
ATOM      9  C   UNL     1       9.604 -57.628 -23.089  1.00  0.00     0.072 A 
ATOM     10  N   UNL     1      11.978 -57.182 -24.522  1.00  0.00    -0.358 N 
ATOM     11  C   UNL     1      11.673 -58.463 -24.101  1.00  0.00     0.021 A 
ATOM     12  C   UNL     1      11.366 -56.078 -23.906  1.00  0.00     0.048 A 
ATOM     13  C   UNL     1      10.567 -58.748 -23.383  1.00  0.00    -0.003 A 
ATOM     14  C   UNL     1      12.649 -59.550 -24.497  1.00  0.00     0.054 C 
ATOM     15  C   UNL     1      11.906 -54.796 -24.066  1.00  0.00     0.027 A 
ATOM     16  C   UNL     1      10.194 -56.249 -23.146  1.00  0.00     0.024 A 
ATOM     17  C   UNL     1      10.209 -60.127 -22.904  1.00  0.00     0.039 C 
ATOM     18  C   UNL     1      12.103 -60.969 -24.325  1.00  0.00     0.007 C 
ATOM     19  C   UNL     1      11.342 -53.706 -23.403  1.00  0.00     0.002 A 
ATOM     20  C   UNL     1       9.672 -55.161 -22.436  1.00  0.00     0.012 A 
ATOM     21  C   UNL     1      11.374 -61.114 -22.996  1.00  0.00     0.005 C 
ATOM     22  C   UNL     1      10.241 -53.892 -22.571  1.00  0.00     0.001 A 
ATOM     23  H   UNL     1      12.924 -57.039 -24.861  1.00  0.00     0.166 HD
ENDBRANCH   8   9
ENDBRANCH   7   8
ENDBRANCH   6   7
ENDBRANCH   5   6
ENDBRANCH   2   5
ENDBRANCH   1   2
BRANCH   1  24
ATOM     24  C   UNL     1       7.932 -63.005 -24.505  1.00  0.00     0.061 C 
BRANCH  24  25
ATOM     25  C   UNL     1       8.583 -62.115 -25.568  1.00  0.00     0.006 C 
BRANCH  25  26
ATOM     26  C   UNL     1       8.450 -62.668 -26.992  1.00  0.00     0.002 C 
BRANCH  26  27
ATOM     27  C   UNL     1       9.308 -61.924 -28.022  1.00  0.00     0.028 C 
BRANCH  27  28
ATOM     28  C   UNL     1      10.151 -60.816 -27.382  1.00  0.00     0.208 C 
BRANCH  28  29
ATOM     29  O   UNL     1      10.741 -60.037 -28.417  1.00  0.00    -0.314 OA
BRANCH  29  30
ATOM     30  N   UNL     1      11.936 -59.398 -28.003  1.00  0.00     0.294 N 
ATOM     31  O   UNL     1      11.848 -58.229 -27.627  1.00  0.00    -0.109 OA
ATOM     32  O   UNL     1      12.919 -60.130 -28.095  1.00  0.00    -0.109 OA
ENDBRANCH  29  30
ENDBRANCH  28  29
ENDBRANCH  27  28
ENDBRANCH  26  27
ENDBRANCH  25  26
ENDBRANCH  24  25
ENDBRANCH   1  24
TORSDOF 13
ENDMDL
MODEL 3
REMARK VINA RESULT:    -8.903      3.094      3.626
REMARK INTER + INTRA:         -16.707
REMARK INTER:                 -15.955
REMARK INTRA:                  -0.751
REMARK UNBOUND:                -1.037
REMARK SMILES O=[N+]([O-])OCCCCCC[NH2+]CCCN=c1c2c([nH]c3ccccc13)CCCC2
REMARK SMILES IDX 10 1 11 2 12 5 13 6 14 7 15 8 16 9 19 10 18 11 20 12 17 13
REMARK SMILES IDX 26 14 21 15 25 16 29 17 27 18 22 19 24 20 28 21 23 22 9 24
REMARK SMILES IDX 8 25 7 26 6 27 5 28 4 29 2 30 1 31 3 32
REMARK H PARENT 11 3 11 4 19 23
ROOT
ATOM      1  C   UNL     1      10.134 -54.318 -23.393  1.00  0.00     0.260 C 
ENDROOT
BRANCH   1   2
ATOM      2  N   UNL     1       9.908 -55.500 -22.504  1.00  0.00    -0.346 N 
ATOM      3  H   UNL     1       9.206 -56.125 -22.924  1.00  0.00     0.346 HD
ATOM      4  H   UNL     1       9.498 -55.176 -21.618  1.00  0.00     0.346 HD
BRANCH   2   5
ATOM      5  C   UNL     1      11.131 -56.309 -22.178  1.00  0.00     0.262 C 
BRANCH   5   6
ATOM      6  C   UNL     1      10.867 -57.785 -22.406  1.00  0.00     0.085 C 
BRANCH   6   7
ATOM      7  C   UNL     1      11.655 -58.308 -23.610  1.00  0.00     0.148 C 
BRANCH   7   8
ATOM      8  N   UNL     1      11.555 -59.748 -23.571  1.00  0.00    -0.284 NA
BRANCH   8   9
ATOM      9  C   UNL     1      11.080 -60.487 -24.521  1.00  0.00     0.072 A 
ATOM     10  N   UNL     1       9.198 -61.571 -26.301  1.00  0.00    -0.358 N 
ATOM     11  C   UNL     1       9.262 -62.056 -25.008  1.00  0.00     0.021 A 
ATOM     12  C   UNL     1      10.292 -60.878 -26.844  1.00  0.00     0.048 A 
ATOM     13  C   UNL     1      10.160 -61.606 -24.108  1.00  0.00    -0.003 A 
ATOM     14  C   UNL     1       8.256 -63.127 -24.642  1.00  0.00     0.054 C 
ATOM     15  C   UNL     1      10.388 -60.692 -28.229  1.00  0.00     0.027 A 
ATOM     16  C   UNL     1      11.284 -60.344 -26.001  1.00  0.00     0.024 A 
ATOM     17  C   UNL     1      10.261 -62.115 -22.696  1.00  0.00     0.039 C 
ATOM     18  C   UNL     1       8.129 -63.370 -23.137  1.00  0.00     0.007 C 
ATOM     19  C   UNL     1      11.505 -60.064 -28.780  1.00  0.00     0.002 A 
ATOM     20  C   UNL     1      12.428 -59.770 -26.566  1.00  0.00     0.012 A 
ATOM     21  C   UNL     1       9.500 -63.424 -22.476  1.00  0.00     0.005 C 
ATOM     22  C   UNL     1      12.534 -59.623 -27.952  1.00  0.00     0.001 A 
ATOM     23  H   UNL     1       8.645 -62.117 -26.954  1.00  0.00     0.166 HD
ENDBRANCH   8   9
ENDBRANCH   7   8
ENDBRANCH   6   7
ENDBRANCH   5   6
ENDBRANCH   2   5
ENDBRANCH   1   2
BRANCH   1  24
ATOM     24  C   UNL     1      11.484 -54.431 -24.102  1.00  0.00     0.061 C 
BRANCH  24  25
ATOM     25  C   UNL     1      12.171 -53.079 -24.321  1.00  0.00     0.006 C 
BRANCH  25  26
ATOM     26  C   UNL     1      13.077 -53.049 -25.558  1.00  0.00     0.002 C 
BRANCH  26  27
ATOM     27  C   UNL     1      13.970 -51.805 -25.634  1.00  0.00     0.028 C 
BRANCH  27  28
ATOM     28  C   UNL     1      15.335 -52.031 -24.975  1.00  0.00     0.208 C 
BRANCH  28  29
ATOM     29  O   UNL     1      15.950 -53.164 -25.580  1.00  0.00    -0.314 OA
BRANCH  29  30
ATOM     30  N   UNL     1      17.331 -52.966 -25.824  1.00  0.00     0.294 N 
ATOM     31  O   UNL     1      17.791 -53.433 -26.867  1.00  0.00    -0.109 OA
ATOM     32  O   UNL     1      17.887 -52.346 -24.921  1.00  0.00    -0.109 OA
ENDBRANCH  29  30
ENDBRANCH  28  29
ENDBRANCH  27  28
ENDBRANCH  26  27
ENDBRANCH  25  26
ENDBRANCH  24  25
ENDBRANCH   1  24
TORSDOF 13
ENDMDL
MODEL 4
REMARK VINA RESULT:    -8.814      2.199      2.432
REMARK INTER + INTRA:         -16.550
REMARK INTER:                 -15.812
REMARK INTRA:                  -0.737
REMARK UNBOUND:                -1.037
REMARK SMILES O=[N+]([O-])OCCCCCC[NH2+]CCCN=c1c2c([nH]c3ccccc13)CCCC2
REMARK SMILES IDX 10 1 11 2 12 5 13 6 14 7 15 8 16 9 19 10 18 11 20 12 17 13
REMARK SMILES IDX 26 14 21 15 25 16 29 17 27 18 22 19 24 20 28 21 23 22 9 24
REMARK SMILES IDX 8 25 7 26 6 27 5 28 4 29 2 30 1 31 3 32
REMARK H PARENT 11 3 11 4 19 23
ROOT
ATOM      1  C   UNL     1      10.321 -55.305 -22.087  1.00  0.00     0.260 C 
ENDROOT
BRANCH   1   2
ATOM      2  N   UNL     1      10.167 -56.465 -23.020  1.00  0.00    -0.346 N 
ATOM      3  H   UNL     1       9.872 -56.131 -23.948  1.00  0.00     0.346 HD
ATOM      4  H   UNL     1       9.401 -57.063 -22.682  1.00  0.00     0.346 HD
BRANCH   2   5
ATOM      5  C   UNL     1      11.385 -57.326 -23.188  1.00  0.00     0.262 C 
BRANCH   5   6
ATOM      6  C   UNL     1      11.552 -58.248 -21.995  1.00  0.00     0.085 C 
BRANCH   6   7
ATOM      7  C   UNL     1      10.646 -59.476 -22.112  1.00  0.00     0.148 C 
BRANCH   7   8
ATOM      8  N   UNL     1      11.341 -60.419 -22.957  1.00  0.00    -0.284 NA
BRANCH   8   9
ATOM      9  C   UNL     1      10.857 -60.951 -24.033  1.00  0.00     0.072 A 
ATOM     10  N   UNL     1       8.990 -61.561 -26.040  1.00  0.00    -0.358 N 
ATOM     11  C   UNL     1       8.941 -62.246 -24.840  1.00  0.00     0.021 A 
ATOM     12  C   UNL     1      10.168 -60.897 -26.419  1.00  0.00     0.048 A 
ATOM     13  C   UNL     1       9.822 -62.029 -23.843  1.00  0.00    -0.003 A 
ATOM     14  C   UNL     1       7.828 -63.262 -24.693  1.00  0.00     0.054 C 
ATOM     15  C   UNL     1      10.356 -60.506 -27.751  1.00  0.00     0.027 A 
ATOM     16  C   UNL     1      11.154 -60.598 -25.460  1.00  0.00     0.024 A 
ATOM     17  C   UNL     1       9.801 -62.761 -22.530  1.00  0.00     0.039 C 
ATOM     18  C   UNL     1       7.597 -63.726 -23.254  1.00  0.00     0.007 C 
ATOM     19  C   UNL     1      11.552 -59.907 -28.146  1.00  0.00     0.002 A 
ATOM     20  C   UNL     1      12.373 -60.052 -25.878  1.00  0.00     0.012 A 
ATOM     21  C   UNL     1       8.919 -64.011 -22.554  1.00  0.00     0.005 C 
ATOM     22  C   UNL     1      12.567 -59.701 -27.217  1.00  0.00     0.001 A 
ATOM     23  H   UNL     1       8.429 -61.944 -26.794  1.00  0.00     0.166 HD
ENDBRANCH   8   9
ENDBRANCH   7   8
ENDBRANCH   6   7
ENDBRANCH   5   6
ENDBRANCH   2   5
ENDBRANCH   1   2
BRANCH   1  24
ATOM     24  C   UNL     1       9.791 -54.024 -22.733  1.00  0.00     0.061 C 
BRANCH  24  25
ATOM     25  C   UNL     1      10.540 -52.763 -22.286  1.00  0.00     0.006 C 
BRANCH  25  26
ATOM     26  C   UNL     1      11.759 -52.438 -23.157  1.00  0.00     0.002 C 
BRANCH  26  27
ATOM     27  C   UNL     1      12.201 -50.972 -23.071  1.00  0.00     0.028 C 
BRANCH  27  28
ATOM     28  C   UNL     1      13.050 -50.553 -24.276  1.00  0.00     0.208 C 
BRANCH  28  29
ATOM     29  O   UNL     1      12.895 -51.527 -25.303  1.00  0.00    -0.314 OA
BRANCH  29  30
ATOM     30  N   UNL     1      13.995 -51.557 -26.195  1.00  0.00     0.294 N 
ATOM     31  O   UNL     1      13.987 -50.751 -27.126  1.00  0.00    -0.109 OA
ATOM     32  O   UNL     1      14.818 -52.420 -25.901  1.00  0.00    -0.109 OA
ENDBRANCH  29  30
ENDBRANCH  28  29
ENDBRANCH  27  28
ENDBRANCH  26  27
ENDBRANCH  25  26
ENDBRANCH  24  25
ENDBRANCH   1  24
TORSDOF 13
ENDMDL
MODEL 5
REMARK VINA RESULT:    -8.728      1.480      1.846
REMARK INTER + INTRA:         -16.398
REMARK INTER:                 -15.750
REMARK INTRA:                  -0.649
REMARK UNBOUND:                -1.037
REMARK SMILES O=[N+]([O-])OCCCCCC[NH2+]CCCN=c1c2c([nH]c3ccccc13)CCCC2
REMARK SMILES IDX 10 1 11 2 12 5 13 6 14 7 15 8 16 9 19 10 18 11 20 12 17 13
REMARK SMILES IDX 26 14 21 15 25 16 29 17 27 18 22 19 24 20 28 21 23 22 9 24
REMARK SMILES IDX 8 25 7 26 6 27 5 28 4 29 2 30 1 31 3 32
REMARK H PARENT 11 3 11 4 19 23
ROOT
ATOM      1  C   UNL     1      10.261 -54.735 -23.376  1.00  0.00     0.260 C 
ENDROOT
BRANCH   1   2
ATOM      2  N   UNL     1      10.919 -56.041 -23.691  1.00  0.00    -0.346 N 
ATOM      3  H   UNL     1      11.916 -56.001 -23.438  1.00  0.00     0.346 HD
ATOM      4  H   UNL     1      10.895 -56.187 -24.709  1.00  0.00     0.346 HD
BRANCH   2   5
ATOM      5  C   UNL     1      10.310 -57.248 -23.038  1.00  0.00     0.262 C 
BRANCH   5   6
ATOM      6  C   UNL     1      11.391 -58.133 -22.445  1.00  0.00     0.085 C 
BRANCH   6   7
ATOM      7  C   UNL     1      10.830 -59.500 -22.047  1.00  0.00     0.148 C 
BRANCH   7   8
ATOM      8  N   UNL     1      11.461 -60.470 -22.911  1.00  0.00    -0.284 NA
BRANCH   8   9
ATOM      9  C   UNL     1      10.936 -60.961 -23.986  1.00  0.00     0.072 A 
ATOM     10  N   UNL     1       9.003 -61.470 -25.959  1.00  0.00    -0.358 N 
ATOM     11  C   UNL     1       8.966 -62.185 -24.777  1.00  0.00     0.021 A 
ATOM     12  C   UNL     1      10.188 -60.827 -26.352  1.00  0.00     0.048 A 
ATOM     13  C   UNL     1       9.878 -62.017 -23.798  1.00  0.00    -0.003 A 
ATOM     14  C   UNL     1       7.830 -63.175 -24.626  1.00  0.00     0.054 C 
ATOM     15  C   UNL     1      10.353 -60.406 -27.677  1.00  0.00     0.027 A 
ATOM     16  C   UNL     1      11.206 -60.579 -25.412  1.00  0.00     0.024 A 
ATOM     17  C   UNL     1       9.870 -62.782 -22.503  1.00  0.00     0.039 C 
ATOM     18  C   UNL     1       7.624 -63.670 -23.194  1.00  0.00     0.007 C 
ATOM     19  C   UNL     1      11.553 -59.828 -28.089  1.00  0.00     0.002 A 
ATOM     20  C   UNL     1      12.428 -60.054 -25.847  1.00  0.00     0.012 A 
ATOM     21  C   UNL     1       8.956 -64.007 -22.536  1.00  0.00     0.005 C 
ATOM     22  C   UNL     1      12.598 -59.673 -27.181  1.00  0.00     0.001 A 
ATOM     23  H   UNL     1       8.413 -61.818 -26.708  1.00  0.00     0.166 HD
ENDBRANCH   8   9
ENDBRANCH   7   8
ENDBRANCH   6   7
ENDBRANCH   5   6
ENDBRANCH   2   5
ENDBRANCH   1   2
BRANCH   1  24
ATOM     24  C   UNL     1      11.275 -53.752 -22.789  1.00  0.00     0.061 C 
BRANCH  24  25
ATOM     25  C   UNL     1      10.675 -52.820 -21.730  1.00  0.00     0.006 C 
BRANCH  25  26
ATOM     26  C   UNL     1      11.402 -51.475 -21.620  1.00  0.00     0.002 C 
BRANCH  26  27
ATOM     27  C   UNL     1      10.629 -50.307 -22.244  1.00  0.00     0.028 C 
BRANCH  27  28
ATOM     28  C   UNL     1      11.552 -49.150 -22.643  1.00  0.00     0.208 C 
BRANCH  28  29
ATOM     29  O   UNL     1      10.749 -48.032 -23.007  1.00  0.00    -0.314 OA
BRANCH  29  30
ATOM     30  N   UNL     1      11.002 -46.895 -22.202  1.00  0.00     0.294 N 
ATOM     31  O   UNL     1      12.179 -46.574 -22.036  1.00  0.00    -0.109 OA
ATOM     32  O   UNL     1       9.972 -46.388 -21.764  1.00  0.00    -0.109 OA
ENDBRANCH  29  30
ENDBRANCH  28  29
ENDBRANCH  27  28
ENDBRANCH  26  27
ENDBRANCH  25  26
ENDBRANCH  24  25
ENDBRANCH   1  24
TORSDOF 13
ENDMDL
MODEL 6
REMARK VINA RESULT:    -8.009      4.092     11.204
REMARK INTER + INTRA:         -15.133
REMARK INTER:                 -14.528
REMARK INTRA:                  -0.605
REMARK UNBOUND:                -1.037
REMARK SMILES O=[N+]([O-])OCCCCCC[NH2+]CCCN=c1c2c([nH]c3ccccc13)CCCC2
REMARK SMILES IDX 10 1 11 2 12 5 13 6 14 7 15 8 16 9 19 10 18 11 20 12 17 13
REMARK SMILES IDX 26 14 21 15 25 16 29 17 27 18 22 19 24 20 28 21 23 22 9 24
REMARK SMILES IDX 8 25 7 26 6 27 5 28 4 29 2 30 1 31 3 32
REMARK H PARENT 11 3 11 4 19 23
ROOT
ATOM      1  C   UNL     1      10.713 -55.030 -22.720  1.00  0.00     0.260 C 
ENDROOT
BRANCH   1   2
ATOM      2  N   UNL     1       9.742 -54.220 -21.921  1.00  0.00    -0.346 N 
ATOM      3  H   UNL     1      10.022 -54.214 -20.931  1.00  0.00     0.346 HD
ATOM      4  H   UNL     1       8.823 -54.683 -21.948  1.00  0.00     0.346 HD
BRANCH   2   5
ATOM      5  C   UNL     1       9.556 -52.800 -22.373  1.00  0.00     0.262 C 
BRANCH   5   6
ATOM      6  C   UNL     1      10.850 -52.023 -22.223  1.00  0.00     0.085 C 
BRANCH   6   7
ATOM      7  C   UNL     1      10.578 -50.533 -22.001  1.00  0.00     0.148 C 
BRANCH   7   8
ATOM      8  N   UNL     1      11.837 -49.852 -22.195  1.00  0.00    -0.284 NA
BRANCH   8   9
ATOM      9  C   UNL     1      12.163 -49.179 -23.251  1.00  0.00     0.072 A 
ATOM     10  N   UNL     1      13.546 -47.337 -24.857  1.00  0.00    -0.358 N 
ATOM     11  C   UNL     1      12.536 -46.886 -24.029  1.00  0.00     0.021 A 
ATOM     12  C   UNL     1      13.605 -48.694 -25.216  1.00  0.00     0.048 A 
ATOM     13  C   UNL     1      11.809 -47.715 -23.253  1.00  0.00    -0.003 A 
ATOM     14  C   UNL     1      12.286 -45.393 -24.027  1.00  0.00     0.054 C 
ATOM     15  C   UNL     1      14.385 -49.100 -26.305  1.00  0.00     0.027 A 
ATOM     16  C   UNL     1      12.902 -49.657 -24.467  1.00  0.00     0.024 A 
ATOM     17  C   UNL     1      10.700 -47.258 -22.345  1.00  0.00     0.039 C 
ATOM     18  C   UNL     1      11.427 -44.909 -22.857  1.00  0.00     0.007 C 
ATOM     19  C   UNL     1      14.394 -50.436 -26.707  1.00  0.00     0.002 A 
ATOM     20  C   UNL     1      12.869 -50.983 -24.913  1.00  0.00     0.012 A 
ATOM     21  C   UNL     1      10.235 -45.831 -22.639  1.00  0.00     0.005 C 
ATOM     22  C   UNL     1      13.620 -51.371 -26.026  1.00  0.00     0.001 A 
ATOM     23  H   UNL     1      13.881 -46.676 -25.551  1.00  0.00     0.166 HD
ENDBRANCH   8   9
ENDBRANCH   7   8
ENDBRANCH   6   7
ENDBRANCH   5   6
ENDBRANCH   2   5
ENDBRANCH   1   2
BRANCH   1  24
ATOM     24  C   UNL     1      10.310 -56.505 -22.718  1.00  0.00     0.061 C 
BRANCH  24  25
ATOM     25  C   UNL     1      11.488 -57.457 -22.485  1.00  0.00     0.006 C 
BRANCH  25  26
ATOM     26  C   UNL     1      11.344 -58.308 -21.218  1.00  0.00     0.002 C 
BRANCH  26  27
ATOM     27  C   UNL     1      10.817 -59.723 -21.484  1.00  0.00     0.028 C 
BRANCH  27  28
ATOM     28  C   UNL     1      11.027 -60.153 -22.940  1.00  0.00     0.208 C 
BRANCH  28  29
ATOM     29  O   UNL     1       9.789 -60.631 -23.456  1.00  0.00    -0.314 OA
BRANCH  29  30
ATOM     30  N   UNL     1       8.946 -59.585 -23.904  1.00  0.00     0.294 N 
ATOM     31  O   UNL     1       8.078 -59.189 -23.126  1.00  0.00    -0.109 OA
ATOM     32  O   UNL     1       9.210 -59.223 -25.048  1.00  0.00    -0.109 OA
ENDBRANCH  29  30
ENDBRANCH  28  29
ENDBRANCH  27  28
ENDBRANCH  26  27
ENDBRANCH  25  26
ENDBRANCH  24  25
ENDBRANCH   1  24
TORSDOF 13
ENDMDL
MODEL 7
REMARK VINA RESULT:    -7.956      4.099     10.808
REMARK INTER + INTRA:         -15.039
REMARK INTER:                 -14.247
REMARK INTRA:                  -0.793
REMARK UNBOUND:                -1.037
REMARK SMILES O=[N+]([O-])OCCCCCC[NH2+]CCCN=c1c2c([nH]c3ccccc13)CCCC2
REMARK SMILES IDX 10 1 11 2 12 5 13 6 14 7 15 8 16 9 19 10 18 11 20 12 17 13
REMARK SMILES IDX 26 14 21 15 25 16 29 17 27 18 22 19 24 20 28 21 23 22 9 24
REMARK SMILES IDX 8 25 7 26 6 27 5 28 4 29 2 30 1 31 3 32
REMARK H PARENT 11 3 11 4 19 23
ROOT
ATOM      1  C   UNL     1      11.350 -56.467 -22.243  1.00  0.00     0.260 C 
ENDROOT
BRANCH   1   2
ATOM      2  N   UNL     1      10.593 -55.326 -22.845  1.00  0.00    -0.346 N 
ATOM      3  H   UNL     1       9.876 -55.683 -23.491  1.00  0.00     0.346 HD
ATOM      4  H   UNL     1      11.237 -54.769 -23.423  1.00  0.00     0.346 HD
BRANCH   2   5
ATOM      5  C   UNL     1       9.932 -54.399 -21.866  1.00  0.00     0.262 C 
BRANCH   5   6
ATOM      6  C   UNL     1       9.711 -53.035 -22.493  1.00  0.00     0.085 C 
BRANCH   6   7
ATOM      7  C   UNL     1      10.493 -51.950 -21.748  1.00  0.00     0.148 C 
BRANCH   7   8
ATOM      8  N   UNL     1      10.631 -50.842 -22.664  1.00  0.00    -0.284 NA
BRANCH   8   9
ATOM      9  C   UNL     1      11.754 -50.307 -23.020  1.00  0.00     0.072 A 
ATOM     10  N   UNL     1      14.330 -49.219 -22.771  1.00  0.00    -0.358 N 
ATOM     11  C   UNL     1      13.232 -48.422 -22.508  1.00  0.00     0.021 A 
ATOM     12  C   UNL     1      14.182 -50.385 -23.541  1.00  0.00     0.048 A 
ATOM     13  C   UNL     1      11.965 -48.866 -22.637  1.00  0.00    -0.003 A 
ATOM     14  C   UNL     1      13.522 -47.007 -22.055  1.00  0.00     0.054 C 
ATOM     15  C   UNL     1      15.306 -51.002 -24.104  1.00  0.00     0.027 A 
ATOM     16  C   UNL     1      12.908 -50.953 -23.728  1.00  0.00     0.024 A 
ATOM     17  C   UNL     1      10.749 -48.024 -22.365  1.00  0.00     0.039 C 
ATOM     18  C   UNL     1      12.317 -46.291 -21.443  1.00  0.00     0.007 C 
ATOM     19  C   UNL     1      15.158 -52.120 -24.924  1.00  0.00     0.002 A 
ATOM     20  C   UNL     1      12.764 -52.038 -24.600  1.00  0.00     0.012 A 
ATOM     21  C   UNL     1      11.062 -46.530 -22.273  1.00  0.00     0.005 C 
ATOM     22  C   UNL     1      13.888 -52.625 -25.190  1.00  0.00     0.001 A 
ATOM     23  H   UNL     1      15.220 -48.737 -22.856  1.00  0.00     0.166 HD
ENDBRANCH   8   9
ENDBRANCH   7   8
ENDBRANCH   6   7
ENDBRANCH   5   6
ENDBRANCH   2   5
ENDBRANCH   1   2
BRANCH   1  24
ATOM     24  C   UNL     1      10.619 -57.787 -22.495  1.00  0.00     0.061 C 
BRANCH  24  25
ATOM     25  C   UNL     1      11.146 -58.946 -21.642  1.00  0.00     0.006 C 
BRANCH  25  26
ATOM     26  C   UNL     1      10.990 -60.316 -22.312  1.00  0.00     0.002 C 
BRANCH  26  27
ATOM     27  C   UNL     1       9.796 -61.123 -21.789  1.00  0.00     0.028 C 
BRANCH  27  28
ATOM     28  C   UNL     1       8.804 -61.475 -22.901  1.00  0.00     0.208 C 
BRANCH  28  29
ATOM     29  O   UNL     1       8.222 -60.270 -23.390  1.00  0.00    -0.314 OA
BRANCH  29  30
ATOM     30  N   UNL     1       6.808 -60.276 -23.308  1.00  0.00     0.294 N 
ATOM     31  O   UNL     1       6.208 -61.103 -23.995  1.00  0.00    -0.109 OA
ATOM     32  O   UNL     1       6.376 -59.416 -22.544  1.00  0.00    -0.109 OA
ENDBRANCH  29  30
ENDBRANCH  28  29
ENDBRANCH  27  28
ENDBRANCH  26  27
ENDBRANCH  25  26
ENDBRANCH  24  25
ENDBRANCH   1  24
TORSDOF 13
ENDMDL
MODEL 8
REMARK VINA RESULT:    -7.821      1.849      4.042
REMARK INTER + INTRA:         -14.801
REMARK INTER:                 -13.513
REMARK INTRA:                  -1.289
REMARK UNBOUND:                -1.037
REMARK SMILES O=[N+]([O-])OCCCCCC[NH2+]CCCN=c1c2c([nH]c3ccccc13)CCCC2
REMARK SMILES IDX 10 1 11 2 12 5 13 6 14 7 15 8 16 9 19 10 18 11 20 12 17 13
REMARK SMILES IDX 26 14 21 15 25 16 29 17 27 18 22 19 24 20 28 21 23 22 9 24
REMARK SMILES IDX 8 25 7 26 6 27 5 28 4 29 2 30 1 31 3 32
REMARK H PARENT 11 3 11 4 19 23
ROOT
ATOM      1  C   UNL     1      12.539 -55.791 -26.819  1.00  0.00     0.260 C 
ENDROOT
BRANCH   1   2
ATOM      2  N   UNL     1      12.422 -57.281 -26.765  1.00  0.00    -0.346 N 
ATOM      3  H   UNL     1      11.523 -57.547 -26.341  1.00  0.00     0.346 HD
ATOM      4  H   UNL     1      13.148 -57.648 -26.134  1.00  0.00     0.346 HD
BRANCH   2   5
ATOM      5  C   UNL     1      12.555 -57.990 -28.082  1.00  0.00     0.262 C 
BRANCH   5   6
ATOM      6  C   UNL     1      11.365 -58.900 -28.318  1.00  0.00     0.085 C 
BRANCH   6   7
ATOM      7  C   UNL     1      11.330 -60.041 -27.298  1.00  0.00     0.148 C 
BRANCH   7   8
ATOM      8  N   UNL     1      10.291 -59.713 -26.350  1.00  0.00    -0.284 NA
BRANCH   8   9
ATOM      9  C   UNL     1       9.853 -60.503 -25.424  1.00  0.00     0.072 A 
ATOM     10  N   UNL     1       8.372 -61.358 -23.197  1.00  0.00    -0.358 N 
ATOM     11  C   UNL     1       9.527 -60.627 -22.999  1.00  0.00     0.021 A 
ATOM     12  C   UNL     1       8.162 -62.020 -24.418  1.00  0.00     0.048 A 
ATOM     13  C   UNL     1      10.306 -60.209 -24.018  1.00  0.00    -0.003 A 
ATOM     14  C   UNL     1       9.880 -60.304 -21.562  1.00  0.00     0.054 C 
ATOM     15  C   UNL     1       7.195 -63.028 -24.514  1.00  0.00     0.027 A 
ATOM     16  C   UNL     1       8.903 -61.656 -25.558  1.00  0.00     0.024 A 
ATOM     17  C   UNL     1      11.572 -59.418 -23.837  1.00  0.00     0.039 C 
ATOM     18  C   UNL     1      10.943 -59.214 -21.413  1.00  0.00     0.007 C 
ATOM     19  C   UNL     1       7.029 -63.734 -25.704  1.00  0.00     0.002 A 
ATOM     20  C   UNL     1       8.771 -62.410 -26.730  1.00  0.00     0.012 A 
ATOM     21  C   UNL     1      12.086 -59.430 -22.396  1.00  0.00     0.005 C 
ATOM     22  C   UNL     1       7.831 -63.442 -26.804  1.00  0.00     0.001 A 
ATOM     23  H   UNL     1       7.980 -61.804 -22.373  1.00  0.00     0.166 HD
ENDBRANCH   8   9
ENDBRANCH   7   8
ENDBRANCH   6   7
ENDBRANCH   5   6
ENDBRANCH   2   5
ENDBRANCH   1   2
BRANCH   1  24
ATOM     24  C   UNL     1      12.494 -55.198 -25.409  1.00  0.00     0.061 C 
BRANCH  24  25
ATOM     25  C   UNL     1      12.206 -56.239 -24.321  1.00  0.00     0.006 C 
BRANCH  25  26
ATOM     26  C   UNL     1      11.064 -55.837 -23.381  1.00  0.00     0.002 C 
BRANCH  26  27
ATOM     27  C   UNL     1      10.458 -54.465 -23.702  1.00  0.00     0.028 C 
BRANCH  27  28
ATOM     28  C   UNL     1      10.573 -53.492 -22.524  1.00  0.00     0.208 C 
BRANCH  28  29
ATOM     29  O   UNL     1      11.109 -52.262 -23.001  1.00  0.00    -0.314 OA
BRANCH  29  30
ATOM     30  N   UNL     1      10.846 -51.179 -22.126  1.00  0.00     0.294 N 
ATOM     31  O   UNL     1      11.818 -50.575 -21.671  1.00  0.00    -0.109 OA
ATOM     32  O   UNL     1       9.644 -51.006 -21.936  1.00  0.00    -0.109 OA
ENDBRANCH  29  30
ENDBRANCH  28  29
ENDBRANCH  27  28
ENDBRANCH  26  27
ENDBRANCH  25  26
ENDBRANCH  24  25
ENDBRANCH   1  24
TORSDOF 13
ENDMDL
MODEL 9
REMARK VINA RESULT:    -7.386      4.115     10.785
REMARK INTER + INTRA:         -14.036
REMARK INTER:                 -13.288
REMARK INTRA:                  -0.748
REMARK UNBOUND:                -1.037
REMARK SMILES O=[N+]([O-])OCCCCCC[NH2+]CCCN=c1c2c([nH]c3ccccc13)CCCC2
REMARK SMILES IDX 10 1 11 2 12 5 13 6 14 7 15 8 16 9 19 10 18 11 20 12 17 13
REMARK SMILES IDX 26 14 21 15 25 16 29 17 27 18 22 19 24 20 28 21 23 22 9 24
REMARK SMILES IDX 8 25 7 26 6 27 5 28 4 29 2 30 1 31 3 32
REMARK H PARENT 11 3 11 4 19 23
ROOT
ATOM      1  C   UNL     1      11.215 -56.127 -22.020  1.00  0.00     0.260 C 
ENDROOT
BRANCH   1   2
ATOM      2  N   UNL     1      10.435 -55.024 -22.662  1.00  0.00    -0.346 N 
ATOM      3  H   UNL     1       9.718 -55.420 -23.286  1.00  0.00     0.346 HD
ATOM      4  H   UNL     1      11.065 -54.483 -23.270  1.00  0.00     0.346 HD
BRANCH   2   5
ATOM      5  C   UNL     1       9.769 -54.066 -21.718  1.00  0.00     0.262 C 
BRANCH   5   6
ATOM      6  C   UNL     1       9.563 -52.719 -22.386  1.00  0.00     0.085 C 
BRANCH   6   7
ATOM      7  C   UNL     1      10.589 -51.695 -21.893  1.00  0.00     0.148 C 
BRANCH   7   8
ATOM      8  N   UNL     1      10.937 -50.882 -23.035  1.00  0.00    -0.284 NA
BRANCH   8   9
ATOM      9  C   UNL     1      12.106 -50.373 -23.257  1.00  0.00     0.072 A 
ATOM     10  N   UNL     1      14.687 -49.409 -22.716  1.00  0.00    -0.358 N 
ATOM     11  C   UNL     1      13.599 -48.586 -22.496  1.00  0.00     0.021 A 
ATOM     12  C   UNL     1      14.566 -50.518 -23.570  1.00  0.00     0.048 A 
ATOM     13  C   UNL     1      12.334 -48.969 -22.762  1.00  0.00    -0.003 A 
ATOM     14  C   UNL     1      13.899 -47.215 -21.926  1.00  0.00     0.054 C 
ATOM     15  C   UNL     1      15.712 -51.145 -24.074  1.00  0.00     0.027 A 
ATOM     16  C   UNL     1      13.294 -51.020 -23.904  1.00  0.00     0.024 A 
ATOM     17  C   UNL     1      11.129 -48.096 -22.541  1.00  0.00     0.039 C 
ATOM     18  C   UNL     1      12.670 -46.490 -21.375  1.00  0.00     0.007 C 
ATOM     19  C   UNL     1      15.598 -52.202 -24.976  1.00  0.00     0.002 A 
ATOM     20  C   UNL     1      13.189 -52.042 -24.855  1.00  0.00     0.012 A 
ATOM     21  C   UNL     1      11.486 -46.625 -22.324  1.00  0.00     0.005 C 
ATOM     22  C   UNL     1      14.339 -52.636 -25.383  1.00  0.00     0.001 A 
ATOM     23  H   UNL     1      15.597 -48.961 -22.691  1.00  0.00     0.166 HD
ENDBRANCH   8   9
ENDBRANCH   7   8
ENDBRANCH   6   7
ENDBRANCH   5   6
ENDBRANCH   2   5
ENDBRANCH   1   2
BRANCH   1  24
ATOM     24  C   UNL     1      10.637 -57.489 -22.407  1.00  0.00     0.061 C 
BRANCH  24  25
ATOM     25  C   UNL     1      11.414 -58.670 -21.815  1.00  0.00     0.006 C 
BRANCH  25  26
ATOM     26  C   UNL     1      11.976 -59.623 -22.876  1.00  0.00     0.002 C 
BRANCH  26  27
ATOM     27  C   UNL     1      11.190 -59.607 -24.193  1.00  0.00     0.028 C 
BRANCH  27  28
ATOM     28  C   UNL     1      11.630 -60.727 -25.142  1.00  0.00     0.208 C 
BRANCH  28  29
ATOM     29  O   UNL     1      11.184 -60.410 -26.457  1.00  0.00    -0.314 OA
BRANCH  29  30
ATOM     30  N   UNL     1      12.115 -59.616 -27.171  1.00  0.00     0.294 N 
ATOM     31  O   UNL     1      13.202 -60.129 -27.439  1.00  0.00    -0.109 OA
ATOM     32  O   UNL     1      11.687 -58.491 -27.416  1.00  0.00    -0.109 OA
ENDBRANCH  29  30
ENDBRANCH  28  29
ENDBRANCH  27  28
ENDBRANCH  26  27
ENDBRANCH  25  26
ENDBRANCH  24  25
ENDBRANCH   1  24
TORSDOF 13
ENDMDL
