REMARK SMILES CCC[C@H](C)n1cc(C(=O)C(F)(F)F)cn1
REMARK SMILES IDX 6 1 7 2 8 3 15 4 16 5 4 6 5 7 3 8 2 9 1 10 9 11 10 12 11 13
REMARK SMILES IDX 12 14 13 15 14 16
REMARK H PARENT
ROOT
ATOM      1  N   UNL     1       0.058   0.003  -0.803  1.00  0.00    -0.269 N 
ATOM      2  C   UNL     1       1.056  -0.595  -0.088  1.00  0.00     0.121 A 
ATOM      3  C   UNL     1       2.143   0.259  -0.131  1.00  0.00     0.065 A 
ATOM      4  C   UNL     1       1.685   1.347  -0.907  1.00  0.00     0.147 A 
ATOM      5  N   UNL     1       0.425   1.193  -1.316  1.00  0.00    -0.180 NA
ENDROOT
BRANCH   1   6
ATOM      6  C   UNL     1      -1.290  -0.504  -1.049  1.00  0.00     0.104 C 
ATOM      7  C   UNL     1      -1.240  -1.791  -1.875  1.00  0.00     0.033 C 
BRANCH   6   8
ATOM      8  C   UNL     1      -2.091  -0.715   0.250  1.00  0.00     0.027 C 
BRANCH   8   9
ATOM      9  C   UNL     1      -2.329   0.588   1.020  1.00  0.00    -0.001 C 
ATOM     10  C   UNL     1      -3.180   0.352   2.258  1.00  0.00     0.004 C 
ENDBRANCH   8   9
ENDBRANCH   6   8
ENDBRANCH   1   6
BRANCH   3  11
ATOM     11  C   UNL     1       3.439   0.033   0.500  1.00  0.00     0.269 C 
ATOM     12  O   UNL     1       3.643  -0.999   1.146  1.00  0.00    -0.284 OA
BRANCH  11  13
ATOM     13  C   UNL     1       4.500   1.116   0.322  1.00  0.00     0.454 C 
ATOM     14  F   UNL     1       4.802   1.332  -0.991  1.00  0.00    -0.163 F 
ATOM     15  F   UNL     1       4.095   2.322   0.815  1.00  0.00    -0.163 F 
ATOM     16  F   UNL     1       5.679   0.830   0.941  1.00  0.00    -0.163 F 
ENDBRANCH  11  13
ENDBRANCH   3  11
TORSDOF 5
