REMARK SMILES COc1cccc2c1CC[C@@H](NS(=O)(=O)N(C)C)C2
REMARK SMILES IDX 12 1 11 3 3 4 4 5 8 6 5 7 7 8 9 9 6 10 19 11 10 12 2 13 1 14
REMARK SMILES IDX 13 15 14 16 15 17 16 18 17 19 18 20
REMARK H PARENT 12 2
ROOT
ATOM      1  N   UNL     1      -2.051   0.022  -0.419  1.00  0.00    -0.199 NA
ATOM      2  H   UNL     1      -2.198   0.097  -1.427  1.00  0.00     0.142 HD
ENDROOT
BRANCH   1   3
ATOM      3  C   UNL     1      -0.612   0.067  -0.045  1.00  0.00     0.075 C 
ATOM      4  C   UNL     1       3.682  -0.127  -0.267  1.00  0.00     0.122 A 
ATOM      5  C   UNL     1       4.330  -1.364  -0.251  1.00  0.00     0.047 A 
ATOM      6  C   UNL     1       2.273  -0.075  -0.340  1.00  0.00    -0.003 A 
ATOM      7  C   UNL     1       3.594  -2.547  -0.297  1.00  0.00     0.004 A 
ATOM      8  C   UNL     1       1.532  -1.274  -0.359  1.00  0.00    -0.040 A 
ATOM      9  C   UNL     1       1.571   1.266  -0.331  1.00  0.00     0.041 C 
ATOM     10  C   UNL     1       2.204  -2.503  -0.352  1.00  0.00     0.004 A 
ATOM     11  C   UNL     1       0.025  -1.273  -0.444  1.00  0.00     0.056 C 
ATOM     12  C   UNL     1       0.107   1.204  -0.765  1.00  0.00     0.025 C 
BRANCH   4  13
ATOM     13  O   UNL     1       4.320   1.086  -0.212  1.00  0.00    -0.496 OA
ATOM     14  C   UNL     1       5.738   1.078  -0.112  1.00  0.00     0.278 C 
ENDBRANCH   4  13
ENDBRANCH   1   3
BRANCH   1  15
ATOM     15  S   UNL     1      -3.060   1.130   0.330  1.00  0.00     0.279 S 
ATOM     16  O   UNL     1      -2.828   1.109   1.753  1.00  0.00    -0.195 OA
ATOM     17  O   UNL     1      -2.996   2.342  -0.448  1.00  0.00    -0.195 OA
BRANCH  15  18
ATOM     18  N   UNL     1      -4.535   0.366   0.013  1.00  0.00    -0.195 NA
ATOM     19  C   UNL     1      -4.729  -0.920   0.719  1.00  0.00     0.125 C 
ATOM     20  C   UNL     1      -5.703   1.258   0.189  1.00  0.00     0.125 C 
ENDBRANCH  15  18
ENDBRANCH   1  15
TORSDOF 4
