REMARK SMILES COc1cc(/C=C/c2nnc(-c3ccc(Cl)cc3Cl)o2)ccc1O
REMARK SMILES IDX 6 1 5 2 3 3 4 4 23 5 22 6 21 7 2 8 1 9 24 10 7 12 8 13 9 14
REMARK SMILES IDX 20 15 10 16 11 17 12 18 13 19 18 20 14 21 17 22 15 23 19 24
REMARK SMILES IDX 16 25
REMARK H PARENT 24 11
ROOT
ATOM      1  C   UNL     1      -0.922  -0.060  -0.812  1.00  0.00     0.014 C 
ENDROOT
BRANCH   1   2
ATOM      2  C   UNL     1      -2.389   0.005  -0.890  1.00  0.00    -0.022 A 
ATOM      3  C   UNL     1      -4.535  -0.076   0.267  1.00  0.00     0.161 A 
ATOM      4  C   UNL     1      -3.138  -0.157   0.287  1.00  0.00     0.058 A 
ATOM      5  C   UNL     1      -5.177   0.186  -0.951  1.00  0.00     0.157 A 
ATOM      6  C   UNL     1      -4.447   0.365  -2.125  1.00  0.00     0.051 A 
ATOM      7  C   UNL     1      -3.054   0.279  -2.091  1.00  0.00     0.012 A 
BRANCH   3   8
ATOM      8  O   UNL     1      -5.349  -0.228   1.358  1.00  0.00    -0.493 OA
ATOM      9  C   UNL     1      -4.734  -0.538   2.600  1.00  0.00     0.278 C 
ENDBRANCH   3   8
BRANCH   5  10
ATOM     10  O   UNL     1      -6.543   0.270  -0.982  1.00  0.00    -0.504 OA
ATOM     11  H   UNL     1      -6.832   0.449  -1.890  1.00  0.00     0.293 HD
ENDBRANCH   5  10
ENDBRANCH   1   2
BRANCH   1  12
ATOM     12  C   UNL     1      -0.159  -0.660  -1.739  1.00  0.00     0.071 C 
BRANCH  12  13
ATOM     13  C   UNL     1       1.257  -0.708  -1.626  1.00  0.00     0.241 A 
ATOM     14  N   UNL     1       2.083  -1.270  -2.495  1.00  0.00    -0.108 NA
ATOM     15  O   UNL     1       1.972  -0.164  -0.572  1.00  0.00    -0.417 OA
ATOM     16  N   UNL     1       3.367  -1.101  -2.029  1.00  0.00    -0.107 NA
ATOM     17  C   UNL     1       3.274  -0.443  -0.897  1.00  0.00     0.249 A 
BRANCH  17  18
ATOM     18  C   UNL     1       4.295   0.012   0.044  1.00  0.00     0.058 A 
ATOM     19  C   UNL     1       3.931   0.285   1.380  1.00  0.00     0.017 A 
ATOM     20  C   UNL     1       5.645   0.184  -0.315  1.00  0.00     0.055 A 
ATOM     21  C   UNL     1       4.875   0.709   2.320  1.00  0.00     0.021 A 
ATOM     22  C   UNL     1       6.591   0.609   0.629  1.00  0.00     0.041 A 
ATOM     23  C   UNL     1       6.202   0.868   1.939  1.00  0.00     0.042 A 
ATOM     24  Cl  UNL     1       6.238  -0.074  -1.921  1.00  0.00    -0.083 Cl
ATOM     25  Cl  UNL     1       7.366   1.390   3.092  1.00  0.00    -0.084 Cl
ENDBRANCH  17  18
ENDBRANCH  12  13
ENDBRANCH   1  12
TORSDOF 6
