REMARK SMILES COc1cc2c(cc1O)C(O)=C(Cc1cc[n+](Cc3cccc(Cl)c3)cc1C(C)=O)C2
REMARK SMILES IDX 14 1 15 2 16 3 17 4 26 5 27 6 13 7 12 8 10 9 6 10 31 11 7 12
REMARK SMILES IDX 5 13 8 14 4 15 3 16 11 17 9 19 2 21 1 22 28 23 29 24 30 25
REMARK SMILES IDX 18 26 19 27 20 28 25 29 21 30 23 31 22 32 24 33
REMARK H PARENT 11 18 9 20
ROOT
ATOM      1  C   UNL     1       0.180   2.228   0.383  1.00  0.00    -0.021 A 
ATOM      2  C   UNL     1       0.762   1.901   1.620  1.00  0.00     0.075 A 
ATOM      3  C   UNL     1       2.144   1.783   1.752  1.00  0.00     0.308 A 
ATOM      4  N   UNL     1       2.951   1.986   0.688  1.00  0.00    -0.200 N 
ATOM      5  C   UNL     1       2.427   2.305  -0.518  1.00  0.00     0.320 A 
ATOM      6  C   UNL     1       1.045   2.415  -0.702  1.00  0.00     0.085 A 
ENDROOT
BRANCH   1   7
ATOM      7  C   UNL     1      -1.322   2.426   0.328  1.00  0.00     0.072 C 
BRANCH   7   8
ATOM      8  C   UNL     1      -2.115   1.167   0.175  1.00  0.00    -0.019 C 
ATOM      9  C   UNL     1      -3.067   0.935  -0.743  1.00  0.00     0.123 C 
ATOM     10  C   UNL     1      -3.662  -0.374  -0.525  1.00  0.00     0.024 A 
ATOM     11  C   UNL     1      -2.005   0.001   1.139  1.00  0.00     0.071 C 
ATOM     12  C   UNL     1      -4.647  -1.060  -1.208  1.00  0.00     0.062 A 
ATOM     13  C   UNL     1      -3.043  -0.942   0.602  1.00  0.00    -0.029 A 
ATOM     14  C   UNL     1      -5.000  -2.320  -0.732  1.00  0.00     0.158 A 
ATOM     15  C   UNL     1      -3.397  -2.199   1.079  1.00  0.00     0.055 A 
ATOM     16  C   UNL     1      -4.395  -2.900   0.402  1.00  0.00     0.160 A 
BRANCH   9  17
ATOM     17  O   UNL     1      -3.479   1.787  -1.716  1.00  0.00    -0.507 OA
ATOM     18  H   UNL     1      -4.278   1.417  -2.133  1.00  0.00     0.293 HD
ENDBRANCH   9  17
BRANCH  14  19
ATOM     19  O   UNL     1      -5.977  -3.002  -1.409  1.00  0.00    -0.504 OA
ATOM     20  H   UNL     1      -6.087  -3.845  -0.925  1.00  0.00     0.293 HD
ENDBRANCH  14  19
BRANCH  16  21
ATOM     21  O   UNL     1      -4.870  -4.146   0.727  1.00  0.00    -0.493 OA
ATOM     22  C   UNL     1      -4.327  -4.755   1.892  1.00  0.00     0.278 C 
ENDBRANCH  16  21
ENDBRANCH   7   8
ENDBRANCH   1   7
BRANCH   6  23
ATOM     23  C   UNL     1       0.663   2.833  -2.067  1.00  0.00     0.166 C 
ATOM     24  C   UNL     1      -0.411   2.102  -2.814  1.00  0.00     0.094 C 
ATOM     25  O   UNL     1       1.321   3.742  -2.567  1.00  0.00    -0.294 OA
ENDBRANCH   6  23
BRANCH   4  26
ATOM     26  C   UNL     1       4.425   1.881   0.837  1.00  0.00     0.393 C 
BRANCH  26  27
ATOM     27  C   UNL     1       4.927   0.596   0.231  1.00  0.00     0.018 A 
ATOM     28  C   UNL     1       5.655   0.607  -0.969  1.00  0.00     0.010 A 
ATOM     29  C   UNL     1       4.659  -0.638   0.848  1.00  0.00     0.030 A 
ATOM     30  C   UNL     1       6.098  -0.588  -1.542  1.00  0.00     0.002 A 
ATOM     31  C   UNL     1       5.104  -1.828   0.267  1.00  0.00     0.041 A 
ATOM     32  C   UNL     1       5.820  -1.807  -0.925  1.00  0.00     0.020 A 
ATOM     33  Cl  UNL     1       4.752  -3.325   1.034  1.00  0.00    -0.084 Cl
ENDBRANCH  26  27
ENDBRANCH   4  26
TORSDOF 8
