REMARK SMILES COc1cc(N)c(Cl)cc1C(=O)CC[C@H]1CC[N@@H+](Cc2ccccc2)CC1
REMARK SMILES IDX 13 1 14 2 15 3 17 4 18 5 16 6 26 7 27 8 19 10 20 11 21 12
REMARK SMILES IDX 25 13 22 14 24 15 23 16 11 17 12 18 10 19 9 20 3 21 7 22
REMARK SMILES IDX 4 23 5 24 8 25 2 26 1 27 6 28
REMARK H PARENT 18 9 6 29 6 30
ROOT
ATOM      1  C   UNL     1      -1.910  -0.028   0.062  1.00  0.00     0.081 C 
ENDROOT
BRANCH   1   2
ATOM      2  C   UNL     1      -0.489  -0.445  -0.338  1.00  0.00     0.012 C 
BRANCH   2   3
ATOM      3  C   UNL     1       0.287   0.639  -1.113  1.00  0.00     0.000 C 
ATOM      4  C   UNL     1       1.690   1.561   0.809  1.00  0.00     0.262 C 
ATOM      5  N   UNL     1       2.926   0.987   0.163  1.00  0.00    -0.331 N 
ATOM      6  C   UNL     1       0.643   1.864  -0.256  1.00  0.00     0.065 C 
ATOM      7  C   UNL     1       2.636  -0.254  -0.651  1.00  0.00     0.262 C 
ATOM      8  C   UNL     1       1.581   0.060  -1.707  1.00  0.00     0.065 C 
ATOM      9  H   UNL     1       3.295   1.690  -0.488  1.00  0.00     0.348 HD
BRANCH   5  10
ATOM     10  C   UNL     1       4.019   0.759   1.190  1.00  0.00     0.299 C 
BRANCH  10  11
ATOM     11  C   UNL     1       5.373   0.542   0.572  1.00  0.00     0.006 A 
ATOM     12  C   UNL     1       6.066   1.612  -0.019  1.00  0.00     0.009 A 
ATOM     13  C   UNL     1       5.955  -0.735   0.558  1.00  0.00     0.009 A 
ATOM     14  C   UNL     1       7.310   1.403  -0.615  1.00  0.00     0.001 A 
ATOM     15  C   UNL     1       7.199  -0.937  -0.040  1.00  0.00     0.001 A 
ATOM     16  C   UNL     1       7.874   0.130  -0.628  1.00  0.00     0.000 A 
ENDBRANCH  10  11
ENDBRANCH   5  10
ENDBRANCH   2   3
ENDBRANCH   1   2
BRANCH   1  17
ATOM     17  C   UNL     1      -2.543  -1.091   0.943  1.00  0.00     0.166 C 
ATOM     18  O   UNL     1      -1.863  -1.768   1.714  1.00  0.00    -0.294 OA
BRANCH  17  19
ATOM     19  C   UNL     1      -4.008  -1.343   0.858  1.00  0.00     0.061 A 
ATOM     20  C   UNL     1      -4.418  -2.676   0.992  1.00  0.00     0.038 A 
ATOM     21  C   UNL     1      -4.958  -0.326   0.659  1.00  0.00     0.131 A 
ATOM     22  C   UNL     1      -5.769  -3.003   0.906  1.00  0.00     0.064 A 
ATOM     23  C   UNL     1      -6.314  -0.677   0.572  1.00  0.00     0.074 A 
ATOM     24  C   UNL     1      -6.740  -2.004   0.733  1.00  0.00     0.054 A 
ATOM     25  Cl  UNL     1      -6.225  -4.665   1.043  1.00  0.00    -0.082 Cl
BRANCH  21  26
ATOM     26  O   UNL     1      -4.493   0.960   0.573  1.00  0.00    -0.496 OA
ATOM     27  C   UNL     1      -5.454   2.006   0.465  1.00  0.00     0.278 C 
ENDBRANCH  21  26
BRANCH  24  28
ATOM     28  N   UNL     1      -8.092  -2.317   0.506  1.00  0.00    -0.397 N 
ATOM     29  H   UNL     1      -8.353  -3.237   0.860  1.00  0.00     0.156 HD
ATOM     30  H   UNL     1      -8.756  -1.597   0.772  1.00  0.00     0.156 HD
ENDBRANCH  24  28
ENDBRANCH  17  19
ENDBRANCH   1  17
TORSDOF 8
