REMARK SMILES O=C(NCCCNc1c2c(nc3ccccc13)CCCC2)c1ccc(F)cc1
REMARK SMILES IDX 5 1 6 2 7 3 8 5 9 6 17 7 10 8 21 9 16 10 12 11 11 12 18 13
REMARK SMILES IDX 20 14 15 15 13 16 19 17 14 18 4 19 3 20 2 21 1 23 22 24
REMARK SMILES IDX 23 25 28 26 24 27 27 28 25 29 26 30
REMARK H PARENT 7 4 3 22
ROOT
ATOM      1  C   UNL     1       1.224   0.720  -0.082  1.00  0.00     0.042 C 
ENDROOT
BRANCH   1   2
ATOM      2  C   UNL     1      -0.252   0.522  -0.422  1.00  0.00     0.115 C 
BRANCH   2   3
ATOM      3  N   UNL     1      -0.962  -0.070   0.722  1.00  0.00    -0.384 N 
ATOM      4  H   UNL     1      -0.739  -1.058   0.811  1.00  0.00     0.160 HD
BRANCH   3   5
ATOM      5  C   UNL     1      -2.375   0.075   0.584  1.00  0.00     0.049 A 
ATOM      6  C   UNL     1      -3.137  -0.854  -0.140  1.00  0.00    -0.003 A 
ATOM      7  C   UNL     1      -3.010   1.238   1.101  1.00  0.00     0.024 A 
ATOM      8  C   UNL     1      -4.497  -0.584  -0.314  1.00  0.00     0.046 A 
ATOM      9  C   UNL     1      -2.598  -2.091  -0.809  1.00  0.00     0.039 C 
ATOM     10  C   UNL     1      -2.329   2.229   1.848  1.00  0.00     0.012 A 
ATOM     11  C   UNL     1      -4.392   1.398   0.866  1.00  0.00     0.073 A 
ATOM     12  N   UNL     1      -5.119   0.511   0.172  1.00  0.00    -0.252 NA
ATOM     13  C   UNL     1      -5.323  -1.543  -1.132  1.00  0.00     0.056 C 
ATOM     14  C   UNL     1      -3.524  -3.296  -0.609  1.00  0.00     0.005 C 
ATOM     15  C   UNL     1      -2.992   3.351   2.340  1.00  0.00     0.001 A 
ATOM     16  C   UNL     1      -5.032   2.525   1.367  1.00  0.00     0.029 A 
ATOM     17  C   UNL     1      -5.021  -2.984  -0.732  1.00  0.00     0.007 C 
ATOM     18  C   UNL     1      -4.350   3.501   2.098  1.00  0.00     0.002 A 
ENDBRANCH   3   5
ENDBRANCH   2   3
ENDBRANCH   1   2
BRANCH   1  19
ATOM     19  C   UNL     1       1.966  -0.601   0.100  1.00  0.00     0.118 C 
BRANCH  19  20
ATOM     20  N   UNL     1       3.390  -0.396   0.286  1.00  0.00    -0.352 N 
ATOM     21  C   UNL     1       4.230  -0.205  -0.792  1.00  0.00     0.251 C 
ATOM     22  H   UNL     1       3.708  -0.143   1.212  1.00  0.00     0.163 HD
ATOM     23  O   UNL     1       3.849  -0.239  -1.957  1.00  0.00    -0.269 OA
BRANCH  21  24
ATOM     24  C   UNL     1       5.655   0.093  -0.480  1.00  0.00     0.040 A 
ATOM     25  C   UNL     1       6.273  -0.370   0.692  1.00  0.00     0.017 A 
ATOM     26  C   UNL     1       6.398   0.838  -1.409  1.00  0.00     0.017 A 
ATOM     27  C   UNL     1       7.615  -0.068   0.938  1.00  0.00     0.040 A 
ATOM     28  C   UNL     1       7.738   1.138  -1.158  1.00  0.00     0.040 A 
ATOM     29  C   UNL     1       8.332   0.686   0.014  1.00  0.00     0.123 A 
ATOM     30  F   UNL     1       9.618   0.972   0.255  1.00  0.00    -0.207 F 
ENDBRANCH  21  24
ENDBRANCH  19  20
ENDBRANCH   1  19
TORSDOF 6
