REMARK SMILES COc1cc(/C=C/c2nnc(-c3ccc(C(F)(F)F)cc3)o2)ccc1O
REMARK SMILES IDX 7 1 6 2 5 3 3 4 4 5 25 6 24 7 23 8 2 9 1 10 26 11 8 13 9 14
REMARK SMILES IDX 22 15 10 16 11 17 12 18 13 19 21 20 14 21 20 22 15 23 16 24
REMARK SMILES IDX 17 25 18 26 19 27
REMARK H PARENT 26 12
ROOT
ATOM      1  C   UNL     1      -0.923   0.258  -0.063  1.00  0.00     0.071 C 
ENDROOT
BRANCH   1   2
ATOM      2  C   UNL     1      -2.129  -0.318   0.062  1.00  0.00     0.014 C 
BRANCH   2   3
ATOM      3  C   UNL     1      -3.337   0.168  -0.620  1.00  0.00    -0.022 A 
ATOM      4  C   UNL     1      -5.407  -0.358  -1.796  1.00  0.00     0.161 A 
ATOM      5  C   UNL     1      -4.232  -0.771  -1.158  1.00  0.00     0.058 A 
ATOM      6  C   UNL     1      -5.684   1.013  -1.878  1.00  0.00     0.157 A 
ATOM      7  C   UNL     1      -4.813   1.956  -1.333  1.00  0.00     0.051 A 
ATOM      8  C   UNL     1      -3.644   1.531  -0.701  1.00  0.00     0.012 A 
BRANCH   4   9
ATOM      9  O   UNL     1      -6.334  -1.196  -2.360  1.00  0.00    -0.493 OA
ATOM     10  C   UNL     1      -6.088  -2.592  -2.285  1.00  0.00     0.278 C 
ENDBRANCH   4   9
BRANCH   6  11
ATOM     11  O   UNL     1      -6.831   1.429  -2.499  1.00  0.00    -0.504 OA
ATOM     12  H   UNL     1      -6.884   2.396  -2.460  1.00  0.00     0.293 HD
ENDBRANCH   6  11
ENDBRANCH   2   3
ENDBRANCH   1   2
BRANCH   1  13
ATOM     13  C   UNL     1       0.217  -0.263   0.607  1.00  0.00     0.241 A 
ATOM     14  N   UNL     1       0.279  -1.317   1.409  1.00  0.00    -0.108 NA
ATOM     15  O   UNL     1       1.468   0.317   0.482  1.00  0.00    -0.417 OA
ATOM     16  N   UNL     1       1.583  -1.453   1.831  1.00  0.00    -0.107 NA
ATOM     17  C   UNL     1       2.257  -0.476   1.267  1.00  0.00     0.248 A 
BRANCH  17  18
ATOM     18  C   UNL     1       3.672  -0.137   1.362  1.00  0.00     0.039 A 
ATOM     19  C   UNL     1       4.520  -0.918   2.161  1.00  0.00     0.014 A 
ATOM     20  C   UNL     1       4.222   0.954   0.674  1.00  0.00     0.014 A 
ATOM     21  C   UNL     1       5.882  -0.618   2.272  1.00  0.00     0.014 A 
ATOM     22  C   UNL     1       5.584   1.257   0.783  1.00  0.00     0.014 A 
ATOM     23  C   UNL     1       6.427   0.479   1.589  1.00  0.00     0.056 A 
BRANCH  23  24
ATOM     24  C   UNL     1       7.901   0.793   1.689  1.00  0.00     0.416 C 
ATOM     25  F   UNL     1       8.451   0.413   2.876  1.00  0.00    -0.166 F 
ATOM     26  F   UNL     1       8.172   2.122   1.563  1.00  0.00    -0.166 F 
ATOM     27  F   UNL     1       8.628   0.170   0.721  1.00  0.00    -0.166 F 
ENDBRANCH  23  24
ENDBRANCH  17  18
ENDBRANCH   1  13
TORSDOF 7
