REMARK SMILES C[N+](C)(CCNC(=O)C(=O)NCC[N+](C)(C)Cc1ccccc1Cl)Cc1ccccc1Cl
REMARK SMILES IDX 6 1 7 2 8 3 5 5 4 6 2 7 1 8 3 9 25 10 26 11 27 12 31 13
REMARK SMILES IDX 28 14 30 15 29 16 32 17 9 18 11 19 10 20 12 22 13 23 14 24
REMARK SMILES IDX 15 25 16 26 17 27 18 28 19 29 23 30 20 31 22 32 21 33 24 34
REMARK H PARENT 6 4 11 21
ROOT
ATOM      1  N   UNL     1      -1.858   0.307  -2.053  1.00  0.00    -0.342 N 
ATOM      2  C   UNL     1      -1.055   1.248  -1.435  1.00  0.00     0.309 C 
ATOM      3  O   UNL     1      -1.425   2.350  -1.058  1.00  0.00    -0.264 OA
ATOM      4  H   UNL     1      -1.338  -0.462  -2.478  1.00  0.00     0.164 HD
ENDROOT
BRANCH   1   5
ATOM      5  C   UNL     1      -3.122   0.701  -2.660  1.00  0.00     0.177 C 
BRANCH   5   6
ATOM      6  C   UNL     1      -4.222   1.202  -1.691  1.00  0.00     0.285 C 
BRANCH   6   7
ATOM      7  N   UNL     1      -4.940   0.107  -0.845  1.00  0.00    -0.323 N 
ATOM      8  C   UNL     1      -3.940  -0.738  -0.075  1.00  0.00     0.334 C 
ATOM      9  C   UNL     1      -5.779  -0.795  -1.738  1.00  0.00     0.334 C 
BRANCH   7  10
ATOM     10  C   UNL     1      -5.862   0.885   0.157  1.00  0.00     0.301 C 
BRANCH  10  11
ATOM     11  C   UNL     1      -6.734   0.083   1.094  1.00  0.00     0.025 A 
ATOM     12  C   UNL     1      -8.004  -0.343   0.656  1.00  0.00     0.011 A 
ATOM     13  C   UNL     1      -6.353  -0.227   2.413  1.00  0.00     0.049 A 
ATOM     14  C   UNL     1      -8.844  -1.080   1.493  1.00  0.00     0.001 A 
ATOM     15  C   UNL     1      -7.197  -0.967   3.247  1.00  0.00     0.021 A 
ATOM     16  C   UNL     1      -8.439  -1.397   2.785  1.00  0.00     0.002 A 
ATOM     17  Cl  UNL     1      -4.844   0.289   3.078  1.00  0.00    -0.084 Cl
ENDBRANCH  10  11
ENDBRANCH   7  10
ENDBRANCH   6   7
ENDBRANCH   5   6
ENDBRANCH   1   5
BRANCH   2  18
ATOM     18  C   UNL     1       0.425   0.824  -1.270  1.00  0.00     0.309 C 
ATOM     19  N   UNL     1       1.235   1.791  -0.712  1.00  0.00    -0.342 N 
ATOM     20  O   UNL     1       0.798  -0.279  -1.641  1.00  0.00    -0.264 OA
ATOM     21  H   UNL     1       0.796   2.705  -0.588  1.00  0.00     0.164 HD
BRANCH  19  22
ATOM     22  C   UNL     1       2.684   1.697  -0.763  1.00  0.00     0.177 C 
BRANCH  22  23
ATOM     23  C   UNL     1       3.261   0.547   0.093  1.00  0.00     0.285 C 
BRANCH  23  24
ATOM     24  N   UNL     1       4.812   0.452   0.118  1.00  0.00    -0.323 N 
ATOM     25  C   UNL     1       5.425   1.731   0.676  1.00  0.00     0.334 C 
ATOM     26  C   UNL     1       5.358   0.199  -1.281  1.00  0.00     0.334 C 
BRANCH  24  27
ATOM     27  C   UNL     1       5.153  -0.757   1.054  1.00  0.00     0.301 C 
BRANCH  27  28
ATOM     28  C   UNL     1       6.606  -1.101   1.278  1.00  0.00     0.025 A 
ATOM     29  C   UNL     1       7.261  -1.951   0.365  1.00  0.00     0.011 A 
ATOM     30  C   UNL     1       7.337  -0.639   2.389  1.00  0.00     0.049 A 
ATOM     31  C   UNL     1       8.604  -2.295   0.537  1.00  0.00     0.001 A 
ATOM     32  C   UNL     1       8.681  -0.986   2.558  1.00  0.00     0.021 A 
ATOM     33  C   UNL     1       9.314  -1.809   1.630  1.00  0.00     0.002 A 
ATOM     34  Cl  UNL     1       6.621   0.360   3.604  1.00  0.00    -0.084 Cl
ENDBRANCH  27  28
ENDBRANCH  24  27
ENDBRANCH  23  24
ENDBRANCH  22  23
ENDBRANCH  19  22
ENDBRANCH   2  18
TORSDOF 11
