REMARK SMILES O=[N+]([O-])OCCC[NH2+]CCCN=c1c2c([nH]c3ccccc13)CCCC2
REMARK SMILES IDX 8 1 9 4 10 5 11 6 12 7 13 8 16 9 15 10 17 11 14 12 23 13
REMARK SMILES IDX 18 14 22 15 26 16 24 17 19 18 21 19 25 20 20 21 7 23 6 24
REMARK SMILES IDX 5 25 4 26 2 27 1 28 3 29
REMARK H PARENT 8 2 8 3 16 22
ROOT
ATOM      1  N   UNL     1       1.833  -0.506   0.041  1.00  0.00    -0.346 N 
ATOM      2  H   UNL     1       1.779   0.161   0.821  1.00  0.00     0.346 HD
ATOM      3  H   UNL     1       0.840  -0.563  -0.285  1.00  0.00     0.346 HD
ENDROOT
BRANCH   1   4
ATOM      4  C   UNL     1       2.562   0.088  -1.124  1.00  0.00     0.262 C 
BRANCH   4   5
ATOM      5  C   UNL     1       1.923  -0.362  -2.435  1.00  0.00     0.085 C 
BRANCH   5   6
ATOM      6  C   UNL     1       0.504   0.189  -2.618  1.00  0.00     0.148 C 
BRANCH   6   7
ATOM      7  N   UNL     1      -0.328  -0.295  -1.517  1.00  0.00    -0.284 NA
BRANCH   7   8
ATOM      8  C   UNL     1      -1.428   0.306  -1.170  1.00  0.00     0.072 A 
ATOM      9  N   UNL     1      -2.866   2.044   0.454  1.00  0.00    -0.358 N 
ATOM     10  C   UNL     1      -2.776   0.710   0.818  1.00  0.00     0.021 A 
ATOM     11  C   UNL     1      -2.736   2.384  -0.909  1.00  0.00     0.048 A 
ATOM     12  C   UNL     1      -2.129  -0.202   0.063  1.00  0.00    -0.003 A 
ATOM     13  C   UNL     1      -3.485   0.309   2.095  1.00  0.00     0.054 C 
ATOM     14  C   UNL     1      -3.247   3.592  -1.393  1.00  0.00     0.027 A 
ATOM     15  C   UNL     1      -2.063   1.513  -1.787  1.00  0.00     0.024 A 
ATOM     16  C   UNL     1      -2.035  -1.662   0.404  1.00  0.00     0.039 C 
ATOM     17  C   UNL     1      -3.694  -1.199   2.237  1.00  0.00     0.007 C 
ATOM     18  C   UNL     1      -3.175   3.888  -2.755  1.00  0.00     0.002 A 
ATOM     19  C   UNL     1      -2.045   1.788  -3.157  1.00  0.00     0.012 A 
ATOM     20  C   UNL     1      -2.436  -1.965   1.849  1.00  0.00     0.005 C 
ATOM     21  C   UNL     1      -2.596   2.978  -3.638  1.00  0.00     0.001 A 
ATOM     22  H   UNL     1      -3.567   2.586   0.956  1.00  0.00     0.166 HD
ENDBRANCH   7   8
ENDBRANCH   6   7
ENDBRANCH   5   6
ENDBRANCH   4   5
ENDBRANCH   1   4
BRANCH   1  23
ATOM     23  C   UNL     1       2.234  -1.870   0.485  1.00  0.00     0.262 C 
BRANCH  23  24
ATOM     24  C   UNL     1       3.135  -1.825   1.713  1.00  0.00     0.089 C 
BRANCH  24  25
ATOM     25  C   UNL     1       4.524  -1.252   1.448  1.00  0.00     0.214 C 
BRANCH  25  26
ATOM     26  O   UNL     1       5.287  -1.368   2.646  1.00  0.00    -0.314 OA
BRANCH  26  27
ATOM     27  N   UNL     1       6.593  -0.829   2.507  1.00  0.00     0.294 N 
ATOM     28  O   UNL     1       7.263  -0.931   3.530  1.00  0.00    -0.109 OA
ATOM     29  O   UNL     1       6.872  -0.332   1.414  1.00  0.00    -0.109 OA
ENDBRANCH  26  27
ENDBRANCH  25  26
ENDBRANCH  24  25
ENDBRANCH  23  24
ENDBRANCH   1  23
TORSDOF 10
