REMARK SMILES COc1cccc([C@@H]2C=C(c3cc(F)cc(F)c3)NN2c2ccc(S(N)(=O)=O)cc2)c1OC
REMARK SMILES IDX 21 1 22 2 23 3 24 4 29 5 30 6 20 7 19 8 10 9 9 10 8 11 11 13
REMARK SMILES IDX 12 14 18 15 13 16 16 17 15 18 14 19 17 20 7 21 6 22 31 23
REMARK SMILES IDX 5 24 3 25 4 26 32 27 33 28 2 29 1 30 25 31 27 32 28 33 26 34
REMARK H PARENT 19 12 26 35 26 36
ROOT
ATOM      1  C   UNL     1       1.764  -0.076  -0.597  1.00  0.00     0.058 A 
ATOM      2  C   UNL     1       2.164  -1.158   0.204  1.00  0.00     0.029 A 
ATOM      3  C   UNL     1       3.328  -1.885  -0.070  1.00  0.00     0.024 A 
ATOM      4  C   UNL     1       4.120  -1.529  -1.161  1.00  0.00     0.082 A 
ATOM      5  C   UNL     1       3.747  -0.472  -1.987  1.00  0.00     0.024 A 
ATOM      6  C   UNL     1       2.580   0.245  -1.697  1.00  0.00     0.029 A 
ENDROOT
BRANCH   1   7
ATOM      7  N   UNL     1       0.610   0.662  -0.338  1.00  0.00    -0.276 N 
ATOM      8  N   UNL     1       0.272   1.867  -0.934  1.00  0.00    -0.297 N 
ATOM      9  C   UNL     1      -0.846   2.405  -0.305  1.00  0.00     0.060 C 
ATOM     10  C   UNL     1      -1.302   1.553   0.627  1.00  0.00     0.033 C 
ATOM     11  C   UNL     1      -0.419   0.317   0.691  1.00  0.00     0.165 C 
ATOM     12  H   UNL     1       1.027   2.552  -0.997  1.00  0.00     0.188 HD
BRANCH   9  13
ATOM     13  C   UNL     1      -1.370   3.727  -0.658  1.00  0.00     0.005 A 
ATOM     14  C   UNL     1      -1.206   4.230  -1.957  1.00  0.00     0.049 A 
ATOM     15  C   UNL     1      -2.030   4.526   0.286  1.00  0.00     0.049 A 
ATOM     16  C   UNL     1      -1.694   5.492  -2.291  1.00  0.00     0.126 A 
ATOM     17  C   UNL     1      -2.510   5.785  -0.071  1.00  0.00     0.126 A 
ATOM     18  C   UNL     1      -2.348   6.279  -1.356  1.00  0.00     0.078 A 
ATOM     19  F   UNL     1      -1.528   5.951  -3.538  1.00  0.00    -0.207 F 
ATOM     20  F   UNL     1      -3.135   6.533   0.848  1.00  0.00    -0.207 F 
ENDBRANCH   9  13
BRANCH  11  21
ATOM     21  C   UNL     1      -1.204  -0.944   0.374  1.00  0.00     0.026 A 
ATOM     22  C   UNL     1      -1.543  -1.276  -0.954  1.00  0.00     0.010 A 
ATOM     23  C   UNL     1      -1.637  -1.793   1.408  1.00  0.00     0.166 A 
ATOM     24  C   UNL     1      -2.277  -2.426  -1.246  1.00  0.00     0.004 A 
ATOM     25  C   UNL     1      -2.426  -2.915   1.109  1.00  0.00     0.161 A 
ATOM     26  C   UNL     1      -2.716  -3.249  -0.214  1.00  0.00     0.050 A 
BRANCH  23  27
ATOM     27  O   UNL     1      -1.305  -1.436   2.692  1.00  0.00    -0.492 OA
ATOM     28  C   UNL     1      -0.681  -2.492   3.425  1.00  0.00     0.278 C 
ENDBRANCH  23  27
BRANCH  25  29
ATOM     29  O   UNL     1      -2.919  -3.741   2.086  1.00  0.00    -0.493 OA
ATOM     30  C   UNL     1      -4.138  -3.204   2.602  1.00  0.00     0.278 C 
ENDBRANCH  25  29
ENDBRANCH  11  21
ENDBRANCH   1   7
BRANCH   4  31
ATOM     31  S   UNL     1       5.590  -2.454  -1.511  1.00  0.00     0.238 S 
ATOM     32  O   UNL     1       5.426  -3.792  -0.996  1.00  0.00    -0.207 OA
ATOM     33  O   UNL     1       5.990  -2.186  -2.873  1.00  0.00    -0.207 OA
BRANCH  31  34
ATOM     34  N   UNL     1       6.720  -1.661  -0.545  1.00  0.00    -0.225 NA
ATOM     35  H   UNL     1       6.301  -0.988   0.094  1.00  0.00     0.137 HD
ATOM     36  H   UNL     1       7.422  -1.230  -1.148  1.00  0.00     0.137 HD
ENDBRANCH  31  34
ENDBRANCH   4  31
TORSDOF 7
