REMARK SMILES COc1ccc([C@@H]2C=C(c3cc(F)ccc3F)NN2c2ccc(S(N)(=O)=O)cc2)cc1OC
REMARK SMILES IDX 20 1 21 2 22 3 23 4 28 5 29 6 19 7 18 8 9 9 8 10 7 11 10 13
REMARK SMILES IDX 11 14 16 15 12 16 15 17 14 18 17 19 13 20 6 21 5 22 30 23
REMARK SMILES IDX 4 24 31 25 3 26 32 27 33 28 2 29 1 30 24 31 26 32 27 33
REMARK SMILES IDX 25 34
REMARK H PARENT 18 12 25 35 25 36
ROOT
ATOM      1  C   UNL     1      -1.829  -0.491   0.376  1.00  0.00     0.058 A 
ATOM      2  C   UNL     1      -2.922  -0.087   1.166  1.00  0.00     0.029 A 
ATOM      3  C   UNL     1      -3.959  -0.966   1.498  1.00  0.00     0.024 A 
ATOM      4  C   UNL     1      -3.914  -2.280   1.038  1.00  0.00     0.082 A 
ATOM      5  C   UNL     1      -2.835  -2.723   0.276  1.00  0.00     0.024 A 
ATOM      6  C   UNL     1      -1.805  -1.831  -0.047  1.00  0.00     0.029 A 
ENDROOT
BRANCH   1   7
ATOM      7  N   UNL     1      -0.793   0.413   0.079  1.00  0.00    -0.276 N 
ATOM      8  N   UNL     1      -0.883   1.773   0.363  1.00  0.00    -0.297 N 
ATOM      9  C   UNL     1      -0.086   2.506  -0.506  1.00  0.00     0.063 C 
ATOM     10  C   UNL     1       0.442   1.689  -1.431  1.00  0.00     0.033 C 
ATOM     11  C   UNL     1       0.026   0.254  -1.166  1.00  0.00     0.161 C 
ATOM     12  H   UNL     1      -0.729   2.024   1.341  1.00  0.00     0.188 HD
BRANCH   9  13
ATOM     13  C   UNL     1       0.095   3.954  -0.358  1.00  0.00     0.038 A 
ATOM     14  C   UNL     1      -0.924   4.729   0.218  1.00  0.00     0.052 A 
ATOM     15  C   UNL     1       1.269   4.610  -0.761  1.00  0.00     0.132 A 
ATOM     16  C   UNL     1      -0.760   6.104   0.373  1.00  0.00     0.124 A 
ATOM     17  C   UNL     1       1.429   5.988  -0.602  1.00  0.00     0.043 A 
ATOM     18  C   UNL     1       0.407   6.741  -0.031  1.00  0.00     0.042 A 
ATOM     19  F   UNL     1       2.286   3.924  -1.304  1.00  0.00    -0.206 F 
ATOM     20  F   UNL     1      -1.746   6.825   0.922  1.00  0.00    -0.207 F 
ENDBRANCH   9  13
BRANCH  11  21
ATOM     21  C   UNL     1       1.234  -0.649  -0.984  1.00  0.00    -0.016 A 
ATOM     22  C   UNL     1       1.715  -1.386  -2.076  1.00  0.00     0.010 A 
ATOM     23  C   UNL     1       1.918  -0.744   0.241  1.00  0.00     0.056 A 
ATOM     24  C   UNL     1       2.836  -2.211  -1.945  1.00  0.00     0.051 A 
ATOM     25  C   UNL     1       3.038  -1.573   0.385  1.00  0.00     0.161 A 
ATOM     26  C   UNL     1       3.502  -2.312  -0.720  1.00  0.00     0.160 A 
BRANCH  25  27
ATOM     27  O   UNL     1       3.747  -1.721   1.551  1.00  0.00    -0.493 OA
ATOM     28  C   UNL     1       3.244  -1.077   2.713  1.00  0.00     0.278 C 
ENDBRANCH  25  27
BRANCH  26  29
ATOM     29  O   UNL     1       4.607  -3.098  -0.500  1.00  0.00    -0.493 OA
ATOM     30  C   UNL     1       5.111  -3.850  -1.594  1.00  0.00     0.278 C 
ENDBRANCH  26  29
ENDBRANCH  11  21
ENDBRANCH   1   7
BRANCH   4  31
ATOM     31  S   UNL     1      -5.226  -3.393   1.459  1.00  0.00     0.238 S 
ATOM     32  O   UNL     1      -4.807  -4.740   1.147  1.00  0.00    -0.207 OA
ATOM     33  O   UNL     1      -5.746  -3.018   2.752  1.00  0.00    -0.207 OA
BRANCH  31  34
ATOM     34  N   UNL     1      -6.383  -3.003   0.298  1.00  0.00    -0.225 NA
ATOM     35  H   UNL     1      -6.150  -2.168  -0.237  1.00  0.00     0.137 HD
ATOM     36  H   UNL     1      -6.530  -3.815  -0.304  1.00  0.00     0.137 HD
ENDBRANCH  31  34
ENDBRANCH   4  31
TORSDOF 7
