REMARK SMILES O=C(CC[C@H]1CC[N@H+](Cc2ccccc2)CC1)c1cc2c3c(c1)CCN3C(=O)CC2
REMARK SMILES IDX 4 1 5 2 7 3 8 4 6 5 16 6 17 7 9 9 10 10 11 11 15 12 12 13
REMARK SMILES IDX 14 14 13 15 3 16 2 17 1 18 18 19 19 20 23 21 20 22 22 23
REMARK SMILES IDX 21 24 30 25 24 26 26 27 29 28 25 29 27 30 28 31
REMARK H PARENT 8 8
ROOT
ATOM      1  C   UNL     1      -0.072  -1.374  -2.415  1.00  0.00     0.012 C 
ENDROOT
BRANCH   1   2
ATOM      2  C   UNL     1      -1.547  -0.939  -2.358  1.00  0.00     0.000 C 
ATOM      3  C   UNL     1      -3.217   0.931  -2.622  1.00  0.00     0.262 C 
ATOM      4  N   UNL     1      -3.879   0.494  -1.339  1.00  0.00    -0.331 N 
ATOM      5  C   UNL     1      -1.738   0.564  -2.590  1.00  0.00     0.065 C 
ATOM      6  C   UNL     1      -3.729  -0.990  -1.088  1.00  0.00     0.262 C 
ATOM      7  C   UNL     1      -2.249  -1.358  -1.062  1.00  0.00     0.065 C 
ATOM      8  H   UNL     1      -3.413   0.979  -0.562  1.00  0.00     0.348 HD
BRANCH   4   9
ATOM      9  C   UNL     1      -5.328   0.944  -1.291  1.00  0.00     0.299 C 
BRANCH   9  10
ATOM     10  C   UNL     1      -5.918   0.878   0.091  1.00  0.00     0.006 A 
ATOM     11  C   UNL     1      -5.538   1.810   1.072  1.00  0.00     0.009 A 
ATOM     12  C   UNL     1      -6.839  -0.125   0.427  1.00  0.00     0.009 A 
ATOM     13  C   UNL     1      -6.066   1.732   2.361  1.00  0.00     0.001 A 
ATOM     14  C   UNL     1      -7.363  -0.199   1.719  1.00  0.00     0.001 A 
ATOM     15  C   UNL     1      -6.974   0.727   2.684  1.00  0.00     0.000 A 
ENDBRANCH   9  10
ENDBRANCH   4   9
ENDBRANCH   1   2
BRANCH   1  16
ATOM     16  C   UNL     1       0.855  -0.794  -1.338  1.00  0.00     0.081 C 
BRANCH  16  17
ATOM     17  C   UNL     1       2.285  -1.288  -1.518  1.00  0.00     0.162 C 
ATOM     18  O   UNL     1       2.590  -2.059  -2.425  1.00  0.00    -0.294 OA
BRANCH  17  19
ATOM     19  C   UNL     1       3.342  -0.817  -0.569  1.00  0.00     0.018 A 
ATOM     20  C   UNL     1       3.045   0.048   0.514  1.00  0.00     0.017 A 
ATOM     21  C   UNL     1       4.661  -1.278  -0.775  1.00  0.00     0.017 A 
ATOM     22  C   UNL     1       4.061   0.473   1.374  1.00  0.00    -0.023 A 
ATOM     23  C   UNL     1       5.652  -0.865   0.095  1.00  0.00    -0.021 A 
ATOM     24  C   UNL     1       5.331   0.004   1.121  1.00  0.00     0.050 A 
ATOM     25  C   UNL     1       3.859   1.291   2.614  1.00  0.00     0.047 C 
ATOM     26  C   UNL     1       7.116  -1.190   0.131  1.00  0.00     0.059 C 
ATOM     27  N   UNL     1       6.437   0.306   1.893  1.00  0.00    -0.312 N 
ATOM     28  C   UNL     1       5.137   2.028   3.031  1.00  0.00     0.105 C 
ATOM     29  C   UNL     1       7.573  -0.500   1.441  1.00  0.00     0.130 C 
ATOM     30  C   UNL     1       6.408   1.188   2.941  1.00  0.00     0.227 C 
ATOM     31  O   UNL     1       7.361   1.373   3.694  1.00  0.00    -0.275 OA
ENDBRANCH  17  19
ENDBRANCH  16  17
ENDBRANCH   1  16
TORSDOF 6
