REMARK SMILES O=C(Nc1ccccc1)c1ccc2c(c1)C(=O)N(CC[C@H]1CC[N@H+](Cc3ccccc3)CC1)C2=O
REMARK SMILES IDX 20 1 21 2 23 3 24 4 22 5 32 6 33 7 25 9 26 10 27 11 31 12
REMARK SMILES IDX 28 13 30 14 29 15 19 16 18 17 16 18 34 19 14 20 13 21 15 22
REMARK SMILES IDX 12 23 10 24 11 25 17 26 35 27 2 28 3 29 1 30 4 32 5 33 9 34
REMARK SMILES IDX 6 35 8 36 7 37
REMARK H PARENT 24 8 3 31
ROOT
ATOM      1  C   UNL     1       0.645   1.482  -0.075  1.00  0.00     0.026 C 
ENDROOT
BRANCH   1   2
ATOM      2  C   UNL     1       1.849   0.541  -0.276  1.00  0.00     0.002 C 
ATOM      3  C   UNL     1       4.181   0.360  -1.252  1.00  0.00     0.262 C 
ATOM      4  N   UNL     1       4.668  -0.178   0.073  1.00  0.00    -0.331 N 
ATOM      5  C   UNL     1       2.975   1.266  -1.029  1.00  0.00     0.065 C 
ATOM      6  C   UNL     1       3.589  -0.925   0.817  1.00  0.00     0.262 C 
ATOM      7  C   UNL     1       2.400  -0.004   1.049  1.00  0.00     0.065 C 
ATOM      8  H   UNL     1       4.939   0.632   0.644  1.00  0.00     0.348 HD
BRANCH   4   9
ATOM      9  C   UNL     1       5.919  -1.023  -0.067  1.00  0.00     0.299 C 
BRANCH   9  10
ATOM     10  C   UNL     1       7.129  -0.224  -0.467  1.00  0.00     0.006 A 
ATOM     11  C   UNL     1       7.649  -0.320  -1.767  1.00  0.00     0.009 A 
ATOM     12  C   UNL     1       7.742   0.646   0.449  1.00  0.00     0.009 A 
ATOM     13  C   UNL     1       8.755   0.444  -2.143  1.00  0.00     0.001 A 
ATOM     14  C   UNL     1       8.848   1.407   0.068  1.00  0.00     0.001 A 
ATOM     15  C   UNL     1       9.352   1.307  -1.227  1.00  0.00     0.000 A 
ENDBRANCH   9  10
ENDBRANCH   4   9
ENDBRANCH   1   2
BRANCH   1  16
ATOM     16  C   UNL     1      -0.604   0.824   0.531  1.00  0.00     0.129 C 
BRANCH  16  17
ATOM     17  N   UNL     1      -1.193  -0.181  -0.334  1.00  0.00    -0.274 N 
ATOM     18  C   UNL     1      -2.065   0.117  -1.347  1.00  0.00     0.261 C 
ATOM     19  C   UNL     1      -0.895  -1.516  -0.300  1.00  0.00     0.261 C 
ATOM     20  C   UNL     1      -2.423  -1.153  -1.977  1.00  0.00     0.054 A 
ATOM     21  C   UNL     1      -1.718  -2.153  -1.328  1.00  0.00     0.053 A 
ATOM     22  C   UNL     1      -3.268  -1.420  -3.035  1.00  0.00     0.028 A 
ATOM     23  C   UNL     1      -1.823  -3.481  -1.697  1.00  0.00     0.015 A 
ATOM     24  C   UNL     1      -3.403  -2.761  -3.424  1.00  0.00     0.041 A 
ATOM     25  C   UNL     1      -2.680  -3.784  -2.763  1.00  0.00     0.015 A 
ATOM     26  O   UNL     1      -2.469   1.204  -1.708  1.00  0.00    -0.269 OA
ATOM     27  O   UNL     1      -0.071  -2.099   0.380  1.00  0.00    -0.269 OA
BRANCH  24  28
ATOM     28  C   UNL     1      -4.276  -3.067  -4.590  1.00  0.00     0.255 C 
ATOM     29  N   UNL     1      -5.028  -4.218  -4.468  1.00  0.00    -0.322 N 
ATOM     30  O   UNL     1      -4.264  -2.274  -5.522  1.00  0.00    -0.269 OA
ATOM     31  H   UNL     1      -5.012  -4.697  -3.577  1.00  0.00     0.170 HD
BRANCH  29  32
ATOM     32  C   UNL     1      -5.904  -4.769  -5.429  1.00  0.00     0.041 A 
ATOM     33  C   UNL     1      -6.080  -4.251  -6.713  1.00  0.00     0.026 A 
ATOM     34  C   UNL     1      -6.625  -5.912  -5.057  1.00  0.00     0.026 A 
ATOM     35  C   UNL     1      -6.964  -4.861  -7.609  1.00  0.00     0.002 A 
ATOM     36  C   UNL     1      -7.509  -6.521  -5.952  1.00  0.00     0.002 A 
ATOM     37  C   UNL     1      -7.678  -5.995  -7.229  1.00  0.00     0.000 A 
ENDBRANCH  29  32
ENDBRANCH  24  28
ENDBRANCH  16  17
ENDBRANCH   1  16
TORSDOF 7
