REMARK SMILES COc1ccc2c(c1)CC[C@H](NS(=O)(=O)N(C)C)C2
REMARK SMILES IDX 12 1 11 3 3 4 4 5 8 6 5 7 7 8 6 9 9 10 19 11 10 12 2 13 1 14
REMARK SMILES IDX 13 15 14 16 15 17 16 18 17 19 18 20
REMARK H PARENT 12 2
ROOT
ATOM      1  N   UNL     1       2.345  -1.071  -0.281  1.00  0.00    -0.199 NA
ATOM      2  H   UNL     1       2.301  -2.018  -0.659  1.00  0.00     0.142 HD
ENDROOT
BRANCH   1   3
ATOM      3  C   UNL     1       1.020  -0.426  -0.117  1.00  0.00     0.075 C 
ATOM      4  C   UNL     1      -4.125  -0.158   0.125  1.00  0.00     0.119 A 
ATOM      5  C   UNL     1      -3.754  -1.173   1.005  1.00  0.00     0.047 A 
ATOM      6  C   UNL     1      -3.144   0.463  -0.650  1.00  0.00     0.050 A 
ATOM      7  C   UNL     1      -2.420  -1.566   1.116  1.00  0.00     0.008 A 
ATOM      8  C   UNL     1      -1.796   0.070  -0.556  1.00  0.00    -0.041 A 
ATOM      9  C   UNL     1      -1.429  -0.942   0.348  1.00  0.00    -0.043 A 
ATOM     10  C   UNL     1      -0.767   0.792  -1.390  1.00  0.00     0.037 C 
ATOM     11  C   UNL     1       0.001  -1.414   0.472  1.00  0.00     0.056 C 
ATOM     12  C   UNL     1       0.554   0.036  -1.499  1.00  0.00     0.025 C 
BRANCH   4  13
ATOM     13  O   UNL     1      -5.462   0.132   0.118  1.00  0.00    -0.497 OA
ATOM     14  C   UNL     1      -5.894   1.160  -0.764  1.00  0.00     0.278 C 
ENDBRANCH   4  13
ENDBRANCH   1   3
BRANCH   1  15
ATOM     15  S   UNL     1       3.413  -1.064   1.008  1.00  0.00     0.279 S 
ATOM     16  O   UNL     1       4.310  -2.167   0.761  1.00  0.00    -0.195 OA
ATOM     17  O   UNL     1       2.660  -0.957   2.232  1.00  0.00    -0.195 OA
BRANCH  15  18
ATOM     18  N   UNL     1       4.236   0.369   0.723  1.00  0.00    -0.195 NA
ATOM     19  C   UNL     1       5.065   0.427  -0.491  1.00  0.00     0.125 C 
ATOM     20  C   UNL     1       3.566   1.636   1.036  1.00  0.00     0.125 C 
ENDBRANCH  15  18
ENDBRANCH   1  15
TORSDOF 4
