REMARK SMILES COc1ccc([C@H]2CC(c3cc(F)cc(F)c3)=NN2c2ccc(S(N)(=O)=O)cc2)cc1OC
REMARK SMILES IDX 20 1 21 2 22 3 23 4 28 5 29 6 19 7 7 8 8 9 9 10 18 11 6 12
REMARK SMILES IDX 3 13 4 14 31 15 5 16 30 17 2 18 1 19 32 20 33 21 10 22 11 23
REMARK SMILES IDX 17 24 12 25 15 26 14 27 13 28 16 29 24 30 26 31 27 32 25 33
REMARK H PARENT 25 34 25 35
ROOT
ATOM      1  C   UNL     1      -1.998  -0.814   0.459  1.00  0.00     0.060 A 
ATOM      2  C   UNL     1      -1.603  -1.710   1.468  1.00  0.00     0.029 A 
ATOM      3  C   UNL     1      -2.250  -2.937   1.660  1.00  0.00     0.024 A 
ATOM      4  C   UNL     1      -3.310  -3.292   0.829  1.00  0.00     0.082 A 
ATOM      5  C   UNL     1      -3.740  -2.426  -0.173  1.00  0.00     0.024 A 
ATOM      6  C   UNL     1      -3.081  -1.205  -0.352  1.00  0.00     0.029 A 
ENDROOT
BRANCH   1   7
ATOM      7  N   UNL     1      -1.360   0.408   0.252  1.00  0.00    -0.257 N 
ATOM      8  C   UNL     1      -0.275   0.959   1.069  1.00  0.00     0.144 C 
ATOM      9  C   UNL     1      -0.259   2.434   0.660  1.00  0.00     0.091 C 
ATOM     10  C   UNL     1      -1.172   2.394  -0.534  1.00  0.00     0.071 C 
ATOM     11  N   UNL     1      -1.792   1.268  -0.716  1.00  0.00    -0.176 NA
BRANCH   8  12
ATOM     12  C   UNL     1       1.070   0.304   0.798  1.00  0.00    -0.019 A 
ATOM     13  C   UNL     1       3.615  -0.877   0.364  1.00  0.00     0.160 A 
ATOM     14  C   UNL     1       2.686  -0.760  -0.678  1.00  0.00     0.051 A 
ATOM     15  C   UNL     1       3.276  -0.365   1.628  1.00  0.00     0.161 A 
ATOM     16  C   UNL     1       1.434  -0.172  -0.466  1.00  0.00     0.010 A 
ATOM     17  C   UNL     1       2.008   0.202   1.835  1.00  0.00     0.056 A 
BRANCH  13  18
ATOM     18  O   UNL     1       4.835  -1.483   0.222  1.00  0.00    -0.493 OA
ATOM     19  C   UNL     1       5.127  -2.116  -1.017  1.00  0.00     0.278 C 
ENDBRANCH  13  18
BRANCH  15  20
ATOM     20  O   UNL     1       4.040  -0.379   2.768  1.00  0.00    -0.493 OA
ATOM     21  C   UNL     1       5.452  -0.347   2.601  1.00  0.00     0.278 C 
ENDBRANCH  15  20
ENDBRANCH   8  12
BRANCH  10  22
ATOM     22  C   UNL     1      -1.368   3.571  -1.411  1.00  0.00     0.004 A 
ATOM     23  C   UNL     1      -0.757   4.797  -1.135  1.00  0.00     0.049 A 
ATOM     24  C   UNL     1      -2.188   3.445  -2.539  1.00  0.00     0.049 A 
ATOM     25  C   UNL     1      -0.971   5.876  -1.990  1.00  0.00     0.126 A 
ATOM     26  C   UNL     1      -2.383   4.540  -3.375  1.00  0.00     0.126 A 
ATOM     27  C   UNL     1      -1.779   5.761  -3.112  1.00  0.00     0.078 A 
ATOM     28  F   UNL     1      -0.382   7.048  -1.721  1.00  0.00    -0.207 F 
ATOM     29  F   UNL     1      -3.166   4.413  -4.454  1.00  0.00    -0.207 F 
ENDBRANCH  10  22
ENDBRANCH   1   7
BRANCH   4  30
ATOM     30  S   UNL     1      -4.135  -4.843   1.053  1.00  0.00     0.238 S 
ATOM     31  O   UNL     1      -5.511  -4.696   0.644  1.00  0.00    -0.207 OA
ATOM     32  O   UNL     1      -3.758  -5.384   2.339  1.00  0.00    -0.207 OA
BRANCH  30  33
ATOM     33  N   UNL     1      -3.353  -5.805  -0.088  1.00  0.00    -0.225 NA
ATOM     34  H   UNL     1      -2.838  -6.539   0.401  1.00  0.00     0.137 HD
ATOM     35  H   UNL     1      -2.751  -5.271  -0.715  1.00  0.00     0.137 HD
ENDBRANCH  30  33
ENDBRANCH   4  30
TORSDOF 7
