REMARK SMILES O=C(C[n+]1ccccc1)N/N=C/c1ccc(/C=N/NC(=O)C[n+]2ccccc2)cc1
REMARK SMILES IDX 13 1 14 2 15 3 16 4 29 5 30 6 12 7 11 8 10 9 2 10 1 11 3 13
REMARK SMILES IDX 4 14 5 15 9 16 6 17 8 18 7 19 17 20 18 21 19 22 20 23 21 25
REMARK SMILES IDX 22 26 23 27 24 28 28 29 25 30 27 31 26 32
REMARK H PARENT 10 12 19 24
ROOT
ATOM      1  C   UNL     1       1.480  -1.423  -0.152  1.00  0.00    -0.005 A 
ATOM      2  C   UNL     1       0.600  -0.528   0.466  1.00  0.00     0.010 A 
ATOM      3  C   UNL     1      -0.725  -0.442   0.029  1.00  0.00     0.010 A 
ATOM      4  C   UNL     1      -1.167  -1.245  -1.028  1.00  0.00    -0.005 A 
ATOM      5  C   UNL     1      -0.287  -2.135  -1.651  1.00  0.00     0.010 A 
ATOM      6  C   UNL     1       1.037  -2.224  -1.210  1.00  0.00     0.010 A 
ENDROOT
BRANCH   1   7
ATOM      7  C   UNL     1       2.875  -1.504   0.335  1.00  0.00     0.141 C 
BRANCH   7   8
ATOM      8  N   UNL     1       3.731  -2.322  -0.193  1.00  0.00    -0.181 NA
BRANCH   8   9
ATOM      9  N   UNL     1       5.020  -2.331   0.273  1.00  0.00    -0.242 N 
ATOM     10  C   UNL     1       5.737  -1.189   0.630  1.00  0.00     0.305 C 
ATOM     11  O   UNL     1       5.279  -0.053   0.728  1.00  0.00    -0.266 OA
ATOM     12  H   UNL     1       5.521  -3.161  -0.039  1.00  0.00     0.193 HD
BRANCH  10  13
ATOM     13  C   UNL     1       7.199  -1.473   0.913  1.00  0.00     0.458 C 
BRANCH  13  14
ATOM     14  N   UNL     1       7.946  -0.211   1.118  1.00  0.00    -0.196 N 
ATOM     15  C   UNL     1       8.460   0.445   0.050  1.00  0.00     0.308 A 
ATOM     16  C   UNL     1       8.081   0.295   2.367  1.00  0.00     0.308 A 
ATOM     17  C   UNL     1       9.154   1.638   0.218  1.00  0.00     0.071 A 
ATOM     18  C   UNL     1       8.773   1.483   2.578  1.00  0.00     0.071 A 
ATOM     19  C   UNL     1       9.315   2.160   1.494  1.00  0.00     0.012 A 
ENDBRANCH  13  14
ENDBRANCH  10  13
ENDBRANCH   8   9
ENDBRANCH   7   8
ENDBRANCH   1   7
BRANCH   4  20
ATOM     20  C   UNL     1      -2.564  -1.169  -1.506  1.00  0.00     0.141 C 
BRANCH  20  21
ATOM     21  N   UNL     1      -3.434  -0.391  -0.943  1.00  0.00    -0.181 NA
BRANCH  21  22
ATOM     22  N   UNL     1      -4.691  -0.400  -1.469  1.00  0.00    -0.242 N 
ATOM     23  C   UNL     1      -5.659   0.410  -0.884  1.00  0.00     0.305 C 
ATOM     24  H   UNL     1      -4.872  -0.989  -2.277  1.00  0.00     0.193 HD
ATOM     25  O   UNL     1      -5.476   1.145   0.084  1.00  0.00    -0.266 OA
BRANCH  23  26
ATOM     26  C   UNL     1      -7.012   0.326  -1.554  1.00  0.00     0.458 C 
BRANCH  26  27
ATOM     27  N   UNL     1      -8.030   1.061  -0.768  1.00  0.00    -0.196 N 
ATOM     28  C   UNL     1      -8.755   0.407   0.171  1.00  0.00     0.308 A 
ATOM     29  C   UNL     1      -8.201   2.390  -0.967  1.00  0.00     0.308 A 
ATOM     30  C   UNL     1      -9.712   1.079   0.922  1.00  0.00     0.071 A 
ATOM     31  C   UNL     1      -9.149   3.099  -0.239  1.00  0.00     0.071 A 
ATOM     32  C   UNL     1      -9.915   2.436   0.711  1.00  0.00     0.012 A 
ENDBRANCH  26  27
ENDBRANCH  23  26
ENDBRANCH  21  22
ENDBRANCH  20  21
ENDBRANCH   4  20
TORSDOF 10
