REMARK SMILES COc1cc2c(cc1OC)C(O)=C(C[C@H]1CC[N@H+](Cc3ccccc3)CC1)C2
REMARK SMILES IDX 14 1 13 2 11 3 6 4 28 5 7 6 5 7 8 8 4 9 3 10 12 11 9 13
REMARK SMILES IDX 10 14 2 15 1 16 15 17 27 18 16 19 26 20 17 21 18 22 19 24
REMARK SMILES IDX 20 25 21 26 25 27 22 28 24 29 23 30
REMARK H PARENT 12 12 18 23
ROOT
ATOM      1  C   UNL     1       0.397  -0.964  -1.796  1.00  0.00     0.039 C 
ENDROOT
BRANCH   1   2
ATOM      2  C   UNL     1       1.694  -0.527  -1.180  1.00  0.00    -0.023 C 
ATOM      3  C   UNL     1       2.052  -0.360   0.106  1.00  0.00     0.122 C 
ATOM      4  C   UNL     1       3.446   0.062   0.176  1.00  0.00     0.024 A 
ATOM      5  C   UNL     1       2.865  -0.233  -2.106  1.00  0.00     0.071 C 
ATOM      6  C   UNL     1       4.262   0.372   1.248  1.00  0.00     0.062 A 
ATOM      7  C   UNL     1       3.940   0.141  -1.128  1.00  0.00    -0.029 A 
ATOM      8  C   UNL     1       5.593   0.748   1.006  1.00  0.00     0.161 A 
ATOM      9  C   UNL     1       5.245   0.532  -1.392  1.00  0.00     0.055 A 
ATOM     10  C   UNL     1       6.088   0.854  -0.318  1.00  0.00     0.161 A 
BRANCH   3  11
ATOM     11  O   UNL     1       1.293  -0.565   1.216  1.00  0.00    -0.507 OA
ATOM     12  H   UNL     1       1.884  -0.505   1.988  1.00  0.00     0.293 HD
ENDBRANCH   3  11
BRANCH   8  13
ATOM     13  O   UNL     1       6.281   1.036   2.160  1.00  0.00    -0.493 OA
ATOM     14  C   UNL     1       7.665   0.702   2.168  1.00  0.00     0.278 C 
ENDBRANCH   8  13
BRANCH  10  15
ATOM     15  O   UNL     1       7.374   1.299  -0.476  1.00  0.00    -0.493 OA
ATOM     16  C   UNL     1       7.865   1.480  -1.797  1.00  0.00     0.278 C 
ENDBRANCH  10  15
ENDBRANCH   1   2
BRANCH   1  17
ATOM     17  C   UNL     1      -0.849  -0.984  -0.890  1.00  0.00     0.004 C 
ATOM     18  C   UNL     1      -1.287   0.431  -0.483  1.00  0.00     0.065 C 
ATOM     19  C   UNL     1      -2.020  -1.683  -1.596  1.00  0.00     0.065 C 
ATOM     20  C   UNL     1      -2.515   0.392   0.414  1.00  0.00     0.262 C 
ATOM     21  C   UNL     1      -3.258  -1.720  -0.710  1.00  0.00     0.262 C 
ATOM     22  N   UNL     1      -3.640  -0.321  -0.303  1.00  0.00    -0.331 N 
ATOM     23  H   UNL     1      -3.832   0.215  -1.158  1.00  0.00     0.348 HD
BRANCH  22  24
ATOM     24  C   UNL     1      -4.929  -0.313   0.493  1.00  0.00     0.299 C 
BRANCH  24  25
ATOM     25  C   UNL     1      -5.552   1.053   0.595  1.00  0.00     0.006 A 
ATOM     26  C   UNL     1      -5.507   1.770   1.800  1.00  0.00     0.009 A 
ATOM     27  C   UNL     1      -6.170   1.638  -0.523  1.00  0.00     0.009 A 
ATOM     28  C   UNL     1      -6.062   3.048   1.882  1.00  0.00     0.001 A 
ATOM     29  C   UNL     1      -6.724   2.915  -0.434  1.00  0.00     0.001 A 
ATOM     30  C   UNL     1      -6.668   3.620   0.766  1.00  0.00     0.000 A 
ENDBRANCH  24  25
ENDBRANCH  22  24
ENDBRANCH   1  17
TORSDOF 7
