REMARK SMILES Nc1c2c(nc3cc(Cl)ccc13)CCCC2
REMARK SMILES IDX 2 1 3 2 4 3 5 4 6 5 7 6 8 7 9 8 10 9 11 10 12 11 13 12 14 13
REMARK SMILES IDX 15 14 16 15 1 16
REMARK H PARENT 1 17 1 18
ROOT
ATOM      1  C   UNL     1       0.476  -1.147   0.015  1.00  0.00     0.046 A 
ATOM      2  C   UNL     1      -0.780  -0.519   0.101  1.00  0.00    -0.003 A 
ATOM      3  C   UNL     1      -0.816   0.875   0.089  1.00  0.00     0.046 A 
ATOM      4  N   UNL     1       0.297   1.640   0.001  1.00  0.00    -0.252 NA
ATOM      5  C   UNL     1       1.495   1.045  -0.038  1.00  0.00     0.074 A 
ATOM      6  C   UNL     1       2.615   1.861  -0.088  1.00  0.00     0.049 A 
ATOM      7  C   UNL     1       3.900   1.328  -0.104  1.00  0.00     0.043 A 
ATOM      8  Cl  UNL     1       5.264   2.374  -0.163  1.00  0.00    -0.084 Cl
ATOM      9  C   UNL     1       4.087  -0.046  -0.067  1.00  0.00     0.021 A 
ATOM     10  C   UNL     1       2.973  -0.884  -0.020  1.00  0.00     0.014 A 
ATOM     11  C   UNL     1       1.657  -0.357  -0.014  1.00  0.00     0.024 A 
ATOM     12  C   UNL     1      -2.118   1.633   0.124  1.00  0.00     0.056 C 
ATOM     13  C   UNL     1      -3.281   0.807   0.662  1.00  0.00     0.007 C 
ATOM     14  C   UNL     1      -3.324  -0.543  -0.038  1.00  0.00     0.005 C 
ATOM     15  C   UNL     1      -2.045  -1.332   0.242  1.00  0.00     0.039 C 
ENDROOT
BRANCH   1  16
ATOM     16  N   UNL     1       0.532  -2.556   0.178  1.00  0.00    -0.398 N 
ATOM     17  H   UNL     1       0.480  -2.798   1.166  1.00  0.00     0.156 HD
ATOM     18  H   UNL     1       1.357  -2.974  -0.236  1.00  0.00     0.156 HD
ENDBRANCH   1  16
TORSDOF 1
