REMARK SMILES COc1cc2c(cc1OC)C(=O)/C(=C/c1cc[n+](Cc3ccccc3Br)cc1)C2
REMARK SMILES IDX 15 1 16 2 17 3 18 4 27 5 28 6 14 7 13 8 3 9 4 10 8 11 5 12
REMARK SMILES IDX 7 13 6 14 29 15 11 16 12 17 2 18 1 19 9 20 10 21 19 22 20 23
REMARK SMILES IDX 21 24 25 25 22 26 24 27 23 28 26 29
REMARK H PARENT
ROOT
ATOM      1  C   UNL     1       1.030  -0.590  -1.941  1.00  0.00    -0.013 A 
ATOM      2  C   UNL     1       1.355  -1.812  -1.359  1.00  0.00     0.079 A 
ATOM      3  C   UNL     1       2.677  -2.083  -1.025  1.00  0.00     0.309 A 
ATOM      4  N   UNL     1       3.652  -1.170  -1.251  1.00  0.00    -0.201 N 
ATOM      5  C   UNL     1       3.356   0.012  -1.842  1.00  0.00     0.309 A 
ATOM      6  C   UNL     1       2.049   0.324  -2.195  1.00  0.00     0.079 A 
ENDROOT
BRANCH   1   7
ATOM      7  C   UNL     1      -0.337  -0.272  -2.345  1.00  0.00     0.016 C 
BRANCH   7   8
ATOM      8  C   UNL     1      -1.379  -0.171  -1.508  1.00  0.00     0.005 C 
ATOM      9  C   UNL     1      -4.929   0.294   1.552  1.00  0.00     0.161 A 
ATOM     10  C   UNL     1      -3.559  -0.012   1.511  1.00  0.00     0.055 A 
ATOM     11  C   UNL     1      -5.641   0.585   0.353  1.00  0.00     0.161 A 
ATOM     12  C   UNL     1      -2.919  -0.024   0.281  1.00  0.00    -0.028 A 
ATOM     13  C   UNL     1      -4.982   0.569  -0.879  1.00  0.00     0.063 A 
ATOM     14  C   UNL     1      -3.634   0.264  -0.879  1.00  0.00     0.030 A 
ATOM     15  C   UNL     1      -1.479  -0.323  -0.010  1.00  0.00     0.076 C 
ATOM     16  C   UNL     1      -2.734   0.189  -2.033  1.00  0.00     0.189 C 
ATOM     17  O   UNL     1      -3.030   0.385  -3.193  1.00  0.00    -0.289 OA
BRANCH   9  18
ATOM     18  O   UNL     1      -5.673   0.337   2.706  1.00  0.00    -0.493 OA
ATOM     19  C   UNL     1      -5.016   0.068   3.936  1.00  0.00     0.278 C 
ENDBRANCH   9  18
BRANCH  11  20
ATOM     20  O   UNL     1      -6.976   0.870   0.508  1.00  0.00    -0.493 OA
ATOM     21  C   UNL     1      -7.730   1.165  -0.660  1.00  0.00     0.278 C 
ENDBRANCH  11  20
ENDBRANCH   7   8
ENDBRANCH   1   7
BRANCH   4  22
ATOM     22  C   UNL     1       5.060  -1.496  -0.893  1.00  0.00     0.394 C 
BRANCH  22  23
ATOM     23  C   UNL     1       5.692  -0.456  -0.001  1.00  0.00     0.031 A 
ATOM     24  C   UNL     1       6.714   0.357  -0.530  1.00  0.00     0.011 A 
ATOM     25  C   UNL     1       5.314  -0.260   1.339  1.00  0.00     0.027 A 
ATOM     26  C   UNL     1       7.321   1.343   0.249  1.00  0.00     0.001 A 
ATOM     27  C   UNL     1       5.925   0.730   2.115  1.00  0.00     0.016 A 
ATOM     28  C   UNL     1       6.925   1.532   1.568  1.00  0.00     0.001 A 
ATOM     29  Br  UNL     1       3.980  -1.313   2.184  1.00  0.00    -0.050 Br
ENDBRANCH  22  23
ENDBRANCH   4  22
TORSDOF 6
