REMARK SMILES Cc1ccc(F)cc1
REMARK SMILES IDX 1 1 2 2 3 3 4 4 5 5 6 6 7 7 8 8
REMARK H PARENT
ROOT
ATOM      1  C   UNL     1       2.229   0.069  -0.188  1.00  0.00     0.044 C 
ATOM      2  C   UNL     1       0.736   0.028  -0.038  1.00  0.00    -0.051 A 
ATOM      3  C   UNL     1      -0.027   1.188  -0.229  1.00  0.00     0.006 A 
ATOM      4  C   UNL     1      -1.418   1.143  -0.120  1.00  0.00     0.039 A 
ATOM      5  C   UNL     1      -2.043  -0.064   0.169  1.00  0.00     0.123 A 
ATOM      6  F   UNL     1      -3.378  -0.107   0.272  1.00  0.00    -0.207 F 
ATOM      7  C   UNL     1      -1.305  -1.227   0.348  1.00  0.00     0.039 A 
ATOM      8  C   UNL     1       0.086  -1.183   0.239  1.00  0.00     0.006 A 
ENDROOT
TORSDOF 0
