REMARK SMILES COc1ccc(OC)c([C@@H]2CC(c3cc(F)ccc3F)=NN2c2ccc(S(N)(=O)=O)cc2)c1
REMARK SMILES IDX 23 1 24 2 25 3 26 4 31 5 32 6 22 7 10 8 11 9 12 10 21 11
REMARK SMILES IDX 9 12 3 13 4 14 33 15 5 16 6 17 2 18 1 19 7 20 8 21 13 22
REMARK SMILES IDX 14 23 19 24 15 25 18 26 17 27 20 28 16 29 27 30 29 31 30 32
REMARK SMILES IDX 28 33
REMARK H PARENT 28 34 28 35
ROOT
ATOM      1  C   UNL     1      -1.374  -0.818   0.665  1.00  0.00     0.060 A 
ATOM      2  C   UNL     1      -2.088  -1.861   0.042  1.00  0.00     0.029 A 
ATOM      3  C   UNL     1      -3.483  -1.951   0.105  1.00  0.00     0.024 A 
ATOM      4  C   UNL     1      -4.197  -0.989   0.813  1.00  0.00     0.082 A 
ATOM      5  C   UNL     1      -3.528   0.062   1.437  1.00  0.00     0.024 A 
ATOM      6  C   UNL     1      -2.131   0.136   1.363  1.00  0.00     0.029 A 
ENDROOT
BRANCH   1   7
ATOM      7  N   UNL     1       0.015  -0.760   0.573  1.00  0.00    -0.257 N 
ATOM      8  C   UNL     1       0.889   0.298   1.090  1.00  0.00     0.148 C 
ATOM      9  C   UNL     1       2.277  -0.344   1.026  1.00  0.00     0.091 C 
ATOM     10  C   UNL     1       1.971  -1.577   0.218  1.00  0.00     0.074 C 
ATOM     11  N   UNL     1       0.709  -1.807   0.032  1.00  0.00    -0.176 NA
BRANCH   8  12
ATOM     12  C   UNL     1       0.797   1.602   0.312  1.00  0.00     0.023 A 
ATOM     13  C   UNL     1       0.283   4.005   0.353  1.00  0.00     0.119 A 
ATOM     14  C   UNL     1       0.597   4.101  -0.999  1.00  0.00     0.050 A 
ATOM     15  C   UNL     1       0.393   2.767   0.997  1.00  0.00     0.056 A 
ATOM     16  C   UNL     1       1.013   2.966  -1.697  1.00  0.00     0.050 A 
ATOM     17  C   UNL     1       1.098   1.728  -1.052  1.00  0.00     0.124 A 
BRANCH  13  18
ATOM     18  O   UNL     1      -0.128   5.030   1.160  1.00  0.00    -0.497 OA
ATOM     19  C   UNL     1      -0.320   6.296   0.541  1.00  0.00     0.278 C 
ENDBRANCH  13  18
BRANCH  17  20
ATOM     20  O   UNL     1       1.575   0.656  -1.758  1.00  0.00    -0.496 OA
ATOM     21  C   UNL     1       0.588   0.175  -2.675  1.00  0.00     0.278 C 
ENDBRANCH  17  20
ENDBRANCH   8  12
BRANCH  10  22
ATOM     22  C   UNL     1       3.048  -2.458  -0.283  1.00  0.00     0.037 A 
ATOM     23  C   UNL     1       4.357  -2.323   0.196  1.00  0.00     0.052 A 
ATOM     24  C   UNL     1       2.776  -3.438  -1.246  1.00  0.00     0.132 A 
ATOM     25  C   UNL     1       5.357  -3.164  -0.287  1.00  0.00     0.124 A 
ATOM     26  C   UNL     1       3.786  -4.274  -1.724  1.00  0.00     0.043 A 
ATOM     27  C   UNL     1       5.086  -4.138  -1.241  1.00  0.00     0.042 A 
ATOM     28  F   UNL     1       1.548  -3.599  -1.758  1.00  0.00    -0.206 F 
ATOM     29  F   UNL     1       6.605  -3.030   0.179  1.00  0.00    -0.207 F 
ENDBRANCH  10  22
ENDBRANCH   1   7
BRANCH   4  30
ATOM     30  S   UNL     1      -5.960  -1.074   0.874  1.00  0.00     0.238 S 
ATOM     31  O   UNL     1      -6.445  -1.799  -0.277  1.00  0.00    -0.207 OA
ATOM     32  O   UNL     1      -6.489   0.216   1.253  1.00  0.00    -0.207 OA
BRANCH  30  33
ATOM     33  N   UNL     1      -6.216  -2.078   2.194  1.00  0.00    -0.225 NA
ATOM     34  H   UNL     1      -6.717  -1.570   2.923  1.00  0.00     0.137 HD
ATOM     35  H   UNL     1      -6.678  -2.936   1.892  1.00  0.00     0.137 HD
ENDBRANCH  30  33
ENDBRANCH   4  30
TORSDOF 7
