REMARK SMILES COc1cc(/C=C/c2nnc(-c3ccc(Cl)cc3)o2)ccc1O
REMARK SMILES IDX 6 1 5 2 3 3 4 4 22 5 21 6 20 7 2 8 1 9 23 10 7 12 8 13 9 14
REMARK SMILES IDX 19 15 10 16 11 17 12 18 13 19 18 20 14 21 17 22 15 23 16 24
REMARK H PARENT 23 11
ROOT
ATOM      1  C   UNL     1      -1.295   1.292  -0.553  1.00  0.00     0.014 C 
ENDROOT
BRANCH   1   2
ATOM      2  C   UNL     1      -2.696   1.201  -0.118  1.00  0.00    -0.022 A 
ATOM      3  C   UNL     1      -4.678  -0.090   0.471  1.00  0.00     0.161 A 
ATOM      4  C   UNL     1      -3.336  -0.034   0.078  1.00  0.00     0.058 A 
ATOM      5  C   UNL     1      -5.378   1.110   0.659  1.00  0.00     0.157 A 
ATOM      6  C   UNL     1      -4.760   2.342   0.452  1.00  0.00     0.051 A 
ATOM      7  C   UNL     1      -3.422   2.384   0.058  1.00  0.00     0.012 A 
BRANCH   3   8
ATOM      8  O   UNL     1      -5.386  -1.243   0.693  1.00  0.00    -0.493 OA
ATOM      9  C   UNL     1      -4.725  -2.477   0.458  1.00  0.00     0.278 C 
ENDBRANCH   3   8
BRANCH   5  10
ATOM     10  O   UNL     1      -6.690   1.065   1.048  1.00  0.00    -0.504 OA
ATOM     11  H   UNL     1      -7.031   1.970   1.124  1.00  0.00     0.293 HD
ENDBRANCH   5  10
ENDBRANCH   1   2
BRANCH   1  12
ATOM     12  C   UNL     1      -0.312   0.530  -0.048  1.00  0.00     0.071 C 
BRANCH  12  13
ATOM     13  C   UNL     1       1.031   0.669  -0.491  1.00  0.00     0.241 A 
ATOM     14  N   UNL     1       1.504   1.501  -1.409  1.00  0.00    -0.108 NA
ATOM     15  O   UNL     1       2.056  -0.105   0.026  1.00  0.00    -0.417 OA
ATOM     16  N   UNL     1       2.861   1.290  -1.515  1.00  0.00    -0.107 NA
ATOM     17  C   UNL     1       3.154   0.339  -0.657  1.00  0.00     0.248 A 
BRANCH  17  18
ATOM     18  C   UNL     1       4.437  -0.281  -0.348  1.00  0.00     0.039 A 
ATOM     19  C   UNL     1       4.559  -1.293   0.618  1.00  0.00     0.015 A 
ATOM     20  C   UNL     1       5.592   0.138  -1.029  1.00  0.00     0.015 A 
ATOM     21  C   UNL     1       5.803  -1.871   0.895  1.00  0.00     0.021 A 
ATOM     22  C   UNL     1       6.836  -0.439  -0.754  1.00  0.00     0.021 A 
ATOM     23  C   UNL     1       6.936  -1.441   0.208  1.00  0.00     0.041 A 
ATOM     24  Cl  UNL     1       8.464  -2.152   0.549  1.00  0.00    -0.084 Cl
ENDBRANCH  17  18
ENDBRANCH  12  13
ENDBRANCH   1  12
TORSDOF 6
