REMARK SMILES CC1=C[C@@H]2Cc3[nH]c4cc(Cl)ccc4c(=N)c3[C@H](C1)C2
REMARK SMILES IDX 7 1 6 2 17 3 15 4 14 5 13 6 12 7 10 8 11 9 9 10 8 11 18 12
REMARK SMILES IDX 19 13 2 14 1 15 3 16 4 17 5 18 20 19 16 21
REMARK H PARENT 7 20 16 22
ROOT
ATOM      1  N   UNL     1       2.104  -1.602  -0.491  1.00  0.00    -0.358 N 
ATOM      2  C   UNL     1       0.857  -1.157  -0.114  1.00  0.00     0.021 A 
ATOM      3  C   UNL     1       0.411   0.090  -0.378  1.00  0.00     0.000 A 
ATOM      4  C   UNL     1       1.317   1.044  -1.102  1.00  0.00     0.068 A 
ATOM      5  C   UNL     1       2.701   0.568  -1.427  1.00  0.00     0.023 A 
ATOM      6  C   UNL     1       3.650   1.396  -2.046  1.00  0.00     0.014 A 
ATOM      7  C   UNL     1       4.926   0.906  -2.337  1.00  0.00     0.021 A 
ATOM      8  C   UNL     1       5.255  -0.408  -2.016  1.00  0.00     0.043 A 
ATOM      9  Cl  UNL     1       6.823  -1.011  -2.386  1.00  0.00    -0.084 Cl
ATOM     10  C   UNL     1       4.322  -1.238  -1.397  1.00  0.00     0.047 A 
ATOM     11  C   UNL     1       3.046  -0.753  -1.084  1.00  0.00     0.049 A 
ATOM     12  C   UNL     1      -0.977   0.577   0.007  1.00  0.00     0.028 C 
ATOM     13  C   UNL     1      -0.932   1.389   1.323  1.00  0.00     0.039 C 
ATOM     14  C   UNL     1      -0.858   0.526   2.571  1.00  0.00    -0.076 C 
ATOM     15  C   UNL     1      -0.593   1.252   3.857  1.00  0.00     0.039 C 
ATOM     16  C   UNL     1      -1.011  -0.811   2.515  1.00  0.00    -0.024 C 
ATOM     17  C   UNL     1      -1.304  -1.554   1.226  1.00  0.00     0.018 C 
ATOM     18  C   UNL     1      -0.012  -2.156   0.638  1.00  0.00     0.062 C 
ATOM     19  C   UNL     1      -1.928  -0.613   0.191  1.00  0.00     0.017 C 
ATOM     20  H   UNL     1       2.420  -2.490  -0.118  1.00  0.00     0.166 HD
ENDROOT
BRANCH   4  21
ATOM     21  N   UNL     1       0.871   2.225  -1.408  1.00  0.00    -0.300 NA
ATOM     22  H   UNL     1       1.552   2.796  -1.904  1.00  0.00     0.188 HD
ENDBRANCH   4  21
TORSDOF 1
