REMARK SMILES CCC1=C[C@H]2Cc3nc4cc(Cl)ccc4c(N)c3[C@@H](C1)C2
REMARK SMILES IDX 3 1 4 2 5 3 6 4 7 5 8 6 9 7 10 8 11 9 12 10 13 11 14 12
REMARK SMILES IDX 15 13 16 14 18 15 19 16 20 17 21 18 2 19 1 20 17 21
REMARK H PARENT 17 22 17 23
ROOT
ATOM      1  C   UNL     1       1.238  -0.791   1.972  1.00  0.00    -0.074 C 
ATOM      2  C   UNL     1       1.526  -1.581   0.919  1.00  0.00    -0.024 C 
ATOM      3  C   UNL     1       1.435  -1.118  -0.520  1.00  0.00     0.018 C 
ATOM      4  C   UNL     1       0.119  -1.585  -1.159  1.00  0.00     0.064 C 
ATOM      5  C   UNL     1      -1.083  -0.757  -0.761  1.00  0.00     0.047 A 
ATOM      6  N   UNL     1      -2.281  -1.272  -1.122  1.00  0.00    -0.252 NA
ATOM      7  C   UNL     1      -3.397  -0.598  -0.817  1.00  0.00     0.074 A 
ATOM      8  C   UNL     1      -4.609  -1.177  -1.161  1.00  0.00     0.049 A 
ATOM      9  C   UNL     1      -5.818  -0.558  -0.861  1.00  0.00     0.043 A 
ATOM     10  Cl  UNL     1      -7.301  -1.311  -1.300  1.00  0.00    -0.084 Cl
ATOM     11  C   UNL     1      -5.834   0.663  -0.203  1.00  0.00     0.021 A 
ATOM     12  C   UNL     1      -4.625   1.264   0.147  1.00  0.00     0.014 A 
ATOM     13  C   UNL     1      -3.384   0.651  -0.160  1.00  0.00     0.024 A 
ATOM     14  C   UNL     1      -2.116   1.211   0.151  1.00  0.00     0.046 A 
ATOM     15  C   UNL     1      -0.947   0.475  -0.112  1.00  0.00     0.001 A 
ATOM     16  C   UNL     1       0.430   0.993   0.289  1.00  0.00     0.028 C 
ATOM     17  C   UNL     1       0.759   0.638   1.758  1.00  0.00     0.039 C 
ATOM     18  C   UNL     1       1.516   0.406  -0.620  1.00  0.00     0.017 C 
ENDROOT
BRANCH   1  19
ATOM     19  C   UNL     1       1.337  -1.206   3.425  1.00  0.00     0.027 C 
ATOM     20  C   UNL     1       1.828  -2.620   3.711  1.00  0.00     0.008 C 
ENDBRANCH   1  19
BRANCH  14  21
ATOM     21  N   UNL     1      -2.006   2.403   0.916  1.00  0.00    -0.398 N 
ATOM     22  H   UNL     1      -2.011   2.178   1.909  1.00  0.00     0.156 HD
ATOM     23  H   UNL     1      -2.752   3.063   0.718  1.00  0.00     0.156 HD
ENDBRANCH  14  21
TORSDOF 2
