REMARK SMILES O=C1CC(=NCCNc2c3c(nc4cc(Cl)ccc24)CCCC3)C(=O)c2ccccc21
REMARK SMILES IDX 6 1 5 2 4 3 3 4 2 5 31 6 24 7 30 8 26 9 29 10 27 11 28 12
REMARK SMILES IDX 1 13 25 14 7 15 8 16 9 18 10 19 19 20 11 21 23 22 18 23
REMARK SMILES IDX 13 24 12 25 20 26 22 27 17 28 14 29 21 30 15 31 16 32
REMARK H PARENT 8 17
ROOT
ATOM      1  C   UNL     1       1.122   1.249   1.108  1.00  0.00     0.163 C 
ENDROOT
BRANCH   1   2
ATOM      2  N   UNL     1       1.706   0.081   0.439  1.00  0.00    -0.283 NA
BRANCH   2   3
ATOM      3  C   UNL     1       2.896   0.146  -0.054  1.00  0.00     0.091 C 
ATOM      4  C   UNL     1       3.819   1.321   0.003  1.00  0.00     0.141 C 
ATOM      5  C   UNL     1       5.285   1.001   0.031  1.00  0.00     0.169 C 
ATOM      6  C   UNL     1       5.749  -0.332  -0.416  1.00  0.00     0.029 A 
ATOM      7  C   UNL     1       3.402  -1.068  -0.804  1.00  0.00     0.207 C 
ATOM      8  C   UNL     1       7.125  -0.600  -0.442  1.00  0.00     0.012 A 
ATOM      9  C   UNL     1       4.851  -1.310  -0.838  1.00  0.00     0.035 A 
ATOM     10  C   UNL     1       7.594  -1.835  -0.892  1.00  0.00     0.001 A 
ATOM     11  C   UNL     1       5.324  -2.547  -1.298  1.00  0.00     0.013 A 
ATOM     12  C   UNL     1       6.694  -2.807  -1.323  1.00  0.00     0.001 A 
ATOM     13  O   UNL     1       6.108   1.844   0.380  1.00  0.00    -0.294 OA
ATOM     14  O   UNL     1       2.611  -1.825  -1.349  1.00  0.00    -0.287 OA
ENDBRANCH   2   3
ENDBRANCH   1   2
BRANCH   1  15
ATOM     15  C   UNL     1      -0.399   1.034   1.218  1.00  0.00     0.136 C 
BRANCH  15  16
ATOM     16  N   UNL     1      -0.958   0.886  -0.141  1.00  0.00    -0.382 N 
ATOM     17  H   UNL     1      -0.324   0.274  -0.661  1.00  0.00     0.160 HD
BRANCH  16  18
ATOM     18  C   UNL     1      -2.259   0.302  -0.114  1.00  0.00     0.049 A 
ATOM     19  C   UNL     1      -3.379   1.151  -0.021  1.00  0.00    -0.003 A 
ATOM     20  C   UNL     1      -2.438  -1.112  -0.094  1.00  0.00     0.024 A 
ATOM     21  C   UNL     1      -4.636   0.558   0.096  1.00  0.00     0.046 A 
ATOM     22  C   UNL     1      -3.223   2.653  -0.014  1.00  0.00     0.039 C 
ATOM     23  C   UNL     1      -1.384  -2.060  -0.172  1.00  0.00     0.014 A 
ATOM     24  C   UNL     1      -3.760  -1.591   0.012  1.00  0.00     0.074 A 
ATOM     25  N   UNL     1      -4.824  -0.783   0.104  1.00  0.00    -0.252 NA
ATOM     26  C   UNL     1      -5.898   1.380   0.157  1.00  0.00     0.056 C 
ATOM     27  C   UNL     1      -4.521   3.409  -0.295  1.00  0.00     0.005 C 
ATOM     28  C   UNL     1      -1.638  -3.431  -0.152  1.00  0.00     0.021 A 
ATOM     29  C   UNL     1      -3.993  -2.958   0.030  1.00  0.00     0.049 A 
ATOM     30  C   UNL     1      -5.657   2.836   0.539  1.00  0.00     0.007 C 
ATOM     31  C   UNL     1      -2.947  -3.873  -0.052  1.00  0.00     0.043 A 
ATOM     32  Cl  UNL     1      -3.280  -5.561  -0.024  1.00  0.00    -0.084 Cl
ENDBRANCH  16  18
ENDBRANCH  15  16
ENDBRANCH   1  15
TORSDOF 5
