REMARK SMILES COc1ccc(OC)c([C@@H](C)NS(N)(=O)=O)c1
REMARK SMILES IDX 10 1 11 2 9 3 3 4 4 5 17 6 5 7 6 8 2 9 1 10 7 11 8 12 12 13
REMARK SMILES IDX 13 15 15 16 16 17 14 18
REMARK H PARENT 12 14 14 19 14 20
ROOT
ATOM      1  C   UNL     1       1.422  -0.046  -0.746  1.00  0.00     0.101 C 
ATOM      2  C   UNL     1       1.446   0.060  -2.274  1.00  0.00     0.031 C 
ENDROOT
BRANCH   1   3
ATOM      3  C   UNL     1      -0.021  -0.011  -0.247  1.00  0.00     0.016 A 
ATOM      4  C   UNL     1      -1.933   1.245   0.629  1.00  0.00     0.119 A 
ATOM      5  C   UNL     1      -2.691   0.079   0.633  1.00  0.00     0.050 A 
ATOM      6  C   UNL     1      -0.609   1.194   0.188  1.00  0.00     0.055 A 
ATOM      7  C   UNL     1      -2.131  -1.127   0.198  1.00  0.00     0.050 A 
ATOM      8  C   UNL     1      -0.805  -1.182  -0.245  1.00  0.00     0.123 A 
BRANCH   4   9
ATOM      9  O   UNL     1      -2.358   2.485   1.020  1.00  0.00    -0.497 OA
ATOM     10  C   UNL     1      -3.694   2.587   1.496  1.00  0.00     0.278 C 
ENDBRANCH   4   9
BRANCH   8  11
ATOM     11  O   UNL     1      -0.188  -2.318  -0.701  1.00  0.00    -0.496 OA
ATOM     12  C   UNL     1      -0.927  -3.533  -0.660  1.00  0.00     0.278 C 
ENDBRANCH   8  11
ENDBRANCH   1   3
BRANCH   1  13
ATOM     13  N   UNL     1       2.243   1.054  -0.174  1.00  0.00    -0.195 NA
ATOM     14  H   UNL     1       2.204   1.903  -0.735  1.00  0.00     0.143 HD
BRANCH  13  15
ATOM     15  S   UNL     1       3.813   0.709   0.228  1.00  0.00     0.274 S 
ATOM     16  O   UNL     1       4.406   1.919   0.735  1.00  0.00    -0.195 OA
ATOM     17  O   UNL     1       4.424  -0.085  -0.803  1.00  0.00    -0.195 OA
BRANCH  15  18
ATOM     18  N   UNL     1       3.536  -0.269   1.541  1.00  0.00    -0.216 NA
ATOM     19  H   UNL     1       4.401  -0.740   1.802  1.00  0.00     0.138 HD
ATOM     20  H   UNL     1       3.183   0.302   2.308  1.00  0.00     0.138 HD
ENDBRANCH  15  18
ENDBRANCH  13  15
ENDBRANCH   1  13
TORSDOF 6
