REMARK SMILES COc1cc2c(cc1O)C(=O)[C@H](Cc1cc[n+](Cc3cccc(Cl)c3)cc1C(C)=O)C2
REMARK SMILES IDX 14 1 15 2 16 3 17 4 26 5 27 6 13 7 12 8 3 9 4 10 8 11 5 12
REMARK SMILES IDX 7 13 6 14 31 15 10 16 11 17 2 18 1 19 9 20 28 22 29 23 30 24
REMARK SMILES IDX 18 25 19 26 20 27 25 28 21 29 23 30 22 31 24 32
REMARK H PARENT 9 21
ROOT
ATOM      1  C   UNL     1       0.571  -0.523  -0.720  1.00  0.00    -0.025 A 
ATOM      2  C   UNL     1       1.017   0.803  -0.792  1.00  0.00     0.075 A 
ATOM      3  C   UNL     1       2.241   1.165  -0.243  1.00  0.00     0.308 A 
ATOM      4  N   UNL     1       3.029   0.240   0.351  1.00  0.00    -0.200 N 
ATOM      5  C   UNL     1       2.638  -1.055   0.422  1.00  0.00     0.320 A 
ATOM      6  C   UNL     1       1.412  -1.463  -0.105  1.00  0.00     0.084 A 
ENDROOT
BRANCH   1   7
ATOM      7  C   UNL     1      -0.828  -0.843  -1.219  1.00  0.00     0.049 C 
BRANCH   7   8
ATOM      8  C   UNL     1      -1.809  -1.290  -0.122  1.00  0.00     0.070 C 
ATOM      9  C   UNL     1      -5.896   0.931   0.873  1.00  0.00     0.160 A 
ATOM     10  C   UNL     1      -5.367  -0.044   0.020  1.00  0.00     0.055 A 
ATOM     11  C   UNL     1      -5.060   1.546   1.830  1.00  0.00     0.158 A 
ATOM     12  C   UNL     1      -4.022  -0.376   0.145  1.00  0.00    -0.032 A 
ATOM     13  C   UNL     1      -3.718   1.215   1.964  1.00  0.00     0.062 A 
ATOM     14  C   UNL     1      -3.234   0.250   1.106  1.00  0.00     0.025 A 
ATOM     15  C   UNL     1      -3.262  -1.393  -0.649  1.00  0.00     0.048 C 
ATOM     16  C   UNL     1      -1.883  -0.279   1.010  1.00  0.00     0.167 C 
ATOM     17  O   UNL     1      -0.954   0.060   1.726  1.00  0.00    -0.294 OA
BRANCH   9  18
ATOM     18  O   UNL     1      -7.193   1.377   0.881  1.00  0.00    -0.493 OA
ATOM     19  C   UNL     1      -8.089   0.762  -0.038  1.00  0.00     0.278 C 
ENDBRANCH   9  18
BRANCH  11  20
ATOM     20  O   UNL     1      -5.566   2.505   2.666  1.00  0.00    -0.504 OA
ATOM     21  H   UNL     1      -6.512   2.582   2.430  1.00  0.00     0.293 HD
ENDBRANCH  11  20
ENDBRANCH   7   8
ENDBRANCH   1   7
BRANCH   6  22
ATOM     22  C   UNL     1       1.057  -2.898  -0.018  1.00  0.00     0.166 C 
ATOM     23  C   UNL     1       1.294  -3.623   1.281  1.00  0.00     0.094 C 
ATOM     24  O   UNL     1       0.601  -3.457  -1.008  1.00  0.00    -0.294 OA
ENDBRANCH   6  22
BRANCH   4  25
ATOM     25  C   UNL     1       4.320   0.662   0.952  1.00  0.00     0.393 C 
BRANCH  25  26
ATOM     26  C   UNL     1       5.318   1.039  -0.113  1.00  0.00     0.018 A 
ATOM     27  C   UNL     1       5.826   2.346  -0.181  1.00  0.00     0.010 A 
ATOM     28  C   UNL     1       5.764   0.091  -1.050  1.00  0.00     0.030 A 
ATOM     29  C   UNL     1       6.747   2.700  -1.171  1.00  0.00     0.002 A 
ATOM     30  C   UNL     1       6.684   0.454  -2.036  1.00  0.00     0.041 A 
ATOM     31  C   UNL     1       7.174   1.754  -2.101  1.00  0.00     0.020 A 
ATOM     32  Cl  UNL     1       7.206  -0.720  -3.177  1.00  0.00    -0.084 Cl
ENDBRANCH  25  26
ENDBRANCH   4  25
TORSDOF 7
