REMARK SMILES COc1cccc(OC)c1[C@H](C)NS(N)(=O)=O
REMARK SMILES IDX 11 1 12 2 10 3 3 4 4 5 5 6 7 7 6 8 2 9 1 10 8 11 9 12 13 13
REMARK SMILES IDX 14 15 16 16 17 17 15 18
REMARK H PARENT 13 14 15 19 15 20
ROOT
ATOM      1  C   UNL     1       0.402  -1.022   0.199  1.00  0.00     0.105 C 
ATOM      2  C   UNL     1       0.021  -1.651   1.543  1.00  0.00     0.031 C 
ENDROOT
BRANCH   1   3
ATOM      3  C   UNL     1      -0.470   0.214  -0.051  1.00  0.00     0.054 A 
ATOM      4  C   UNL     1      -0.251   1.425   0.654  1.00  0.00     0.127 A 
ATOM      5  C   UNL     1      -1.068   2.533   0.406  1.00  0.00     0.047 A 
ATOM      6  C   UNL     1      -2.104   2.452  -0.521  1.00  0.00     0.008 A 
ATOM      7  C   UNL     1      -1.539   0.141  -0.976  1.00  0.00     0.127 A 
ATOM      8  C   UNL     1      -2.342   1.263  -1.205  1.00  0.00     0.047 A 
BRANCH   4   9
ATOM      9  O   UNL     1       0.776   1.425   1.567  1.00  0.00    -0.496 OA
ATOM     10  C   UNL     1       1.035   2.633   2.274  1.00  0.00     0.278 C 
ENDBRANCH   4   9
BRANCH   7  11
ATOM     11  O   UNL     1      -1.731  -1.070  -1.590  1.00  0.00    -0.496 OA
ATOM     12  C   UNL     1      -2.745  -1.161  -2.583  1.00  0.00     0.278 C 
ENDBRANCH   7  11
ENDBRANCH   1   3
BRANCH   1  13
ATOM     13  N   UNL     1       1.840  -0.667   0.160  1.00  0.00    -0.195 NA
ATOM     14  H   UNL     1       2.092  -0.062   0.943  1.00  0.00     0.143 HD
BRANCH  13  15
ATOM     15  S   UNL     1       2.972  -1.825  -0.144  1.00  0.00     0.274 S 
ATOM     16  O   UNL     1       2.692  -3.027   0.593  1.00  0.00    -0.195 OA
ATOM     17  O   UNL     1       4.264  -1.190  -0.127  1.00  0.00    -0.195 OA
BRANCH  15  18
ATOM     18  N   UNL     1       2.623  -2.119  -1.741  1.00  0.00    -0.216 NA
ATOM     19  H   UNL     1       3.107  -2.964  -2.040  1.00  0.00     0.138 HD
ATOM     20  H   UNL     1       2.916  -1.312  -2.291  1.00  0.00     0.138 HD
ENDBRANCH  15  18
ENDBRANCH  13  15
ENDBRANCH   1  13
TORSDOF 6
