REMARK SMILES C[NH+](C)CC(C)(C)c1cccc(OC(=O)NCCCC[NH+]2CCOCC2)c1
REMARK SMILES IDX 16 1 14 2 15 3 17 5 18 6 19 7 20 8 21 9 22 10 26 11 23 12
REMARK SMILES IDX 25 13 24 14 13 16 12 17 27 18 11 19 8 20 10 21 9 22 5 23
REMARK SMILES IDX 6 24 7 25 4 26 2 27 1 28 3 29
REMARK H PARENT 16 4 21 15 2 30
ROOT
ATOM      1  N   UNL     1      -9.178  -4.829  -1.732  1.00  0.00    -0.321 N 
ATOM      2  C   UNL     1     -10.309  -5.361  -2.295  1.00  0.00     0.412 C 
ATOM      3  O   UNL     1     -11.295  -5.706  -1.658  1.00  0.00    -0.224 OA
ATOM      4  H   UNL     1      -8.474  -4.504  -2.382  1.00  0.00     0.167 HD
ENDROOT
BRANCH   1   5
ATOM      5  C   UNL     1      -9.119  -4.469  -0.336  1.00  0.00     0.119 C 
BRANCH   5   6
ATOM      6  C   UNL     1      -8.784  -5.667   0.554  1.00  0.00     0.027 C 
BRANCH   6   7
ATOM      7  C   UNL     1      -8.981  -5.392   2.052  1.00  0.00     0.063 C 
BRANCH   7   8
ATOM      8  C   UNL     1      -8.032  -4.326   2.597  1.00  0.00     0.262 C 
BRANCH   8   9
ATOM      9  N   UNL     1      -8.198  -4.074   4.076  1.00  0.00    -0.331 N 
ATOM     10  C   UNL     1      -9.569  -3.537   4.486  1.00  0.00     0.291 C 
ATOM     11  C   UNL     1      -7.807  -5.245   4.976  1.00  0.00     0.291 C 
ATOM     12  C   UNL     1      -9.541  -3.171   5.975  1.00  0.00     0.221 C 
ATOM     13  C   UNL     1      -7.866  -4.792   6.441  1.00  0.00     0.221 C 
ATOM     14  O   UNL     1      -9.171  -4.302   6.772  1.00  0.00    -0.370 OA
ATOM     15  H   UNL     1      -7.529  -3.323   4.296  1.00  0.00     0.348 HD
ENDBRANCH   8   9
ENDBRANCH   7   8
ENDBRANCH   6   7
ENDBRANCH   5   6
ENDBRANCH   1   5
BRANCH   2  16
ATOM     16  O   UNL     1     -10.153  -5.426  -3.672  1.00  0.00    -0.410 OA
BRANCH  16  17
ATOM     17  C   UNL     1     -11.275  -5.734  -4.467  1.00  0.00     0.133 A 
ATOM     18  C   UNL     1     -11.073  -6.630  -5.524  1.00  0.00     0.051 A 
ATOM     19  C   UNL     1     -12.497  -5.093  -4.291  1.00  0.00     0.047 A 
ATOM     20  C   UNL     1     -12.111  -6.924  -6.427  1.00  0.00    -0.033 A 
ATOM     21  C   UNL     1     -13.538  -5.373  -5.167  1.00  0.00     0.004 A 
ATOM     22  C   UNL     1     -13.349  -6.275  -6.220  1.00  0.00     0.005 A 
BRANCH  20  23
ATOM     23  C   UNL     1     -11.943  -7.908  -7.615  1.00  0.00     0.039 C 
ATOM     24  C   UNL     1     -12.268  -7.130  -8.912  1.00  0.00     0.022 C 
ATOM     25  C   UNL     1     -10.499  -8.440  -7.748  1.00  0.00     0.022 C 
BRANCH  23  26
ATOM     26  C   UNL     1     -12.940  -9.088  -7.359  1.00  0.00     0.272 C 
BRANCH  26  27
ATOM     27  N   UNL     1     -12.769 -10.344  -8.204  1.00  0.00    -0.339 N 
ATOM     28  C   UNL     1     -13.511 -11.504  -7.572  1.00  0.00     0.332 C 
ATOM     29  C   UNL     1     -13.174 -10.200  -9.645  1.00  0.00     0.332 C 
ATOM     30  H   UNL     1     -11.778 -10.619  -8.188  1.00  0.00     0.347 HD
ENDBRANCH  26  27
ENDBRANCH  23  26
ENDBRANCH  20  23
ENDBRANCH  16  17
ENDBRANCH   2  16
TORSDOF 10
