REMARK SMILES O=C1C=C(NCCNc2c3c(nc4cc(Cl)ccc24)CCCC3)C(=O)c2ccccc21
REMARK SMILES IDX 6 1 5 2 4 4 2 5 3 6 31 7 30 8 26 9 24 10 29 11 27 12 28 13
REMARK SMILES IDX 1 14 25 15 7 16 8 17 9 19 10 20 19 21 11 22 23 23 18 24
REMARK SMILES IDX 13 25 12 26 20 27 22 28 17 29 14 30 21 31 15 32 16 33
REMARK H PARENT 5 3 8 18
ROOT
ATOM      1  C   UNL     1       0.680   0.933  -0.753  1.00  0.00     0.134 C 
ENDROOT
BRANCH   1   2
ATOM      2  N   UNL     1       1.944   0.266  -1.063  1.00  0.00    -0.380 N 
ATOM      3  H   UNL     1       1.850  -0.533  -1.703  1.00  0.00     0.160 HD
BRANCH   2   4
ATOM      4  C   UNL     1       2.949  -0.006  -0.137  1.00  0.00     0.087 C 
ATOM      5  C   UNL     1       4.304   0.368   1.902  1.00  0.00     0.188 C 
ATOM      6  C   UNL     1       3.215   0.703   0.967  1.00  0.00     0.082 C 
ATOM      7  C   UNL     1       5.155  -0.791   1.587  1.00  0.00     0.033 A 
ATOM      8  C   UNL     1       6.216  -1.124   2.439  1.00  0.00     0.013 A 
ATOM      9  C   UNL     1       4.908  -1.554   0.450  1.00  0.00     0.035 A 
ATOM     10  C   UNL     1       3.791  -1.216  -0.451  1.00  0.00     0.209 C 
ATOM     11  C   UNL     1       7.026  -2.223   2.147  1.00  0.00     0.001 A 
ATOM     12  C   UNL     1       5.722  -2.657   0.159  1.00  0.00     0.013 A 
ATOM     13  C   UNL     1       6.779  -2.989   1.008  1.00  0.00     0.001 A 
ATOM     14  O   UNL     1       4.485   1.045   2.906  1.00  0.00    -0.289 OA
ATOM     15  O   UNL     1       3.533  -1.908  -1.433  1.00  0.00    -0.287 OA
ENDBRANCH   2   4
ENDBRANCH   1   2
BRANCH   1  16
ATOM     16  C   UNL     1      -0.140   1.172  -2.034  1.00  0.00     0.134 C 
BRANCH  16  17
ATOM     17  N   UNL     1      -1.415   1.883  -1.790  1.00  0.00    -0.382 N 
ATOM     18  H   UNL     1      -1.753   2.265  -2.674  1.00  0.00     0.160 HD
BRANCH  17  19
ATOM     19  C   UNL     1      -2.441   1.048  -1.256  1.00  0.00     0.049 A 
ATOM     20  C   UNL     1      -2.778   1.190   0.105  1.00  0.00    -0.003 A 
ATOM     21  C   UNL     1      -3.108   0.070  -2.051  1.00  0.00     0.024 A 
ATOM     22  C   UNL     1      -3.744   0.330   0.628  1.00  0.00     0.046 A 
ATOM     23  C   UNL     1      -2.210   2.313   0.943  1.00  0.00     0.039 C 
ATOM     24  C   UNL     1      -2.898  -0.119  -3.441  1.00  0.00     0.014 A 
ATOM     25  C   UNL     1      -4.054  -0.752  -1.402  1.00  0.00     0.074 A 
ATOM     26  N   UNL     1      -4.348  -0.635  -0.102  1.00  0.00    -0.252 NA
ATOM     27  C   UNL     1      -4.149   0.381   2.080  1.00  0.00     0.056 C 
ATOM     28  C   UNL     1      -2.406   2.123   2.446  1.00  0.00     0.005 C 
ATOM     29  C   UNL     1      -3.584  -1.103  -4.152  1.00  0.00     0.021 A 
ATOM     30  C   UNL     1      -4.724  -1.728  -2.124  1.00  0.00     0.049 A 
ATOM     31  C   UNL     1      -3.840   1.715   2.747  1.00  0.00     0.007 C 
ATOM     32  C   UNL     1      -4.495  -1.908  -3.485  1.00  0.00     0.043 A 
ATOM     33  Cl  UNL     1      -5.349  -3.128  -4.346  1.00  0.00    -0.084 Cl
ENDBRANCH  17  19
ENDBRANCH  16  17
ENDBRANCH   1  16
TORSDOF 5
