REMARK SMILES COc1ccc([C@@H]2C=C(c3cc(F)ccc3F)NN2c2ccc(S(N)(=O)=O)cc2)cc1OC
REMARK SMILES IDX 20 1 21 2 22 3 23 4 28 5 29 6 19 7 18 8 9 9 8 10 7 11 10 13
REMARK SMILES IDX 11 14 16 15 12 16 15 17 14 18 17 19 13 20 6 21 5 22 30 23
REMARK SMILES IDX 4 24 31 25 3 26 32 27 33 28 2 29 1 30 24 31 26 32 27 33
REMARK SMILES IDX 25 34
REMARK H PARENT 18 12 25 35 25 36
ROOT
ATOM      1  C   UNL     1       2.002  -0.356   0.207  1.00  0.00     0.058 A 
ATOM      2  C   UNL     1       3.326  -0.052  -0.166  1.00  0.00     0.029 A 
ATOM      3  C   UNL     1       4.367  -0.975  -0.015  1.00  0.00     0.024 A 
ATOM      4  C   UNL     1       4.090  -2.238   0.501  1.00  0.00     0.082 A 
ATOM      5  C   UNL     1       2.791  -2.575   0.879  1.00  0.00     0.024 A 
ATOM      6  C   UNL     1       1.760  -1.641   0.723  1.00  0.00     0.029 A 
ENDROOT
BRANCH   1   7
ATOM      7  N   UNL     1       0.974   0.588   0.021  1.00  0.00    -0.276 N 
ATOM      8  N   UNL     1       1.232   1.904  -0.352  1.00  0.00    -0.297 N 
ATOM      9  C   UNL     1       0.251   2.755   0.139  1.00  0.00     0.063 C 
ATOM     10  C   UNL     1      -0.593   2.065   0.923  1.00  0.00     0.033 C 
ATOM     11  C   UNL     1      -0.205   0.598   0.951  1.00  0.00     0.161 C 
ATOM     12  H   UNL     1       1.417   2.048  -1.346  1.00  0.00     0.188 HD
BRANCH   9  13
ATOM     13  C   UNL     1       0.218   4.179  -0.201  1.00  0.00     0.038 A 
ATOM     14  C   UNL     1       1.417   4.862  -0.464  1.00  0.00     0.052 A 
ATOM     15  C   UNL     1      -0.981   4.903  -0.290  1.00  0.00     0.132 A 
ATOM     16  C   UNL     1       1.398   6.214  -0.797  1.00  0.00     0.124 A 
ATOM     17  C   UNL     1      -0.995   6.259  -0.625  1.00  0.00     0.043 A 
ATOM     18  C   UNL     1       0.204   6.920  -0.880  1.00  0.00     0.042 A 
ATOM     19  F   UNL     1      -2.161   4.304  -0.070  1.00  0.00    -0.206 F 
ATOM     20  F   UNL     1       2.553   6.846  -1.042  1.00  0.00    -0.207 F 
ENDBRANCH   9  13
BRANCH  11  21
ATOM     21  C   UNL     1      -1.343  -0.286   0.474  1.00  0.00    -0.016 A 
ATOM     22  C   UNL     1      -1.669  -0.421  -0.880  1.00  0.00     0.010 A 
ATOM     23  C   UNL     1      -2.128  -0.973   1.412  1.00  0.00     0.056 A 
ATOM     24  C   UNL     1      -2.745  -1.220  -1.284  1.00  0.00     0.051 A 
ATOM     25  C   UNL     1      -3.190  -1.798   1.015  1.00  0.00     0.161 A 
ATOM     26  C   UNL     1      -3.525  -1.907  -0.345  1.00  0.00     0.160 A 
BRANCH  25  27
ATOM     27  O   UNL     1      -3.839  -2.387   2.071  1.00  0.00    -0.493 OA
ATOM     28  C   UNL     1      -4.349  -3.696   1.842  1.00  0.00     0.278 C 
ENDBRANCH  25  27
BRANCH  26  29
ATOM     29  O   UNL     1      -4.614  -2.668  -0.676  1.00  0.00    -0.493 OA
ATOM     30  C   UNL     1      -5.057  -2.644  -2.026  1.00  0.00     0.278 C 
ENDBRANCH  26  29
ENDBRANCH  11  21
ENDBRANCH   1   7
BRANCH   4  31
ATOM     31  S   UNL     1       5.390  -3.424   0.699  1.00  0.00     0.238 S 
ATOM     32  O   UNL     1       6.659  -2.741   0.583  1.00  0.00    -0.207 OA
ATOM     33  O   UNL     1       5.065  -4.278   1.816  1.00  0.00    -0.207 OA
BRANCH  31  34
ATOM     34  N   UNL     1       5.236  -4.330  -0.712  1.00  0.00    -0.225 NA
ATOM     35  H   UNL     1       4.391  -4.110  -1.240  1.00  0.00     0.137 HD
ATOM     36  H   UNL     1       6.079  -4.207  -1.275  1.00  0.00     0.137 HD
ENDBRANCH  31  34
ENDBRANCH   4  31
TORSDOF 7
