REMARK SMILES COc1cc2c(cc1OC)C(=O)/C(=C/c1cc[n+](Cc3cccc(Br)c3)cc1)C2
REMARK SMILES IDX 15 1 16 2 17 3 18 4 27 5 28 6 14 7 13 8 3 9 4 10 8 11 5 12
REMARK SMILES IDX 7 13 6 14 29 15 11 16 12 17 2 18 1 19 9 20 10 21 19 22 20 23
REMARK SMILES IDX 21 24 26 25 22 26 24 27 23 28 25 29
REMARK H PARENT
ROOT
ATOM      1  C   UNL     1       1.264  -0.875   0.550  1.00  0.00    -0.013 A 
ATOM      2  C   UNL     1       2.062  -2.000   0.357  1.00  0.00     0.079 A 
ATOM      3  C   UNL     1       3.207  -1.907  -0.426  1.00  0.00     0.309 A 
ATOM      4  N   UNL     1       3.560  -0.731  -0.994  1.00  0.00    -0.201 N 
ATOM      5  C   UNL     1       2.799   0.375  -0.815  1.00  0.00     0.309 A 
ATOM      6  C   UNL     1       1.645   0.326  -0.041  1.00  0.00     0.079 A 
ENDROOT
BRANCH   1   7
ATOM      7  C   UNL     1       0.092  -0.972   1.418  1.00  0.00     0.016 C 
BRANCH   7   8
ATOM      8  C   UNL     1      -1.168  -0.693   1.055  1.00  0.00     0.005 C 
ATOM      9  C   UNL     1      -5.572   0.165  -0.377  1.00  0.00     0.161 A 
ATOM     10  C   UNL     1      -4.251   0.173  -0.853  1.00  0.00     0.055 A 
ATOM     11  C   UNL     1      -5.854  -0.197   0.971  1.00  0.00     0.161 A 
ATOM     12  C   UNL     1      -3.231  -0.180   0.017  1.00  0.00    -0.028 A 
ATOM     13  C   UNL     1      -4.814  -0.551   1.836  1.00  0.00     0.063 A 
ATOM     14  C   UNL     1      -3.527  -0.532   1.332  1.00  0.00     0.030 A 
ATOM     15  C   UNL     1      -1.758  -0.241  -0.258  1.00  0.00     0.076 C 
ATOM     16  C   UNL     1      -2.287  -0.863   2.035  1.00  0.00     0.189 C 
ATOM     17  O   UNL     1      -2.185  -1.214   3.193  1.00  0.00    -0.289 OA
BRANCH   9  18
ATOM     18  O   UNL     1      -6.666   0.495  -1.141  1.00  0.00    -0.493 OA
ATOM     19  C   UNL     1      -6.452   0.856  -2.497  1.00  0.00     0.278 C 
ENDBRANCH   9  18
BRANCH  11  20
ATOM     20  O   UNL     1      -7.179  -0.171   1.331  1.00  0.00    -0.493 OA
ATOM     21  C   UNL     1      -7.510  -0.520   2.668  1.00  0.00     0.278 C 
ENDBRANCH  11  20
ENDBRANCH   7   8
ENDBRANCH   1   7
BRANCH   4  22
ATOM     22  C   UNL     1       4.789  -0.650  -1.827  1.00  0.00     0.393 C 
BRANCH  22  23
ATOM     23  C   UNL     1       5.847   0.190  -1.158  1.00  0.00     0.018 A 
ATOM     24  C   UNL     1       6.340   1.344  -1.788  1.00  0.00     0.010 A 
ATOM     25  C   UNL     1       6.365  -0.170   0.097  1.00  0.00     0.026 A 
ATOM     26  C   UNL     1       7.317   2.128  -1.169  1.00  0.00     0.002 A 
ATOM     27  C   UNL     1       7.341   0.621   0.708  1.00  0.00     0.018 A 
ATOM     28  C   UNL     1       7.816   1.769   0.082  1.00  0.00     0.016 A 
ATOM     29  Br  UNL     1       8.016   0.124   2.401  1.00  0.00    -0.051 Br
ENDBRANCH  22  23
ENDBRANCH   4  22
TORSDOF 6
