REMARK SMILES COc1cc2c(cc1OC)C(=O)/C(=C/c1cc[n+](Cc3ccccc3)cc1)C2
REMARK SMILES IDX 14 1 13 2 3 3 4 4 8 5 5 6 7 7 6 8 28 9 11 10 12 11 2 12 1 13
REMARK SMILES IDX 9 14 10 15 15 16 16 17 27 18 17 19 26 20 18 21 19 22 20 23
REMARK SMILES IDX 21 24 25 25 22 26 24 27 23 28
REMARK H PARENT
ROOT
ATOM      1  C   UNL     1       0.144  -2.126   1.177  1.00  0.00     0.016 C 
ENDROOT
BRANCH   1   2
ATOM      2  C   UNL     1       1.225  -1.458   0.752  1.00  0.00     0.005 C 
ATOM      3  C   UNL     1       4.927   1.055  -0.719  1.00  0.00     0.161 A 
ATOM      4  C   UNL     1       3.538   0.954  -0.898  1.00  0.00     0.055 A 
ATOM      5  C   UNL     1       5.607   0.175   0.171  1.00  0.00     0.161 A 
ATOM      6  C   UNL     1       2.846  -0.017  -0.191  1.00  0.00    -0.028 A 
ATOM      7  C   UNL     1       4.896  -0.799   0.878  1.00  0.00     0.063 A 
ATOM      8  C   UNL     1       3.530  -0.867   0.675  1.00  0.00     0.030 A 
ATOM      9  C   UNL     1       1.377  -0.315  -0.221  1.00  0.00     0.076 C 
ATOM     10  C   UNL     1       2.579  -1.792   1.296  1.00  0.00     0.189 C 
ATOM     11  O   UNL     1       2.839  -2.662   2.101  1.00  0.00    -0.289 OA
BRANCH   3  12
ATOM     12  O   UNL     1       5.721   1.974  -1.362  1.00  0.00    -0.493 OA
ATOM     13  C   UNL     1       5.098   2.895  -2.244  1.00  0.00     0.278 C 
ENDBRANCH   3  12
BRANCH   5  14
ATOM     14  O   UNL     1       6.964   0.360   0.270  1.00  0.00    -0.493 OA
ATOM     15  C   UNL     1       7.687  -0.493   1.147  1.00  0.00     0.278 C 
ENDBRANCH   5  14
ENDBRANCH   1   2
BRANCH   1  16
ATOM     16  C   UNL     1      -1.225  -1.871   0.734  1.00  0.00    -0.013 A 
ATOM     17  C   UNL     1      -1.615  -2.076  -0.587  1.00  0.00     0.079 A 
ATOM     18  C   UNL     1      -2.179  -1.465   1.663  1.00  0.00     0.079 A 
ATOM     19  C   UNL     1      -2.940  -1.862  -0.951  1.00  0.00     0.309 A 
ATOM     20  C   UNL     1      -3.491  -1.260   1.253  1.00  0.00     0.309 A 
ATOM     21  N   UNL     1      -3.851  -1.457  -0.037  1.00  0.00    -0.201 N 
BRANCH  21  22
ATOM     22  C   UNL     1      -5.264  -1.244  -0.443  1.00  0.00     0.393 C 
BRANCH  22  23
ATOM     23  C   UNL     1      -5.611   0.222  -0.428  1.00  0.00     0.017 A 
ATOM     24  C   UNL     1      -5.016   1.109  -1.339  1.00  0.00     0.010 A 
ATOM     25  C   UNL     1      -6.535   0.723   0.502  1.00  0.00     0.010 A 
ATOM     26  C   UNL     1      -5.331   2.469  -1.309  1.00  0.00     0.001 A 
ATOM     27  C   UNL     1      -6.846   2.083   0.528  1.00  0.00     0.001 A 
ATOM     28  C   UNL     1      -6.243   2.954  -0.375  1.00  0.00     0.000 A 
ENDBRANCH  22  23
ENDBRANCH  21  22
ENDBRANCH   1  16
TORSDOF 6
