REMARK SMILES O=c1nc2ccccc2c(O)n1CC[C@H]1CC[N@H+](Cc2ccccc2)CC1
REMARK SMILES IDX 13 1 12 2 10 3 9 4 8 5 4 6 2 7 7 8 5 9 3 10 6 11 1 12 11 13
REMARK SMILES IDX 14 15 15 16 27 17 16 18 26 19 17 20 18 21 19 23 20 24 21 25
REMARK SMILES IDX 25 26 22 27 24 28 23 29
REMARK H PARENT 11 14 18 22
ROOT
ATOM      1  C   UNL     1       2.166  -2.375  -0.161  1.00  0.00     0.131 C 
ENDROOT
BRANCH   1   2
ATOM      2  N   UNL     1       3.162  -1.346  -0.470  1.00  0.00    -0.262 N 
ATOM      3  C   UNL     1       4.197  -1.096   0.412  1.00  0.00     0.204 A 
ATOM      4  C   UNL     1       5.154  -0.193   0.138  1.00  0.00     0.061 A 
ATOM      5  C   UNL     1       6.275   0.188   0.977  1.00  0.00     0.016 A 
ATOM      6  C   UNL     1       4.977   0.470  -1.189  1.00  0.00     0.081 A 
ATOM      7  C   UNL     1       3.044  -0.655  -1.681  1.00  0.00     0.350 A 
ATOM      8  C   UNL     1       7.164   1.099   0.558  1.00  0.00     0.001 A 
ATOM      9  C   UNL     1       6.028   1.458  -1.566  1.00  0.00     0.029 A 
ATOM     10  N   UNL     1       4.003   0.262  -2.010  1.00  0.00    -0.193 NA
ATOM     11  C   UNL     1       7.041   1.731  -0.733  1.00  0.00     0.002 A 
ATOM     12  O   UNL     1       2.072  -0.821  -2.417  1.00  0.00    -0.246 OA
BRANCH   3  13
ATOM     13  O   UNL     1       4.156  -1.832   1.578  1.00  0.00    -0.494 OA
ATOM     14  H   UNL     1       5.014  -1.774   2.028  1.00  0.00     0.295 HD
ENDBRANCH   3  13
ENDBRANCH   1   2
BRANCH   1  15
ATOM     15  C   UNL     1       0.996  -1.894   0.718  1.00  0.00     0.026 C 
BRANCH  15  16
ATOM     16  C   UNL     1       0.003  -0.967  -0.012  1.00  0.00     0.002 C 
ATOM     17  C   UNL     1      -1.430  -1.159   0.506  1.00  0.00     0.065 C 
ATOM     18  C   UNL     1       0.370   0.516   0.133  1.00  0.00     0.065 C 
ATOM     19  C   UNL     1      -2.412  -0.281  -0.262  1.00  0.00     0.262 C 
ATOM     20  C   UNL     1      -0.588   1.394  -0.660  1.00  0.00     0.262 C 
ATOM     21  N   UNL     1      -2.000   1.165  -0.166  1.00  0.00    -0.331 N 
ATOM     22  H   UNL     1      -2.015   1.432   0.826  1.00  0.00     0.348 HD
BRANCH  21  23
ATOM     23  C   UNL     1      -3.002   2.067  -0.858  1.00  0.00     0.299 C 
BRANCH  23  24
ATOM     24  C   UNL     1      -2.860   3.513  -0.469  1.00  0.00     0.006 A 
ATOM     25  C   UNL     1      -2.298   4.440  -1.360  1.00  0.00     0.009 A 
ATOM     26  C   UNL     1      -3.270   3.952   0.800  1.00  0.00     0.009 A 
ATOM     27  C   UNL     1      -2.144   5.775  -0.986  1.00  0.00     0.001 A 
ATOM     28  C   UNL     1      -3.114   5.289   1.169  1.00  0.00     0.001 A 
ATOM     29  C   UNL     1      -2.549   6.198   0.278  1.00  0.00     0.000 A 
ENDBRANCH  23  24
ENDBRANCH  21  23
ENDBRANCH  15  16
ENDBRANCH   1  15
TORSDOF 6
