REMARK SMILES CCC1=C[C@H]2Cc3[nH]c4cc(Cl)ccc4c(=N)c3[C@@H](C1)C2
REMARK SMILES IDX 8 1 7 2 18 3 16 4 15 5 14 6 13 7 11 8 12 9 10 10 9 11 19 12
REMARK SMILES IDX 20 13 3 14 4 15 5 16 6 17 21 18 17 20 2 22 1 23
REMARK H PARENT 8 19 17 21
ROOT
ATOM      1  N   UNL     1      -0.223  -1.988   0.603  1.00  0.00    -0.358 N 
ATOM      2  C   UNL     1       0.038  -0.648   0.424  1.00  0.00     0.021 A 
ATOM      3  C   UNL     1       1.133  -0.041   0.928  1.00  0.00     0.000 A 
ATOM      4  C   UNL     1       2.122  -0.860   1.707  1.00  0.00     0.068 A 
ATOM      5  C   UNL     1       1.863  -2.332   1.815  1.00  0.00     0.023 A 
ATOM      6  C   UNL     1       2.753  -3.201   2.464  1.00  0.00     0.014 A 
ATOM      7  C   UNL     1       2.466  -4.567   2.548  1.00  0.00     0.021 A 
ATOM      8  C   UNL     1       1.292  -5.064   1.988  1.00  0.00     0.043 A 
ATOM      9  Cl  UNL     1       0.937  -6.744   2.102  1.00  0.00    -0.084 Cl
ATOM     10  C   UNL     1       0.404  -4.212   1.337  1.00  0.00     0.047 A 
ATOM     11  C   UNL     1       0.689  -2.845   1.231  1.00  0.00     0.049 A 
ATOM     12  C   UNL     1       1.411   1.446   0.763  1.00  0.00     0.028 C 
ATOM     13  C   UNL     1       2.400   1.699  -0.399  1.00  0.00     0.039 C 
ATOM     14  C   UNL     1       1.759   1.629  -1.777  1.00  0.00    -0.074 C 
ATOM     15  C   UNL     1       0.422   1.547  -1.923  1.00  0.00    -0.024 C 
ATOM     16  C   UNL     1      -0.542   1.563  -0.754  1.00  0.00     0.018 C 
ATOM     17  C   UNL     1      -0.983   0.131  -0.394  1.00  0.00     0.062 C 
ATOM     18  C   UNL     1       0.108   2.205   0.475  1.00  0.00     0.017 C 
ATOM     19  H   UNL     1      -0.976  -2.397   0.062  1.00  0.00     0.166 HD
ENDROOT
BRANCH   4  20
ATOM     20  N   UNL     1       3.146  -0.267   2.243  1.00  0.00    -0.300 NA
ATOM     21  H   UNL     1       3.753  -0.901   2.758  1.00  0.00     0.188 HD
ENDBRANCH   4  20
BRANCH  14  22
ATOM     22  C   UNL     1       2.694   1.609  -2.962  1.00  0.00     0.027 C 
ATOM     23  C   UNL     1       3.397   2.942  -3.176  1.00  0.00     0.008 C 
ENDBRANCH  14  22
TORSDOF 2
