REMARK SMILES COc1cc2c(cc1OC)S[C@@H](C(O)=CCc1cc[n+](Cc3coc([N+](=O)[O-])c3)cc1)C2
REMARK SMILES IDX 16 1 15 2 13 3 14 4 12 6 32 7 11 8 5 9 6 10 4 11 7 12 3 13
REMARK SMILES IDX 8 14 2 15 1 16 9 17 10 18 17 19 18 20 31 21 19 22 30 23
REMARK SMILES IDX 20 24 21 25 22 26 23 27 29 28 24 29 25 30 26 31 27 32 28 33
REMARK H PARENT 14 5
ROOT
ATOM      1  C   UNL     1       1.595  -1.423  -1.640  1.00  0.00     0.067 C 
ENDROOT
BRANCH   1   2
ATOM      2  C   UNL     1       0.269  -0.716  -1.628  1.00  0.00     0.020 C 
BRANCH   2   3
ATOM      3  C   UNL     1      -0.668  -0.864  -0.678  1.00  0.00     0.102 C 
BRANCH   3   4
ATOM      4  O   UNL     1      -0.415  -1.687   0.410  1.00  0.00    -0.511 OA
ATOM      5  H   UNL     1      -1.119  -1.527   1.071  1.00  0.00     0.293 HD
ENDBRANCH   3   4
BRANCH   3   6
ATOM      6  C   UNL     1      -1.996  -0.136  -0.704  1.00  0.00     0.121 C 
ATOM      7  C   UNL     1      -3.205  -1.067  -0.926  1.00  0.00     0.059 C 
ATOM      8  S   UNL     1      -2.271   0.708   0.899  1.00  0.00    -0.114 SA
ATOM      9  C   UNL     1      -4.367  -0.470  -0.182  1.00  0.00    -0.029 A 
ATOM     10  C   UNL     1      -4.015   0.438   0.814  1.00  0.00     0.015 A 
ATOM     11  C   UNL     1      -5.702  -0.822  -0.373  1.00  0.00     0.055 A 
ATOM     12  C   UNL     1      -4.978   1.023   1.614  1.00  0.00     0.065 A 
ATOM     13  C   UNL     1      -6.698  -0.242   0.427  1.00  0.00     0.161 A 
ATOM     14  C   UNL     1      -6.328   0.706   1.409  1.00  0.00     0.161 A 
BRANCH  13  15
ATOM     15  O   UNL     1      -8.026  -0.564   0.332  1.00  0.00    -0.493 OA
ATOM     16  C   UNL     1      -8.406  -1.595  -0.569  1.00  0.00     0.278 C 
ENDBRANCH  13  15
BRANCH  14  17
ATOM     17  O   UNL     1      -7.171   1.352   2.278  1.00  0.00    -0.493 OA
ATOM     18  C   UNL     1      -8.441   1.730   1.758  1.00  0.00     0.278 C 
ENDBRANCH  14  17
ENDBRANCH   3   6
ENDBRANCH   2   3
ENDBRANCH   1   2
BRANCH   1  19
ATOM     19  C   UNL     1       2.693  -0.565  -1.051  1.00  0.00    -0.032 A 
ATOM     20  C   UNL     1       3.504   0.231  -1.858  1.00  0.00     0.075 A 
ATOM     21  C   UNL     1       2.881  -0.521   0.331  1.00  0.00     0.075 A 
ATOM     22  C   UNL     1       4.478   1.034  -1.275  1.00  0.00     0.308 A 
ATOM     23  C   UNL     1       3.863   0.297   0.872  1.00  0.00     0.308 A 
ATOM     24  N   UNL     1       4.646   1.056   0.069  1.00  0.00    -0.201 N 
BRANCH  24  25
ATOM     25  C   UNL     1       5.685   1.930   0.665  1.00  0.00     0.397 C 
BRANCH  25  26
ATOM     26  C   UNL     1       7.029   1.300   0.528  1.00  0.00     0.063 A 
ATOM     27  C   UNL     1       8.085   1.758  -0.242  1.00  0.00     0.213 A 
ATOM     28  C   UNL     1       7.511   0.113   1.166  1.00  0.00     0.143 A 
ATOM     29  O   UNL     1       9.161   0.934  -0.137  1.00  0.00    -0.409 OA
ATOM     30  C   UNL     1       8.803  -0.056   0.721  1.00  0.00     0.433 A 
BRANCH  30  31
ATOM     31  N   UNL     1       9.783  -1.060   0.999  1.00  0.00     0.102 N 
ATOM     32  O   UNL     1      10.884  -0.962   0.448  1.00  0.00    -0.256 OA
ATOM     33  O   UNL     1       9.425  -1.957   1.773  1.00  0.00    -0.256 OA
ENDBRANCH  30  31
ENDBRANCH  25  26
ENDBRANCH  24  25
ENDBRANCH   1  19
TORSDOF 10
