REMARK SMILES O=C(NCCCCN=c1c2c([nH]c3ccccc13)CCCC2)c1ccc(F)cc1
REMARK SMILES IDX 6 1 7 2 8 3 9 4 12 5 11 6 13 7 10 8 19 9 14 10 18 11 22 12
REMARK SMILES IDX 20 13 15 14 17 15 21 16 16 17 5 19 4 20 3 21 2 22 1 24 23 25
REMARK SMILES IDX 24 26 29 27 25 28 28 29 26 30 27 31
REMARK H PARENT 12 18 3 23
ROOT
ATOM      1  C   UNL     1       0.659   0.700  -1.314  1.00  0.00     0.025 C 
ENDROOT
BRANCH   1   2
ATOM      2  C   UNL     1      -0.343   0.755  -0.157  1.00  0.00     0.143 C 
BRANCH   2   3
ATOM      3  N   UNL     1      -1.675   0.762  -0.727  1.00  0.00    -0.284 NA
BRANCH   3   4
ATOM      4  C   UNL     1      -2.752   0.372  -0.130  1.00  0.00     0.072 A 
ATOM      5  N   UNL     1      -4.953  -1.217   0.623  1.00  0.00    -0.358 N 
ATOM      6  C   UNL     1      -4.989  -0.538  -0.578  1.00  0.00     0.021 A 
ATOM      7  C   UNL     1      -4.035  -0.849   1.619  1.00  0.00     0.048 A 
ATOM      8  C   UNL     1      -3.987   0.264  -0.990  1.00  0.00    -0.003 A 
ATOM      9  C   UNL     1      -6.221  -0.751  -1.432  1.00  0.00     0.054 C 
ATOM     10  C   UNL     1      -4.203  -1.317   2.929  1.00  0.00     0.027 A 
ATOM     11  C   UNL     1      -2.934  -0.029   1.306  1.00  0.00     0.024 A 
ATOM     12  C   UNL     1      -3.996   1.017  -2.292  1.00  0.00     0.039 C 
ATOM     13  C   UNL     1      -6.062  -0.286  -2.880  1.00  0.00     0.007 C 
ATOM     14  C   UNL     1      -3.336  -0.910   3.942  1.00  0.00     0.002 A 
ATOM     15  C   UNL     1      -2.105   0.419   2.342  1.00  0.00     0.012 A 
ATOM     16  C   UNL     1      -5.378   1.073  -2.943  1.00  0.00     0.005 C 
ATOM     17  C   UNL     1      -2.301  -0.026   3.652  1.00  0.00     0.001 A 
ATOM     18  H   UNL     1      -5.822  -1.635   0.934  1.00  0.00     0.166 HD
ENDBRANCH   3   4
ENDBRANCH   2   3
ENDBRANCH   1   2
BRANCH   1  19
ATOM     19  C   UNL     1       2.116   0.815  -0.862  1.00  0.00     0.023 C 
BRANCH  19  20
ATOM     20  C   UNL     1       2.583  -0.373  -0.024  1.00  0.00     0.116 C 
BRANCH  20  21
ATOM     21  N   UNL     1       3.983  -0.250   0.337  1.00  0.00    -0.352 N 
ATOM     22  C   UNL     1       4.984  -0.649  -0.526  1.00  0.00     0.251 C 
ATOM     23  H   UNL     1       4.214   0.361   1.108  1.00  0.00     0.163 HD
ATOM     24  O   UNL     1       4.776  -1.172  -1.614  1.00  0.00    -0.269 OA
BRANCH  22  25
ATOM     25  C   UNL     1       6.381  -0.377  -0.087  1.00  0.00     0.040 A 
ATOM     26  C   UNL     1       6.740  -0.337   1.269  1.00  0.00     0.017 A 
ATOM     27  C   UNL     1       7.362  -0.184  -1.072  1.00  0.00     0.017 A 
ATOM     28  C   UNL     1       8.065  -0.082   1.631  1.00  0.00     0.040 A 
ATOM     29  C   UNL     1       8.684   0.071  -0.705  1.00  0.00     0.040 A 
ATOM     30  C   UNL     1       9.023   0.123   0.643  1.00  0.00     0.123 A 
ATOM     31  F   UNL     1      10.291   0.366   0.996  1.00  0.00    -0.207 F 
ENDBRANCH  22  25
ENDBRANCH  20  21
ENDBRANCH  19  20
ENDBRANCH   1  19
TORSDOF 7
