REMARK SMILES O=C(NCCCNc1c2c(nc3ccccc13)CCCC2)c1ccc(F)cc1
REMARK SMILES IDX 4 1 3 2 2 3 1 4 22 6 23 7 28 8 24 9 27 10 25 11 26 12 5 13
REMARK SMILES IDX 6 14 7 15 8 17 9 18 17 19 10 20 21 21 16 22 12 23 11 24
REMARK SMILES IDX 18 25 20 26 15 27 13 28 19 29 14 30
REMARK H PARENT 3 5 7 16
ROOT
ATOM      1  C   UNL     1       1.742   0.941  -0.616  1.00  0.00     0.118 C 
ENDROOT
BRANCH   1   2
ATOM      2  N   UNL     1       3.166   0.727  -0.684  1.00  0.00    -0.352 N 
ATOM      3  C   UNL     1       3.850  -0.339  -0.056  1.00  0.00     0.251 C 
ATOM      4  O   UNL     1       3.142  -1.162   0.615  1.00  0.00    -0.269 OA
ATOM      5  H   UNL     1       3.760   1.400  -1.235  1.00  0.00     0.163 HD
BRANCH   3   6
ATOM      6  C   UNL     1       5.287  -0.544  -0.129  1.00  0.00     0.040 A 
ATOM      7  C   UNL     1       6.148   0.277  -0.820  1.00  0.00     0.017 A 
ATOM      8  C   UNL     1       5.860  -1.625   0.527  1.00  0.00     0.017 A 
ATOM      9  C   UNL     1       7.521   0.054  -0.872  1.00  0.00     0.040 A 
ATOM     10  C   UNL     1       7.212  -1.884   0.503  1.00  0.00     0.040 A 
ATOM     11  C   UNL     1       8.030  -1.042  -0.196  1.00  0.00     0.123 A 
ATOM     12  F   UNL     1       9.363  -1.297  -0.219  1.00  0.00    -0.207 F 
ENDBRANCH   3   6
ENDBRANCH   1   2
BRANCH   1  13
ATOM     13  C   UNL     1       1.319   1.138   0.805  1.00  0.00     0.042 C 
BRANCH  13  14
ATOM     14  C   UNL     1      -0.190   1.373   0.930  1.00  0.00     0.115 C 
BRANCH  14  15
ATOM     15  N   UNL     1      -0.840   0.196   0.390  1.00  0.00    -0.384 N 
ATOM     16  H   UNL     1      -0.340  -0.627   0.004  1.00  0.00     0.160 HD
BRANCH  15  17
ATOM     17  C   UNL     1      -2.270   0.197   0.403  1.00  0.00     0.049 A 
ATOM     18  C   UNL     1      -2.942   0.685  -0.642  1.00  0.00    -0.003 A 
ATOM     19  C   UNL     1      -2.984  -0.310   1.486  1.00  0.00     0.024 A 
ATOM     20  C   UNL     1      -4.442   0.665  -0.594  1.00  0.00     0.046 A 
ATOM     21  C   UNL     1      -2.347   0.597  -2.155  1.00  0.00     0.039 C 
ATOM     22  C   UNL     1      -2.276  -0.812   2.561  1.00  0.00     0.012 A 
ATOM     23  C   UNL     1      -4.367  -0.327   1.521  1.00  0.00     0.073 A 
ATOM     24  N   UNL     1      -5.044   0.178   0.441  1.00  0.00    -0.252 NA
ATOM     25  C   UNL     1      -4.811   1.315  -1.816  1.00  0.00     0.056 C 
ATOM     26  C   UNL     1      -3.338  -0.489  -2.582  1.00  0.00     0.005 C 
ATOM     27  C   UNL     1      -2.968  -1.321   3.646  1.00  0.00     0.001 A 
ATOM     28  C   UNL     1      -5.090  -0.825   2.582  1.00  0.00     0.029 A 
ATOM     29  C   UNL     1      -4.649   0.369  -2.984  1.00  0.00     0.007 C 
ATOM     30  C   UNL     1      -4.362  -1.325   3.653  1.00  0.00     0.002 A 
ENDBRANCH  15  17
ENDBRANCH  14  15
ENDBRANCH  13  14
ENDBRANCH   1  13
TORSDOF 6
