REMARK SMILES COc1cc2c(cc1OC)S[C@H](C(O)=CCc1cc[n+](Cc3coc([N+](=O)[O-])c3)cc1)C2
REMARK SMILES IDX 16 1 15 2 13 3 14 4 12 6 32 7 11 8 5 9 6 10 4 11 7 12 3 13
REMARK SMILES IDX 8 14 2 15 1 16 9 17 10 18 17 19 18 20 31 21 19 22 30 23
REMARK SMILES IDX 20 24 21 25 22 26 23 27 29 28 24 29 25 30 26 31 27 32 28 33
REMARK H PARENT 14 5
ROOT
ATOM      1  C   UNL     1       0.584  -0.817  -0.664  1.00  0.00     0.067 C 
ENDROOT
BRANCH   1   2
ATOM      2  C   UNL     1      -0.352   0.360  -0.644  1.00  0.00     0.020 C 
BRANCH   2   3
ATOM      3  C   UNL     1      -0.500   1.231  -1.657  1.00  0.00     0.102 C 
BRANCH   3   4
ATOM      4  O   UNL     1       0.326   1.094  -2.769  1.00  0.00    -0.511 OA
ATOM      5  H   UNL     1      -0.166   1.466  -3.532  1.00  0.00     0.293 HD
ENDBRANCH   3   4
BRANCH   3   6
ATOM      6  C   UNL     1      -1.500   2.386  -1.735  1.00  0.00     0.121 C 
ATOM      7  C   UNL     1      -2.492   2.581  -0.567  1.00  0.00     0.059 C 
ATOM      8  S   UNL     1      -2.557   2.096  -3.211  1.00  0.00    -0.114 SA
ATOM      9  C   UNL     1      -3.703   1.740  -0.865  1.00  0.00    -0.029 A 
ATOM     10  C   UNL     1      -3.871   1.449  -2.219  1.00  0.00     0.015 A 
ATOM     11  C   UNL     1      -4.642   1.315   0.073  1.00  0.00     0.055 A 
ATOM     12  C   UNL     1      -4.962   0.723  -2.660  1.00  0.00     0.065 A 
ATOM     13  C   UNL     1      -5.753   0.570  -0.350  1.00  0.00     0.161 A 
ATOM     14  C   UNL     1      -5.914   0.294  -1.728  1.00  0.00     0.161 A 
BRANCH  13  15
ATOM     15  O   UNL     1      -6.694   0.056   0.501  1.00  0.00    -0.493 OA
ATOM     16  C   UNL     1      -6.610   0.397   1.878  1.00  0.00     0.278 C 
ENDBRANCH  13  15
BRANCH  14  17
ATOM     17  O   UNL     1      -6.937  -0.443  -2.271  1.00  0.00    -0.493 OA
ATOM     18  C   UNL     1      -8.238  -0.080  -1.816  1.00  0.00     0.278 C 
ENDBRANCH  14  17
ENDBRANCH   3   6
ENDBRANCH   2   3
ENDBRANCH   1   2
BRANCH   1  19
ATOM     19  C   UNL     1       1.876  -0.539   0.068  1.00  0.00    -0.032 A 
ATOM     20  C   UNL     1       2.906   0.157  -0.568  1.00  0.00     0.075 A 
ATOM     21  C   UNL     1       2.065  -0.947   1.387  1.00  0.00     0.075 A 
ATOM     22  C   UNL     1       4.088   0.416   0.111  1.00  0.00     0.308 A 
ATOM     23  C   UNL     1       3.267  -0.667   2.029  1.00  0.00     0.308 A 
ATOM     24  N   UNL     1       4.254   0.003   1.389  1.00  0.00    -0.201 N 
BRANCH  24  25
ATOM     25  C   UNL     1       5.524   0.294   2.098  1.00  0.00     0.397 C 
BRANCH  25  26
ATOM     26  C   UNL     1       6.454  -0.864   1.980  1.00  0.00     0.063 A 
ATOM     27  C   UNL     1       6.660  -1.865   2.916  1.00  0.00     0.213 A 
ATOM     28  C   UNL     1       7.334  -1.173   0.895  1.00  0.00     0.143 A 
ATOM     29  O   UNL     1       7.581  -2.763   2.477  1.00  0.00    -0.409 OA
ATOM     30  C   UNL     1       7.986  -2.331   1.255  1.00  0.00     0.433 A 
BRANCH  30  31
ATOM     31  N   UNL     1       8.972  -3.119   0.582  1.00  0.00     0.102 N 
ATOM     32  O   UNL     1       9.312  -2.709  -0.536  1.00  0.00    -0.256 OA
ATOM     33  O   UNL     1       9.393  -4.129   1.153  1.00  0.00    -0.256 OA
ENDBRANCH  30  31
ENDBRANCH  25  26
ENDBRANCH  24  25
ENDBRANCH   1  19
TORSDOF 10
