REMARK SMILES COc1cc2c(cc1OC)C(=O)[C@H](Cc1cc[n+](Cc3ccccc3)cc1Br)C2
REMARK SMILES IDX 14 1 13 2 3 3 4 4 8 5 5 6 7 7 6 8 29 9 11 10 12 11 2 12 1 13
REMARK SMILES IDX 9 14 10 15 15 16 16 17 27 18 17 19 26 20 18 21 28 22 19 23
REMARK SMILES IDX 20 24 21 25 25 26 22 27 24 28 23 29
REMARK H PARENT
ROOT
ATOM      1  C   UNL     1       0.100  -2.000   0.891  1.00  0.00     0.049 C 
ENDROOT
BRANCH   1   2
ATOM      2  C   UNL     1       0.908  -0.698   0.874  1.00  0.00     0.070 C 
ATOM      3  C   UNL     1       4.872   0.765  -1.308  1.00  0.00     0.161 A 
ATOM      4  C   UNL     1       3.483   0.647  -1.508  1.00  0.00     0.055 A 
ATOM      5  C   UNL     1       5.475   0.270  -0.122  1.00  0.00     0.161 A 
ATOM      6  C   UNL     1       2.701   0.080  -0.519  1.00  0.00    -0.032 A 
ATOM      7  C   UNL     1       4.667  -0.298   0.871  1.00  0.00     0.062 A 
ATOM      8  C   UNL     1       3.304  -0.372   0.642  1.00  0.00     0.025 A 
ATOM      9  C   UNL     1       1.227  -0.162  -0.541  1.00  0.00     0.048 C 
ATOM     10  C   UNL     1       2.268  -0.914   1.510  1.00  0.00     0.167 C 
ATOM     11  O   UNL     1       2.479  -1.436   2.590  1.00  0.00    -0.294 OA
BRANCH   3  12
ATOM     12  O   UNL     1       5.506   1.340  -2.381  1.00  0.00    -0.493 OA
ATOM     13  C   UNL     1       6.702   2.062  -2.117  1.00  0.00     0.278 C 
ENDBRANCH   3  12
BRANCH   5  14
ATOM     14  O   UNL     1       6.838   0.353  -0.022  1.00  0.00    -0.493 OA
ATOM     15  C   UNL     1       7.465  -0.214   1.123  1.00  0.00     0.278 C 
ENDBRANCH   5  14
ENDBRANCH   1   2
BRANCH   1  16
ATOM     16  C   UNL     1      -1.374  -1.800   0.594  1.00  0.00    -0.021 A 
ATOM     17  C   UNL     1      -2.163  -1.180   1.573  1.00  0.00     0.075 A 
ATOM     18  C   UNL     1      -2.009  -2.215  -0.580  1.00  0.00     0.085 A 
ATOM     19  C   UNL     1      -3.526  -0.986   1.369  1.00  0.00     0.308 A 
ATOM     20  C   UNL     1      -3.380  -2.000  -0.744  1.00  0.00     0.324 A 
ATOM     21  N   UNL     1      -4.110  -1.393   0.220  1.00  0.00    -0.200 N 
ATOM     22  Br  UNL     1      -1.109  -3.087  -2.001  1.00  0.00    -0.044 Br
BRANCH  21  23
ATOM     23  C   UNL     1      -5.567  -1.178   0.022  1.00  0.00     0.393 C 
BRANCH  23  24
ATOM     24  C   UNL     1      -5.862   0.279  -0.215  1.00  0.00     0.017 A 
ATOM     25  C   UNL     1      -6.558   1.028   0.748  1.00  0.00     0.010 A 
ATOM     26  C   UNL     1      -5.441   0.914  -1.394  1.00  0.00     0.010 A 
ATOM     27  C   UNL     1      -6.816   2.383   0.538  1.00  0.00     0.001 A 
ATOM     28  C   UNL     1      -5.701   2.270  -1.598  1.00  0.00     0.001 A 
ATOM     29  C   UNL     1      -6.386   3.004  -0.632  1.00  0.00     0.000 A 
ENDBRANCH  23  24
ENDBRANCH  21  23
ENDBRANCH   1  16
TORSDOF 6
