REMARK SMILES CC(C)(C)c1cccc(C(=O)C(F)F)c1
REMARK SMILES IDX 5 1 6 2 7 3 8 4 9 5 15 6 2 7 1 8 3 9 4 10 10 11 11 12 12 13
REMARK SMILES IDX 13 14 14 15
REMARK H PARENT
ROOT
ATOM      1  C   UNL     1      -0.559  -0.073   0.311  1.00  0.00    -0.042 A 
ATOM      2  C   UNL     1      -0.465  -0.458   1.662  1.00  0.00     0.004 A 
ATOM      3  C   UNL     1       0.771  -0.608   2.294  1.00  0.00     0.001 A 
ATOM      4  C   UNL     1       1.952  -0.376   1.593  1.00  0.00     0.012 A 
ATOM      5  C   UNL     1       1.899   0.007   0.251  1.00  0.00     0.024 A 
ATOM      6  C   UNL     1       0.647   0.155  -0.377  1.00  0.00     0.016 A 
ENDROOT
BRANCH   1   7
ATOM      7  C   UNL     1      -1.939   0.082  -0.353  1.00  0.00    -0.013 C 
ATOM      8  C   UNL     1      -2.757   1.156   0.395  1.00  0.00     0.016 C 
ATOM      9  C   UNL     1      -2.695  -1.262  -0.299  1.00  0.00     0.016 C 
ATOM     10  C   UNL     1      -1.875   0.510  -1.837  1.00  0.00     0.016 C 
ENDBRANCH   1   7
BRANCH   5  11
ATOM     11  C   UNL     1       3.131   0.270  -0.556  1.00  0.00     0.228 C 
ATOM     12  O   UNL     1       3.022   0.606  -1.737  1.00  0.00    -0.288 OA
BRANCH  11  13
ATOM     13  C   UNL     1       4.484   0.116   0.104  1.00  0.00     0.413 C 
ATOM     14  F   UNL     1       4.638   0.946   1.175  1.00  0.00    -0.201 F 
ATOM     15  F   UNL     1       4.692  -1.147   0.574  1.00  0.00    -0.201 F 
ENDBRANCH  11  13
ENDBRANCH   5  11
TORSDOF 3
