REMARK SMILES CC1=C[C@H]2Cc3[nH]c4cc(Cl)ccc4c(=N)c3[C@@H](C1)C2
REMARK SMILES IDX 7 1 6 2 17 3 15 4 14 5 13 6 12 7 10 8 11 9 9 10 8 11 18 12
REMARK SMILES IDX 19 13 2 14 1 15 3 16 4 17 5 18 20 19 16 21
REMARK H PARENT 7 20 16 22
ROOT
ATOM      1  N   UNL     1       1.819  -1.227  -1.669  1.00  0.00    -0.358 N 
ATOM      2  C   UNL     1       0.773  -0.962  -0.811  1.00  0.00     0.021 A 
ATOM      3  C   UNL     1       0.941  -0.443   0.428  1.00  0.00     0.000 A 
ATOM      4  C   UNL     1       2.342  -0.114   0.879  1.00  0.00     0.068 A 
ATOM      5  C   UNL     1       3.450  -0.380  -0.086  1.00  0.00     0.023 A 
ATOM      6  C   UNL     1       4.778  -0.094   0.259  1.00  0.00     0.014 A 
ATOM      7  C   UNL     1       5.805  -0.349  -0.650  1.00  0.00     0.021 A 
ATOM      8  C   UNL     1       5.500  -0.892  -1.897  1.00  0.00     0.043 A 
ATOM      9  Cl  UNL     1       6.766  -1.216  -3.018  1.00  0.00    -0.084 Cl
ATOM     10  C   UNL     1       4.180  -1.179  -2.246  1.00  0.00     0.047 A 
ATOM     11  C   UNL     1       3.142  -0.913  -1.345  1.00  0.00     0.049 A 
ATOM     12  C   UNL     1      -0.224  -0.195   1.374  1.00  0.00     0.028 C 
ATOM     13  C   UNL     1      -0.660   1.289   1.338  1.00  0.00     0.039 C 
ATOM     14  C   UNL     1      -1.526   1.641   0.143  1.00  0.00    -0.076 C 
ATOM     15  C   UNL     1      -1.793   3.103  -0.070  1.00  0.00     0.039 C 
ATOM     16  C   UNL     1      -2.013   0.693  -0.679  1.00  0.00    -0.024 C 
ATOM     17  C   UNL     1      -1.772  -0.788  -0.465  1.00  0.00     0.018 C 
ATOM     18  C   UNL     1      -0.615  -1.287  -1.351  1.00  0.00     0.062 C 
ATOM     19  C   UNL     1      -1.426  -1.072   0.999  1.00  0.00     0.017 C 
ATOM     20  H   UNL     1       1.602  -1.491  -2.622  1.00  0.00     0.166 HD
ENDROOT
BRANCH   4  21
ATOM     21  N   UNL     1       2.635   0.388   2.038  1.00  0.00    -0.300 NA
ATOM     22  H   UNL     1       1.810   0.540   2.617  1.00  0.00     0.188 HD
ENDBRANCH   4  21
TORSDOF 1
