REMARK SMILES CNC(=O)Oc1ccc2c(c1)SC[C@@H]1CC[N@H+](C)[C@H]21
REMARK SMILES IDX 5 1 6 2 16 3 17 4 15 5 19 6 14 7 9 8 13 9 10 10 8 11 12 12
REMARK SMILES IDX 11 13 7 14 18 15 3 17 2 18 4 19 1 20
REMARK H PARENT 17 16 2 21
ROOT
ATOM      1  O   UNL     1       3.427   0.159   1.143  1.00  0.00    -0.410 OA
ENDROOT
BRANCH   1   2
ATOM      2  C   UNL     1       2.126   0.018   0.656  1.00  0.00     0.133 A 
ATOM      3  C   UNL     1      -4.281  -0.258  -0.292  1.00  0.00     0.263 C 
ATOM      4  N   UNL     1      -2.959  -0.853   0.158  1.00  0.00    -0.331 N 
ATOM      5  C   UNL     1      -3.995   0.344  -1.654  1.00  0.00     0.072 C 
ATOM      6  C   UNL     1      -1.883  -0.385  -0.842  1.00  0.00     0.220 C 
ATOM      7  C   UNL     1      -2.537   0.788  -1.576  1.00  0.00     0.068 C 
ATOM      8  C   UNL     1      -0.496  -0.195  -0.297  1.00  0.00     0.023 A 
ATOM      9  C   UNL     1      -2.380   2.113  -0.843  1.00  0.00     0.085 C 
ATOM     10  C   UNL     1       0.121   1.065  -0.207  1.00  0.00     0.020 A 
ATOM     11  C   UNL     1       0.228  -1.340   0.108  1.00  0.00     0.015 A 
ATOM     12  S   UNL     1      -0.641   2.589  -0.733  1.00  0.00    -0.125 SA
ATOM     13  C   UNL     1       1.433   1.164   0.277  1.00  0.00     0.062 A 
ATOM     14  C   UNL     1       1.528  -1.234   0.597  1.00  0.00     0.048 A 
ATOM     15  C   UNL     1      -2.692  -0.613   1.617  1.00  0.00     0.333 C 
ATOM     16  H   UNL     1      -3.025  -1.872   0.044  1.00  0.00     0.348 HD
ENDBRANCH   1   2
BRANCH   1  17
ATOM     17  C   UNL     1       4.400  -0.286   0.257  1.00  0.00     0.412 C 
ATOM     18  N   UNL     1       5.635  -0.104   0.813  1.00  0.00    -0.324 N 
ATOM     19  O   UNL     1       4.194  -0.762  -0.851  1.00  0.00    -0.224 OA
ATOM     20  C   UNL     1       6.846  -0.351   0.076  1.00  0.00     0.146 C 
ATOM     21  H   UNL     1       5.672   0.417   1.677  1.00  0.00     0.166 HD
ENDBRANCH   1  17
TORSDOF 2
