REMARK SMILES CC(=O)Nc1ccc2c(CC[C@H]3CC[N@@H+](Cc4ccccc4)CC3)noc2c1
REMARK SMILES IDX 11 1 12 2 14 3 15 4 13 5 23 6 24 7 16 9 17 10 18 11 22 12
REMARK SMILES IDX 19 13 21 14 20 15 10 16 9 17 8 18 25 19 7 20 27 21 26 22
REMARK SMILES IDX 6 23 28 24 5 25 4 26 2 27 1 29 3 30
REMARK H PARENT 15 8 4 28
ROOT
ATOM      1  C   UNL     1      -1.818   1.102  -2.359  1.00  0.00     0.010 C 
ENDROOT
BRANCH   1   2
ATOM      2  C   UNL     1      -1.092   0.704  -1.050  1.00  0.00     0.000 C 
ATOM      3  C   UNL     1      -2.853   1.448   0.652  1.00  0.00     0.262 C 
ATOM      4  N   UNL     1      -2.992   0.011   1.084  1.00  0.00    -0.331 N 
ATOM      5  C   UNL     1      -1.452   1.672   0.093  1.00  0.00     0.065 C 
ATOM      6  C   UNL     1      -2.761  -0.950  -0.055  1.00  0.00     0.262 C 
ATOM      7  C   UNL     1      -1.354  -0.742  -0.600  1.00  0.00     0.065 C 
ATOM      8  H   UNL     1      -2.239  -0.162   1.763  1.00  0.00     0.348 HD
BRANCH   4   9
ATOM      9  C   UNL     1      -4.266  -0.268   1.859  1.00  0.00     0.299 C 
BRANCH   9  10
ATOM     10  C   UNL     1      -5.550  -0.095   1.095  1.00  0.00     0.006 A 
ATOM     11  C   UNL     1      -6.208   1.145   1.071  1.00  0.00     0.009 A 
ATOM     12  C   UNL     1      -6.112  -1.170   0.388  1.00  0.00     0.009 A 
ATOM     13  C   UNL     1      -7.388   1.309   0.345  1.00  0.00     0.001 A 
ATOM     14  C   UNL     1      -7.293  -1.002  -0.338  1.00  0.00     0.001 A 
ATOM     15  C   UNL     1      -7.927   0.237  -0.362  1.00  0.00     0.000 A 
ENDBRANCH   9  10
ENDBRANCH   4   9
ENDBRANCH   1   2
BRANCH   1  16
ATOM     16  C   UNL     1      -1.492   0.249  -3.595  1.00  0.00     0.061 C 
BRANCH  16  17
ATOM     17  C   UNL     1      -0.045   0.226  -3.943  1.00  0.00     0.091 A 
ATOM     18  C   UNL     1       0.693   1.155  -4.718  1.00  0.00     0.045 A 
ATOM     19  N   UNL     1       0.732  -0.768  -3.490  1.00  0.00    -0.084 NA
ATOM     20  C   UNL     1       0.448   2.345  -5.416  1.00  0.00     0.016 A 
ATOM     21  C   UNL     1       1.977   0.645  -4.710  1.00  0.00     0.169 A 
ATOM     22  O   UNL     1       2.002  -0.501  -3.979  1.00  0.00    -0.356 OA
ATOM     23  C   UNL     1       1.523   2.967  -6.074  1.00  0.00     0.027 A 
ATOM     24  C   UNL     1       3.063   1.233  -5.356  1.00  0.00     0.076 A 
ATOM     25  C   UNL     1       2.817   2.428  -6.051  1.00  0.00     0.045 A 
BRANCH  25  26
ATOM     26  N   UNL     1       3.921   3.020  -6.702  1.00  0.00    -0.326 N 
ATOM     27  C   UNL     1       3.941   4.203  -7.421  1.00  0.00     0.221 C 
ATOM     28  H   UNL     1       4.800   2.521  -6.635  1.00  0.00     0.169 HD
ATOM     29  C   UNL     1       5.304   4.498  -7.997  1.00  0.00     0.114 C 
ATOM     30  O   UNL     1       2.997   4.958  -7.619  1.00  0.00    -0.275 OA
ENDBRANCH  25  26
ENDBRANCH  16  17
ENDBRANCH   1  16
TORSDOF 6
