REMARK SMILES CCC1=C[C@@H]2Cc3nc4cc(Cl)ccc4c(N)c3[C@H](C1)C2
REMARK SMILES IDX 3 1 4 2 5 3 6 4 7 5 8 6 9 7 10 8 11 9 12 10 13 11 14 12
REMARK SMILES IDX 15 13 16 14 18 15 19 16 20 17 21 18 2 19 1 20 17 21
REMARK H PARENT 17 22 17 23
ROOT
ATOM      1  C   UNL     1      -1.465  -0.578  -1.747  1.00  0.00    -0.074 C 
ATOM      2  C   UNL     1      -1.659   0.717  -1.430  1.00  0.00    -0.024 C 
ATOM      3  C   UNL     1      -1.323   1.304  -0.075  1.00  0.00     0.018 C 
ATOM      4  C   UNL     1       0.029   2.027  -0.114  1.00  0.00     0.064 C 
ATOM      5  C   UNL     1       1.224   1.100  -0.060  1.00  0.00     0.047 A 
ATOM      6  N   UNL     1       2.415   1.701  -0.291  1.00  0.00    -0.252 NA
ATOM      7  C   UNL     1       3.536   0.982  -0.183  1.00  0.00     0.074 A 
ATOM      8  C   UNL     1       4.739   1.643  -0.380  1.00  0.00     0.049 A 
ATOM      9  C   UNL     1       5.957   0.982  -0.258  1.00  0.00     0.043 A 
ATOM     10  Cl  UNL     1       7.428   1.839  -0.506  1.00  0.00    -0.084 Cl
ATOM     11  C   UNL     1       5.990  -0.364   0.071  1.00  0.00     0.021 A 
ATOM     12  C   UNL     1       4.790  -1.047   0.267  1.00  0.00     0.014 A 
ATOM     13  C   UNL     1       3.538  -0.394   0.132  1.00  0.00     0.024 A 
ATOM     14  C   UNL     1       2.276  -1.035   0.292  1.00  0.00     0.046 A 
ATOM     15  C   UNL     1       1.101  -0.257   0.265  1.00  0.00     0.001 A 
ATOM     16  C   UNL     1      -0.279  -0.854   0.529  1.00  0.00     0.028 C 
ATOM     17  C   UNL     1      -0.847  -1.535  -0.739  1.00  0.00     0.039 C 
ATOM     18  C   UNL     1      -1.265   0.220   1.001  1.00  0.00     0.017 C 
ENDROOT
BRANCH   1  19
ATOM     19  C   UNL     1      -1.806  -1.208  -3.082  1.00  0.00     0.027 C 
ATOM     20  C   UNL     1      -2.445  -0.307  -4.131  1.00  0.00     0.008 C 
ENDBRANCH   1  19
BRANCH  14  21
ATOM     21  N   UNL     1       2.215  -2.397   0.680  1.00  0.00    -0.398 N 
ATOM     22  H   UNL     1       1.327  -2.845   0.485  1.00  0.00     0.156 HD
ATOM     23  H   UNL     1       2.979  -2.954   0.315  1.00  0.00     0.156 HD
ENDBRANCH  14  21
TORSDOF 2
