REMARK SMILES N=c1c2c([nH]c3cc(Cl)ccc13)CCCC2
REMARK SMILES IDX 5 1 4 2 3 3 2 4 12 5 11 6 10 7 8 8 9 9 7 10 6 11 16 12 15 13
REMARK SMILES IDX 14 14 13 15 1 17
REMARK H PARENT 5 16 1 18
ROOT
ATOM      1  N   UNL     1       0.458  -1.422  -0.056  1.00  0.00    -0.358 N 
ATOM      2  C   UNL     1      -0.737  -0.737  -0.005  1.00  0.00     0.020 A 
ATOM      3  C   UNL     1      -0.815   0.608   0.090  1.00  0.00    -0.003 A 
ATOM      4  C   UNL     1       0.467   1.395   0.161  1.00  0.00     0.068 A 
ATOM      5  C   UNL     1       1.744   0.634   0.023  1.00  0.00     0.023 A 
ATOM      6  C   UNL     1       2.975   1.303   0.017  1.00  0.00     0.014 A 
ATOM      7  C   UNL     1       4.160   0.577  -0.102  1.00  0.00     0.021 A 
ATOM      8  C   UNL     1       4.109  -0.811  -0.208  1.00  0.00     0.043 A 
ATOM      9  Cl  UNL     1       5.571  -1.710  -0.345  1.00  0.00    -0.084 Cl
ATOM     10  C   UNL     1       2.885  -1.483  -0.200  1.00  0.00     0.047 A 
ATOM     11  C   UNL     1       1.690  -0.762  -0.096  1.00  0.00     0.049 A 
ATOM     12  C   UNL     1      -2.119   1.359   0.112  1.00  0.00     0.039 C 
ATOM     13  C   UNL     1      -3.330   0.507  -0.271  1.00  0.00     0.005 C 
ATOM     14  C   UNL     1      -3.256  -0.865   0.380  1.00  0.00     0.007 C 
ATOM     15  C   UNL     1      -1.985  -1.596  -0.051  1.00  0.00     0.054 C 
ATOM     16  H   UNL     1       0.433  -2.416  -0.248  1.00  0.00     0.166 HD
ENDROOT
BRANCH   4  17
ATOM     17  N   UNL     1       0.518   2.679   0.335  1.00  0.00    -0.300 NA
ATOM     18  H   UNL     1      -0.411   3.090   0.432  1.00  0.00     0.188 HD
ENDBRANCH   4  17
TORSDOF 1
