REMARK SMILES O=C(Nc1ccc2c(c1)CN(C(=O)c1cccc(Cl)c1)C(=O)C2)c1ccccc1
REMARK SMILES IDX 4 1 5 2 6 3 7 4 8 5 9 6 10 7 11 8 21 9 22 10 23 11 3 12 2 13
REMARK SMILES IDX 1 14 24 16 25 17 29 18 26 19 28 20 27 21 12 22 13 23 14 24
REMARK SMILES IDX 15 25 20 26 16 27 18 28 17 29 19 30
REMARK H PARENT 3 15
ROOT
ATOM      1  C   UNL     1      -1.870   0.942  -0.406  1.00  0.00     0.041 A 
ATOM      2  C   UNL     1      -1.473   2.218  -0.825  1.00  0.00     0.026 A 
ATOM      3  C   UNL     1      -0.191   2.437  -1.336  1.00  0.00     0.007 A 
ATOM      4  C   UNL     1       0.717   1.380  -1.423  1.00  0.00    -0.033 A 
ATOM      5  C   UNL     1       0.329   0.102  -1.012  1.00  0.00    -0.022 A 
ATOM      6  C   UNL     1      -0.964  -0.115  -0.513  1.00  0.00     0.032 A 
ATOM      7  C   UNL     1       1.312  -1.022  -1.173  1.00  0.00     0.164 C 
ATOM      8  N   UNL     1       2.674  -0.589  -0.892  1.00  0.00    -0.274 N 
ATOM      9  C   UNL     1       3.135   0.570  -1.517  1.00  0.00     0.234 C 
ATOM     10  O   UNL     1       4.329   0.828  -1.688  1.00  0.00    -0.274 OA
ATOM     11  C   UNL     1       2.089   1.565  -2.007  1.00  0.00     0.136 C 
ENDROOT
BRANCH   1  12
ATOM     12  N   UNL     1      -3.184   0.806   0.088  1.00  0.00    -0.322 N 
ATOM     13  C   UNL     1      -3.764  -0.329   0.627  1.00  0.00     0.255 C 
ATOM     14  O   UNL     1      -3.219  -1.406   0.833  1.00  0.00    -0.269 OA
ATOM     15  H   UNL     1      -3.732   1.655   0.115  1.00  0.00     0.170 HD
BRANCH  13  16
ATOM     16  C   UNL     1      -5.192  -0.172   1.025  1.00  0.00     0.040 A 
ATOM     17  C   UNL     1      -5.645  -0.842   2.168  1.00  0.00     0.014 A 
ATOM     18  C   UNL     1      -6.087   0.601   0.272  1.00  0.00     0.014 A 
ATOM     19  C   UNL     1      -6.975  -0.717   2.572  1.00  0.00     0.001 A 
ATOM     20  C   UNL     1      -7.417   0.722   0.680  1.00  0.00     0.001 A 
ATOM     21  C   UNL     1      -7.858   0.068   1.831  1.00  0.00     0.000 A 
ENDBRANCH  13  16
ENDBRANCH   1  12
BRANCH   8  22
ATOM     22  C   UNL     1       3.561  -1.616  -0.568  1.00  0.00     0.260 C 
ATOM     23  O   UNL     1       3.360  -2.792  -0.872  1.00  0.00    -0.269 OA
BRANCH  22  24
ATOM     24  C   UNL     1       4.795  -1.280   0.195  1.00  0.00     0.041 A 
ATOM     25  C   UNL     1       5.947  -2.050  -0.017  1.00  0.00     0.014 A 
ATOM     26  C   UNL     1       4.802  -0.262   1.156  1.00  0.00     0.034 A 
ATOM     27  C   UNL     1       7.112  -1.782   0.705  1.00  0.00     0.002 A 
ATOM     28  C   UNL     1       5.971  -0.002   1.869  1.00  0.00     0.041 A 
ATOM     29  C   UNL     1       7.125  -0.754   1.647  1.00  0.00     0.020 A 
ATOM     30  Cl  UNL     1       5.987   1.254   3.047  1.00  0.00    -0.084 Cl
ENDBRANCH  22  24
ENDBRANCH   8  22
TORSDOF 4
