REMARK SMILES COc1ccccc1C(=O)Nc1ccc2c(c1)CN(C(=O)c1cccc(C)c1)C(=O)C2
REMARK SMILES IDX 12 1 13 2 14 3 15 4 16 5 17 6 18 7 19 8 29 9 30 10 31 11
REMARK SMILES IDX 11 12 9 13 10 14 8 16 3 17 4 18 5 19 7 20 6 21 2 22 1 23
REMARK SMILES IDX 20 24 21 25 22 26 23 27 28 28 24 29 26 30 25 31 27 32
REMARK H PARENT 11 15
ROOT
ATOM      1  C   UNL     1      -1.986  -0.818   0.105  1.00  0.00     0.041 A 
ATOM      2  C   UNL     1      -1.836  -1.680   1.199  1.00  0.00     0.026 A 
ATOM      3  C   UNL     1      -0.602  -2.269   1.484  1.00  0.00     0.007 A 
ATOM      4  C   UNL     1       0.507  -1.988   0.684  1.00  0.00    -0.033 A 
ATOM      5  C   UNL     1       0.368  -1.129  -0.410  1.00  0.00    -0.022 A 
ATOM      6  C   UNL     1      -0.877  -0.553  -0.700  1.00  0.00     0.032 A 
ATOM      7  C   UNL     1       1.569  -0.895  -1.282  1.00  0.00     0.164 C 
ATOM      8  N   UNL     1       2.795  -0.827  -0.500  1.00  0.00    -0.274 N 
ATOM      9  C   UNL     1       3.042  -1.846   0.419  1.00  0.00     0.234 C 
ATOM     10  O   UNL     1       4.165  -2.138   0.838  1.00  0.00    -0.274 OA
ATOM     11  C   UNL     1       1.841  -2.634   0.928  1.00  0.00     0.136 C 
ENDROOT
BRANCH   1  12
ATOM     12  N   UNL     1      -3.268  -0.275  -0.111  1.00  0.00    -0.322 N 
ATOM     13  C   UNL     1      -3.677   0.589  -1.106  1.00  0.00     0.259 C 
ATOM     14  O   UNL     1      -2.953   1.034  -1.993  1.00  0.00    -0.269 OA
ATOM     15  H   UNL     1      -3.987  -0.552   0.549  1.00  0.00     0.170 HD
BRANCH  13  16
ATOM     16  C   UNL     1      -5.127   1.008  -1.087  1.00  0.00     0.082 A 
ATOM     17  C   UNL     1      -6.086   0.580  -0.141  1.00  0.00     0.131 A 
ATOM     18  C   UNL     1      -7.405   1.052  -0.244  1.00  0.00     0.047 A 
ATOM     19  C   UNL     1      -7.777   1.933  -1.262  1.00  0.00     0.004 A 
ATOM     20  C   UNL     1      -5.525   1.897  -2.106  1.00  0.00     0.018 A 
ATOM     21  C   UNL     1      -6.839   2.356  -2.194  1.00  0.00     0.001 A 
BRANCH  17  22
ATOM     22  O   UNL     1      -5.676  -0.286   0.843  1.00  0.00    -0.496 OA
ATOM     23  C   UNL     1      -6.643  -0.726   1.792  1.00  0.00     0.278 C 
ENDBRANCH  17  22
ENDBRANCH  13  16
ENDBRANCH   1  12
BRANCH   8  24
ATOM     24  C   UNL     1       3.857  -0.179  -1.133  1.00  0.00     0.260 C 
ATOM     25  O   UNL     1       3.924  -0.054  -2.356  1.00  0.00    -0.269 OA
BRANCH  24  26
ATOM     26  C   UNL     1       4.939   0.407  -0.292  1.00  0.00     0.040 A 
ATOM     27  C   UNL     1       4.675   0.929   0.981  1.00  0.00     0.014 A 
ATOM     28  C   UNL     1       6.232   0.496  -0.825  1.00  0.00     0.017 A 
ATOM     29  C   UNL     1       5.707   1.501   1.725  1.00  0.00     0.001 A 
ATOM     30  C   UNL     1       7.268   1.083  -0.087  1.00  0.00    -0.050 A 
ATOM     31  C   UNL     1       6.998   1.570   1.198  1.00  0.00     0.003 A 
ATOM     32  C   UNL     1       8.660   1.133  -0.643  1.00  0.00     0.044 C 
ENDBRANCH  24  26
ENDBRANCH   8  24
TORSDOF 5
