REMARK SMILES COc1ccc([C@@H]2C=C(c3cc(F)cc(F)c3)NN2c2ccc(S(N)(=O)=O)cc2)cc1OC
REMARK SMILES IDX 20 1 21 2 22 3 23 4 28 5 29 6 19 7 18 8 9 9 8 10 7 11 10 13
REMARK SMILES IDX 11 14 17 15 12 16 15 17 14 18 13 19 16 20 6 21 5 22 30 23
REMARK SMILES IDX 4 24 31 25 3 26 32 27 33 28 2 29 1 30 24 31 26 32 27 33
REMARK SMILES IDX 25 34
REMARK H PARENT 18 12 25 35 25 36
ROOT
ATOM      1  C   UNL     1       1.923  -0.439   0.287  1.00  0.00     0.058 A 
ATOM      2  C   UNL     1       3.276  -0.057   0.205  1.00  0.00     0.029 A 
ATOM      3  C   UNL     1       4.316  -0.974   0.396  1.00  0.00     0.024 A 
ATOM      4  C   UNL     1       4.009  -2.308   0.654  1.00  0.00     0.082 A 
ATOM      5  C   UNL     1       2.682  -2.724   0.737  1.00  0.00     0.024 A 
ATOM      6  C   UNL     1       1.653  -1.794   0.546  1.00  0.00     0.029 A 
ENDROOT
BRANCH   1   7
ATOM      7  N   UNL     1       0.899   0.505   0.071  1.00  0.00    -0.276 N 
ATOM      8  N   UNL     1       1.163   1.864  -0.074  1.00  0.00    -0.297 N 
ATOM      9  C   UNL     1       0.097   2.622   0.385  1.00  0.00     0.060 C 
ATOM     10  C   UNL     1      -0.824   1.821   0.943  1.00  0.00     0.033 C 
ATOM     11  C   UNL     1      -0.393   0.369   0.826  1.00  0.00     0.161 C 
ATOM     12  H   UNL     1       1.489   2.153  -0.997  1.00  0.00     0.188 HD
BRANCH   9  13
ATOM     13  C   UNL     1       0.056   4.077   0.231  1.00  0.00     0.005 A 
ATOM     14  C   UNL     1       1.244   4.824   0.229  1.00  0.00     0.049 A 
ATOM     15  C   UNL     1      -1.158   4.758   0.063  1.00  0.00     0.049 A 
ATOM     16  C   UNL     1       1.204   6.208   0.069  1.00  0.00     0.126 A 
ATOM     17  C   UNL     1      -1.172   6.142  -0.095  1.00  0.00     0.126 A 
ATOM     18  C   UNL     1       0.003   6.879  -0.093  1.00  0.00     0.078 A 
ATOM     19  F   UNL     1       2.350   6.901   0.073  1.00  0.00    -0.207 F 
ATOM     20  F   UNL     1      -2.343   6.772  -0.256  1.00  0.00    -0.207 F 
ENDBRANCH   9  13
BRANCH  11  21
ATOM     21  C   UNL     1      -1.432  -0.456   0.086  1.00  0.00    -0.016 A 
ATOM     22  C   UNL     1      -1.554  -0.418  -1.310  1.00  0.00     0.010 A 
ATOM     23  C   UNL     1      -2.330  -1.256   0.816  1.00  0.00     0.056 A 
ATOM     24  C   UNL     1      -2.531  -1.171  -1.965  1.00  0.00     0.051 A 
ATOM     25  C   UNL     1      -3.311  -2.017   0.168  1.00  0.00     0.161 A 
ATOM     26  C   UNL     1      -3.412  -1.974  -1.236  1.00  0.00     0.160 A 
BRANCH  25  27
ATOM     27  O   UNL     1      -4.216  -2.825   0.812  1.00  0.00    -0.493 OA
ATOM     28  C   UNL     1      -4.125  -2.931   2.225  1.00  0.00     0.278 C 
ENDBRANCH  25  27
BRANCH  26  29
ATOM     29  O   UNL     1      -4.400  -2.747  -1.795  1.00  0.00    -0.493 OA
ATOM     30  C   UNL     1      -4.536  -2.725  -3.208  1.00  0.00     0.278 C 
ENDBRANCH  26  29
ENDBRANCH  11  21
ENDBRANCH   1   7
BRANCH   4  31
ATOM     31  S   UNL     1       5.308  -3.488   0.901  1.00  0.00     0.238 S 
ATOM     32  O   UNL     1       6.547  -2.774   1.106  1.00  0.00    -0.207 OA
ATOM     33  O   UNL     1       4.834  -4.502   1.812  1.00  0.00    -0.207 OA
BRANCH  31  34
ATOM     34  N   UNL     1       5.431  -4.177  -0.630  1.00  0.00    -0.225 NA
ATOM     35  H   UNL     1       6.352  -3.960  -1.015  1.00  0.00     0.137 HD
ATOM     36  H   UNL     1       4.680  -3.897  -1.260  1.00  0.00     0.137 HD
ENDBRANCH  31  34
ENDBRANCH   4  31
TORSDOF 7
