REMARK SMILES COc1cc2c(cc1OC)C(=O)/C(=C/c1cc[n+](Cc3cccc([N+](=O)[O-])c3)cc1)C2
REMARK SMILES IDX 15 1 16 2 17 3 18 4 29 5 30 6 14 7 13 8 3 9 4 10 8 11 5 12
REMARK SMILES IDX 7 13 6 14 31 15 11 16 12 17 2 18 1 19 9 20 10 21 19 22 20 23
REMARK SMILES IDX 21 24 28 25 22 26 24 27 23 28 25 29 26 30 27 31
REMARK H PARENT
ROOT
ATOM      1  C   UNL     1       0.917  -0.501  -0.733  1.00  0.00    -0.013 A 
ATOM      2  C   UNL     1       1.332   0.150   0.425  1.00  0.00     0.079 A 
ATOM      3  C   UNL     1       2.495   0.912   0.404  1.00  0.00     0.309 A 
ATOM      4  N   UNL     1       3.230   1.023  -0.728  1.00  0.00    -0.201 N 
ATOM      5  C   UNL     1       2.842   0.396  -1.863  1.00  0.00     0.309 A 
ATOM      6  C   UNL     1       1.688  -0.379  -1.885  1.00  0.00     0.079 A 
ENDROOT
BRANCH   1   7
ATOM      7  C   UNL     1      -0.267  -1.360  -0.753  1.00  0.00     0.016 C 
BRANCH   7   8
ATOM      8  C   UNL     1      -1.517  -0.964  -0.476  1.00  0.00     0.005 C 
ATOM      9  C   UNL     1      -5.887   0.576   0.367  1.00  0.00     0.161 A 
ATOM     10  C   UNL     1      -4.561   1.035   0.319  1.00  0.00     0.055 A 
ATOM     11  C   UNL     1      -6.191  -0.789   0.099  1.00  0.00     0.161 A 
ATOM     12  C   UNL     1      -3.558   0.131   0.005  1.00  0.00    -0.028 A 
ATOM     13  C   UNL     1      -5.168  -1.688  -0.216  1.00  0.00     0.063 A 
ATOM     14  C   UNL     1      -3.875  -1.200  -0.254  1.00  0.00     0.030 A 
ATOM     15  C   UNL     1      -2.083   0.383  -0.100  1.00  0.00     0.076 C 
ATOM     16  C   UNL     1      -2.649  -1.939  -0.560  1.00  0.00     0.189 C 
ATOM     17  O   UNL     1      -2.567  -3.119  -0.836  1.00  0.00    -0.289 OA
BRANCH   9  18
ATOM     18  O   UNL     1      -6.966   1.373   0.667  1.00  0.00    -0.493 OA
ATOM     19  C   UNL     1      -6.730   2.748   0.929  1.00  0.00     0.278 C 
ENDBRANCH   9  18
BRANCH  11  20
ATOM     20  O   UNL     1      -7.519  -1.130   0.174  1.00  0.00    -0.493 OA
ATOM     21  C   UNL     1      -7.872  -2.483  -0.084  1.00  0.00     0.278 C 
ENDBRANCH  11  20
ENDBRANCH   7   8
ENDBRANCH   1   7
BRANCH   4  22
ATOM     22  C   UNL     1       4.468   1.845  -0.720  1.00  0.00     0.393 C 
BRANCH  22  23
ATOM     23  C   UNL     1       5.570   1.163   0.056  1.00  0.00     0.024 A 
ATOM     24  C   UNL     1       6.101   1.758   1.212  1.00  0.00     0.011 A 
ATOM     25  C   UNL     1       6.092  -0.071  -0.367  1.00  0.00     0.095 A 
ATOM     26  C   UNL     1       7.120   1.132   1.937  1.00  0.00     0.008 A 
ATOM     27  C   UNL     1       7.115  -0.696   0.367  1.00  0.00     0.269 A 
ATOM     28  C   UNL     1       7.630  -0.098   1.520  1.00  0.00     0.085 A 
BRANCH  27  29
ATOM     29  N   UNL     1       7.639  -1.993  -0.084  1.00  0.00     0.062 N 
ATOM     30  O   UNL     1       7.090  -2.510  -1.068  1.00  0.00    -0.258 OA
ATOM     31  O   UNL     1       8.584  -2.485   0.544  1.00  0.00    -0.258 OA
ENDBRANCH  27  29
ENDBRANCH  22  23
ENDBRANCH   4  22
TORSDOF 7
