REMARK SMILES COc1ccc([C@H](O)[C@H]([NH3+])C(=O)[O-])cc1OC
REMARK SMILES IDX 7 1 9 2 10 3 11 7 12 8 13 9 6 10 5 11 14 12 4 13 15 14 3 15
REMARK SMILES IDX 16 16 17 17 2 18 1 19 8 20
REMARK H PARENT 10 4 10 5 10 6 8 21
ROOT
ATOM      1  C   UNL     1      -2.211  -1.136  -0.561  1.00  0.00     0.208 C 
ENDROOT
BRANCH   1   2
ATOM      2  C   UNL     1      -2.929  -0.122  -1.460  1.00  0.00     0.261 C 
BRANCH   2   3
ATOM      3  N   UNL     1      -2.042   0.304  -2.628  1.00  0.00    -0.348 N 
ATOM      4  H   UNL     1      -1.996  -0.393  -3.368  1.00  0.00     0.345 HD
ATOM      5  H   UNL     1      -1.116   0.577  -2.286  1.00  0.00     0.345 HD
ATOM      6  H   UNL     1      -2.483   1.199  -2.924  1.00  0.00     0.345 HD
ENDBRANCH   2   3
BRANCH   2   7
ATOM      7  C   UNL     1      -3.482   1.116  -0.728  1.00  0.00     0.102 C 
ATOM      8  O   UNL     1      -3.336   2.152  -1.453  1.00  0.00    -0.544 OA
ATOM      9  O   UNL     1      -3.966   0.949   0.413  1.00  0.00    -0.544 OA
ENDBRANCH   2   7
ENDBRANCH   1   2
BRANCH   1  10
ATOM     10  C   UNL     1      -0.884  -0.653   0.000  1.00  0.00    -0.009 A 
ATOM     11  C   UNL     1      -0.861   0.137   1.153  1.00  0.00     0.011 A 
ATOM     12  C   UNL     1       0.340  -0.947  -0.618  1.00  0.00     0.057 A 
ATOM     13  C   UNL     1       0.344   0.642   1.656  1.00  0.00     0.051 A 
ATOM     14  C   UNL     1       1.555  -0.465  -0.108  1.00  0.00     0.161 A 
ATOM     15  C   UNL     1       1.563   0.364   1.025  1.00  0.00     0.160 A 
BRANCH  14  16
ATOM     16  O   UNL     1       2.639  -0.838  -0.862  1.00  0.00    -0.493 OA
ATOM     17  C   UNL     1       3.848  -1.071  -0.146  1.00  0.00     0.278 C 
ENDBRANCH  14  16
BRANCH  15  18
ATOM     18  O   UNL     1       2.764   0.874   1.437  1.00  0.00    -0.493 OA
ATOM     19  C   UNL     1       2.756   1.820   2.499  1.00  0.00     0.278 C 
ENDBRANCH  15  18
ENDBRANCH   1  10
BRANCH   1  20
ATOM     20  O   UNL     1      -1.979  -2.319  -1.353  1.00  0.00    -0.382 OA
ATOM     21  H   UNL     1      -1.650  -2.994  -0.729  1.00  0.00     0.211 HD
ENDBRANCH   1  20
TORSDOF 7
