REMARK SMILES CNC(=O)Oc1cccc(C[N@@H+](C)CCCOc2ccc(C(=O)c3ccccc3)cc2)c1
REMARK SMILES IDX 14 1 12 2 13 3 11 5 10 6 9 7 32 8 8 9 6 10 7 11 5 12 3 13
REMARK SMILES IDX 2 14 4 15 1 16 15 18 16 19 17 20 18 21 19 22 31 23 20 24
REMARK SMILES IDX 30 25 21 26 22 27 23 28 24 29 25 30 29 31 26 32 28 33 27 34
REMARK H PARENT 12 4 2 17
ROOT
ATOM      1  C   UNL     1       1.093  -0.023   0.213  1.00  0.00     0.265 C 
ENDROOT
BRANCH   1   2
ATOM      2  N   UNL     1       2.449   0.364  -0.345  1.00  0.00    -0.334 N 
ATOM      3  C   UNL     1       2.974  -0.621  -1.360  1.00  0.00     0.333 C 
ATOM      4  H   UNL     1       2.349   1.265  -0.830  1.00  0.00     0.348 HD
BRANCH   2   5
ATOM      5  C   UNL     1       3.452   0.607   0.771  1.00  0.00     0.298 C 
BRANCH   5   6
ATOM      6  C   UNL     1       4.704   1.300   0.310  1.00  0.00     0.010 A 
ATOM      7  C   UNL     1       4.693   2.667  -0.014  1.00  0.00     0.010 A 
ATOM      8  C   UNL     1       5.905   0.584   0.195  1.00  0.00     0.056 A 
ATOM      9  C   UNL     1       5.861   3.304  -0.442  1.00  0.00     0.004 A 
ATOM     10  C   UNL     1       7.072   1.238  -0.201  1.00  0.00     0.133 A 
ATOM     11  C   UNL     1       7.052   2.588  -0.541  1.00  0.00     0.047 A 
BRANCH  10  12
ATOM     12  O   UNL     1       8.303   0.572  -0.341  1.00  0.00    -0.410 OA
BRANCH  12  13
ATOM     13  C   UNL     1       8.714  -0.301   0.661  1.00  0.00     0.412 C 
ATOM     14  N   UNL     1       9.938  -0.815   0.341  1.00  0.00    -0.324 N 
ATOM     15  O   UNL     1       8.083  -0.571   1.674  1.00  0.00    -0.224 OA
ATOM     16  C   UNL     1      10.685  -1.631   1.261  1.00  0.00     0.146 C 
ATOM     17  H   UNL     1      10.409  -0.397  -0.450  1.00  0.00     0.166 HD
ENDBRANCH  12  13
ENDBRANCH  10  12
ENDBRANCH   5   6
ENDBRANCH   2   5
ENDBRANCH   1   2
BRANCH   1  18
ATOM     18  C   UNL     1      -0.002   0.208  -0.816  1.00  0.00     0.103 C 
BRANCH  18  19
ATOM     19  C   UNL     1      -1.384  -0.084  -0.233  1.00  0.00     0.235 C 
BRANCH  19  20
ATOM     20  O   UNL     1      -2.327   0.150  -1.274  1.00  0.00    -0.493 OA
BRANCH  20  21
ATOM     21  C   UNL     1      -3.631  -0.174  -1.024  1.00  0.00     0.119 A 
ATOM     22  C   UNL     1      -4.162  -0.547   0.213  1.00  0.00     0.047 A 
ATOM     23  C   UNL     1      -4.471  -0.112  -2.139  1.00  0.00     0.047 A 
ATOM     24  C   UNL     1      -5.522  -0.863   0.330  1.00  0.00     0.016 A 
ATOM     25  C   UNL     1      -5.826  -0.428  -2.029  1.00  0.00     0.016 A 
ATOM     26  C   UNL     1      -6.359  -0.792  -0.789  1.00  0.00     0.023 A 
BRANCH  26  27
ATOM     27  C   UNL     1      -7.796  -1.153  -0.715  1.00  0.00     0.193 C 
ATOM     28  O   UNL     1      -8.309  -1.741  -1.664  1.00  0.00    -0.289 OA
BRANCH  27  29
ATOM     29  C   UNL     1      -8.619  -0.830   0.477  1.00  0.00     0.022 A 
ATOM     30  C   UNL     1      -8.428   0.351   1.204  1.00  0.00     0.012 A 
ATOM     31  C   UNL     1      -9.638  -1.717   0.844  1.00  0.00     0.012 A 
ATOM     32  C   UNL     1      -9.232   0.623   2.313  1.00  0.00     0.001 A 
ATOM     33  C   UNL     1     -10.438  -1.441   1.953  1.00  0.00     0.001 A 
ATOM     34  C   UNL     1     -10.231  -0.275   2.689  1.00  0.00     0.000 A 
ENDBRANCH  27  29
ENDBRANCH  26  27
ENDBRANCH  20  21
ENDBRANCH  19  20
ENDBRANCH  18  19
ENDBRANCH   1  18
TORSDOF 11
