REMARK SMILES CNC(=O)Oc1ccc2c(c1)[C@]1(C)CCO[C@@H]1N2C
REMARK SMILES IDX 5 1 3 2 2 3 1 4 4 6 6 7 7 8 11 9 8 10 10 11 9 12 12 13 18 14
REMARK SMILES IDX 14 15 17 16 15 17 16 18 13 19 19 20
REMARK H PARENT 2 5
ROOT
ATOM      1  O   UNL     1       2.913   1.102   0.186  1.00  0.00    -0.410 OA
ENDROOT
BRANCH   1   2
ATOM      2  C   UNL     1       3.535  -0.084   0.548  1.00  0.00     0.412 C 
ATOM      3  N   UNL     1       4.800   0.193   0.991  1.00  0.00    -0.324 N 
ATOM      4  C   UNL     1       5.651  -0.820   1.550  1.00  0.00     0.146 C 
ATOM      5  H   UNL     1       5.032   1.171   1.095  1.00  0.00     0.166 HD
ATOM      6  O   UNL     1       3.048  -1.204   0.497  1.00  0.00    -0.224 OA
ENDBRANCH   1   2
BRANCH   1   7
ATOM      7  C   UNL     1       1.591   1.000  -0.269  1.00  0.00     0.133 A 
ATOM      8  C   UNL     1       1.310   1.526  -1.536  1.00  0.00     0.049 A 
ATOM      9  C   UNL     1       0.584   0.479   0.541  1.00  0.00     0.054 A 
ATOM     10  C   UNL     1       0.001   1.501  -2.029  1.00  0.00     0.030 A 
ATOM     11  C   UNL     1      -0.706   0.456   0.028  1.00  0.00    -0.010 A 
ATOM     12  C   UNL     1      -1.006   0.954  -1.247  1.00  0.00     0.043 A 
ATOM     13  C   UNL     1      -1.960  -0.081   0.666  1.00  0.00     0.042 C 
ATOM     14  N   UNL     1      -2.371   0.854  -1.555  1.00  0.00    -0.348 N 
ATOM     15  C   UNL     1      -1.898  -1.562   0.994  1.00  0.00     0.045 C 
ATOM     16  C   UNL     1      -2.938  -0.038  -0.536  1.00  0.00     0.225 C 
ATOM     17  C   UNL     1      -2.134  -2.215  -0.351  1.00  0.00     0.164 C 
ATOM     18  O   UNL     1      -3.069  -1.381  -1.043  1.00  0.00    -0.357 OA
ATOM     19  C   UNL     1      -2.396   0.790   1.839  1.00  0.00     0.021 C 
ATOM     20  C   UNL     1      -2.755   0.653  -2.939  1.00  0.00     0.146 C 
ENDBRANCH   1   7
TORSDOF 2
