REMARK SMILES N=c1c2c([nH]c3cccc(Cl)c13)CCCC2
REMARK SMILES IDX 5 1 4 2 3 3 2 4 12 5 10 6 11 7 9 8 8 9 7 10 6 11 16 12 15 13
REMARK SMILES IDX 14 14 13 15 1 17
REMARK H PARENT 5 16 1 18
ROOT
ATOM      1  N   UNL     1       0.390   1.326   0.560  1.00  0.00    -0.358 N 
ATOM      2  C   UNL     1      -0.774   0.600   0.487  1.00  0.00     0.020 A 
ATOM      3  C   UNL     1      -0.828  -0.630  -0.057  1.00  0.00    -0.003 A 
ATOM      4  C   UNL     1       0.434  -1.243  -0.595  1.00  0.00     0.070 A 
ATOM      5  C   UNL     1       1.687  -0.410  -0.578  1.00  0.00     0.042 A 
ATOM      6  C   UNL     1       2.926  -0.821  -1.102  1.00  0.00     0.052 A 
ATOM      7  Cl  UNL     1       3.202  -2.348  -1.869  1.00  0.00    -0.084 Cl
ATOM      8  C   UNL     1       4.043   0.024  -1.030  1.00  0.00     0.021 A 
ATOM      9  C   UNL     1       3.946   1.278  -0.438  1.00  0.00     0.004 A 
ATOM     10  C   UNL     1       2.726   1.698   0.081  1.00  0.00     0.027 A 
ATOM     11  C   UNL     1       1.594   0.872   0.008  1.00  0.00     0.049 A 
ATOM     12  C   UNL     1      -2.093  -1.441  -0.165  1.00  0.00     0.039 C 
ATOM     13  C   UNL     1      -3.360  -0.630   0.110  1.00  0.00     0.005 C 
ATOM     14  C   UNL     1      -3.168   0.288   1.308  1.00  0.00     0.007 C 
ATOM     15  C   UNL     1      -2.008   1.255   1.070  1.00  0.00     0.054 C 
ATOM     16  H   UNL     1       0.334   2.282   0.891  1.00  0.00     0.166 HD
ENDROOT
BRANCH   4  17
ATOM     17  N   UNL     1       0.372  -2.462  -1.040  1.00  0.00    -0.300 NA
ATOM     18  H   UNL     1       1.283  -2.785  -1.381  1.00  0.00     0.188 HD
ENDBRANCH   4  17
TORSDOF 1
