REMARK SMILES O=C(Nc1cncc(OC[C@H]2CC[N@H+](Cc3ccccc3)CC2)c1)c1cc[nH]c2nccc1-2
REMARK SMILES IDX 9 1 8 2 4 3 5 4 24 5 6 6 7 7 3 8 2 9 1 10 25 12 28 13 27 14
REMARK SMILES IDX 29 15 26 16 30 17 33 18 31 19 32 20 10 22 11 23 23 24 12 25
REMARK SMILES IDX 22 26 13 27 14 28 15 30 16 31 17 32 21 33 18 34 20 35 19 36
REMARK H PARENT 3 11 28 21 14 29
ROOT
ATOM      1  O   UNL     1       0.457   2.057   0.239  1.00  0.00    -0.492 OA
ENDROOT
BRANCH   1   2
ATOM      2  C   UNL     1      -0.776   2.648   0.248  1.00  0.00     0.139 A 
ATOM      3  C   UNL     1      -3.174   2.267   0.216  1.00  0.00     0.063 A 
ATOM      4  C   UNL     1      -3.332   3.649   0.261  1.00  0.00     0.137 A 
ATOM      5  C   UNL     1      -1.865   1.774   0.213  1.00  0.00     0.075 A 
ATOM      6  N   UNL     1      -2.297   4.526   0.298  1.00  0.00    -0.259 NA
ATOM      7  C   UNL     1      -1.049   4.008   0.290  1.00  0.00     0.157 A 
BRANCH   3   8
ATOM      8  N   UNL     1      -4.229   1.331   0.183  1.00  0.00    -0.320 N 
ATOM      9  C   UNL     1      -5.581   1.615   0.147  1.00  0.00     0.256 C 
ATOM     10  O   UNL     1      -6.092   2.724   0.076  1.00  0.00    -0.269 OA
ATOM     11  H   UNL     1      -3.968   0.353   0.153  1.00  0.00     0.170 HD
BRANCH   9  12
ATOM     12  C   UNL     1      -6.432   0.393   0.124  1.00  0.00     0.052 A 
ATOM     13  N   UNL     1      -8.054  -1.885  -0.059  1.00  0.00    -0.346 N 
ATOM     14  C   UNL     1      -8.168  -0.896  -1.007  1.00  0.00     0.085 A 
ATOM     15  C   UNL     1      -7.198  -1.738   0.998  1.00  0.00     0.138 A 
ATOM     16  C   UNL     1      -7.409   0.216  -0.959  1.00  0.00     0.032 A 
ATOM     17  N   UNL     1      -6.982  -2.543   2.005  1.00  0.00    -0.239 NA
ATOM     18  C   UNL     1      -6.337  -0.523   1.101  1.00  0.00     0.032 A 
ATOM     19  C   UNL     1      -6.030  -1.897   2.782  1.00  0.00     0.114 A 
ATOM     20  C   UNL     1      -5.606  -0.714   2.310  1.00  0.00     0.033 A 
ATOM     21  H   UNL     1      -8.680  -2.680  -0.076  1.00  0.00     0.167 HD
ENDBRANCH   9  12
ENDBRANCH   3   8
ENDBRANCH   1   2
BRANCH   1  22
ATOM     22  C   UNL     1       1.583   2.935   0.247  1.00  0.00     0.233 C 
BRANCH  22  23
ATOM     23  C   UNL     1       2.875   2.100   0.215  1.00  0.00     0.038 C 
ATOM     24  C   UNL     1       2.987   1.195   1.450  1.00  0.00     0.069 C 
ATOM     25  C   UNL     1       2.962   1.251  -1.062  1.00  0.00     0.069 C 
ATOM     26  C   UNL     1       4.247   0.342   1.413  1.00  0.00     0.262 C 
ATOM     27  C   UNL     1       4.220   0.394  -1.091  1.00  0.00     0.262 C 
ATOM     28  N   UNL     1       4.269  -0.473   0.145  1.00  0.00    -0.331 N 
ATOM     29  H   UNL     1       3.423  -1.057   0.134  1.00  0.00     0.348 HD
BRANCH  28  30
ATOM     30  C   UNL     1       5.437  -1.440   0.133  1.00  0.00     0.299 C 
BRANCH  30  31
ATOM     31  C   UNL     1       5.302  -2.515  -0.911  1.00  0.00     0.006 A 
ATOM     32  C   UNL     1       4.362  -3.546  -0.753  1.00  0.00     0.009 A 
ATOM     33  C   UNL     1       6.099  -2.492  -2.066  1.00  0.00     0.009 A 
ATOM     34  C   UNL     1       4.219  -4.527  -1.735  1.00  0.00     0.001 A 
ATOM     35  C   UNL     1       5.952  -3.476  -3.044  1.00  0.00     0.001 A 
ATOM     36  C   UNL     1       5.011  -4.490  -2.880  1.00  0.00     0.000 A 
ENDBRANCH  30  31
ENDBRANCH  28  30
ENDBRANCH  22  23
ENDBRANCH   1  22
TORSDOF 7
