REMARK SMILES O=C(C[NH2+]CCCc1ccccc1)Nc1ccc2nc3n(c(=O)c2c1)CCC3
REMARK SMILES IDX 4 1 3 4 2 5 14 6 1 7 15 9 16 10 25 11 17 12 24 13 18 14
REMARK SMILES IDX 22 15 19 16 21 17 20 18 26 19 28 20 27 21 23 22 5 23 6 24
REMARK SMILES IDX 7 25 8 26 9 27 13 28 10 29 12 30 11 31
REMARK H PARENT 4 2 4 3 14 8
ROOT
ATOM      1  N   UNL     1      -2.872   0.092   0.120  1.00  0.00    -0.338 N 
ATOM      2  H   UNL     1      -2.508   0.234   1.081  1.00  0.00     0.346 HD
ATOM      3  H   UNL     1      -3.848  -0.204   0.243  1.00  0.00     0.346 HD
ENDROOT
BRANCH   1   4
ATOM      4  C   UNL     1      -2.006  -1.003  -0.457  1.00  0.00     0.362 C 
BRANCH   4   5
ATOM      5  C   UNL     1      -0.564  -0.855   0.034  1.00  0.00     0.279 C 
ATOM      6  N   UNL     1       0.359  -1.618  -0.649  1.00  0.00    -0.321 N 
ATOM      7  O   UNL     1      -0.358  -0.088   0.974  1.00  0.00    -0.268 OA
ATOM      8  H   UNL     1       0.030  -2.243  -1.379  1.00  0.00     0.170 HD
BRANCH   6   9
ATOM      9  C   UNL     1       1.755  -1.659  -0.425  1.00  0.00     0.042 A 
ATOM     10  C   UNL     1       2.502  -2.541  -1.219  1.00  0.00     0.028 A 
ATOM     11  C   UNL     1       2.420  -0.879   0.521  1.00  0.00     0.042 A 
ATOM     12  C   UNL     1       3.890  -2.645  -1.066  1.00  0.00     0.031 A 
ATOM     13  C   UNL     1       3.812  -0.988   0.665  1.00  0.00     0.068 A 
ATOM     14  C   UNL     1       4.561  -1.870  -0.122  1.00  0.00     0.078 A 
ATOM     15  C   UNL     1       4.531  -0.163   1.664  1.00  0.00     0.261 A 
ATOM     16  N   UNL     1       5.955  -2.015   0.000  1.00  0.00    -0.234 NA
ATOM     17  N   UNL     1       5.891  -0.342   1.670  1.00  0.00    -0.296 N 
ATOM     18  C   UNL     1       6.536  -1.260   0.868  1.00  0.00     0.112 A 
ATOM     19  C   UNL     1       6.806   0.304   2.574  1.00  0.00     0.128 C 
ATOM     20  C   UNL     1       8.000  -1.256   1.186  1.00  0.00     0.077 C 
ATOM     21  C   UNL     1       8.163   0.066   1.931  1.00  0.00     0.030 C 
ATOM     22  O   UNL     1       3.926   0.601   2.407  1.00  0.00    -0.269 OA
ENDBRANCH   6   9
ENDBRANCH   4   5
ENDBRANCH   1   4
BRANCH   1  23
ATOM     23  C   UNL     1      -2.801   1.430  -0.533  1.00  0.00     0.261 C 
BRANCH  23  24
ATOM     24  C   UNL     1      -3.439   1.458  -1.923  1.00  0.00     0.066 C 
BRANCH  24  25
ATOM     25  C   UNL     1      -4.840   0.845  -2.047  1.00  0.00     0.041 C 
BRANCH  25  26
ATOM     26  C   UNL     1      -5.822   1.290  -0.995  1.00  0.00    -0.048 A 
ATOM     27  C   UNL     1      -6.550   0.339  -0.264  1.00  0.00     0.004 A 
ATOM     28  C   UNL     1      -6.052   2.651  -0.749  1.00  0.00     0.004 A 
ATOM     29  C   UNL     1      -7.450   0.741   0.724  1.00  0.00     0.000 A 
ATOM     30  C   UNL     1      -6.952   3.050   0.241  1.00  0.00     0.000 A 
ATOM     31  C   UNL     1      -7.644   2.095   0.982  1.00  0.00     0.000 A 
ENDBRANCH  25  26
ENDBRANCH  24  25
ENDBRANCH  23  24
ENDBRANCH   1  23
TORSDOF 7
