REMARK SMILES Nc1c2c(nc3ccccc13)CCCC2
REMARK SMILES IDX 1 1 2 4 3 5 11 6 4 7 15 8 10 9 6 10 5 11 12 12 14 13 9 14
REMARK SMILES IDX 7 15 13 16 8 17
REMARK H PARENT 1 2 1 3
ROOT
ATOM      1  N   UNL     1       0.355  -2.501  -0.631  1.00  0.00    -0.398 N 
ATOM      2  H   UNL     1       0.356  -3.000   0.257  1.00  0.00     0.156 HD
ATOM      3  H   UNL     1       1.126  -2.825  -1.206  1.00  0.00     0.156 HD
ENDROOT
BRANCH   1   4
ATOM      4  C   UNL     1       0.401  -1.101  -0.396  1.00  0.00     0.046 A 
ATOM      5  C   UNL     1      -0.798  -0.443  -0.069  1.00  0.00    -0.003 A 
ATOM      6  C   UNL     1       1.638  -0.411  -0.280  1.00  0.00     0.023 A 
ATOM      7  C   UNL     1      -0.732   0.917   0.234  1.00  0.00     0.046 A 
ATOM      8  C   UNL     1      -2.124  -1.161  -0.148  1.00  0.00     0.039 C 
ATOM      9  C   UNL     1       2.910  -1.004  -0.484  1.00  0.00     0.012 A 
ATOM     10  C   UNL     1       1.582   0.957   0.059  1.00  0.00     0.073 A 
ATOM     11  N   UNL     1       0.433   1.603   0.299  1.00  0.00    -0.252 NA
ATOM     12  C   UNL     1      -1.965   1.714   0.574  1.00  0.00     0.056 C 
ATOM     13  C   UNL     1      -3.282  -0.402   0.499  1.00  0.00     0.005 C 
ATOM     14  C   UNL     1       4.085  -0.260  -0.368  1.00  0.00     0.001 A 
ATOM     15  C   UNL     1       2.765   1.676   0.165  1.00  0.00     0.029 A 
ATOM     16  C   UNL     1      -3.256   1.063   0.088  1.00  0.00     0.007 C 
ATOM     17  C   UNL     1       4.012   1.086  -0.045  1.00  0.00     0.002 A 
ENDBRANCH   1   4
TORSDOF 1
