REMARK SMILES O=C(Nc1cncc(OC[C@H]2CC[N@@H+](Cc3ccccc3)CC2)c1)c1ccnc(NC(=O)C2CC2)c1
REMARK SMILES IDX 8 1 7 2 24 3 6 4 4 5 5 6 9 7 10 8 11 9 13 10 14 11 12 12
REMARK SMILES IDX 22 13 23 14 15 16 16 17 17 18 21 19 18 20 20 21 19 22 3 23
REMARK SMILES IDX 2 24 1 26 25 27 26 28 36 29 27 30 29 31 28 32 30 33 31 34
REMARK SMILES IDX 32 36 33 37 34 38 35 39
REMARK H PARENT 14 15 3 25 30 35
ROOT
ATOM      1  C   UNL     1      -1.056   1.914  -0.358  1.00  0.00     0.139 A 
ATOM      2  C   UNL     1      -0.128   1.504  -1.304  1.00  0.00     0.157 A 
ATOM      3  C   UNL     1      -0.629   2.768   0.657  1.00  0.00     0.075 A 
ATOM      4  N   UNL     1       1.174   1.848  -1.271  1.00  0.00    -0.259 NA
ATOM      5  C   UNL     1       0.713   3.156   0.726  1.00  0.00     0.063 A 
ATOM      6  C   UNL     1       1.568   2.667  -0.261  1.00  0.00     0.137 A 
ENDROOT
BRANCH   1   7
ATOM      7  O   UNL     1      -2.380   1.578  -0.397  1.00  0.00    -0.492 OA
BRANCH   7   8
ATOM      8  C   UNL     1      -2.611   0.166  -0.406  1.00  0.00     0.233 C 
BRANCH   8   9
ATOM      9  C   UNL     1      -3.184  -0.292  -1.764  1.00  0.00     0.038 C 
ATOM     10  C   UNL     1      -4.910  -1.994  -0.949  1.00  0.00     0.262 C 
ATOM     11  N   UNL     1      -5.988  -1.111  -1.522  1.00  0.00    -0.331 N 
ATOM     12  C   UNL     1      -3.610  -1.769  -1.719  1.00  0.00     0.069 C 
ATOM     13  C   UNL     1      -5.625   0.353  -1.456  1.00  0.00     0.262 C 
ATOM     14  C   UNL     1      -4.352   0.579  -2.257  1.00  0.00     0.069 C 
ATOM     15  H   UNL     1      -6.059  -1.349  -2.519  1.00  0.00     0.348 HD
BRANCH  11  16
ATOM     16  C   UNL     1      -7.372  -1.415  -0.974  1.00  0.00     0.299 C 
BRANCH  16  17
ATOM     17  C   UNL     1      -7.616  -1.006   0.454  1.00  0.00     0.006 A 
ATOM     18  C   UNL     1      -8.150   0.262   0.745  1.00  0.00     0.009 A 
ATOM     19  C   UNL     1      -7.321  -1.874   1.517  1.00  0.00     0.009 A 
ATOM     20  C   UNL     1      -8.366   0.656   2.067  1.00  0.00     0.001 A 
ATOM     21  C   UNL     1      -7.541  -1.476   2.839  1.00  0.00     0.001 A 
ATOM     22  C   UNL     1      -8.060  -0.211   3.113  1.00  0.00     0.000 A 
ENDBRANCH  16  17
ENDBRANCH  11  16
ENDBRANCH   8   9
ENDBRANCH   7   8
ENDBRANCH   1   7
BRANCH   5  23
ATOM     23  N   UNL     1       1.105   3.996   1.793  1.00  0.00    -0.320 N 
ATOM     24  C   UNL     1       2.363   4.539   1.982  1.00  0.00     0.255 C 
ATOM     25  H   UNL     1       0.377   4.273   2.441  1.00  0.00     0.170 HD
ATOM     26  O   UNL     1       3.320   4.434   1.226  1.00  0.00    -0.269 OA
BRANCH  24  27
ATOM     27  C   UNL     1       2.523   5.340   3.223  1.00  0.00     0.045 A 
ATOM     28  C   UNL     1       1.981   4.907   4.433  1.00  0.00     0.034 A 
ATOM     29  C   UNL     1       3.272   6.517   3.168  1.00  0.00     0.061 A 
ATOM     30  C   UNL     1       2.200   5.697   5.543  1.00  0.00     0.114 A 
ATOM     31  C   UNL     1       3.432   7.245   4.334  1.00  0.00     0.133 A 
ATOM     32  N   UNL     1       2.899   6.851   5.513  1.00  0.00    -0.239 NA
BRANCH  31  33
ATOM     33  N   UNL     1       4.149   8.437   4.431  1.00  0.00    -0.310 N 
ATOM     34  C   UNL     1       4.786   9.129   3.435  1.00  0.00     0.228 C 
ATOM     35  H   UNL     1       4.171   8.796   5.374  1.00  0.00     0.171 HD
ATOM     36  O   UNL     1       4.814   8.831   2.250  1.00  0.00    -0.274 OA
BRANCH  34  37
ATOM     37  C   UNL     1       5.506  10.369   3.864  1.00  0.00     0.079 C 
ATOM     38  C   UNL     1       6.234  10.467   5.185  1.00  0.00     0.014 C 
ATOM     39  C   UNL     1       4.993  11.281   4.954  1.00  0.00     0.014 C 
ENDBRANCH  34  37
ENDBRANCH  31  33
ENDBRANCH  24  27
ENDBRANCH   5  23
TORSDOF 9
