REMARK SMILES CC1=C[C@@H]2Cc3nc4cc(Cl)ccc4c(N)c3[C@H](C1)C2
REMARK SMILES IDX 15 1 17 2 6 3 7 4 8 5 9 6 10 7 11 8 12 9 13 10 14 11 5 12
REMARK SMILES IDX 4 13 3 14 2 15 1 16 19 17 18 18 20 19 16 20
REMARK H PARENT 16 21 16 22
ROOT
ATOM      1  C   UNL     1      -0.548   0.418  -0.717  1.00  0.00     0.046 A 
ATOM      2  C   UNL     1       0.017   0.407   0.572  1.00  0.00     0.001 A 
ATOM      3  C   UNL     1      -0.603  -0.375   1.551  1.00  0.00     0.047 A 
ATOM      4  N   UNL     1      -1.748  -1.063   1.328  1.00  0.00    -0.252 NA
ATOM      5  C   UNL     1      -2.317  -1.003   0.119  1.00  0.00     0.074 A 
ATOM      6  C   UNL     1      -3.503  -1.699  -0.065  1.00  0.00     0.049 A 
ATOM      7  C   UNL     1      -4.176  -1.673  -1.282  1.00  0.00     0.043 A 
ATOM      8  Cl  UNL     1      -5.646  -2.546  -1.470  1.00  0.00    -0.084 Cl
ATOM      9  C   UNL     1      -3.670  -0.941  -2.346  1.00  0.00     0.021 A 
ATOM     10  C   UNL     1      -2.477  -0.238  -2.182  1.00  0.00     0.014 A 
ATOM     11  C   UNL     1      -1.774  -0.260  -0.952  1.00  0.00     0.024 A 
ATOM     12  C   UNL     1      -0.065  -0.465   2.962  1.00  0.00     0.064 C 
ATOM     13  C   UNL     1       1.351   0.108   3.124  1.00  0.00     0.018 C 
ATOM     14  C   UNL     1       2.390  -0.863   2.605  1.00  0.00    -0.024 C 
ATOM     15  C   UNL     1       2.950  -0.753   1.385  1.00  0.00    -0.076 C 
ATOM     16  C   UNL     1       3.992  -1.712   0.891  1.00  0.00     0.039 C 
ATOM     17  C   UNL     1       2.546   0.347   0.422  1.00  0.00     0.039 C 
ATOM     18  C   UNL     1       1.309   1.157   0.881  1.00  0.00     0.028 C 
ATOM     19  C   UNL     1       1.425   1.445   2.382  1.00  0.00     0.017 C 
ENDROOT
BRANCH   1  20
ATOM     20  N   UNL     1       0.017   1.282  -1.692  1.00  0.00    -0.398 N 
ATOM     21  H   UNL     1      -0.332   2.230  -1.561  1.00  0.00     0.156 HD
ATOM     22  H   UNL     1      -0.166   0.978  -2.642  1.00  0.00     0.156 HD
ENDBRANCH   1  20
TORSDOF 1
