REMARK SMILES N=c1c2c([nH]c3ccccc13)CCCC2
REMARK SMILES IDX 5 1 4 2 3 3 2 4 11 5 10 6 9 7 8 8 7 9 6 10 15 11 14 12 13 13
REMARK SMILES IDX 12 14 1 16
REMARK H PARENT 5 15 1 17
ROOT
ATOM      1  N   UNL     1       0.411   1.302  -0.627  1.00  0.00    -0.358 N 
ATOM      2  C   UNL     1      -0.773   0.733  -0.218  1.00  0.00     0.020 A 
ATOM      3  C   UNL     1      -0.855  -0.528   0.249  1.00  0.00    -0.003 A 
ATOM      4  C   UNL     1       0.396  -1.358   0.319  1.00  0.00     0.068 A 
ATOM      5  C   UNL     1       1.687  -0.689  -0.043  1.00  0.00     0.023 A 
ATOM      6  C   UNL     1       2.924  -1.341   0.066  1.00  0.00     0.012 A 
ATOM      7  C   UNL     1       4.101  -0.680  -0.293  1.00  0.00     0.001 A 
ATOM      8  C   UNL     1       4.051   0.630  -0.764  1.00  0.00     0.002 A 
ATOM      9  C   UNL     1       2.824   1.286  -0.870  1.00  0.00     0.027 A 
ATOM     10  C   UNL     1       1.638   0.641  -0.498  1.00  0.00     0.048 A 
ATOM     11  C   UNL     1      -2.135  -1.168   0.717  1.00  0.00     0.039 C 
ATOM     12  C   UNL     1      -3.276  -0.168   0.911  1.00  0.00     0.005 C 
ATOM     13  C   UNL     1      -3.322   0.834  -0.234  1.00  0.00     0.007 C 
ATOM     14  C   UNL     1      -2.006   1.605  -0.333  1.00  0.00     0.054 C 
ATOM     15  H   UNL     1       0.416   2.291  -0.845  1.00  0.00     0.166 HD
ENDROOT
BRANCH   4  16
ATOM     16  N   UNL     1       0.302  -2.603   0.680  1.00  0.00    -0.300 NA
ATOM     17  H   UNL     1       1.200  -3.083   0.679  1.00  0.00     0.188 HD
ENDBRANCH   4  16
TORSDOF 1
