REMARK SMILES Oc1ccc([C@@H]2CC(c3c4ccccc4cc4ccccc34)=NN2)c(O)c1
REMARK SMILES IDX 2 1 3 2 4 3 5 4 25 5 27 6 1 7 26 9 6 11 7 12 24 13 8 14
REMARK SMILES IDX 23 15 9 17 10 18 22 19 11 20 15 21 21 22 17 23 12 24 14 25
REMARK SMILES IDX 16 26 20 27 18 28 13 29 19 30
REMARK H PARENT 1 8 26 10 24 16
ROOT
ATOM      1  C   UNL     1       5.537   1.327  -1.017  1.00  0.00     0.119 A 
ATOM      2  C   UNL     1       5.005   1.406   0.265  1.00  0.00     0.047 A 
ATOM      3  C   UNL     1       3.859   0.670   0.578  1.00  0.00     0.013 A 
ATOM      4  C   UNL     1       3.243  -0.154  -0.381  1.00  0.00     0.018 A 
ATOM      5  C   UNL     1       3.800  -0.198  -1.667  1.00  0.00     0.124 A 
ATOM      6  C   UNL     1       4.943   0.532  -1.989  1.00  0.00     0.092 A 
ENDROOT
BRANCH   1   7
ATOM      7  O   UNL     1       6.654   2.027  -1.366  1.00  0.00    -0.508 OA
ATOM      8  H   UNL     1       6.959   2.529  -0.592  1.00  0.00     0.293 HD
ENDBRANCH   1   7
BRANCH   5   9
ATOM      9  O   UNL     1       3.194  -0.972  -2.618  1.00  0.00    -0.507 OA
ATOM     10  H   UNL     1       3.705  -0.904  -3.442  1.00  0.00     0.293 HD
ENDBRANCH   5   9
BRANCH   4  11
ATOM     11  C   UNL     1       1.994  -0.941  -0.069  1.00  0.00     0.138 C 
ATOM     12  C   UNL     1       0.717  -0.233  -0.501  1.00  0.00     0.090 C 
ATOM     13  N   UNL     1       1.774  -1.174   1.358  1.00  0.00    -0.302 N 
ATOM     14  C   UNL     1      -0.159  -0.611   0.659  1.00  0.00     0.071 C 
ATOM     15  N   UNL     1       0.444  -1.136   1.683  1.00  0.00    -0.184 NA
ATOM     16  H   UNL     1       2.314  -1.885   1.848  1.00  0.00     0.184 HD
BRANCH  14  17
ATOM     17  C   UNL     1      -1.606  -0.364   0.596  1.00  0.00     0.013 A 
ATOM     18  C   UNL     1      -2.440  -1.357   0.017  1.00  0.00    -0.009 A 
ATOM     19  C   UNL     1      -2.103   0.878   1.073  1.00  0.00    -0.009 A 
ATOM     20  C   UNL     1      -1.982  -2.618  -0.441  1.00  0.00     0.009 A 
ATOM     21  C   UNL     1      -3.816  -1.071  -0.106  1.00  0.00    -0.017 A 
ATOM     22  C   UNL     1      -1.304   1.878   1.679  1.00  0.00     0.009 A 
ATOM     23  C   UNL     1      -3.484   1.131   0.933  1.00  0.00    -0.017 A 
ATOM     24  C   UNL     1      -2.853  -3.550  -1.009  1.00  0.00     0.001 A 
ATOM     25  C   UNL     1      -4.680  -2.018  -0.682  1.00  0.00     0.009 A 
ATOM     26  C   UNL     1      -4.314   0.162   0.347  1.00  0.00     0.017 A 
ATOM     27  C   UNL     1      -1.851   3.084   2.120  1.00  0.00     0.001 A 
ATOM     28  C   UNL     1      -4.021   2.351   1.381  1.00  0.00     0.009 A 
ATOM     29  C   UNL     1      -4.202  -3.248  -1.132  1.00  0.00     0.001 A 
ATOM     30  C   UNL     1      -3.211   3.321   1.968  1.00  0.00     0.001 A 
ENDBRANCH  14  17
ENDBRANCH   4  11
TORSDOF 4
