REMARK SMILES CN(C)C(=O)N[C@@H]1CCc2cc(O)ccc2C1
REMARK SMILES IDX 7 1 8 2 9 3 10 4 11 5 12 6 14 7 15 8 16 9 17 10 6 11 2 12
REMARK SMILES IDX 4 13 1 14 3 15 5 16 13 18
REMARK H PARENT 6 17 13 19
ROOT
ATOM      1  C   UNL     1       0.252  -0.445  -0.228  1.00  0.00     0.088 C 
ATOM      2  C   UNL     1      -0.543  -0.396  -1.533  1.00  0.00     0.030 C 
ATOM      3  C   UNL     1      -1.972  -0.880  -1.306  1.00  0.00     0.038 C 
ATOM      4  C   UNL     1      -2.637  -0.223  -0.123  1.00  0.00    -0.041 A 
ATOM      5  C   UNL     1      -4.034  -0.280  -0.008  1.00  0.00     0.050 A 
ATOM      6  C   UNL     1      -4.670   0.286   1.090  1.00  0.00     0.115 A 
ATOM      7  C   UNL     1      -3.939   0.911   2.092  1.00  0.00     0.046 A 
ATOM      8  C   UNL     1      -2.549   0.964   1.992  1.00  0.00     0.008 A 
ATOM      9  C   UNL     1      -1.885   0.390   0.895  1.00  0.00    -0.043 A 
ATOM     10  C   UNL     1      -0.381   0.496   0.813  1.00  0.00     0.060 C 
ENDROOT
BRANCH   1  11
ATOM     11  N   UNL     1       1.649  -0.101  -0.488  1.00  0.00    -0.335 N 
ATOM     12  N   UNL     1       3.903   0.015   0.064  1.00  0.00    -0.331 N 
ATOM     13  C   UNL     1       2.628  -0.400   0.426  1.00  0.00     0.317 C 
ATOM     14  C   UNL     1       4.972  -0.259   1.009  1.00  0.00     0.148 C 
ATOM     15  C   UNL     1       4.324   0.201  -1.319  1.00  0.00     0.148 C 
ATOM     16  O   UNL     1       2.384  -0.981   1.480  1.00  0.00    -0.249 OA
ATOM     17  H   UNL     1       1.799   0.778  -0.959  1.00  0.00     0.165 HD
ENDBRANCH   1  11
BRANCH   6  18
ATOM     18  O   UNL     1      -6.030   0.206   1.147  1.00  0.00    -0.508 OA
ATOM     19  H   UNL     1      -6.328   0.622   1.973  1.00  0.00     0.293 HD
ENDBRANCH   6  18
TORSDOF 2
