REMARK SMILES COc1cccc([C@@H]2C=C(c3cc(F)ccc3F)NN2c2ccc(S(N)(=O)=O)cc2)c1OC
REMARK SMILES IDX 21 1 22 2 23 3 24 4 29 5 30 6 20 7 19 8 10 9 9 10 8 11 11 13
REMARK SMILES IDX 12 14 17 15 13 16 16 17 15 18 18 19 14 20 7 21 6 22 31 23
REMARK SMILES IDX 5 24 3 25 4 26 32 27 33 28 2 29 1 30 25 31 27 32 28 33 26 34
REMARK H PARENT 19 12 26 35 26 36
ROOT
ATOM      1  C   UNL     1       1.757  -0.280  -0.047  1.00  0.00     0.058 A 
ATOM      2  C   UNL     1       1.669  -1.522   0.603  1.00  0.00     0.029 A 
ATOM      3  C   UNL     1       2.732  -2.433   0.599  1.00  0.00     0.024 A 
ATOM      4  C   UNL     1       3.915  -2.103  -0.060  1.00  0.00     0.082 A 
ATOM      5  C   UNL     1       4.034  -0.887  -0.727  1.00  0.00     0.024 A 
ATOM      6  C   UNL     1       2.963   0.012  -0.712  1.00  0.00     0.029 A 
ENDROOT
BRANCH   1   7
ATOM      7  N   UNL     1       0.710   0.640  -0.050  1.00  0.00    -0.276 N 
ATOM      8  N   UNL     1       0.789   1.953  -0.478  1.00  0.00    -0.297 N 
ATOM      9  C   UNL     1      -0.392   2.622  -0.180  1.00  0.00     0.063 C 
ATOM     10  C   UNL     1      -1.282   1.760   0.342  1.00  0.00     0.033 C 
ATOM     11  C   UNL     1      -0.669   0.372   0.454  1.00  0.00     0.165 C 
ATOM     12  H   UNL     1       1.614   2.482  -0.182  1.00  0.00     0.188 HD
BRANCH   9  13
ATOM     13  C   UNL     1      -0.548   4.066  -0.382  1.00  0.00     0.038 A 
ATOM     14  C   UNL     1      -1.810   4.623  -0.634  1.00  0.00     0.052 A 
ATOM     15  C   UNL     1       0.556   4.935  -0.353  1.00  0.00     0.132 A 
ATOM     16  C   UNL     1      -1.946   5.995  -0.837  1.00  0.00     0.124 A 
ATOM     17  C   UNL     1       0.416   6.309  -0.557  1.00  0.00     0.043 A 
ATOM     18  C   UNL     1      -0.846   6.843  -0.800  1.00  0.00     0.042 A 
ATOM     19  F   UNL     1       1.788   4.458  -0.110  1.00  0.00    -0.206 F 
ATOM     20  F   UNL     1      -3.161   6.506  -1.076  1.00  0.00    -0.207 F 
ENDBRANCH   9  13
BRANCH  11  21
ATOM     21  C   UNL     1      -1.434  -0.645  -0.376  1.00  0.00     0.026 A 
ATOM     22  C   UNL     1      -1.319  -0.669  -1.781  1.00  0.00     0.010 A 
ATOM     23  C   UNL     1      -2.314  -1.553   0.239  1.00  0.00     0.166 A 
ATOM     24  C   UNL     1      -2.033  -1.589  -2.549  1.00  0.00     0.004 A 
ATOM     25  C   UNL     1      -2.983  -2.513  -0.536  1.00  0.00     0.161 A 
ATOM     26  C   UNL     1      -2.867  -2.513  -1.926  1.00  0.00     0.050 A 
BRANCH  23  27
ATOM     27  O   UNL     1      -2.429  -1.489   1.607  1.00  0.00    -0.492 OA
ATOM     28  C   UNL     1      -3.783  -1.375   2.046  1.00  0.00     0.278 C 
ENDBRANCH  23  27
BRANCH  25  29
ATOM     29  O   UNL     1      -3.798  -3.464   0.025  1.00  0.00    -0.493 OA
ATOM     30  C   UNL     1      -3.009  -4.566   0.478  1.00  0.00     0.278 C 
ENDBRANCH  25  29
ENDBRANCH  11  21
ENDBRANCH   1   7
BRANCH   4  31
ATOM     31  S   UNL     1       5.269  -3.244  -0.077  1.00  0.00     0.238 S 
ATOM     32  O   UNL     1       6.009  -3.061  -1.303  1.00  0.00    -0.207 OA
ATOM     33  O   UNL     1       4.791  -4.536   0.359  1.00  0.00    -0.207 OA
BRANCH  31  34
ATOM     34  N   UNL     1       6.213  -2.662   1.192  1.00  0.00    -0.225 NA
ATOM     35  H   UNL     1       5.898  -1.759   1.543  1.00  0.00     0.137 HD
ATOM     36  H   UNL     1       6.243  -3.369   1.929  1.00  0.00     0.137 HD
ENDBRANCH  31  34
ENDBRANCH   4  31
TORSDOF 7
