REMARK SMILES O=C1C(=NCCCNc2c3c(nc4cc(Cl)ccc24)CCCC3)C=C(O)c2c(O)cccc21
REMARK SMILES IDX 5 1 4 2 3 3 25 4 24 5 27 6 28 7 33 8 2 9 30 10 32 11 31 12
REMARK SMILES IDX 1 13 26 14 29 16 6 18 7 19 8 20 9 22 10 23 19 24 11 25 23 26
REMARK SMILES IDX 18 27 13 28 12 29 20 30 22 31 17 32 14 33 21 34 15 35 16 36
REMARK H PARENT 26 15 29 17 8 21
ROOT
ATOM      1  C   UNL     1       1.297   0.161  -0.233  1.00  0.00     0.145 C 
ENDROOT
BRANCH   1   2
ATOM      2  N   UNL     1       2.512  -0.082  -1.000  1.00  0.00    -0.281 NA
BRANCH   2   3
ATOM      3  C   UNL     1       3.668   0.095  -0.460  1.00  0.00     0.109 C 
ATOM      4  C   UNL     1       5.183   0.610   1.413  1.00  0.00     0.129 C 
ATOM      5  C   UNL     1       3.942   0.545   0.924  1.00  0.00     0.079 C 
ATOM      6  C   UNL     1       6.381   0.243   0.629  1.00  0.00     0.069 A 
ATOM      7  C   UNL     1       7.690   0.263   1.151  1.00  0.00     0.127 A 
ATOM      8  C   UNL     1       6.233  -0.143  -0.711  1.00  0.00     0.039 A 
ATOM      9  C   UNL     1       4.893  -0.183  -1.331  1.00  0.00     0.211 C 
ATOM     10  C   UNL     1       8.800  -0.085   0.376  1.00  0.00     0.047 A 
ATOM     11  C   UNL     1       7.345  -0.491  -1.496  1.00  0.00     0.013 A 
ATOM     12  C   UNL     1       8.625  -0.463  -0.951  1.00  0.00     0.005 A 
ATOM     13  O   UNL     1       4.767  -0.433  -2.523  1.00  0.00    -0.287 OA
BRANCH   4  14
ATOM     14  O   UNL     1       5.348   1.035   2.719  1.00  0.00    -0.507 OA
ATOM     15  H   UNL     1       6.305   1.000   2.927  1.00  0.00     0.293 HD
ENDBRANCH   4  14
BRANCH   7  16
ATOM     16  O   UNL     1       7.889   0.637   2.459  1.00  0.00    -0.507 OA
ATOM     17  H   UNL     1       8.843   0.585   2.656  1.00  0.00     0.293 HD
ENDBRANCH   7  16
ENDBRANCH   2   3
ENDBRANCH   1   2
BRANCH   1  18
ATOM     18  C   UNL     1       0.100  -0.203  -1.110  1.00  0.00     0.045 C 
BRANCH  18  19
ATOM     19  C   UNL     1      -1.215   0.098  -0.397  1.00  0.00     0.115 C 
BRANCH  19  20
ATOM     20  N   UNL     1      -2.338  -0.306  -1.254  1.00  0.00    -0.384 N 
ATOM     21  H   UNL     1      -2.285   0.162  -2.157  1.00  0.00     0.160 HD
BRANCH  20  22
ATOM     22  C   UNL     1      -3.593  -0.045  -0.638  1.00  0.00     0.049 A 
ATOM     23  C   UNL     1      -4.153  -1.022   0.196  1.00  0.00    -0.003 A 
ATOM     24  C   UNL     1      -4.247   1.213  -0.770  1.00  0.00     0.024 A 
ATOM     25  C   UNL     1      -5.358  -0.730   0.832  1.00  0.00     0.046 A 
ATOM     26  C   UNL     1      -3.590  -2.407   0.381  1.00  0.00     0.039 C 
ATOM     27  C   UNL     1      -3.759   2.289  -1.554  1.00  0.00     0.014 A 
ATOM     28  C   UNL     1      -5.462   1.393  -0.067  1.00  0.00     0.074 A 
ATOM     29  N   UNL     1      -6.006   0.447   0.710  1.00  0.00    -0.252 NA
ATOM     30  C   UNL     1      -5.997  -1.799   1.680  1.00  0.00     0.056 C 
ATOM     31  C   UNL     1      -3.656  -2.847   1.847  1.00  0.00     0.005 C 
ATOM     32  C   UNL     1      -4.454   3.494  -1.643  1.00  0.00     0.021 A 
ATOM     33  C   UNL     1      -6.138   2.599  -0.170  1.00  0.00     0.049 A 
ATOM     34  C   UNL     1      -4.956  -2.470   2.573  1.00  0.00     0.007 C 
ATOM     35  C   UNL     1      -5.644   3.642  -0.948  1.00  0.00     0.043 A 
ATOM     36  Cl  UNL     1      -6.512   5.125  -1.047  1.00  0.00    -0.084 Cl
ENDBRANCH  20  22
ENDBRANCH  19  20
ENDBRANCH  18  19
ENDBRANCH   1  18
TORSDOF 8
