REMARK SMILES COc1cc2oc(=O)c(OCCCCOc3cc(O)cc(N(C)C)c3)c(C)c2cc1OC
REMARK SMILES IDX 12 1 11 2 10 3 9 4 3 5 4 6 30 7 5 8 29 9 6 10 28 11 7 12
REMARK SMILES IDX 26 13 8 14 27 15 2 16 1 17 31 18 32 19 13 20 14 21 15 22
REMARK SMILES IDX 16 23 17 24 25 25 18 26 21 27 20 28 19 29 22 31 23 32 24 33
REMARK H PARENT 19 30
ROOT
ATOM      1  C   UNL     1       0.990   0.056   0.564  1.00  0.00     0.045 C 
ENDROOT
BRANCH   1   2
ATOM      2  C   UNL     1      -0.137   0.088  -0.468  1.00  0.00     0.230 C 
BRANCH   2   3
ATOM      3  O   UNL     1      -1.153  -0.836  -0.063  1.00  0.00    -0.486 OA
BRANCH   3   4
ATOM      4  C   UNL     1      -2.436  -0.484  -0.476  1.00  0.00     0.208 A 
ATOM      5  C   UNL     1      -7.372   0.592  -0.949  1.00  0.00     0.164 A 
ATOM      6  C   UNL     1      -6.286   0.534  -1.821  1.00  0.00     0.098 A 
ATOM      7  C   UNL     1      -7.176   0.294   0.414  1.00  0.00     0.161 A 
ATOM      8  C   UNL     1      -5.026   0.185  -1.331  1.00  0.00     0.142 A 
ATOM      9  C   UNL     1      -5.897  -0.054   0.878  1.00  0.00     0.062 A 
ATOM     10  O   UNL     1      -3.987   0.145  -2.275  1.00  0.00    -0.420 OA
ATOM     11  C   UNL     1      -4.798  -0.113   0.007  1.00  0.00     0.028 A 
ATOM     12  C   UNL     1      -2.692  -0.204  -1.924  1.00  0.00     0.379 A 
ATOM     13  C   UNL     1      -3.431  -0.464   0.433  1.00  0.00     0.010 A 
ATOM     14  O   UNL     1      -1.812  -0.269  -2.777  1.00  0.00    -0.242 OA
ATOM     15  C   UNL     1      -3.193  -0.783   1.886  1.00  0.00     0.049 C 
BRANCH   5  16
ATOM     16  O   UNL     1      -8.650   0.923  -1.320  1.00  0.00    -0.493 OA
ATOM     17  C   UNL     1      -8.884   1.219  -2.690  1.00  0.00     0.278 C 
ENDBRANCH   5  16
BRANCH   7  18
ATOM     18  O   UNL     1      -8.294   0.372   1.209  1.00  0.00    -0.493 OA
ATOM     19  C   UNL     1      -8.156   0.057   2.587  1.00  0.00     0.278 C 
ENDBRANCH   7  18
ENDBRANCH   3   4
ENDBRANCH   2   3
ENDBRANCH   1   2
BRANCH   1  20
ATOM     20  C   UNL     1       1.680  -1.313   0.624  1.00  0.00     0.045 C 
BRANCH  20  21
ATOM     21  C   UNL     1       2.782  -1.357   1.684  1.00  0.00     0.229 C 
BRANCH  21  22
ATOM     22  O   UNL     1       3.764  -0.343   1.477  1.00  0.00    -0.493 OA
BRANCH  22  23
ATOM     23  C   UNL     1       4.804  -0.592   0.624  1.00  0.00     0.125 A 
ATOM     24  C   UNL     1       5.002  -1.749  -0.117  1.00  0.00     0.092 A 
ATOM     25  C   UNL     1       5.730   0.460   0.519  1.00  0.00     0.072 A 
ATOM     26  C   UNL     1       6.108  -1.834  -0.950  1.00  0.00     0.121 A 
ATOM     27  C   UNL     1       6.874   0.393  -0.300  1.00  0.00     0.043 A 
ATOM     28  C   UNL     1       7.028  -0.788  -1.047  1.00  0.00     0.072 A 
BRANCH  26  29
ATOM     29  O   UNL     1       6.260  -2.980  -1.679  1.00  0.00    -0.508 OA
ATOM     30  H   UNL     1       7.037  -2.881  -2.252  1.00  0.00     0.293 HD
ENDBRANCH  26  29
BRANCH  27  31
ATOM     31  N   UNL     1       7.789   1.452  -0.411  1.00  0.00    -0.377 N 
ATOM     32  C   UNL     1       9.186   1.111  -0.682  1.00  0.00     0.143 C 
ATOM     33  C   UNL     1       7.587   2.651   0.402  1.00  0.00     0.143 C 
ENDBRANCH  27  31
ENDBRANCH  22  23
ENDBRANCH  21  22
ENDBRANCH  20  21
ENDBRANCH   1  20
TORSDOF 11
