REMARK SMILES O=C(C[n+]1ccccc1)NN=Cc1ccc(/C=N/NC(=O)C[n+]2ccccc2)cc1
REMARK SMILES IDX 13 1 14 2 15 3 16 4 29 5 30 6 12 7 11 8 10 9 2 10 1 12 3 13
REMARK SMILES IDX 4 14 5 15 9 16 6 17 8 18 7 19 17 20 18 21 19 22 20 23 21 25
REMARK SMILES IDX 22 26 23 27 24 28 28 29 25 30 27 31 26 32
REMARK H PARENT 10 11 19 24
ROOT
ATOM      1  C   UNL     1      -1.652   0.913   2.448  1.00  0.00    -0.005 A 
ATOM      2  C   UNL     1      -0.646   1.761   2.919  1.00  0.00     0.010 A 
ATOM      3  C   UNL     1       0.693   1.456   2.664  1.00  0.00     0.010 A 
ATOM      4  C   UNL     1       1.026   0.295   1.957  1.00  0.00    -0.005 A 
ATOM      5  C   UNL     1       0.016  -0.555   1.489  1.00  0.00     0.010 A 
ATOM      6  C   UNL     1      -1.327  -0.248   1.738  1.00  0.00     0.010 A 
ENDROOT
BRANCH   1   7
ATOM      7  C   UNL     1      -3.042   1.208   2.833  1.00  0.00     0.141 C 
BRANCH   7   8
ATOM      8  N   UNL     1      -4.121   1.181   2.109  1.00  0.00    -0.181 NA
BRANCH   8   9
ATOM      9  N   UNL     1      -4.059   0.994   0.764  1.00  0.00    -0.242 N 
ATOM     10  C   UNL     1      -5.265   0.945   0.072  1.00  0.00     0.305 C 
ATOM     11  H   UNL     1      -3.161   1.125   0.309  1.00  0.00     0.193 HD
ATOM     12  O   UNL     1      -6.377   0.884   0.592  1.00  0.00    -0.266 OA
BRANCH  10  13
ATOM     13  C   UNL     1      -5.118   0.958  -1.432  1.00  0.00     0.458 C 
BRANCH  13  14
ATOM     14  N   UNL     1      -6.439   1.161  -2.074  1.00  0.00    -0.196 N 
ATOM     15  C   UNL     1      -7.234   0.092  -2.326  1.00  0.00     0.308 A 
ATOM     16  C   UNL     1      -6.865   2.415  -2.356  1.00  0.00     0.308 A 
ATOM     17  C   UNL     1      -8.481   0.260  -2.916  1.00  0.00     0.071 A 
ATOM     18  C   UNL     1      -8.105   2.627  -2.947  1.00  0.00     0.071 A 
ATOM     19  C   UNL     1      -8.918   1.539  -3.234  1.00  0.00     0.012 A 
ENDBRANCH  13  14
ENDBRANCH  10  13
ENDBRANCH   8   9
ENDBRANCH   7   8
ENDBRANCH   1   7
BRANCH   4  20
ATOM     20  C   UNL     1       2.443  -0.080   1.741  1.00  0.00     0.141 C 
BRANCH  20  21
ATOM     21  N   UNL     1       3.406   0.675   2.166  1.00  0.00    -0.181 NA
BRANCH  21  22
ATOM     22  N   UNL     1       4.710   0.310   1.967  1.00  0.00    -0.242 N 
ATOM     23  C   UNL     1       5.200  -0.411   0.881  1.00  0.00     0.305 C 
ATOM     24  H   UNL     1       5.345   0.889   2.516  1.00  0.00     0.193 HD
ATOM     25  O   UNL     1       4.528  -0.898  -0.025  1.00  0.00    -0.266 OA
BRANCH  23  26
ATOM     26  C   UNL     1       6.712  -0.544   0.899  1.00  0.00     0.458 C 
BRANCH  26  27
ATOM     27  N   UNL     1       7.162  -1.606  -0.028  1.00  0.00    -0.196 N 
ATOM     28  C   UNL     1       7.395  -2.856   0.440  1.00  0.00     0.308 A 
ATOM     29  C   UNL     1       7.323  -1.323  -1.344  1.00  0.00     0.308 A 
ATOM     30  C   UNL     1       7.823  -3.864  -0.416  1.00  0.00     0.071 A 
ATOM     31  C   UNL     1       7.749  -2.302  -2.233  1.00  0.00     0.071 A 
ATOM     32  C   UNL     1       8.004  -3.584  -1.764  1.00  0.00     0.012 A 
ENDBRANCH  26  27
ENDBRANCH  23  26
ENDBRANCH  21  22
ENDBRANCH  20  21
ENDBRANCH   4  20
TORSDOF 10
