REMARK SMILES COc1cc2c(cc1OC)C(O)=C(Cc1cc[n+](Cc3ccccc3)cc1Br)C2
REMARK SMILES IDX 14 1 13 2 11 3 6 4 29 5 7 6 5 7 8 8 4 9 3 10 12 11 9 13
REMARK SMILES IDX 10 14 2 15 1 16 15 17 16 18 27 19 17 20 26 21 18 22 28 23
REMARK SMILES IDX 19 24 20 25 21 26 25 27 22 28 24 29 23 30
REMARK H PARENT 12 12
ROOT
ATOM      1  C   UNL     1       0.108   0.626   2.096  1.00  0.00     0.072 C 
ENDROOT
BRANCH   1   2
ATOM      2  C   UNL     1      -1.236   0.487   1.462  1.00  0.00    -0.019 C 
ATOM      3  C   UNL     1      -1.985   1.469   0.937  1.00  0.00     0.123 C 
ATOM      4  C   UNL     1      -3.248   0.920   0.462  1.00  0.00     0.024 A 
ATOM      5  C   UNL     1      -1.955  -0.843   1.404  1.00  0.00     0.071 C 
ATOM      6  C   UNL     1      -4.328   1.512  -0.172  1.00  0.00     0.062 A 
ATOM      7  C   UNL     1      -3.243  -0.454   0.738  1.00  0.00    -0.029 A 
ATOM      8  C   UNL     1      -5.422   0.708  -0.524  1.00  0.00     0.161 A 
ATOM      9  C   UNL     1      -4.312  -1.268   0.399  1.00  0.00     0.055 A 
ATOM     10  C   UNL     1      -5.415  -0.685  -0.237  1.00  0.00     0.161 A 
BRANCH   3  11
ATOM     11  O   UNL     1      -1.654   2.784   0.848  1.00  0.00    -0.507 OA
ATOM     12  H   UNL     1      -2.466   3.285   0.656  1.00  0.00     0.293 HD
ENDBRANCH   3  11
BRANCH   8  13
ATOM     13  O   UNL     1      -6.546   1.175  -1.163  1.00  0.00    -0.493 OA
ATOM     14  C   UNL     1      -6.686   2.579  -1.325  1.00  0.00     0.278 C 
ENDBRANCH   8  13
BRANCH  10  15
ATOM     15  O   UNL     1      -6.532  -1.380  -0.631  1.00  0.00    -0.493 OA
ATOM     16  C   UNL     1      -6.639  -2.740  -0.237  1.00  0.00     0.278 C 
ENDBRANCH  10  15
ENDBRANCH   1   2
BRANCH   1  17
ATOM     17  C   UNL     1       1.236   0.334   1.127  1.00  0.00    -0.018 A 
ATOM     18  C   UNL     1       1.604   1.343   0.224  1.00  0.00     0.076 A 
ATOM     19  C   UNL     1       1.909  -0.887   1.046  1.00  0.00     0.085 A 
ATOM     20  C   UNL     1       2.610   1.125  -0.710  1.00  0.00     0.308 A 
ATOM     21  C   UNL     1       2.914  -1.062   0.095  1.00  0.00     0.324 A 
ATOM     22  N   UNL     1       3.250  -0.064  -0.758  1.00  0.00    -0.200 N 
ATOM     23  Br  UNL     1       1.524  -2.359   2.176  1.00  0.00    -0.044 Br
BRANCH  22  24
ATOM     24  C   UNL     1       4.319  -0.289  -1.764  1.00  0.00     0.393 C 
BRANCH  24  25
ATOM     25  C   UNL     1       5.664  -0.429  -1.101  1.00  0.00     0.017 A 
ATOM     26  C   UNL     1       6.377  -1.635  -1.194  1.00  0.00     0.010 A 
ATOM     27  C   UNL     1       6.225   0.637  -0.380  1.00  0.00     0.010 A 
ATOM     28  C   UNL     1       7.617  -1.772  -0.569  1.00  0.00     0.001 A 
ATOM     29  C   UNL     1       7.465   0.494   0.243  1.00  0.00     0.001 A 
ATOM     30  C   UNL     1       8.159  -0.710   0.150  1.00  0.00     0.000 A 
ENDBRANCH  24  25
ENDBRANCH  22  24
ENDBRANCH   1  17
TORSDOF 7
