REMARK SMILES COc1cccc(OC)c1[C@@H](C)NS(=O)(=O)NC(=O)OCc1ccccc1
REMARK SMILES IDX 13 1 11 3 12 4 10 5 3 6 4 7 5 8 7 9 6 10 2 11 1 12 8 13 9 14
REMARK SMILES IDX 14 15 15 16 16 17 17 18 18 19 19 21 20 22 21 23 22 24 23 25
REMARK SMILES IDX 27 26 24 27 26 28 25 29
REMARK H PARENT 13 2 17 20
ROOT
ATOM      1  N   UNL     1      -1.006   0.656  -1.603  1.00  0.00    -0.190 NA
ATOM      2  H   UNL     1      -1.379   1.363  -2.239  1.00  0.00     0.143 HD
ENDROOT
BRANCH   1   3
ATOM      3  C   UNL     1      -2.039  -0.342  -1.235  1.00  0.00     0.106 C 
ATOM      4  C   UNL     1      -2.778  -0.856  -2.474  1.00  0.00     0.031 C 
BRANCH   3   5
ATOM      5  C   UNL     1      -3.037   0.256  -0.238  1.00  0.00     0.054 A 
ATOM      6  C   UNL     1      -3.678   1.495  -0.494  1.00  0.00     0.127 A 
ATOM      7  C   UNL     1      -4.589   2.012   0.431  1.00  0.00     0.047 A 
ATOM      8  C   UNL     1      -4.878   1.316   1.602  1.00  0.00     0.008 A 
ATOM      9  C   UNL     1      -3.350  -0.448   0.950  1.00  0.00     0.127 A 
ATOM     10  C   UNL     1      -4.264   0.092   1.860  1.00  0.00     0.047 A 
BRANCH   6  11
ATOM     11  O   UNL     1      -3.353   2.119  -1.674  1.00  0.00    -0.496 OA
ATOM     12  C   UNL     1      -3.949   3.383  -1.943  1.00  0.00     0.278 C 
ENDBRANCH   6  11
BRANCH   9  13
ATOM     13  O   UNL     1      -2.718  -1.652   1.129  1.00  0.00    -0.496 OA
ATOM     14  C   UNL     1      -3.047  -2.412   2.285  1.00  0.00     0.278 C 
ENDBRANCH   9  13
ENDBRANCH   3   5
ENDBRANCH   1   3
BRANCH   1  15
ATOM     15  S   UNL     1       0.508   0.139  -2.054  1.00  0.00     0.304 S 
ATOM     16  O   UNL     1       0.346  -0.973  -2.954  1.00  0.00    -0.189 OA
ATOM     17  O   UNL     1       1.240   1.329  -2.411  1.00  0.00    -0.189 OA
BRANCH  15  18
ATOM     18  N   UNL     1       1.032  -0.360  -0.581  1.00  0.00    -0.205 N 
ATOM     19  C   UNL     1       2.150  -1.169  -0.426  1.00  0.00     0.422 C 
ATOM     20  H   UNL     1       0.931   0.348   0.135  1.00  0.00     0.188 HD
ATOM     21  O   UNL     1       2.671  -1.817  -1.318  1.00  0.00    -0.223 OA
BRANCH  19  22
ATOM     22  O   UNL     1       2.580  -1.132   0.860  1.00  0.00    -0.444 OA
BRANCH  22  23
ATOM     23  C   UNL     1       3.755  -1.899   1.140  1.00  0.00     0.270 C 
BRANCH  23  24
ATOM     24  C   UNL     1       4.956  -0.990   1.127  1.00  0.00    -0.011 A 
ATOM     25  C   UNL     1       5.724  -0.846  -0.036  1.00  0.00     0.007 A 
ATOM     26  C   UNL     1       5.296  -0.243   2.264  1.00  0.00     0.007 A 
ATOM     27  C   UNL     1       6.822   0.015  -0.057  1.00  0.00     0.000 A 
ATOM     28  C   UNL     1       6.395   0.617   2.241  1.00  0.00     0.000 A 
ATOM     29  C   UNL     1       7.159   0.744   1.082  1.00  0.00     0.000 A 
ENDBRANCH  23  24
ENDBRANCH  22  23
ENDBRANCH  19  22
ENDBRANCH  15  18
ENDBRANCH   1  15
TORSDOF 9
