REMARK SMILES CNC(=O)Oc1cccc(C[N@H+](C)CCCOc2ccc3c(=O)c4ccccc4oc3c2)c1
REMARK SMILES IDX 12 1 13 2 11 4 10 5 9 6 33 7 8 8 6 9 7 10 5 11 3 12 2 13
REMARK SMILES IDX 4 14 1 15 14 17 15 18 16 19 17 20 18 21 19 22 32 23 20 24
REMARK SMILES IDX 31 25 21 26 30 27 22 28 29 29 24 30 28 31 25 32 27 33 26 34
REMARK SMILES IDX 23 35
REMARK H PARENT 12 3 2 16
ROOT
ATOM      1  N   UNL     1       2.009  -0.091   0.535  1.00  0.00    -0.334 N 
ATOM      2  C   UNL     1       2.370  -1.447  -0.020  1.00  0.00     0.333 C 
ATOM      3  H   UNL     1       1.986  -0.205   1.556  1.00  0.00     0.348 HD
ENDROOT
BRANCH   1   4
ATOM      4  C   UNL     1       3.075   0.941   0.230  1.00  0.00     0.298 C 
BRANCH   4   5
ATOM      5  C   UNL     1       4.338   0.734   1.019  1.00  0.00     0.010 A 
ATOM      6  C   UNL     1       4.388   1.044   2.389  1.00  0.00     0.010 A 
ATOM      7  C   UNL     1       5.487   0.224   0.395  1.00  0.00     0.056 A 
ATOM      8  C   UNL     1       5.564   0.850   3.118  1.00  0.00     0.004 A 
ATOM      9  C   UNL     1       6.665   0.068   1.125  1.00  0.00     0.133 A 
ATOM     10  C   UNL     1       6.704   0.357   2.487  1.00  0.00     0.047 A 
BRANCH   9  11
ATOM     11  O   UNL     1       7.848  -0.440   0.557  1.00  0.00    -0.410 OA
BRANCH  11  12
ATOM     12  C   UNL     1       8.266   0.042  -0.679  1.00  0.00     0.412 C 
ATOM     13  N   UNL     1       9.450  -0.548  -1.018  1.00  0.00    -0.324 N 
ATOM     14  O   UNL     1       7.666   0.857  -1.366  1.00  0.00    -0.224 OA
ATOM     15  C   UNL     1      10.109  -0.299  -2.272  1.00  0.00     0.146 C 
ATOM     16  H   UNL     1       9.809  -1.256  -0.392  1.00  0.00     0.166 HD
ENDBRANCH  11  12
ENDBRANCH   9  11
ENDBRANCH   4   5
ENDBRANCH   1   4
BRANCH   1  17
ATOM     17  C   UNL     1       0.624   0.334   0.083  1.00  0.00     0.265 C 
BRANCH  17  18
ATOM     18  C   UNL     1       0.015   1.324   1.074  1.00  0.00     0.103 C 
BRANCH  18  19
ATOM     19  C   UNL     1      -1.400   1.723   0.655  1.00  0.00     0.235 C 
BRANCH  19  20
ATOM     20  O   UNL     1      -2.187   0.536   0.585  1.00  0.00    -0.493 OA
BRANCH  20  21
ATOM     21  C   UNL     1      -3.502   0.682   0.236  1.00  0.00     0.123 A 
ATOM     22  C   UNL     1      -4.137   1.885  -0.081  1.00  0.00     0.047 A 
ATOM     23  C   UNL     1      -4.234  -0.511   0.206  1.00  0.00     0.094 A 
ATOM     24  C   UNL     1      -5.492   1.892  -0.427  1.00  0.00     0.020 A 
ATOM     25  C   UNL     1      -5.588  -0.508  -0.138  1.00  0.00     0.142 A 
ATOM     26  C   UNL     1      -6.210   0.694  -0.455  1.00  0.00     0.066 A 
ATOM     27  O   UNL     1      -6.224  -1.724  -0.141  1.00  0.00    -0.456 OA
ATOM     28  C   UNL     1      -7.634   0.679  -0.818  1.00  0.00     0.200 A 
ATOM     29  C   UNL     1      -7.558  -1.757  -0.470  1.00  0.00     0.138 A 
ATOM     30  C   UNL     1      -8.304  -0.629  -0.809  1.00  0.00     0.065 A 
ATOM     31  C   UNL     1      -8.173  -3.010  -0.454  1.00  0.00     0.048 A 
ATOM     32  C   UNL     1      -9.659  -0.741  -1.134  1.00  0.00     0.016 A 
ATOM     33  C   UNL     1      -9.527  -3.128  -0.778  1.00  0.00     0.004 A 
ATOM     34  C   UNL     1     -10.269  -1.995  -1.117  1.00  0.00     0.001 A 
ATOM     35  O   UNL     1      -8.225   1.709  -1.113  1.00  0.00    -0.288 OA
ENDBRANCH  20  21
ENDBRANCH  19  20
ENDBRANCH  18  19
ENDBRANCH  17  18
ENDBRANCH   1  17
TORSDOF 9
