REMARK SMILES COc1cc2c(cc1OC)C(O)=C(CC1CCN(c3ccccc3)CC1)C2
REMARK SMILES IDX 11 1 13 2 27 3 5 4 4 5 3 6 8 7 7 8 6 9 12 10 14 12 15 13
REMARK SMILES IDX 16 14 26 15 17 16 25 17 18 18 19 19 20 20 24 21 21 22 23 23
REMARK SMILES IDX 22 24 9 25 10 26 2 27 1 28
REMARK H PARENT 12 11
ROOT
ATOM      1  C   UNL     1       1.865   2.452   3.070  1.00  0.00     0.122 C 
ATOM      2  C   UNL     1       0.947   2.025   2.190  1.00  0.00    -0.023 C 
ATOM      3  C   UNL     1       0.201   3.191   1.572  1.00  0.00     0.071 C 
ATOM      4  C   UNL     1       0.904   4.361   2.201  1.00  0.00    -0.029 A 
ATOM      5  C   UNL     1       0.668   5.715   2.001  1.00  0.00     0.055 A 
ATOM      6  C   UNL     1       1.449   6.645   2.702  1.00  0.00     0.161 A 
ATOM      7  C   UNL     1       2.471   6.181   3.567  1.00  0.00     0.161 A 
ATOM      8  C   UNL     1       2.675   4.809   3.778  1.00  0.00     0.062 A 
ATOM      9  C   UNL     1       1.889   3.907   3.086  1.00  0.00     0.024 A 
ENDROOT
BRANCH   1  10
ATOM     10  O   UNL     1       2.659   1.680   3.857  1.00  0.00    -0.507 OA
ATOM     11  H   UNL     1       3.167   2.265   4.443  1.00  0.00     0.293 HD
ENDBRANCH   1  10
BRANCH   2  12
ATOM     12  C   UNL     1       0.549   0.614   1.910  1.00  0.00     0.039 C 
BRANCH  12  13
ATOM     13  C   UNL     1       1.275  -0.167   0.790  1.00  0.00    -0.003 C 
ATOM     14  C   UNL     1       1.220   0.488  -0.600  1.00  0.00     0.025 C 
ATOM     15  C   UNL     1       2.704  -0.606   1.155  1.00  0.00     0.025 C 
ATOM     16  C   UNL     1       2.367   1.458  -0.887  1.00  0.00     0.117 C 
ATOM     17  C   UNL     1       3.799   0.395   0.790  1.00  0.00     0.117 C 
ATOM     18  N   UNL     1       3.649   0.799  -0.619  1.00  0.00    -0.372 N 
BRANCH  18  19
ATOM     19  C   UNL     1       4.808   1.432  -1.111  1.00  0.00     0.037 A 
ATOM     20  C   UNL     1       5.962   0.659  -1.324  1.00  0.00     0.026 A 
ATOM     21  C   UNL     1       4.883   2.799  -1.413  1.00  0.00     0.026 A 
ATOM     22  C   UNL     1       7.144   1.226  -1.810  1.00  0.00     0.002 A 
ATOM     23  C   UNL     1       6.065   3.372  -1.898  1.00  0.00     0.002 A 
ATOM     24  C   UNL     1       7.195   2.585  -2.096  1.00  0.00     0.000 A 
ENDBRANCH  18  19
ENDBRANCH  12  13
ENDBRANCH   2  12
BRANCH   7  25
ATOM     25  O   UNL     1       3.298   6.985   4.315  1.00  0.00    -0.493 OA
ATOM     26  C   UNL     1       3.878   8.069   3.594  1.00  0.00     0.278 C 
ENDBRANCH   7  25
BRANCH   6  27
ATOM     27  O   UNL     1       1.274   8.002   2.615  1.00  0.00    -0.493 OA
ATOM     28  C   UNL     1       0.151   8.480   1.887  1.00  0.00     0.278 C 
ENDBRANCH   6  27
TORSDOF 6
