REMARK SMILES COc1ccc([C@H](C)NS(N)(=O)=O)cc1OC
REMARK SMILES IDX 7 1 8 2 6 3 3 4 4 5 15 6 5 7 14 8 2 9 1 10 16 11 17 12 9 13
REMARK SMILES IDX 10 15 12 16 13 17 11 18
REMARK H PARENT 9 14 11 19 11 20
ROOT
ATOM      1  C   UNL     1      -1.561  -0.149  -1.444  1.00  0.00     0.098 C 
ATOM      2  C   UNL     1      -1.700   0.293  -2.903  1.00  0.00     0.031 C 
ENDROOT
BRANCH   1   3
ATOM      3  C   UNL     1      -0.210   0.191  -0.835  1.00  0.00    -0.026 A 
ATOM      4  C   UNL     1       2.259   0.788   0.402  1.00  0.00     0.160 A 
ATOM      5  C   UNL     1       1.627   1.730  -0.414  1.00  0.00     0.051 A 
ATOM      6  C   UNL     1       1.649  -0.464   0.613  1.00  0.00     0.161 A 
ATOM      7  C   UNL     1       0.402   1.436  -1.022  1.00  0.00     0.009 A 
ATOM      8  C   UNL     1       0.422  -0.748   0.001  1.00  0.00     0.055 A 
BRANCH   4   9
ATOM      9  O   UNL     1       3.457   0.992   1.040  1.00  0.00    -0.493 OA
ATOM     10  C   UNL     1       4.125   2.224   0.810  1.00  0.00     0.278 C 
ENDBRANCH   4   9
BRANCH   6  11
ATOM     11  O   UNL     1       2.322  -1.331   1.438  1.00  0.00    -0.493 OA
ATOM     12  C   UNL     1       1.791  -2.639   1.597  1.00  0.00     0.278 C 
ENDBRANCH   6  11
ENDBRANCH   1   3
BRANCH   1  13
ATOM     13  N   UNL     1      -2.636   0.480  -0.666  1.00  0.00    -0.195 NA
ATOM     14  H   UNL     1      -2.359   1.216  -0.023  1.00  0.00     0.143 HD
BRANCH  13  15
ATOM     15  S   UNL     1      -3.883  -0.456  -0.131  1.00  0.00     0.274 S 
ATOM     16  O   UNL     1      -4.331  -1.345  -1.168  1.00  0.00    -0.195 OA
ATOM     17  O   UNL     1      -4.765   0.384   0.636  1.00  0.00    -0.195 OA
BRANCH  15  18
ATOM     18  N   UNL     1      -3.058  -1.371   0.988  1.00  0.00    -0.216 NA
ATOM     19  H   UNL     1      -2.968  -0.836   1.852  1.00  0.00     0.138 HD
ATOM     20  H   UNL     1      -3.593  -2.225   1.159  1.00  0.00     0.138 HD
ENDBRANCH  15  18
ENDBRANCH  13  15
ENDBRANCH   1  13
TORSDOF 6
