REMARK SMILES CCCCCCCNC(=O)Oc1ccc2c(c1)[C@]1(C)CC[N@@H+](C)[C@@H]1N2C
REMARK SMILES IDX 6 1 7 2 8 3 9 4 10 5 11 7 12 8 21 9 22 10 20 11 24 12 18 13
REMARK SMILES IDX 25 14 16 15 15 16 17 17 14 18 13 19 23 20 19 22 26 23 5 24
REMARK SMILES IDX 4 25 3 26 2 27 1 28
REMARK H PARENT 8 6 22 21
ROOT
ATOM      1  C   UNL     1       4.602   0.674  -0.861  1.00  0.00     0.021 C 
ENDROOT
BRANCH   1   2
ATOM      2  C   UNL     1       3.241   0.080  -0.512  1.00  0.00     0.119 C 
BRANCH   2   3
ATOM      3  N   UNL     1       2.250   1.118  -0.327  1.00  0.00    -0.321 N 
ATOM      4  C   UNL     1       0.909   0.854  -0.371  1.00  0.00     0.412 C 
ATOM      5  O   UNL     1       0.417  -0.220  -0.692  1.00  0.00    -0.224 OA
ATOM      6  H   UNL     1       2.513   1.989   0.114  1.00  0.00     0.167 HD
BRANCH   4   7
ATOM      7  O   UNL     1       0.206   1.986   0.021  1.00  0.00    -0.410 OA
BRANCH   7   8
ATOM      8  C   UNL     1      -1.186   1.844  -0.010  1.00  0.00     0.133 A 
ATOM      9  C   UNL     1      -4.394  -1.825  -0.119  1.00  0.00     0.265 C 
ATOM     10  N   UNL     1      -5.581  -0.917  -0.275  1.00  0.00    -0.317 N 
ATOM     11  C   UNL     1      -3.889  -1.550   1.284  1.00  0.00     0.081 C 
ATOM     12  C   UNL     1      -5.462   0.191   0.718  1.00  0.00     0.296 C 
ATOM     13  C   UNL     1      -4.142  -0.060   1.484  1.00  0.00     0.072 C 
ATOM     14  N   UNL     1      -5.327   1.329  -0.183  1.00  0.00    -0.325 N 
ATOM     15  C   UNL     1      -3.208   0.837   0.728  1.00  0.00    -0.007 A 
ATOM     16  C   UNL     1      -3.937   1.632  -0.165  1.00  0.00     0.045 A 
ATOM     17  C   UNL     1      -1.831   0.943   0.836  1.00  0.00     0.054 A 
ATOM     18  C   UNL     1      -3.292   2.562  -0.968  1.00  0.00     0.030 A 
ATOM     19  C   UNL     1      -1.901   2.670  -0.887  1.00  0.00     0.049 A 
ATOM     20  C   UNL     1      -6.902  -1.588  -0.310  1.00  0.00     0.334 C 
ATOM     21  H   UNL     1      -5.462  -0.381  -1.145  1.00  0.00     0.349 HD
ATOM     22  C   UNL     1      -4.224   0.339   2.954  1.00  0.00     0.025 C 
ATOM     23  C   UNL     1      -6.143   2.507   0.131  1.00  0.00     0.150 C 
ENDBRANCH   7   8
ENDBRANCH   4   7
ENDBRANCH   2   3
ENDBRANCH   1   2
BRANCH   1  24
ATOM     24  C   UNL     1       5.665  -0.381  -1.179  1.00  0.00     0.002 C 
BRANCH  24  25
ATOM     25  C   UNL     1       6.009  -1.273   0.017  1.00  0.00     0.000 C 
BRANCH  25  26
ATOM     26  C   UNL     1       7.169  -2.234  -0.270  1.00  0.00    -0.000 C 
BRANCH  26  27
ATOM     27  C   UNL     1       8.534  -1.751   0.229  1.00  0.00    -0.003 C 
ATOM     28  C   UNL     1       9.038  -0.485  -0.443  1.00  0.00     0.004 C 
ENDBRANCH  26  27
ENDBRANCH  25  26
ENDBRANCH  24  25
ENDBRANCH   1  24
TORSDOF 8
