REMARK SMILES O=c1c2ccc(Cl)cc2nc(O)n1CC[C@H]1CC[N@@H+](Cc2ccccc2)CC1
REMARK SMILES IDX 14 1 13 2 11 3 10 4 9 5 2 6 8 7 3 8 6 9 4 10 5 11 1 12 7 13
REMARK SMILES IDX 12 14 15 16 16 17 28 18 17 19 27 20 18 21 19 22 20 24 21 25
REMARK SMILES IDX 22 26 26 27 23 28 25 29 24 30
REMARK H PARENT 12 15 19 23
ROOT
ATOM      1  C   UNL     1      -0.946   0.700  -1.375  1.00  0.00     0.131 C 
ENDROOT
BRANCH   1   2
ATOM      2  N   UNL     1       0.197   1.372  -1.977  1.00  0.00    -0.262 N 
ATOM      3  C   UNL     1       1.032   0.732  -2.853  1.00  0.00     0.297 A 
ATOM      4  N   UNL     1       2.080   1.226  -3.406  1.00  0.00    -0.197 NA
ATOM      5  C   UNL     1       2.414   2.550  -3.082  1.00  0.00     0.083 A 
ATOM      6  C   UNL     1       0.489   2.663  -1.553  1.00  0.00     0.264 A 
ATOM      7  C   UNL     1       3.533   3.129  -3.682  1.00  0.00     0.049 A 
ATOM      8  C   UNL     1       1.667   3.303  -2.172  1.00  0.00     0.066 A 
ATOM      9  C   UNL     1       3.893   4.441  -3.372  1.00  0.00     0.043 A 
ATOM     10  C   UNL     1       2.025   4.619  -1.855  1.00  0.00     0.017 A 
ATOM     11  C   UNL     1       3.145   5.188  -2.462  1.00  0.00     0.021 A 
ATOM     12  O   UNL     1      -0.172   3.260  -0.703  1.00  0.00    -0.268 OA
ATOM     13  Cl  UNL     1       5.274   5.146  -4.118  1.00  0.00    -0.084 Cl
BRANCH   3  14
ATOM     14  O   UNL     1       0.712  -0.535  -3.152  1.00  0.00    -0.480 OA
ATOM     15  H   UNL     1       1.386  -0.857  -3.777  1.00  0.00     0.296 HD
ENDBRANCH   3  14
ENDBRANCH   1   2
BRANCH   1  16
ATOM     16  C   UNL     1      -0.558  -0.008  -0.074  1.00  0.00     0.026 C 
BRANCH  16  17
ATOM     17  C   UNL     1      -1.588  -0.017   1.079  1.00  0.00     0.002 C 
ATOM     18  C   UNL     1      -1.652   1.307   1.857  1.00  0.00     0.065 C 
ATOM     19  C   UNL     1      -2.980  -0.545   0.709  1.00  0.00     0.065 C 
ATOM     20  C   UNL     1      -2.661   2.319   1.340  1.00  0.00     0.262 C 
ATOM     21  C   UNL     1      -3.986   0.502   0.247  1.00  0.00     0.262 C 
ATOM     22  N   UNL     1      -4.010   1.662   1.208  1.00  0.00    -0.331 N 
ATOM     23  H   UNL     1      -4.269   1.289   2.130  1.00  0.00     0.348 HD
BRANCH  22  24
ATOM     24  C   UNL     1      -5.076   2.685   0.863  1.00  0.00     0.299 C 
BRANCH  24  25
ATOM     25  C   UNL     1      -6.475   2.166   1.053  1.00  0.00     0.006 A 
ATOM     26  C   UNL     1      -7.282   1.865  -0.055  1.00  0.00     0.009 A 
ATOM     27  C   UNL     1      -6.988   1.958   2.344  1.00  0.00     0.009 A 
ATOM     28  C   UNL     1      -8.570   1.359   0.126  1.00  0.00     0.001 A 
ATOM     29  C   UNL     1      -8.276   1.452   2.519  1.00  0.00     0.001 A 
ATOM     30  C   UNL     1      -9.065   1.151   1.411  1.00  0.00     0.000 A 
ENDBRANCH  24  25
ENDBRANCH  22  24
ENDBRANCH  16  17
ENDBRANCH   1  16
TORSDOF 6
