REMARK SMILES O=C(Nc1ccc2c(c1)CN(C(=O)c1ccccc1)C(=O)C2)c1ccccc1
REMARK SMILES IDX 4 1 5 2 6 3 7 4 8 5 9 6 10 7 11 8 20 9 21 10 22 11 3 12 2 13
REMARK SMILES IDX 1 14 23 16 24 17 28 18 25 19 27 20 26 21 12 22 13 23 14 24
REMARK SMILES IDX 15 25 19 26 16 27 18 28 17 29
REMARK H PARENT 3 15
ROOT
ATOM      1  C   UNL     1       1.652   1.060  -0.452  1.00  0.00     0.041 A 
ATOM      2  C   UNL     1       1.665   2.268  -1.149  1.00  0.00     0.026 A 
ATOM      3  C   UNL     1       0.472   2.940  -1.434  1.00  0.00     0.007 A 
ATOM      4  C   UNL     1      -0.754   2.402  -1.035  1.00  0.00    -0.033 A 
ATOM      5  C   UNL     1      -0.780   1.192  -0.336  1.00  0.00    -0.022 A 
ATOM      6  C   UNL     1       0.421   0.528  -0.045  1.00  0.00     0.032 A 
ATOM      7  C   UNL     1      -2.107   0.670   0.137  1.00  0.00     0.164 C 
ATOM      8  N   UNL     1      -3.174   0.977  -0.806  1.00  0.00    -0.274 N 
ATOM      9  C   UNL     1      -3.289   2.255  -1.325  1.00  0.00     0.234 C 
ATOM     10  O   UNL     1      -4.355   2.736  -1.718  1.00  0.00    -0.274 OA
ATOM     11  C   UNL     1      -2.045   3.132  -1.295  1.00  0.00     0.136 C 
ENDROOT
BRANCH   1  12
ATOM     12  N   UNL     1       2.811   0.322  -0.134  1.00  0.00    -0.322 N 
ATOM     13  C   UNL     1       4.127   0.697  -0.342  1.00  0.00     0.255 C 
ATOM     14  O   UNL     1       4.527   1.776  -0.762  1.00  0.00    -0.269 OA
ATOM     15  H   UNL     1       2.659  -0.547   0.361  1.00  0.00     0.170 HD
BRANCH  13  16
ATOM     16  C   UNL     1       5.135  -0.330   0.044  1.00  0.00     0.040 A 
ATOM     17  C   UNL     1       4.914  -1.697  -0.174  1.00  0.00     0.014 A 
ATOM     18  C   UNL     1       6.342   0.098   0.612  1.00  0.00     0.014 A 
ATOM     19  C   UNL     1       5.886  -2.627   0.202  1.00  0.00     0.001 A 
ATOM     20  C   UNL     1       7.308  -0.837   0.987  1.00  0.00     0.001 A 
ATOM     21  C   UNL     1       7.077  -2.197   0.786  1.00  0.00     0.000 A 
ENDBRANCH  13  16
ENDBRANCH   1  12
BRANCH   8  22
ATOM     22  C   UNL     1      -4.163   0.051  -1.101  1.00  0.00     0.260 C 
ATOM     23  O   UNL     1      -4.580  -0.166  -2.236  1.00  0.00    -0.269 OA
BRANCH  22  24
ATOM     24  C   UNL     1      -4.639  -0.827  -0.001  1.00  0.00     0.040 A 
ATOM     25  C   UNL     1      -4.800  -2.196  -0.245  1.00  0.00     0.014 A 
ATOM     26  C   UNL     1      -4.962  -0.295   1.254  1.00  0.00     0.014 A 
ATOM     27  C   UNL     1      -5.245  -3.036   0.776  1.00  0.00     0.001 A 
ATOM     28  C   UNL     1      -5.408  -1.139   2.271  1.00  0.00     0.001 A 
ATOM     29  C   UNL     1      -5.543  -2.508   2.033  1.00  0.00     0.000 A 
ENDBRANCH  22  24
ENDBRANCH   8  22
TORSDOF 4
