REMARK SMILES C[C@H]1CC[N@@H+](CC2CCCCC2)CC1
REMARK SMILES IDX 4 1 5 2 13 3 3 4 2 5 1 6 14 7 6 9 7 10 8 11 12 12 9 13 11 14
REMARK SMILES IDX 10 15
REMARK H PARENT 5 8
ROOT
ATOM      1  C   UNL     1       1.128  -0.599   1.008  1.00  0.00     0.262 C 
ATOM      2  N   UNL     1       0.733   0.041  -0.305  1.00  0.00    -0.335 N 
ATOM      3  C   UNL     1       1.897   0.083  -1.276  1.00  0.00     0.262 C 
ATOM      4  C   UNL     1       2.287   0.172   1.629  1.00  0.00     0.065 C 
ATOM      5  C   UNL     1       3.495   0.308   0.696  1.00  0.00    -0.003 C 
ATOM      6  C   UNL     1       4.253  -1.014   0.554  1.00  0.00     0.008 C 
ATOM      7  C   UNL     1       3.053   0.861  -0.663  1.00  0.00     0.065 C 
ATOM      8  H   UNL     1       0.486   1.020  -0.112  1.00  0.00     0.348 HD
ENDROOT
BRANCH   2   9
ATOM      9  C   UNL     1      -0.473  -0.615  -0.955  1.00  0.00     0.265 C 
BRANCH   9  10
ATOM     10  C   UNL     1      -1.775  -0.432  -0.154  1.00  0.00     0.044 C 
ATOM     11  C   UNL     1      -2.919  -1.149  -0.897  1.00  0.00     0.009 C 
ATOM     12  C   UNL     1      -2.134   1.045   0.080  1.00  0.00     0.009 C 
ATOM     13  C   UNL     1      -4.258  -0.988  -0.182  1.00  0.00     0.001 C 
ATOM     14  C   UNL     1      -3.482   1.204   0.781  1.00  0.00     0.001 C 
ATOM     15  C   UNL     1      -4.599   0.481   0.038  1.00  0.00     0.000 C 
ENDBRANCH   9  10
ENDBRANCH   2   9
TORSDOF 2
