REMARK SMILES Cc1cccc([N+](=O)[O-])c1
REMARK SMILES IDX 1 1 2 2 3 3 4 4 5 5 6 6 10 7 7 8 8 9 9 10
REMARK H PARENT
ROOT
ATOM      1  C   UNL     1       2.433  -0.721   0.187  1.00  0.00     0.044 C 
ATOM      2  C   UNL     1       1.073  -0.094   0.081  1.00  0.00    -0.044 A 
ATOM      3  C   UNL     1       0.917   1.290   0.234  1.00  0.00     0.004 A 
ATOM      4  C   UNL     1      -0.349   1.878   0.167  1.00  0.00     0.007 A 
ATOM      5  C   UNL     1      -1.478   1.087  -0.042  1.00  0.00     0.085 A 
ATOM      6  C   UNL     1      -1.330  -0.299  -0.180  1.00  0.00     0.269 A 
ATOM      7  C   UNL     1      -0.062  -0.893  -0.115  1.00  0.00     0.089 A 
ENDROOT
BRANCH   6   8
ATOM      8  N   UNL     1      -2.516  -1.138  -0.393  1.00  0.00     0.062 N 
ATOM      9  O   UNL     1      -3.620  -0.576  -0.444  1.00  0.00    -0.258 OA
ATOM     10  O   UNL     1      -2.346  -2.360  -0.509  1.00  0.00    -0.258 OA
ENDBRANCH   6   8
TORSDOF 1
