REMARK SMILES CC1=C[C@@H]2Cc3nc4cc(Cl)ccc4c(N)c3[C@H](C1)C2
REMARK SMILES IDX 1 1 2 2 3 3 4 4 5 5 6 6 7 7 8 8 9 9 10 10 11 11 12 12 13 13
REMARK SMILES IDX 14 14 15 15 17 16 18 17 19 18 20 19 16 20
REMARK H PARENT 16 21 16 22
ROOT
ATOM      1  C   UNL     1      -1.516   1.110   3.117  1.00  0.00     0.039 C 
ATOM      2  C   UNL     1      -1.332   0.326   1.851  1.00  0.00    -0.076 C 
ATOM      3  C   UNL     1      -1.356  -1.019   1.828  1.00  0.00    -0.024 C 
ATOM      4  C   UNL     1      -1.194  -1.825   0.557  1.00  0.00     0.018 C 
ATOM      5  C   UNL     1       0.247  -2.332   0.413  1.00  0.00     0.064 C 
ATOM      6  C   UNL     1       1.224  -1.284  -0.074  1.00  0.00     0.047 A 
ATOM      7  N   UNL     1       2.524  -1.657  -0.021  1.00  0.00    -0.252 NA
ATOM      8  C   UNL     1       3.457  -0.832  -0.506  1.00  0.00     0.074 A 
ATOM      9  C   UNL     1       4.772  -1.270  -0.478  1.00  0.00     0.049 A 
ATOM     10  C   UNL     1       5.806  -0.491  -0.988  1.00  0.00     0.043 A 
ATOM     11  Cl  UNL     1       7.424  -1.072  -0.939  1.00  0.00    -0.084 Cl
ATOM     12  C   UNL     1       5.535   0.749  -1.545  1.00  0.00     0.021 A 
ATOM     13  C   UNL     1       4.219   1.208  -1.577  1.00  0.00     0.014 A 
ATOM     14  C   UNL     1       3.154   0.435  -1.048  1.00  0.00     0.024 A 
ATOM     15  C   UNL     1       1.792   0.853  -1.024  1.00  0.00     0.046 A 
ATOM     16  C   UNL     1       0.801  -0.053  -0.594  1.00  0.00     0.001 A 
ATOM     17  C   UNL     1      -0.686   0.285  -0.635  1.00  0.00     0.028 C 
ATOM     18  C   UNL     1      -1.103   1.134   0.591  1.00  0.00     0.039 C 
ATOM     19  C   UNL     1      -1.540  -0.988  -0.676  1.00  0.00     0.017 C 
ENDROOT
BRANCH  15  20
ATOM     20  N   UNL     1       1.416   2.084  -1.618  1.00  0.00    -0.398 N 
ATOM     21  H   UNL     1       0.520   2.440  -1.305  1.00  0.00     0.156 HD
ATOM     22  H   UNL     1       2.127   2.803  -1.540  1.00  0.00     0.156 HD
ENDBRANCH  15  20
TORSDOF 1
