REMARK SMILES C#CCN=c1c2c([nH]c3cc(Cl)ccc13)CCCC2
REMARK SMILES IDX 4 1 5 2 8 3 7 4 9 5 6 6 16 7 10 8 15 9 19 10 17 11 11 12
REMARK SMILES IDX 14 13 18 14 13 15 12 17 3 18 2 19 1 20
REMARK H PARENT 8 16
ROOT
ATOM      1  N   UNL     1      -0.842  -1.810  -0.539  1.00  0.00    -0.271 NA
ENDROOT
BRANCH   1   2
ATOM      2  C   UNL     1      -0.459  -0.612  -0.254  1.00  0.00     0.073 A 
ATOM      3  N   UNL     1       0.799   1.887  -0.549  1.00  0.00    -0.358 N 
ATOM      4  C   UNL     1       1.554   0.790  -0.185  1.00  0.00     0.021 A 
ATOM      5  C   UNL     1      -0.596   1.870  -0.380  1.00  0.00     0.049 A 
ATOM      6  C   UNL     1       1.016  -0.431   0.008  1.00  0.00    -0.003 A 
ATOM      7  C   UNL     1       3.041   1.023  -0.019  1.00  0.00     0.054 C 
ATOM      8  C   UNL     1      -1.319   3.069  -0.416  1.00  0.00     0.047 A 
ATOM      9  C   UNL     1      -1.273   0.647  -0.190  1.00  0.00     0.024 A 
ATOM     10  C   UNL     1       1.807  -1.645   0.409  1.00  0.00     0.039 C 
ATOM     11  C   UNL     1       3.870  -0.262   0.029  1.00  0.00     0.007 C 
ATOM     12  C   UNL     1      -2.690   3.063  -0.174  1.00  0.00     0.043 A 
ATOM     13  C   UNL     1      -2.639   0.667   0.114  1.00  0.00     0.014 A 
ATOM     14  C   UNL     1       3.208  -1.304   0.920  1.00  0.00     0.005 C 
ATOM     15  C   UNL     1      -3.349   1.871   0.112  1.00  0.00     0.021 A 
ATOM     16  H   UNL     1       1.256   2.790  -0.482  1.00  0.00     0.166 HD
ATOM     17  Cl  UNL     1      -3.569   4.542  -0.193  1.00  0.00    -0.084 Cl
ENDBRANCH   1   2
BRANCH   1  18
ATOM     18  C   UNL     1      -2.142  -2.213  -1.026  1.00  0.00     0.231 C 
BRANCH  18  19
ATOM     19  C   UNL     1      -2.843  -2.860   0.087  1.00  0.00    -0.083 C 
ATOM     20  C   UNL     1      -3.418  -3.392   0.998  1.00  0.00     0.006 C 
ENDBRANCH  18  19
ENDBRANCH   1  18
TORSDOF 3
