REMARK SMILES COc1cc2c(cc1OC)S[C@@H](C(O)=CCc1cc[n+](Cc3ccc(F)cc3)cc1)C2
REMARK SMILES IDX 15 1 13 2 14 3 12 5 31 6 11 7 5 8 6 9 4 10 7 11 3 12 8 13
REMARK SMILES IDX 2 14 1 15 9 16 10 17 16 18 17 19 18 20 30 21 19 22 29 23
REMARK SMILES IDX 20 24 21 25 22 26 23 27 28 28 24 29 27 30 25 31 26 32
REMARK H PARENT 14 4
ROOT
ATOM      1  C   UNL     1       0.687  -3.308  -2.131  1.00  0.00     0.020 C 
ENDROOT
BRANCH   1   2
ATOM      2  C   UNL     1       0.276  -4.246  -1.260  1.00  0.00     0.102 C 
BRANCH   2   3
ATOM      3  O   UNL     1      -1.037  -4.697  -1.347  1.00  0.00    -0.511 OA
ATOM      4  H   UNL     1      -1.216  -5.243  -0.555  1.00  0.00     0.293 HD
ENDBRANCH   2   3
BRANCH   2   5
ATOM      5  C   UNL     1       1.089  -4.743  -0.052  1.00  0.00     0.121 C 
ATOM      6  C   UNL     1       2.324  -3.890   0.334  1.00  0.00     0.059 C 
ATOM      7  S   UNL     1       0.001  -4.523   1.437  1.00  0.00    -0.114 SA
ATOM      8  C   UNL     1       1.769  -2.636   0.969  1.00  0.00    -0.029 A 
ATOM      9  C   UNL     1       0.549  -2.847   1.625  1.00  0.00     0.015 A 
ATOM     10  C   UNL     1       2.328  -1.363   0.896  1.00  0.00     0.055 A 
ATOM     11  C   UNL     1      -0.146  -1.804   2.207  1.00  0.00     0.065 A 
ATOM     12  C   UNL     1       1.628  -0.291   1.459  1.00  0.00     0.161 A 
ATOM     13  C   UNL     1       0.400  -0.523   2.112  1.00  0.00     0.161 A 
BRANCH  12  14
ATOM     14  O   UNL     1       2.027   1.017   1.335  1.00  0.00    -0.493 OA
ATOM     15  C   UNL     1       3.439   1.214   1.422  1.00  0.00     0.278 C 
ENDBRANCH  12  14
BRANCH  13  16
ATOM     16  O   UNL     1      -0.347   0.532   2.583  1.00  0.00    -0.493 OA
ATOM     17  C   UNL     1       0.026   0.806   3.939  1.00  0.00     0.278 C 
ENDBRANCH  13  16
ENDBRANCH   2   5
ENDBRANCH   1   2
BRANCH   1  18
ATOM     18  C   UNL     1      -0.219  -2.546  -3.062  1.00  0.00     0.067 C 
BRANCH  18  19
ATOM     19  C   UNL     1      -0.577  -1.232  -2.391  1.00  0.00    -0.032 A 
ATOM     20  C   UNL     1      -1.638  -1.179  -1.483  1.00  0.00     0.075 A 
ATOM     21  C   UNL     1       0.236  -0.107  -2.527  1.00  0.00     0.075 A 
ATOM     22  C   UNL     1      -1.841  -0.035  -0.722  1.00  0.00     0.308 A 
ATOM     23  C   UNL     1      -0.006   1.017  -1.744  1.00  0.00     0.308 A 
ATOM     24  N   UNL     1      -1.027   1.035  -0.856  1.00  0.00    -0.201 N 
BRANCH  24  25
ATOM     25  C   UNL     1      -1.211   2.217   0.022  1.00  0.00     0.393 C 
BRANCH  25  26
ATOM     26  C   UNL     1      -1.682   3.413  -0.770  1.00  0.00     0.017 A 
ATOM     27  C   UNL     1      -0.901   4.582  -0.817  1.00  0.00     0.013 A 
ATOM     28  C   UNL     1      -2.907   3.385  -1.460  1.00  0.00     0.013 A 
ATOM     29  C   UNL     1      -1.330   5.689  -1.551  1.00  0.00     0.040 A 
ATOM     30  C   UNL     1      -3.331   4.496  -2.192  1.00  0.00     0.040 A 
ATOM     31  C   UNL     1      -2.539   5.636  -2.232  1.00  0.00     0.123 A 
ATOM     32  F   UNL     1      -2.947   6.699  -2.936  1.00  0.00    -0.207 F 
ENDBRANCH  25  26
ENDBRANCH  24  25
ENDBRANCH  18  19
ENDBRANCH   1  18
TORSDOF 9
