REMARK SMILES COc1ccc([C@H]2CC(c3cc(F)ccc3F)=NN2c2ccc(S(N)(=O)=O)cc2)cc1OC
REMARK SMILES IDX 20 1 21 2 22 3 23 4 28 5 29 6 19 7 7 8 8 9 9 10 18 11 6 12
REMARK SMILES IDX 3 13 4 14 31 15 5 16 30 17 2 18 1 19 32 20 33 21 10 22 11 23
REMARK SMILES IDX 16 24 12 25 15 26 14 27 17 28 13 29 24 30 26 31 27 32 25 33
REMARK H PARENT 25 34 25 35
ROOT
ATOM      1  C   UNL     1      -1.624   1.433  -0.474  1.00  0.00     0.060 A 
ATOM      2  C   UNL     1      -2.621   1.999   0.342  1.00  0.00     0.029 A 
ATOM      3  C   UNL     1      -2.851   3.378   0.387  1.00  0.00     0.024 A 
ATOM      4  C   UNL     1      -2.067   4.226  -0.390  1.00  0.00     0.082 A 
ATOM      5  C   UNL     1      -1.078   3.703  -1.221  1.00  0.00     0.024 A 
ATOM      6  C   UNL     1      -0.862   2.319  -1.255  1.00  0.00     0.029 A 
ENDROOT
BRANCH   1   7
ATOM      7  N   UNL     1      -1.422   0.054  -0.496  1.00  0.00    -0.257 N 
ATOM      8  C   UNL     1      -0.418  -0.658  -1.287  1.00  0.00     0.144 C 
ATOM      9  C   UNL     1      -0.886  -2.111  -1.180  1.00  0.00     0.091 C 
ATOM     10  C   UNL     1      -1.869  -1.994  -0.043  1.00  0.00     0.074 C 
ATOM     11  N   UNL     1      -2.174  -0.777   0.285  1.00  0.00    -0.176 NA
BRANCH   8  12
ATOM     12  C   UNL     1       0.999  -0.504  -0.756  1.00  0.00    -0.019 A 
ATOM     13  C   UNL     1       3.677  -0.255   0.155  1.00  0.00     0.160 A 
ATOM     14  C   UNL     1       2.599  -0.185   1.048  1.00  0.00     0.051 A 
ATOM     15  C   UNL     1       3.409  -0.489  -1.204  1.00  0.00     0.161 A 
ATOM     16  C   UNL     1       1.280  -0.314   0.601  1.00  0.00     0.010 A 
ATOM     17  C   UNL     1       2.080  -0.593  -1.645  1.00  0.00     0.056 A 
BRANCH  13  18
ATOM     18  O   UNL     1       4.982  -0.096   0.538  1.00  0.00    -0.493 OA
ATOM     19  C   UNL     1       5.237   0.332   1.869  1.00  0.00     0.278 C 
ENDBRANCH  13  18
BRANCH  15  20
ATOM     20  O   UNL     1       4.312  -0.599  -2.232  1.00  0.00    -0.493 OA
ATOM     21  C   UNL     1       5.620  -1.050  -1.905  1.00  0.00     0.278 C 
ENDBRANCH  15  20
ENDBRANCH   8  12
BRANCH  10  22
ATOM     22  C   UNL     1      -2.452  -3.191   0.601  1.00  0.00     0.037 A 
ATOM     23  C   UNL     1      -2.321  -4.452   0.007  1.00  0.00     0.052 A 
ATOM     24  C   UNL     1      -3.146  -3.081   1.812  1.00  0.00     0.132 A 
ATOM     25  C   UNL     1      -2.882  -5.567   0.626  1.00  0.00     0.124 A 
ATOM     26  C   UNL     1      -3.704  -4.205   2.424  1.00  0.00     0.043 A 
ATOM     27  C   UNL     1      -3.572  -5.457   1.828  1.00  0.00     0.042 A 
ATOM     28  F   UNL     1      -3.284  -1.904   2.438  1.00  0.00    -0.206 F 
ATOM     29  F   UNL     1      -2.754  -6.768   0.049  1.00  0.00    -0.207 F 
ENDBRANCH  10  22
ENDBRANCH   1   7
BRANCH   4  30
ATOM     30  S   UNL     1      -2.364   5.967  -0.365  1.00  0.00     0.238 S 
ATOM     31  O   UNL     1      -3.710   6.219   0.094  1.00  0.00    -0.207 OA
ATOM     32  O   UNL     1      -1.836   6.559  -1.572  1.00  0.00    -0.207 OA
BRANCH  30  33
ATOM     33  N   UNL     1      -1.353   6.476   0.875  1.00  0.00    -0.225 NA
ATOM     34  H   UNL     1      -0.644   7.109   0.505  1.00  0.00     0.137 HD
ATOM     35  H   UNL     1      -1.909   6.871   1.634  1.00  0.00     0.137 HD
ENDBRANCH  30  33
ENDBRANCH   4  30
TORSDOF 7
