REMARK SMILES CCOCC[n+]1ccc(CC=C(O)c2cc3cc(OC)c(OC)cc3s2)cc1
REMARK SMILES IDX 9 1 8 2 7 3 6 4 28 5 27 6 10 7 11 8 12 9 13 10 14 12 15 13
REMARK SMILES IDX 26 14 16 15 25 16 17 17 24 18 18 19 21 20 19 21 20 22 22 23
REMARK SMILES IDX 23 24 5 25 4 26 3 27 2 28 1 29
REMARK H PARENT 13 11
ROOT
ATOM      1  C   UNL     1       2.301  -0.560  -1.303  1.00  0.00    -0.032 A 
ATOM      2  C   UNL     1       3.014  -1.532  -0.601  1.00  0.00     0.074 A 
ATOM      3  C   UNL     1       3.882  -1.149   0.415  1.00  0.00     0.308 A 
ATOM      4  N   UNL     1       4.043   0.157   0.730  1.00  0.00    -0.203 N 
ATOM      5  C   UNL     1       3.352   1.116   0.072  1.00  0.00     0.308 A 
ATOM      6  C   UNL     1       2.474   0.779  -0.950  1.00  0.00     0.074 A 
ENDROOT
BRANCH   1   7
ATOM      7  C   UNL     1       1.326  -0.939  -2.394  1.00  0.00     0.067 C 
BRANCH   7   8
ATOM      8  C   UNL     1      -0.083  -1.010  -1.883  1.00  0.00     0.025 C 
BRANCH   8   9
ATOM      9  C   UNL     1      -1.030  -0.096  -2.137  1.00  0.00     0.129 C 
BRANCH   9  10
ATOM     10  O   UNL     1      -0.743   1.044  -2.857  1.00  0.00    -0.507 OA
ATOM     11  H   UNL     1      -1.590   1.417  -3.166  1.00  0.00     0.293 HD
ENDBRANCH   9  10
BRANCH   9  12
ATOM     12  C   UNL     1      -2.366  -0.216  -1.648  1.00  0.00     0.070 A 
ATOM     13  C   UNL     1      -3.149   0.756  -1.051  1.00  0.00     0.032 A 
ATOM     14  S   UNL     1      -3.254  -1.679  -1.794  1.00  0.00    -0.132 S 
ATOM     15  C   UNL     1      -4.465   0.309  -0.692  1.00  0.00    -0.003 A 
ATOM     16  C   UNL     1      -4.656  -1.023  -1.046  1.00  0.00     0.039 A 
ATOM     17  C   UNL     1      -5.532   0.998  -0.064  1.00  0.00     0.060 A 
ATOM     18  C   UNL     1      -5.872  -1.691  -0.796  1.00  0.00     0.070 A 
ATOM     19  C   UNL     1      -6.748   0.350   0.193  1.00  0.00     0.161 A 
ATOM     20  C   UNL     1      -6.916  -0.995  -0.174  1.00  0.00     0.162 A 
BRANCH  19  21
ATOM     21  O   UNL     1      -7.825   0.946   0.801  1.00  0.00    -0.493 OA
ATOM     22  C   UNL     1      -7.731   2.327   1.120  1.00  0.00     0.278 C 
ENDBRANCH  19  21
BRANCH  20  23
ATOM     23  O   UNL     1      -8.139  -1.547   0.120  1.00  0.00    -0.493 OA
ATOM     24  C   UNL     1      -8.380  -2.886  -0.287  1.00  0.00     0.278 C 
ENDBRANCH  20  23
ENDBRANCH   9  12
ENDBRANCH   8   9
ENDBRANCH   7   8
ENDBRANCH   1   7
BRANCH   4  25
ATOM     25  C   UNL     1       4.968   0.539   1.819  1.00  0.00     0.385 C 
BRANCH  25  26
ATOM     26  C   UNL     1       6.365   0.784   1.258  1.00  0.00     0.233 C 
BRANCH  26  27
ATOM     27  O   UNL     1       7.217   1.141   2.341  1.00  0.00    -0.375 OA
BRANCH  27  28
ATOM     28  C   UNL     1       8.555   1.454   1.945  1.00  0.00     0.157 C 
ATOM     29  C   UNL     1       9.368   0.197   1.693  1.00  0.00     0.035 C 
ENDBRANCH  27  28
ENDBRANCH  26  27
ENDBRANCH  25  26
ENDBRANCH   4  25
TORSDOF 11
