REMARK SMILES COc1cc(C=Cc2nnc(-c3ccc(F)cc3)o2)ccc1O
REMARK SMILES IDX 6 1 5 2 22 3 21 4 3 5 20 6 4 7 23 8 2 10 1 11 7 12 8 13 9 14
REMARK SMILES IDX 19 15 10 16 11 17 12 18 13 19 18 20 14 21 17 22 15 23 16 24
REMARK H PARENT 23 9
ROOT
ATOM      1  C   UNL     1      -0.856  -0.378   0.205  1.00  0.00     0.014 C 
ENDROOT
BRANCH   1   2
ATOM      2  C   UNL     1      -2.246  -0.855   0.260  1.00  0.00    -0.022 A 
ATOM      3  C   UNL     1      -4.841  -1.860   0.333  1.00  0.00     0.157 A 
ATOM      4  C   UNL     1      -3.787  -2.671   0.730  1.00  0.00     0.051 A 
ATOM      5  C   UNL     1      -4.630  -0.551  -0.114  1.00  0.00     0.161 A 
ATOM      6  C   UNL     1      -2.487  -2.169   0.688  1.00  0.00     0.012 A 
ATOM      7  C   UNL     1      -3.325  -0.054  -0.154  1.00  0.00     0.058 A 
BRANCH   3   8
ATOM      8  O   UNL     1      -6.107  -2.376   0.382  1.00  0.00    -0.504 OA
ATOM      9  H   UNL     1      -6.686  -1.655   0.064  1.00  0.00     0.293 HD
ENDBRANCH   3   8
BRANCH   5  10
ATOM     10  O   UNL     1      -5.767   0.123  -0.481  1.00  0.00    -0.493 OA
ATOM     11  C   UNL     1      -5.598   1.463  -0.932  1.00  0.00     0.278 C 
ENDBRANCH   5  10
ENDBRANCH   1   2
BRANCH   1  12
ATOM     12  C   UNL     1      -0.483   0.859   0.570  1.00  0.00     0.071 C 
BRANCH  12  13
ATOM     13  C   UNL     1       0.873   1.280   0.510  1.00  0.00     0.241 A 
ATOM     14  N   UNL     1       1.324   2.482   0.839  1.00  0.00    -0.108 NA
ATOM     15  O   UNL     1       1.919   0.475   0.088  1.00  0.00    -0.417 OA
ATOM     16  N   UNL     1       2.687   2.493   0.640  1.00  0.00    -0.107 NA
ATOM     17  C   UNL     1       3.005   1.297   0.198  1.00  0.00     0.248 A 
BRANCH  17  18
ATOM     18  C   UNL     1       4.304   0.750  -0.175  1.00  0.00     0.039 A 
ATOM     19  C   UNL     1       5.451   1.557  -0.075  1.00  0.00     0.017 A 
ATOM     20  C   UNL     1       4.450  -0.569  -0.637  1.00  0.00     0.017 A 
ATOM     21  C   UNL     1       6.709   1.060  -0.426  1.00  0.00     0.040 A 
ATOM     22  C   UNL     1       5.708  -1.067  -0.989  1.00  0.00     0.040 A 
ATOM     23  C   UNL     1       6.825  -0.248  -0.880  1.00  0.00     0.123 A 
ATOM     24  F   UNL     1       8.030  -0.726  -1.216  1.00  0.00    -0.207 F 
ENDBRANCH  17  18
ENDBRANCH  12  13
ENDBRANCH   1  12
TORSDOF 6
