REMARK SMILES O=C(NCCNc1c2c(nc3ccccc13)CCCC2)c1ccc(F)cc1
REMARK SMILES IDX 4 1 5 2 6 3 7 5 8 6 16 7 9 8 20 9 15 10 11 11 10 12 17 13
REMARK SMILES IDX 19 14 14 15 12 16 18 17 13 18 3 19 2 20 1 22 21 23 22 24
REMARK SMILES IDX 27 25 23 26 26 27 24 28 25 29
REMARK H PARENT 6 4 3 21
ROOT
ATOM      1  C   UNL     1       1.546   0.398   1.947  1.00  0.00     0.137 C 
ENDROOT
BRANCH   1   2
ATOM      2  C   UNL     1       0.309   0.337   1.037  1.00  0.00     0.134 C 
BRANCH   2   3
ATOM      3  N   UNL     1      -0.910   0.212   1.859  1.00  0.00    -0.382 N 
ATOM      4  H   UNL     1      -0.898  -0.679   2.353  1.00  0.00     0.160 HD
BRANCH   3   5
ATOM      5  C   UNL     1      -2.081   0.283   1.047  1.00  0.00     0.049 A 
ATOM      6  C   UNL     1      -2.609  -0.863   0.432  1.00  0.00    -0.003 A 
ATOM      7  C   UNL     1      -2.666   1.549   0.769  1.00  0.00     0.024 A 
ATOM      8  C   UNL     1      -3.721  -0.701  -0.398  1.00  0.00     0.046 A 
ATOM      9  C   UNL     1      -2.105  -2.269   0.632  1.00  0.00     0.039 C 
ATOM     10  C   UNL     1      -2.204   2.761   1.335  1.00  0.00     0.012 A 
ATOM     11  C   UNL     1      -3.777   1.588  -0.101  1.00  0.00     0.073 A 
ATOM     12  N   UNL     1      -4.296   0.490  -0.668  1.00  0.00    -0.252 NA
ATOM     13  C   UNL     1      -4.338  -1.928  -1.018  1.00  0.00     0.056 C 
ATOM     14  C   UNL     1      -2.046  -3.038  -0.691  1.00  0.00     0.005 C 
ATOM     15  C   UNL     1      -2.811   3.980   1.036  1.00  0.00     0.001 A 
ATOM     16  C   UNL     1      -4.364   2.814  -0.384  1.00  0.00     0.029 A 
ATOM     17  C   UNL     1      -3.260  -2.834  -1.607  1.00  0.00     0.007 C 
ATOM     18  C   UNL     1      -3.894   4.007   0.171  1.00  0.00     0.002 A 
ENDBRANCH   3   5
ENDBRANCH   2   3
ENDBRANCH   1   2
BRANCH   1  19
ATOM     19  N   UNL     1       2.791   0.530   1.210  1.00  0.00    -0.350 N 
ATOM     20  C   UNL     1       3.324  -0.545   0.529  1.00  0.00     0.251 C 
ATOM     21  H   UNL     1       3.124   1.463   1.011  1.00  0.00     0.163 HD
ATOM     22  O   UNL     1       2.808  -1.656   0.523  1.00  0.00    -0.269 OA
BRANCH  20  23
ATOM     23  C   UNL     1       4.562  -0.287  -0.258  1.00  0.00     0.040 A 
ATOM     24  C   UNL     1       4.818  -1.094  -1.377  1.00  0.00     0.017 A 
ATOM     25  C   UNL     1       5.478   0.713   0.103  1.00  0.00     0.017 A 
ATOM     26  C   UNL     1       5.967  -0.888  -2.142  1.00  0.00     0.040 A 
ATOM     27  C   UNL     1       6.627   0.914  -0.666  1.00  0.00     0.040 A 
ATOM     28  C   UNL     1       6.859   0.115  -1.782  1.00  0.00     0.123 A 
ATOM     29  F   UNL     1       7.962   0.312  -2.514  1.00  0.00    -0.207 F 
ENDBRANCH  20  23
ENDBRANCH   1  19
TORSDOF 5
