REMARK SMILES COc1ccc2onc(CC[C@H]3CC[N@H+](Cc4ccccc4)CC3)c2c1
REMARK SMILES IDX 11 1 12 2 14 3 15 4 13 5 23 6 24 7 16 9 17 10 18 11 22 12
REMARK SMILES IDX 19 13 21 14 20 15 10 16 9 17 8 18 25 19 7 20 26 21 6 22 3 23
REMARK SMILES IDX 5 24 4 25 2 26 1 27
REMARK H PARENT 15 8
ROOT
ATOM      1  C   UNL     1      -0.852   0.452   0.930  1.00  0.00     0.010 C 
ENDROOT
BRANCH   1   2
ATOM      2  C   UNL     1       0.017  -0.371  -0.046  1.00  0.00     0.000 C 
ATOM      3  C   UNL     1       1.549  -2.357  -0.363  1.00  0.00     0.262 C 
ATOM      4  N   UNL     1       2.575  -1.440  -0.987  1.00  0.00    -0.331 N 
ATOM      5  C   UNL     1       0.697  -1.571   0.625  1.00  0.00     0.065 C 
ATOM      6  C   UNL     1       1.940  -0.265  -1.684  1.00  0.00     0.262 C 
ATOM      7  C   UNL     1       1.085   0.520  -0.697  1.00  0.00     0.065 C 
ATOM      8  H   UNL     1       3.157  -1.078  -0.222  1.00  0.00     0.348 HD
BRANCH   4   9
ATOM      9  C   UNL     1       3.521  -2.180  -1.913  1.00  0.00     0.299 C 
BRANCH   9  10
ATOM     10  C   UNL     1       4.457  -3.104  -1.184  1.00  0.00     0.006 A 
ATOM     11  C   UNL     1       5.519  -2.587  -0.424  1.00  0.00     0.009 A 
ATOM     12  C   UNL     1       4.271  -4.494  -1.234  1.00  0.00     0.009 A 
ATOM     13  C   UNL     1       6.370  -3.444   0.274  1.00  0.00     0.001 A 
ATOM     14  C   UNL     1       5.125  -5.347  -0.534  1.00  0.00     0.001 A 
ATOM     15  C   UNL     1       6.172  -4.822   0.221  1.00  0.00     0.000 A 
ENDBRANCH   9  10
ENDBRANCH   4   9
ENDBRANCH   1   2
BRANCH   1  16
ATOM     16  C   UNL     1      -1.994  -0.316   1.613  1.00  0.00     0.061 C 
BRANCH  16  17
ATOM     17  C   UNL     1      -2.968  -0.911   0.654  1.00  0.00     0.092 A 
ATOM     18  N   UNL     1      -2.724  -2.118   0.121  1.00  0.00    -0.084 NA
ATOM     19  C   UNL     1      -4.186  -0.364   0.174  1.00  0.00     0.049 A 
ATOM     20  O   UNL     1      -3.793  -2.377  -0.722  1.00  0.00    -0.356 OA
ATOM     21  C   UNL     1      -4.933   0.816   0.358  1.00  0.00     0.060 A 
ATOM     22  C   UNL     1      -4.662  -1.333  -0.691  1.00  0.00     0.167 A 
ATOM     23  C   UNL     1      -6.137   0.960  -0.347  1.00  0.00     0.119 A 
ATOM     24  C   UNL     1      -5.847  -1.228  -1.409  1.00  0.00     0.054 A 
ATOM     25  C   UNL     1      -6.576  -0.049  -1.216  1.00  0.00     0.050 A 
BRANCH  23  26
ATOM     26  O   UNL     1      -6.973   2.043  -0.280  1.00  0.00    -0.497 OA
ATOM     27  C   UNL     1      -6.650   3.058   0.662  1.00  0.00     0.278 C 
ENDBRANCH  23  26
ENDBRANCH  16  17
ENDBRANCH   1  16
TORSDOF 6
