REMARK SMILES COc1cccc([C@@H]2CC(c3cc(F)ccc3F)=NN2c2ccc(S(N)(=O)=O)cc2)c1OC
REMARK SMILES IDX 21 1 22 2 23 3 24 4 29 5 30 6 20 7 8 8 9 9 10 10 19 11 7 12
REMARK SMILES IDX 3 13 4 14 31 15 5 16 6 17 2 18 1 19 32 20 33 21 11 22 12 23
REMARK SMILES IDX 17 24 13 25 16 26 15 27 18 28 14 29 25 30 27 31 28 32 26 33
REMARK H PARENT 26 34 26 35
ROOT
ATOM      1  C   UNL     1       1.946  -0.163  -0.422  1.00  0.00     0.060 A 
ATOM      2  C   UNL     1       1.969  -1.568  -0.467  1.00  0.00     0.029 A 
ATOM      3  C   UNL     1       3.045  -2.271  -1.022  1.00  0.00     0.024 A 
ATOM      4  C   UNL     1       4.129  -1.567  -1.542  1.00  0.00     0.082 A 
ATOM      5  C   UNL     1       4.136  -0.175  -1.531  1.00  0.00     0.024 A 
ATOM      6  C   UNL     1       3.054   0.511  -0.970  1.00  0.00     0.029 A 
ENDROOT
BRANCH   1   7
ATOM      7  N   UNL     1       0.881   0.549   0.127  1.00  0.00    -0.257 N 
ATOM      8  C   UNL     1      -0.331  -0.033   0.718  1.00  0.00     0.148 C 
ATOM      9  C   UNL     1      -0.938   1.153   1.469  1.00  0.00     0.091 C 
ATOM     10  C   UNL     1      -0.112   2.280   0.912  1.00  0.00     0.074 C 
ATOM     11  N   UNL     1       0.910   1.912   0.198  1.00  0.00    -0.176 NA
BRANCH   8  12
ATOM     12  C   UNL     1      -1.311  -0.583  -0.310  1.00  0.00     0.023 A 
ATOM     13  C   UNL     1      -3.203  -2.055  -0.847  1.00  0.00     0.161 A 
ATOM     14  C   UNL     1      -3.194  -1.567  -2.157  1.00  0.00     0.050 A 
ATOM     15  C   UNL     1      -2.239  -1.577   0.066  1.00  0.00     0.166 A 
ATOM     16  C   UNL     1      -2.270  -0.597  -2.545  1.00  0.00     0.004 A 
ATOM     17  C   UNL     1      -1.346  -0.100  -1.629  1.00  0.00     0.010 A 
BRANCH  13  18
ATOM     18  O   UNL     1      -4.109  -2.968  -0.374  1.00  0.00    -0.493 OA
ATOM     19  C   UNL     1      -5.160  -3.367  -1.244  1.00  0.00     0.278 C 
ENDBRANCH  13  18
BRANCH  15  20
ATOM     20  O   UNL     1      -2.192  -1.978   1.382  1.00  0.00    -0.492 OA
ATOM     21  C   UNL     1      -2.092  -3.393   1.540  1.00  0.00     0.278 C 
ENDBRANCH  15  20
ENDBRANCH   8  12
BRANCH  10  22
ATOM     22  C   UNL     1      -0.422   3.700   1.181  1.00  0.00     0.037 A 
ATOM     23  C   UNL     1       0.296   4.687   0.492  1.00  0.00     0.052 A 
ATOM     24  C   UNL     1      -1.402   4.090   2.098  1.00  0.00     0.132 A 
ATOM     25  C   UNL     1       0.021   6.030   0.726  1.00  0.00     0.124 A 
ATOM     26  C   UNL     1      -1.672   5.440   2.327  1.00  0.00     0.043 A 
ATOM     27  C   UNL     1      -0.958   6.417   1.636  1.00  0.00     0.042 A 
ATOM     28  F   UNL     1      -2.103   3.187   2.796  1.00  0.00    -0.206 F 
ATOM     29  F   UNL     1       0.708   6.969   0.063  1.00  0.00    -0.207 F 
ENDBRANCH  10  22
ENDBRANCH   1   7
BRANCH   4  30
ATOM     30  S   UNL     1       5.503  -2.437  -2.243  1.00  0.00     0.238 S 
ATOM     31  O   UNL     1       5.149  -3.832  -2.377  1.00  0.00    -0.207 OA
ATOM     32  O   UNL     1       6.029  -1.659  -3.339  1.00  0.00    -0.207 OA
BRANCH  30  33
ATOM     33  N   UNL     1       6.617  -2.378  -0.979  1.00  0.00    -0.225 NA
ATOM     34  H   UNL     1       6.786  -3.329  -0.647  1.00  0.00     0.137 HD
ATOM     35  H   UNL     1       6.331  -1.756  -0.224  1.00  0.00     0.137 HD
ENDBRANCH  30  33
ENDBRANCH   4  30
TORSDOF 7
