REMARK SMILES COc1ccc(OC)c([C@@H]2C=C(c3cc(F)ccc3F)NN2c2ccc(S(N)(=O)=O)cc2)c1
REMARK SMILES IDX 23 1 24 2 25 3 26 4 31 5 32 6 22 7 21 8 12 9 11 10 10 11
REMARK SMILES IDX 13 13 14 14 19 15 15 16 18 17 17 18 20 19 16 20 9 21 33 22
REMARK SMILES IDX 6 23 3 24 5 25 4 26 7 27 8 28 2 29 1 30 27 31 29 32 30 33
REMARK SMILES IDX 28 34
REMARK H PARENT 21 12 28 35 28 36
ROOT
ATOM      1  C   UNL     1       1.545  -0.569  -0.229  1.00  0.00     0.058 A 
ATOM      2  C   UNL     1       2.826  -0.112  -0.597  1.00  0.00     0.029 A 
ATOM      3  C   UNL     1       3.889  -0.990  -0.836  1.00  0.00     0.024 A 
ATOM      4  C   UNL     1       3.681  -2.360  -0.710  1.00  0.00     0.082 A 
ATOM      5  C   UNL     1       2.421  -2.853  -0.375  1.00  0.00     0.024 A 
ATOM      6  C   UNL     1       1.368  -1.959  -0.140  1.00  0.00     0.029 A 
ENDROOT
BRANCH   1   7
ATOM      7  N   UNL     1       0.502   0.346  -0.018  1.00  0.00    -0.276 N 
ATOM      8  N   UNL     1       0.723   1.718   0.080  1.00  0.00    -0.297 N 
ATOM      9  C   UNL     1      -0.288   2.328   0.810  1.00  0.00     0.063 C 
ATOM     10  C   UNL     1      -1.118   1.393   1.302  1.00  0.00     0.033 C 
ATOM     11  C   UNL     1      -0.682   0.015   0.835  1.00  0.00     0.165 C 
ATOM     12  H   UNL     1       0.890   2.198  -0.808  1.00  0.00     0.188 HD
BRANCH   9  13
ATOM     13  C   UNL     1      -0.404   3.786   0.924  1.00  0.00     0.038 A 
ATOM     14  C   UNL     1      -1.048   4.373   2.023  1.00  0.00     0.052 A 
ATOM     15  C   UNL     1       0.141   4.644  -0.047  1.00  0.00     0.132 A 
ATOM     16  C   UNL     1      -1.143   5.760   2.126  1.00  0.00     0.124 A 
ATOM     17  C   UNL     1       0.043   6.032   0.059  1.00  0.00     0.043 A 
ATOM     18  C   UNL     1      -0.604   6.595   1.155  1.00  0.00     0.042 A 
ATOM     19  F   UNL     1       0.766   4.140  -1.125  1.00  0.00    -0.206 F 
ATOM     20  F   UNL     1      -1.761   6.299   3.185  1.00  0.00    -0.207 F 
ENDBRANCH   9  13
BRANCH  11  21
ATOM     21  C   UNL     1      -1.791  -0.733   0.114  1.00  0.00     0.026 A 
ATOM     22  C   UNL     1      -2.352  -1.868   0.746  1.00  0.00     0.056 A 
ATOM     23  C   UNL     1      -2.310  -0.349  -1.133  1.00  0.00     0.124 A 
ATOM     24  C   UNL     1      -3.383  -2.597   0.149  1.00  0.00     0.119 A 
ATOM     25  C   UNL     1      -3.357  -1.062  -1.721  1.00  0.00     0.050 A 
ATOM     26  C   UNL     1      -3.881  -2.186  -1.086  1.00  0.00     0.050 A 
BRANCH  23  27
ATOM     27  O   UNL     1      -1.855   0.787  -1.748  1.00  0.00    -0.496 OA
ATOM     28  C   UNL     1      -1.157   0.478  -2.954  1.00  0.00     0.278 C 
ENDBRANCH  23  27
BRANCH  24  29
ATOM     29  O   UNL     1      -3.987  -3.709   0.666  1.00  0.00    -0.497 OA
ATOM     30  C   UNL     1      -3.508  -4.188   1.916  1.00  0.00     0.278 C 
ENDBRANCH  24  29
ENDBRANCH  11  21
ENDBRANCH   1   7
BRANCH   4  31
ATOM     31  S   UNL     1       5.013  -3.488  -1.010  1.00  0.00     0.238 S 
ATOM     32  O   UNL     1       4.458  -4.771  -1.372  1.00  0.00    -0.207 OA
ATOM     33  O   UNL     1       6.013  -2.818  -1.809  1.00  0.00    -0.207 OA
BRANCH  31  34
ATOM     34  N   UNL     1       5.682  -3.631   0.530  1.00  0.00    -0.225 NA
ATOM     35  H   UNL     1       5.114  -3.194   1.255  1.00  0.00     0.137 HD
ATOM     36  H   UNL     1       6.631  -3.253   0.511  1.00  0.00     0.137 HD
ENDBRANCH  31  34
ENDBRANCH   4  31
TORSDOF 7
