REMARK SMILES Cc1cc(=O)[nH]c2c1C(=O)C(=NCCCCN=c1c3c([nH]c4cc(Cl)ccc14)CCCC3)CC2=O
REMARK SMILES IDX 15 1 16 2 17 3 18 4 21 5 20 6 22 7 19 8 29 9 23 10 28 11
REMARK SMILES IDX 32 12 30 13 24 14 27 15 31 16 26 17 25 19 14 20 13 21 12 22
REMARK SMILES IDX 11 23 33 24 9 25 34 26 8 27 7 28 2 29 6 30 3 31 4 32 10 33
REMARK SMILES IDX 35 34 1 35 5 37
REMARK H PARENT 21 18 6 36
ROOT
ATOM      1  C   UNL     1       0.922  -4.194  -1.480  1.00  0.00     0.025 C 
ENDROOT
BRANCH   1   2
ATOM      2  C   UNL     1      -0.361  -3.437  -1.137  1.00  0.00     0.143 C 
BRANCH   2   3
ATOM      3  N   UNL     1      -1.387  -4.366  -0.716  1.00  0.00    -0.284 NA
BRANCH   3   4
ATOM      4  C   UNL     1      -2.140  -5.101  -1.450  1.00  0.00     0.072 A 
ATOM      5  N   UNL     1      -3.349  -7.311  -2.750  1.00  0.00    -0.358 N 
ATOM      6  C   UNL     1      -2.829  -6.278  -3.503  1.00  0.00     0.021 A 
ATOM      7  C   UNL     1      -3.592  -7.145  -1.381  1.00  0.00     0.049 A 
ATOM      8  C   UNL     1      -2.261  -5.173  -2.963  1.00  0.00    -0.003 A 
ATOM      9  C   UNL     1      -2.967  -6.455  -5.004  1.00  0.00     0.054 C 
ATOM     10  C   UNL     1      -4.338  -8.091  -0.669  1.00  0.00     0.047 A 
ATOM     11  C   UNL     1      -3.019  -6.065  -0.696  1.00  0.00     0.024 A 
ATOM     12  C   UNL     1      -1.834  -4.007  -3.812  1.00  0.00     0.039 C 
ATOM     13  C   UNL     1      -2.185  -5.440  -5.833  1.00  0.00     0.007 C 
ATOM     14  C   UNL     1      -4.542  -7.934   0.702  1.00  0.00     0.043 A 
ATOM     15  C   UNL     1      -3.225  -5.918   0.684  1.00  0.00     0.014 A 
ATOM     16  C   UNL     1      -2.354  -4.048  -5.250  1.00  0.00     0.005 C 
ATOM     17  C   UNL     1      -3.994  -6.850   1.382  1.00  0.00     0.021 A 
ATOM     18  H   UNL     1      -3.935  -7.980  -3.240  1.00  0.00     0.166 HD
ATOM     19  Cl  UNL     1      -5.476  -9.096   1.562  1.00  0.00    -0.084 Cl
ENDBRANCH   3   4
ENDBRANCH   2   3
ENDBRANCH   1   2
BRANCH   1  20
ATOM     20  C   UNL     1       2.027  -3.288  -2.026  1.00  0.00     0.025 C 
BRANCH  20  21
ATOM     21  C   UNL     1       2.550  -2.284  -0.999  1.00  0.00     0.142 C 
BRANCH  21  22
ATOM     22  N   UNL     1       3.656  -1.551  -1.608  1.00  0.00    -0.285 NA
BRANCH  22  23
ATOM     23  C   UNL     1       4.193  -0.569  -0.967  1.00  0.00     0.091 C 
ATOM     24  C   UNL     1       3.841  -0.069   0.397  1.00  0.00     0.142 C 
ATOM     25  C   UNL     1       5.310   0.195  -1.643  1.00  0.00     0.209 C 
ATOM     26  C   UNL     1       5.049   0.299   1.211  1.00  0.00     0.185 C 
ATOM     27  C   UNL     1       6.519   0.440  -0.811  1.00  0.00     0.054 A 
ATOM     28  C   UNL     1       6.366   0.482   0.525  1.00  0.00     0.097 A 
ATOM     29  C   UNL     1       7.849   0.665  -1.387  1.00  0.00    -0.032 A 
ATOM     30  N   UNL     1       7.445   0.735   1.344  1.00  0.00    -0.319 N 
ATOM     31  C   UNL     1       8.895   0.908  -0.573  1.00  0.00     0.075 A 
ATOM     32  C   UNL     1       8.718   0.959   0.898  1.00  0.00     0.248 A 
ATOM     33  O   UNL     1       5.171   0.592  -2.788  1.00  0.00    -0.287 OA
ATOM     34  O   UNL     1       4.973   0.477   2.427  1.00  0.00    -0.292 OA
ATOM     35  C   UNL     1       8.045   0.598  -2.876  1.00  0.00     0.045 C 
ATOM     36  H   UNL     1       7.291   0.780   2.349  1.00  0.00     0.170 HD
ATOM     37  O   UNL     1       9.661   1.188   1.645  1.00  0.00    -0.270 OA
ENDBRANCH  22  23
ENDBRANCH  21  22
ENDBRANCH  20  21
ENDBRANCH   1  20
TORSDOF 7
