REMARK SMILES COc1cc2c(cc1OC)SC(=C(O)CCc1cc[n+](Cc3ccsc3)cc1)C2
REMARK SMILES IDX 15 1 13 2 14 3 12 5 29 6 11 7 5 8 6 9 4 10 7 11 3 12 8 13
REMARK SMILES IDX 2 14 1 15 9 16 10 17 16 18 17 19 18 20 28 21 19 22 27 23
REMARK SMILES IDX 20 24 21 25 22 26 23 27 26 28 24 29 25 30
REMARK H PARENT 14 4
ROOT
ATOM      1  C   UNL     1       0.483  -0.237  -2.607  1.00  0.00     0.080 C 
ENDROOT
BRANCH   1   2
ATOM      2  C   UNL     1      -0.224  -1.031  -1.534  1.00  0.00     0.103 C 
BRANCH   2   3
ATOM      3  O   UNL     1       0.535  -2.070  -1.012  1.00  0.00    -0.511 OA
ATOM      4  H   UNL     1      -0.067  -2.586  -0.437  1.00  0.00     0.293 HD
ENDBRANCH   2   3
BRANCH   2   5
ATOM      5  C   UNL     1      -1.487  -0.809  -1.123  1.00  0.00     0.032 C 
ATOM      6  C   UNL     1      -2.408   0.282  -1.633  1.00  0.00     0.083 C 
ATOM      7  S   UNL     1      -2.215  -1.788   0.146  1.00  0.00    -0.090 SA
ATOM      8  C   UNL     1      -3.667   0.220  -0.815  1.00  0.00    -0.025 A 
ATOM      9  C   UNL     1      -3.696  -0.806   0.131  1.00  0.00     0.020 A 
ATOM     10  C   UNL     1      -4.750   1.085  -0.950  1.00  0.00     0.055 A 
ATOM     11  C   UNL     1      -4.795  -0.991   0.958  1.00  0.00     0.066 A 
ATOM     12  C   UNL     1      -5.869   0.914  -0.125  1.00  0.00     0.161 A 
ATOM     13  C   UNL     1      -5.891  -0.129   0.834  1.00  0.00     0.161 A 
BRANCH  12  14
ATOM     14  O   UNL     1      -6.988   1.709  -0.168  1.00  0.00    -0.493 OA
ATOM     15  C   UNL     1      -7.051   2.716  -1.167  1.00  0.00     0.278 C 
ENDBRANCH  12  14
BRANCH  13  16
ATOM     16  O   UNL     1      -7.029  -0.212   1.599  1.00  0.00    -0.493 OA
ATOM     17  C   UNL     1      -7.136  -1.294   2.513  1.00  0.00     0.278 C 
ENDBRANCH  13  16
ENDBRANCH   2   5
ENDBRANCH   1   2
BRANCH   1  18
ATOM     18  C   UNL     1       1.419   0.847  -2.051  1.00  0.00     0.044 C 
BRANCH  18  19
ATOM     19  C   UNL     1       2.604   0.301  -1.288  1.00  0.00    -0.036 A 
ATOM     20  C   UNL     1       3.667  -0.303  -1.958  1.00  0.00     0.074 A 
ATOM     21  C   UNL     1       2.635   0.348   0.105  1.00  0.00     0.074 A 
ATOM     22  C   UNL     1       4.719  -0.850  -1.231  1.00  0.00     0.308 A 
ATOM     23  C   UNL     1       3.705  -0.213   0.790  1.00  0.00     0.308 A 
ATOM     24  N   UNL     1       4.723  -0.800   0.120  1.00  0.00    -0.201 N 
BRANCH  24  25
ATOM     25  C   UNL     1       5.845  -1.406   0.878  1.00  0.00     0.394 C 
BRANCH  25  26
ATOM     26  C   UNL     1       6.768  -0.336   1.373  1.00  0.00     0.027 A 
ATOM     27  C   UNL     1       6.891   0.061   2.749  1.00  0.00     0.022 A 
ATOM     28  C   UNL     1       7.628   0.401   0.577  1.00  0.00     0.075 A 
ATOM     29  C   UNL     1       7.809   1.073   2.930  1.00  0.00     0.065 A 
ATOM     30  S   UNL     1       8.532   1.552   1.461  1.00  0.00    -0.152 S 
ENDBRANCH  25  26
ENDBRANCH  24  25
ENDBRANCH  18  19
ENDBRANCH   1  18
TORSDOF 9
