REMARK SMILES O=C1C(NCCCN=c2c3c([nH]c4cc(Cl)ccc24)CCCC3)=CC(=O)c2c(O)cccc21
REMARK SMILES IDX 6 1 7 2 8 3 9 4 12 5 11 6 13 7 10 8 20 9 14 10 19 11 23 12
REMARK SMILES IDX 21 13 15 14 18 15 22 16 17 17 16 19 5 20 4 21 3 23 24 24
REMARK SMILES IDX 2 25 25 26 33 27 27 28 32 29 28 30 31 31 30 32 1 33 26 34
REMARK SMILES IDX 29 35
REMARK H PARENT 12 18 4 22 29 36
ROOT
ATOM      1  C   UNL     1      -0.075   0.046   1.512  1.00  0.00     0.045 C 
ENDROOT
BRANCH   1   2
ATOM      2  C   UNL     1       0.514   0.357   0.137  1.00  0.00     0.144 C 
BRANCH   2   3
ATOM      3  N   UNL     1       1.833   0.936   0.306  1.00  0.00    -0.284 NA
BRANCH   3   4
ATOM      4  C   UNL     1       2.968   0.413  -0.017  1.00  0.00     0.072 A 
ATOM      5  N   UNL     1       5.316  -0.110  -1.478  1.00  0.00    -0.358 N 
ATOM      6  C   UNL     1       5.241   1.033  -0.706  1.00  0.00     0.021 A 
ATOM      7  C   UNL     1       4.435  -1.179  -1.246  1.00  0.00     0.049 A 
ATOM      8  C   UNL     1       4.163   1.332   0.045  1.00  0.00    -0.003 A 
ATOM      9  C   UNL     1       6.440   1.956  -0.756  1.00  0.00     0.054 C 
ATOM     10  C   UNL     1       4.717  -2.444  -1.778  1.00  0.00     0.047 A 
ATOM     11  C   UNL     1       3.263  -0.981  -0.488  1.00  0.00     0.024 A 
ATOM     12  C   UNL     1       4.049   2.567   0.897  1.00  0.00     0.039 C 
ATOM     13  C   UNL     1       6.173   3.352  -0.191  1.00  0.00     0.007 C 
ATOM     14  C   UNL     1       3.887  -3.523  -1.486  1.00  0.00     0.043 A 
ATOM     15  C   UNL     1       2.477  -2.089  -0.152  1.00  0.00     0.014 A 
ATOM     16  C   UNL     1       5.389   3.271   1.112  1.00  0.00     0.005 C 
ATOM     17  C   UNL     1       2.781  -3.356  -0.658  1.00  0.00     0.021 A 
ATOM     18  H   UNL     1       6.227  -0.338  -1.861  1.00  0.00     0.166 HD
ATOM     19  Cl  UNL     1       4.253  -5.079  -2.120  1.00  0.00    -0.084 Cl
ENDBRANCH   3   4
ENDBRANCH   2   3
ENDBRANCH   1   2
BRANCH   1  20
ATOM     20  C   UNL     1      -1.407  -0.693   1.422  1.00  0.00     0.115 C 
BRANCH  20  21
ATOM     21  N   UNL     1      -2.430   0.146   0.822  1.00  0.00    -0.382 N 
ATOM     22  H   UNL     1      -2.412   1.127   1.129  1.00  0.00     0.160 HD
BRANCH  21  23
ATOM     23  C   UNL     1      -3.736  -0.242   0.541  1.00  0.00     0.087 C 
ATOM     24  C   UNL     1      -4.152  -1.490   0.303  1.00  0.00     0.082 C 
ATOM     25  C   UNL     1      -4.745   0.869   0.512  1.00  0.00     0.209 C 
ATOM     26  C   UNL     1      -5.551  -1.852   0.003  1.00  0.00     0.192 C 
ATOM     27  C   UNL     1      -6.138   0.557   0.142  1.00  0.00     0.039 A 
ATOM     28  C   UNL     1      -6.544  -0.755  -0.110  1.00  0.00     0.075 A 
ATOM     29  C   UNL     1      -7.056   1.617   0.054  1.00  0.00     0.013 A 
ATOM     30  C   UNL     1      -7.885  -0.990  -0.458  1.00  0.00     0.127 A 
ATOM     31  C   UNL     1      -8.382   1.370  -0.290  1.00  0.00     0.005 A 
ATOM     32  C   UNL     1      -8.798   0.067  -0.547  1.00  0.00     0.047 A 
ATOM     33  O   UNL     1      -4.409   2.016   0.802  1.00  0.00    -0.287 OA
ATOM     34  O   UNL     1      -5.820  -3.038  -0.137  1.00  0.00    -0.289 OA
BRANCH  30  35
ATOM     35  O   UNL     1      -8.330  -2.253  -0.723  1.00  0.00    -0.507 OA
ATOM     36  H   UNL     1      -9.277  -2.246  -0.935  1.00  0.00     0.293 HD
ENDBRANCH  30  35
ENDBRANCH  21  23
ENDBRANCH  20  21
ENDBRANCH   1  20
TORSDOF 7
