REMARK SMILES COc1ccc([C@H](C)NS(N)(=O)=O)cc1
REMARK SMILES IDX 7 1 8 2 6 3 3 4 4 5 15 6 5 7 14 8 2 9 1 10 9 11 10 13 12 14
REMARK SMILES IDX 13 15 11 16
REMARK H PARENT 9 12 11 17 11 18
ROOT
ATOM      1  C   UNL     1      -1.446  -0.747   0.305  1.00  0.00     0.097 C 
ATOM      2  C   UNL     1      -1.847  -2.209   0.082  1.00  0.00     0.031 C 
ENDROOT
BRANCH   1   3
ATOM      3  C   UNL     1       0.043  -0.493   0.141  1.00  0.00    -0.030 A 
ATOM      4  C   UNL     1       2.792   0.102  -0.146  1.00  0.00     0.118 A 
ATOM      5  C   UNL     1       2.170  -0.817  -0.993  1.00  0.00     0.047 A 
ATOM      6  C   UNL     1       2.037   0.734   0.839  1.00  0.00     0.047 A 
ATOM      7  C   UNL     1       0.808  -1.108  -0.859  1.00  0.00     0.009 A 
ATOM      8  C   UNL     1       0.675   0.442   0.977  1.00  0.00     0.009 A 
BRANCH   4   9
ATOM      9  O   UNL     1       4.124   0.293  -0.390  1.00  0.00    -0.497 OA
ATOM     10  C   UNL     1       4.800   1.226   0.444  1.00  0.00     0.278 C 
ENDBRANCH   4   9
ENDBRANCH   1   3
BRANCH   1  11
ATOM     11  N   UNL     1      -2.221   0.082  -0.646  1.00  0.00    -0.195 NA
ATOM     12  H   UNL     1      -1.631   0.456  -1.391  1.00  0.00     0.143 HD
BRANCH  11  13
ATOM     13  S   UNL     1      -3.142   1.305  -0.005  1.00  0.00     0.274 S 
ATOM     14  O   UNL     1      -3.796   1.978  -1.095  1.00  0.00    -0.195 OA
ATOM     15  O   UNL     1      -2.407   1.998   1.018  1.00  0.00    -0.195 OA
BRANCH  13  16
ATOM     16  N   UNL     1      -4.304   0.378   0.738  1.00  0.00    -0.216 NA
ATOM     17  H   UNL     1      -4.917  -0.009   0.019  1.00  0.00     0.138 HD
ATOM     18  H   UNL     1      -4.835   0.964   1.383  1.00  0.00     0.138 HD
ENDBRANCH  13  16
ENDBRANCH  11  13
ENDBRANCH   1  11
TORSDOF 5
