REMARK SMILES C#CCN=c1[nH]c(NCCCC[C@H]2CC[N@@H+](Cc3ccccc3)CC2)c(C#N)cc1C#N
REMARK SMILES IDX 9 1 8 2 7 4 6 5 5 6 26 7 30 8 29 9 4 11 3 12 2 13 1 14 27 15
REMARK SMILES IDX 28 16 31 17 32 18 10 19 11 20 12 21 13 22 14 23 25 24 15 25
REMARK SMILES IDX 24 26 16 27 17 29 18 30 19 31 23 32 20 33 22 34 21 35
REMARK H PARENT 8 3 6 10 16 28
ROOT
ATOM      1  C   UNL     1       2.225   1.863   1.025  1.00  0.00     0.114 C 
ENDROOT
BRANCH   1   2
ATOM      2  N   UNL     1       2.924   0.584   1.172  1.00  0.00    -0.370 N 
ATOM      3  H   UNL     1       3.413   0.568   2.067  1.00  0.00     0.162 HD
BRANCH   2   4
ATOM      4  C   UNL     1       3.760   0.079   0.183  1.00  0.00     0.123 A 
ATOM      5  N   UNL     1       5.097  -0.068   0.483  1.00  0.00    -0.325 N 
ATOM      6  C   UNL     1       6.079  -0.549  -0.360  1.00  0.00     0.145 A 
ATOM      7  C   UNL     1       3.350  -0.329  -1.049  1.00  0.00     0.094 A 
ATOM      8  C   UNL     1       5.642  -0.992  -1.736  1.00  0.00     0.096 A 
ATOM      9  C   UNL     1       4.326  -0.860  -2.003  1.00  0.00     0.046 A 
ATOM     10  H   UNL     1       5.429   0.241   1.387  1.00  0.00     0.170 HD
BRANCH   6  11
ATOM     11  N   UNL     1       7.255  -0.546   0.169  1.00  0.00    -0.254 NA
BRANCH  11  12
ATOM     12  C   UNL     1       8.453  -1.000  -0.510  1.00  0.00     0.233 C 
BRANCH  12  13
ATOM     13  C   UNL     1       9.541  -0.808   0.456  1.00  0.00    -0.083 C 
ATOM     14  C   UNL     1      10.437  -0.653   1.241  1.00  0.00     0.006 C 
ENDBRANCH  12  13
ENDBRANCH  11  12
ENDBRANCH   6  11
BRANCH   7  15
ATOM     15  C   UNL     1       1.981  -0.311  -1.454  1.00  0.00     0.103 C 
ATOM     16  N   UNL     1       0.874  -0.303  -1.811  1.00  0.00    -0.192 NA
ENDBRANCH   7  15
BRANCH   8  17
ATOM     17  C   UNL     1       6.519  -1.519  -2.715  1.00  0.00     0.103 C 
ATOM     18  N   UNL     1       7.206  -1.955  -3.541  1.00  0.00    -0.192 NA
ENDBRANCH   8  17
ENDBRANCH   2   4
ENDBRANCH   1   2
BRANCH   1  19
ATOM     19  C   UNL     1       1.387   2.176   2.269  1.00  0.00     0.021 C 
BRANCH  19  20
ATOM     20  C   UNL     1       0.386   1.092   2.696  1.00  0.00     0.002 C 
BRANCH  20  21
ATOM     21  C   UNL     1      -0.555   0.583   1.600  1.00  0.00     0.004 C 
BRANCH  21  22
ATOM     22  C   UNL     1      -1.581   1.632   1.113  1.00  0.00    -0.000 C 
ATOM     23  C   UNL     1      -2.983   1.366   1.684  1.00  0.00     0.065 C 
ATOM     24  C   UNL     1      -1.667   1.677  -0.419  1.00  0.00     0.065 C 
ATOM     25  C   UNL     1      -3.670   0.145   1.075  1.00  0.00     0.262 C 
ATOM     26  C   UNL     1      -2.297   0.423  -1.007  1.00  0.00     0.262 C 
ATOM     27  N   UNL     1      -3.684   0.255  -0.432  1.00  0.00    -0.331 N 
ATOM     28  H   UNL     1      -4.224   1.095  -0.670  1.00  0.00     0.348 HD
BRANCH  27  29
ATOM     29  C   UNL     1      -4.404  -0.903  -1.094  1.00  0.00     0.299 C 
BRANCH  29  30
ATOM     30  C   UNL     1      -5.883  -0.909  -0.823  1.00  0.00     0.006 A 
ATOM     31  C   UNL     1      -6.722   0.040  -1.429  1.00  0.00     0.009 A 
ATOM     32  C   UNL     1      -6.444  -1.850   0.055  1.00  0.00     0.009 A 
ATOM     33  C   UNL     1      -8.091   0.050  -1.155  1.00  0.00     0.001 A 
ATOM     34  C   UNL     1      -7.813  -1.836   0.325  1.00  0.00     0.001 A 
ATOM     35  C   UNL     1      -8.634  -0.885  -0.278  1.00  0.00     0.000 A 
ENDBRANCH  29  30
ENDBRANCH  27  29
ENDBRANCH  21  22
ENDBRANCH  20  21
ENDBRANCH  19  20
ENDBRANCH   1  19
TORSDOF 13
