REMARK SMILES CC[N@@H+](CCCOc1ccc2c(=O)c3ccccc3oc2c1)Cc1cccc(OC(=O)NC)c1
REMARK SMILES IDX 3 1 2 3 1 4 4 5 5 6 6 7 7 8 8 9 9 10 22 11 10 12 21 13 11 14
REMARK SMILES IDX 20 15 12 16 19 17 14 18 18 19 15 20 17 21 16 22 13 23 23 24
REMARK SMILES IDX 24 25 25 26 34 27 26 28 28 29 27 30 29 31 30 32 32 33 31 34
REMARK SMILES IDX 33 35
REMARK H PARENT 3 2 32 36
ROOT
ATOM      1  N   UNL     1       1.778  -2.561  -0.481  1.00  0.00    -0.331 N 
ATOM      2  H   UNL     1       1.139  -2.609  -1.284  1.00  0.00     0.348 HD
ENDROOT
BRANCH   1   3
ATOM      3  C   UNL     1       1.406  -3.769   0.357  1.00  0.00     0.259 C 
ATOM      4  C   UNL     1       1.794  -3.666   1.821  1.00  0.00     0.071 C 
ENDBRANCH   1   3
BRANCH   1   5
ATOM      5  C   UNL     1       1.514  -1.201   0.149  1.00  0.00     0.266 C 
BRANCH   5   6
ATOM      6  C   UNL     1       0.022  -0.971   0.336  1.00  0.00     0.103 C 
BRANCH   6   7
ATOM      7  C   UNL     1      -0.239   0.391   0.981  1.00  0.00     0.235 C 
BRANCH   7   8
ATOM      8  O   UNL     1      -1.637   0.562   1.201  1.00  0.00    -0.493 OA
BRANCH   8   9
ATOM      9  C   UNL     1      -2.418   1.065   0.199  1.00  0.00     0.123 A 
ATOM     10  C   UNL     1      -1.983   1.477  -1.062  1.00  0.00     0.047 A 
ATOM     11  C   UNL     1      -3.779   1.150   0.517  1.00  0.00     0.094 A 
ATOM     12  C   UNL     1      -2.903   1.960  -1.998  1.00  0.00     0.020 A 
ATOM     13  C   UNL     1      -4.701   1.633  -0.413  1.00  0.00     0.142 A 
ATOM     14  C   UNL     1      -4.259   2.033  -1.669  1.00  0.00     0.066 A 
ATOM     15  O   UNL     1      -6.014   1.680  -0.014  1.00  0.00    -0.456 OA
ATOM     16  C   UNL     1      -5.242   2.529  -2.641  1.00  0.00     0.200 A 
ATOM     17  C   UNL     1      -6.945   2.162  -0.901  1.00  0.00     0.138 A 
ATOM     18  C   UNL     1      -6.640   2.591  -2.192  1.00  0.00     0.065 A 
ATOM     19  C   UNL     1      -8.266   2.211  -0.454  1.00  0.00     0.048 A 
ATOM     20  C   UNL     1      -7.643   3.068  -3.042  1.00  0.00     0.016 A 
ATOM     21  C   UNL     1      -9.273   2.687  -1.298  1.00  0.00     0.004 A 
ATOM     22  C   UNL     1      -8.962   3.115  -2.590  1.00  0.00     0.001 A 
ATOM     23  O   UNL     1      -4.904   2.866  -3.768  1.00  0.00    -0.288 OA
ENDBRANCH   8   9
ENDBRANCH   7   8
ENDBRANCH   6   7
ENDBRANCH   5   6
ENDBRANCH   1   5
BRANCH   1  24
ATOM     24  C   UNL     1       3.150  -2.668  -1.147  1.00  0.00     0.299 C 
BRANCH  24  25
ATOM     25  C   UNL     1       4.337  -2.498  -0.242  1.00  0.00     0.010 A 
ATOM     26  C   UNL     1       5.027  -3.604   0.278  1.00  0.00     0.010 A 
ATOM     27  C   UNL     1       4.747  -1.213   0.135  1.00  0.00     0.056 A 
ATOM     28  C   UNL     1       6.066  -3.425   1.196  1.00  0.00     0.004 A 
ATOM     29  C   UNL     1       5.729  -1.047   1.109  1.00  0.00     0.133 A 
ATOM     30  C   UNL     1       6.411  -2.144   1.625  1.00  0.00     0.047 A 
BRANCH  29  31
ATOM     31  O   UNL     1       6.088   0.223   1.589  1.00  0.00    -0.410 OA
BRANCH  31  32
ATOM     32  C   UNL     1       5.059   1.089   1.952  1.00  0.00     0.412 C 
ATOM     33  N   UNL     1       5.593   2.252   2.425  1.00  0.00    -0.324 N 
ATOM     34  O   UNL     1       3.859   0.859   1.850  1.00  0.00    -0.224 OA
ATOM     35  C   UNL     1       4.791   3.381   2.815  1.00  0.00     0.146 C 
ATOM     36  H   UNL     1       6.600   2.345   2.382  1.00  0.00     0.166 HD
ENDBRANCH  31  32
ENDBRANCH  29  31
ENDBRANCH  24  25
ENDBRANCH   1  24
TORSDOF 10
