REMARK SMILES Cc1cccc(C(=O)Nc2ccc3c(c2)CN(C(=O)c2cccc(Cl)c2)C(=O)C3)c1
REMARK SMILES IDX 10 1 11 2 12 3 13 4 14 5 15 6 16 7 17 8 27 9 28 10 29 11
REMARK SMILES IDX 9 12 7 13 8 14 6 16 2 17 3 18 30 19 4 20 5 21 1 22 18 23
REMARK SMILES IDX 19 24 20 25 21 26 26 27 22 28 24 29 23 30 25 31
REMARK H PARENT 9 15
ROOT
ATOM      1  C   UNL     1      -1.408   0.127   0.996  1.00  0.00     0.041 A 
ATOM      2  C   UNL     1      -1.162   1.215   1.844  1.00  0.00     0.026 A 
ATOM      3  C   UNL     1       0.129   1.487   2.303  1.00  0.00     0.007 A 
ATOM      4  C   UNL     1       1.197   0.682   1.903  1.00  0.00    -0.033 A 
ATOM      5  C   UNL     1       0.963  -0.403   1.054  1.00  0.00    -0.022 A 
ATOM      6  C   UNL     1      -0.338  -0.681   0.608  1.00  0.00     0.032 A 
ATOM      7  C   UNL     1       2.127  -1.279   0.688  1.00  0.00     0.164 C 
ATOM      8  N   UNL     1       3.343  -0.501   0.497  1.00  0.00    -0.274 N 
ATOM      9  C   UNL     1       3.700   0.411   1.490  1.00  0.00     0.234 C 
ATOM     10  O   UNL     1       4.848   0.828   1.658  1.00  0.00    -0.274 OA
ATOM     11  C   UNL     1       2.593   0.912   2.410  1.00  0.00     0.136 C 
ENDROOT
BRANCH   1  12
ATOM     12  N   UNL     1      -2.740  -0.077   0.581  1.00  0.00    -0.322 N 
ATOM     13  C   UNL     1      -3.232  -1.125  -0.178  1.00  0.00     0.255 C 
ATOM     14  O   UNL     1      -2.609  -2.105  -0.567  1.00  0.00    -0.269 OA
ATOM     15  H   UNL     1      -3.418   0.583   0.939  1.00  0.00     0.170 HD
BRANCH  13  16
ATOM     16  C   UNL     1      -4.684  -1.036  -0.497  1.00  0.00     0.040 A 
ATOM     17  C   UNL     1      -6.670   0.243  -1.082  1.00  0.00    -0.050 A 
ATOM     18  C   UNL     1      -7.409  -0.946  -1.103  1.00  0.00     0.003 A 
ATOM     19  C   UNL     1      -5.299   0.190  -0.793  1.00  0.00     0.017 A 
ATOM     20  C   UNL     1      -6.796  -2.169  -0.828  1.00  0.00     0.001 A 
ATOM     21  C   UNL     1      -5.435  -2.216  -0.529  1.00  0.00     0.014 A 
ATOM     22  C   UNL     1      -7.322   1.547  -1.437  1.00  0.00     0.044 C 
ENDBRANCH  13  16
ENDBRANCH   1  12
BRANCH   8  23
ATOM     23  C   UNL     1       4.325  -1.127  -0.273  1.00  0.00     0.260 C 
ATOM     24  O   UNL     1       4.363  -2.345  -0.446  1.00  0.00    -0.269 OA
BRANCH  23  25
ATOM     25  C   UNL     1       5.362  -0.283  -0.931  1.00  0.00     0.041 A 
ATOM     26  C   UNL     1       6.641  -0.821  -1.128  1.00  0.00     0.014 A 
ATOM     27  C   UNL     1       5.061   0.997  -1.411  1.00  0.00     0.034 A 
ATOM     28  C   UNL     1       7.627  -0.070  -1.770  1.00  0.00     0.002 A 
ATOM     29  C   UNL     1       6.053   1.739  -2.050  1.00  0.00     0.041 A 
ATOM     30  C   UNL     1       7.332   1.214  -2.228  1.00  0.00     0.020 A 
ATOM     31  Cl  UNL     1       5.690   3.318  -2.634  1.00  0.00    -0.084 Cl
ENDBRANCH  23  25
ENDBRANCH   8  23
TORSDOF 4
