REMARK SMILES COc1ccc(OC)c([C@H](C)NS(N)(=O)=O)c1
REMARK SMILES IDX 10 1 11 2 9 3 3 4 4 5 17 6 5 7 6 8 2 9 1 10 7 11 8 12 12 13
REMARK SMILES IDX 13 15 15 16 16 17 14 18
REMARK H PARENT 12 14 14 19 14 20
ROOT
ATOM      1  C   UNL     1      -1.465   0.262  -0.590  1.00  0.00     0.101 C 
ATOM      2  C   UNL     1      -1.684   0.856  -1.986  1.00  0.00     0.031 C 
ENDROOT
BRANCH   1   3
ATOM      3  C   UNL     1       0.010   0.017  -0.329  1.00  0.00     0.016 A 
ATOM      4  C   UNL     1       2.288   0.885  -0.073  1.00  0.00     0.119 A 
ATOM      5  C   UNL     1       2.754  -0.406   0.156  1.00  0.00     0.050 A 
ATOM      6  C   UNL     1       0.927   1.087  -0.319  1.00  0.00     0.055 A 
ATOM      7  C   UNL     1       1.863  -1.483   0.146  1.00  0.00     0.050 A 
ATOM      8  C   UNL     1       0.499  -1.273  -0.078  1.00  0.00     0.123 A 
BRANCH   4   9
ATOM      9  O   UNL     1       3.046   2.023  -0.095  1.00  0.00    -0.497 OA
ATOM     10  C   UNL     1       4.433   1.878   0.184  1.00  0.00     0.278 C 
ENDBRANCH   4   9
BRANCH   8  11
ATOM     11  O   UNL     1      -0.384  -2.321  -0.132  1.00  0.00    -0.496 OA
ATOM     12  C   UNL     1      -0.300  -3.179   1.006  1.00  0.00     0.278 C 
ENDBRANCH   8  11
ENDBRANCH   1   3
BRANCH   1  13
ATOM     13  N   UNL     1      -2.070   1.196   0.391  1.00  0.00    -0.195 NA
ATOM     14  H   UNL     1      -1.404   1.891   0.727  1.00  0.00     0.143 HD
BRANCH  13  15
ATOM     15  S   UNL     1      -2.860   0.552   1.707  1.00  0.00     0.274 S 
ATOM     16  O   UNL     1      -3.180   1.653   2.576  1.00  0.00    -0.195 OA
ATOM     17  O   UNL     1      -2.181  -0.636   2.148  1.00  0.00    -0.195 OA
BRANCH  15  18
ATOM     18  N   UNL     1      -4.253   0.099   0.941  1.00  0.00    -0.216 NA
ATOM     19  H   UNL     1      -4.142  -0.694   0.319  1.00  0.00     0.138 HD
ATOM     20  H   UNL     1      -4.774   0.897   0.590  1.00  0.00     0.138 HD
ENDBRANCH  15  18
ENDBRANCH  13  15
ENDBRANCH   1  13
TORSDOF 6
