REMARK SMILES CC1=C[C@H]2Cc3nc4cc(Cl)ccc4c(N)c3[C@@H](C1)C2
REMARK SMILES IDX 1 1 2 2 3 3 4 4 5 5 6 6 7 7 8 8 9 9 10 10 11 11 12 12 13 13
REMARK SMILES IDX 14 14 15 15 17 16 18 17 19 18 20 19 16 20
REMARK H PARENT 16 21 16 22
ROOT
ATOM      1  C   UNL     1      -1.263   3.071  -1.449  1.00  0.00     0.039 C 
ATOM      2  C   UNL     1      -1.087   1.623  -1.098  1.00  0.00    -0.076 C 
ATOM      3  C   UNL     1      -1.575   0.701  -1.946  1.00  0.00    -0.024 C 
ATOM      4  C   UNL     1      -1.676  -1.690  -0.680  1.00  0.00     0.018 C 
ATOM      5  C   UNL     1      -0.960  -0.871  -1.700  1.00  0.00     0.064 C 
ATOM      6  C   UNL     1       0.292  -0.563  -0.973  1.00  0.00     0.047 A 
ATOM      7  N   UNL     1       1.498  -0.762  -1.570  1.00  0.00    -0.252 NA
ATOM      8  C   UNL     1       2.638  -0.478  -0.896  1.00  0.00     0.074 A 
ATOM      9  C   UNL     1       3.849  -0.689  -1.528  1.00  0.00     0.049 A 
ATOM     10  C   UNL     1       5.034  -0.411  -0.872  1.00  0.00     0.043 A 
ATOM     11  Cl  UNL     1       6.578  -0.679  -1.674  1.00  0.00    -0.084 Cl
ATOM     12  C   UNL     1       4.973   0.084   0.430  1.00  0.00     0.021 A 
ATOM     13  C   UNL     1       3.759   0.297   1.068  1.00  0.00     0.014 A 
ATOM     14  C   UNL     1       2.589   0.018   0.409  1.00  0.00     0.024 A 
ATOM     15  C   UNL     1       1.373   0.226   1.033  1.00  0.00     0.046 A 
ATOM     16  C   UNL     1       0.224  -0.070   0.327  1.00  0.00     0.001 A 
ATOM     17  C   UNL     1      -1.143   0.110   0.887  1.00  0.00     0.028 C 
ATOM     18  C   UNL     1      -0.392   1.198   0.155  1.00  0.00     0.039 C 
ATOM     19  C   UNL     1      -2.227  -0.900   0.486  1.00  0.00     0.017 C 
ENDROOT
BRANCH  15  20
ATOM     20  N   UNL     1       1.268   0.729   2.360  1.00  0.00    -0.398 N 
ATOM     21  H   UNL     1       0.575   1.456   2.650  1.00  0.00     0.156 HD
ATOM     22  H   UNL     1       1.924   0.354   3.100  1.00  0.00     0.156 HD
ENDBRANCH  15  20
TORSDOF 1
