REMARK SMILES Cc1cccc(F)c1
REMARK SMILES IDX 1 1 2 2 3 3 4 4 5 5 6 6 7 7 8 8
REMARK H PARENT
ROOT
ATOM      1  C   UNL     1       2.228   0.128   0.007  1.00  0.00     0.044 C 
ATOM      2  C   UNL     1       0.732   0.027  -0.019  1.00  0.00    -0.048 A 
ATOM      3  C   UNL     1       0.093  -1.178   0.306  1.00  0.00     0.003 A 
ATOM      4  C   UNL     1      -1.302  -1.266   0.312  1.00  0.00     0.003 A 
ATOM      5  C   UNL     1      -2.071  -0.146   0.003  1.00  0.00     0.039 A 
ATOM      6  C   UNL     1      -1.438   1.052  -0.305  1.00  0.00     0.123 A 
ATOM      7  F   UNL     1      -2.177   2.132  -0.594  1.00  0.00    -0.207 F 
ATOM      8  C   UNL     1      -0.050   1.151  -0.314  1.00  0.00     0.042 A 
ENDROOT
TORSDOF 0
