REMARK SMILES O[C@@H]1C=Nc2cc3onc(CC[C@H]4CC[N@H+](Cc5ccccc5)CC4)c3cc2C1
REMARK SMILES IDX 11 1 10 2 2 3 3 4 29 5 4 6 28 7 5 8 27 9 6 10 26 11 7 12
REMARK SMILES IDX 8 13 9 14 1 15 12 17 13 18 14 19 25 20 15 21 24 22 16 23
REMARK SMILES IDX 17 25 18 26 19 27 23 28 20 29 22 30 21 31
REMARK H PARENT 1 16 16 24
ROOT
ATOM      1  C   UNL     1      -1.251  -0.882  -1.705  1.00  0.00     0.061 C 
ENDROOT
BRANCH   1   2
ATOM      2  C   UNL     1      -1.982   0.265  -1.094  1.00  0.00     0.091 A 
ATOM      3  C   UNL     1      -7.785  -0.537   1.151  1.00  0.00     0.160 C 
ATOM      4  C   UNL     1      -7.893   0.973   1.238  1.00  0.00     0.116 C 
ATOM      5  C   UNL     1      -6.865  -0.919  -0.003  1.00  0.00     0.075 C 
ATOM      6  N   UNL     1      -6.941   1.797   0.928  1.00  0.00    -0.258 NA
ATOM      7  C   UNL     1      -5.636  -0.050  -0.037  1.00  0.00    -0.018 A 
ATOM      8  C   UNL     1      -5.740   1.278   0.418  1.00  0.00     0.070 A 
ATOM      9  C   UNL     1      -4.433  -0.543  -0.583  1.00  0.00     0.020 A 
ATOM     10  C   UNL     1      -4.639   2.138   0.353  1.00  0.00     0.079 A 
ATOM     11  C   UNL     1      -3.327   0.320  -0.646  1.00  0.00     0.045 A 
ATOM     12  C   UNL     1      -3.466   1.615  -0.181  1.00  0.00     0.169 A 
ATOM     13  O   UNL     1      -2.290   2.279  -0.336  1.00  0.00    -0.356 OA
ATOM     14  N   UNL     1      -1.352   1.435  -0.910  1.00  0.00    -0.084 NA
BRANCH   3  15
ATOM     15  O   UNL     1      -9.058  -1.130   0.947  1.00  0.00    -0.387 OA
ATOM     16  H   UNL     1      -9.584  -1.006   1.757  1.00  0.00     0.211 HD
ENDBRANCH   3  15
ENDBRANCH   1   2
BRANCH   1  17
ATOM     17  C   UNL     1      -0.395  -1.673  -0.704  1.00  0.00     0.010 C 
BRANCH  17  18
ATOM     18  C   UNL     1       0.709  -0.868   0.016  1.00  0.00     0.000 C 
ATOM     19  C   UNL     1       1.711  -0.226  -0.953  1.00  0.00     0.065 C 
ATOM     20  C   UNL     1       1.465  -1.762   1.010  1.00  0.00     0.065 C 
ATOM     21  C   UNL     1       2.786   0.556  -0.210  1.00  0.00     0.262 C 
ATOM     22  C   UNL     1       2.544  -0.983   1.751  1.00  0.00     0.262 C 
ATOM     23  N   UNL     1       3.495  -0.358   0.763  1.00  0.00    -0.331 N 
ATOM     24  H   UNL     1       3.918  -1.113   0.210  1.00  0.00     0.348 HD
BRANCH  23  25
ATOM     25  C   UNL     1       4.644   0.334   1.471  1.00  0.00     0.299 C 
BRANCH  25  26
ATOM     26  C   UNL     1       5.802   0.633   0.558  1.00  0.00     0.006 A 
ATOM     27  C   UNL     1       6.055   1.946   0.134  1.00  0.00     0.009 A 
ATOM     28  C   UNL     1       6.635  -0.402   0.102  1.00  0.00     0.009 A 
ATOM     29  C   UNL     1       7.114   2.216  -0.734  1.00  0.00     0.001 A 
ATOM     30  C   UNL     1       7.693  -0.127  -0.765  1.00  0.00     0.001 A 
ATOM     31  C   UNL     1       7.930   1.180  -1.184  1.00  0.00     0.000 A 
ENDBRANCH  25  26
ENDBRANCH  23  25
ENDBRANCH  17  18
ENDBRANCH   1  17
TORSDOF 6
