REMARK SMILES COc1cc2c(cc1OC)C(=O)/C(=C/c1cc[n+](Cc3ccc(F)cc3)cc1)C2
REMARK SMILES IDX 15 1 16 2 17 3 18 4 27 5 28 6 14 7 13 8 3 9 4 10 8 11 5 12
REMARK SMILES IDX 7 13 6 14 29 15 11 16 12 17 2 18 1 19 9 20 10 21 19 22 20 23
REMARK SMILES IDX 21 24 26 25 22 26 25 27 23 28 24 29
REMARK H PARENT
ROOT
ATOM      1  C   UNL     1       1.190   0.279  -1.070  1.00  0.00    -0.013 A 
ATOM      2  C   UNL     1       1.993   1.267  -1.635  1.00  0.00     0.079 A 
ATOM      3  C   UNL     1       3.218   1.576  -1.053  1.00  0.00     0.309 A 
ATOM      4  N   UNL     1       3.642   0.918   0.050  1.00  0.00    -0.201 N 
ATOM      5  C   UNL     1       2.877  -0.048   0.612  1.00  0.00     0.309 A 
ATOM      6  C   UNL     1       1.645  -0.388   0.064  1.00  0.00     0.079 A 
ENDROOT
BRANCH   1   7
ATOM      7  C   UNL     1      -0.071  -0.073  -1.721  1.00  0.00     0.016 C 
BRANCH   7   8
ATOM      8  C   UNL     1      -1.281  -0.032  -1.145  1.00  0.00     0.005 C 
ATOM      9  C   UNL     1      -5.495   0.304   0.930  1.00  0.00     0.161 A 
ATOM     10  C   UNL     1      -4.131   0.499   1.198  1.00  0.00     0.055 A 
ATOM     11  C   UNL     1      -5.924  -0.149  -0.350  1.00  0.00     0.161 A 
ATOM     12  C   UNL     1      -3.214   0.243   0.190  1.00  0.00    -0.028 A 
ATOM     13  C   UNL     1      -4.988  -0.403  -1.356  1.00  0.00     0.063 A 
ATOM     14  C   UNL     1      -3.654  -0.199  -1.056  1.00  0.00     0.030 A 
ATOM     15  C   UNL     1      -1.721   0.373   0.240  1.00  0.00     0.076 C 
ATOM     16  C   UNL     1      -2.500  -0.391  -1.937  1.00  0.00     0.189 C 
ATOM     17  O   UNL     1      -2.527  -0.764  -3.091  1.00  0.00    -0.289 OA
BRANCH   9  18
ATOM     18  O   UNL     1      -6.497   0.523   1.845  1.00  0.00    -0.493 OA
ATOM     19  C   UNL     1      -6.134   0.983   3.138  1.00  0.00     0.278 C 
ENDBRANCH   9  18
BRANCH  11  20
ATOM     20  O   UNL     1      -7.280  -0.306  -0.503  1.00  0.00    -0.493 OA
ATOM     21  C   UNL     1      -7.757  -0.761  -1.762  1.00  0.00     0.278 C 
ENDBRANCH  11  20
ENDBRANCH   7   8
ENDBRANCH   1   7
BRANCH   4  22
ATOM     22  C   UNL     1       4.954   1.261   0.658  1.00  0.00     0.393 C 
BRANCH  22  23
ATOM     23  C   UNL     1       5.941   0.131   0.502  1.00  0.00     0.017 A 
ATOM     24  C   UNL     1       6.337  -0.310  -0.773  1.00  0.00     0.013 A 
ATOM     25  C   UNL     1       6.489  -0.492   1.638  1.00  0.00     0.013 A 
ATOM     26  C   UNL     1       7.248  -1.361  -0.906  1.00  0.00     0.040 A 
ATOM     27  C   UNL     1       7.399  -1.542   1.498  1.00  0.00     0.040 A 
ATOM     28  C   UNL     1       7.769  -1.968   0.230  1.00  0.00     0.123 A 
ATOM     29  F   UNL     1       8.640  -2.975   0.099  1.00  0.00    -0.207 F 
ENDBRANCH  22  23
ENDBRANCH   4  22
TORSDOF 6
