REMARK SMILES COc1cc2c(cc1OC)S[C@H](C(=O)CCc1cc[n+](Cc3ccsc3)cc1)C2
REMARK SMILES IDX 15 1 13 2 14 3 12 4 3 5 4 6 8 7 5 8 7 9 6 10 29 11 11 12
REMARK SMILES IDX 2 13 1 14 9 15 10 16 16 17 17 18 18 19 28 20 19 21 27 22
REMARK SMILES IDX 20 23 21 24 22 25 23 26 26 27 24 28 25 29
REMARK H PARENT
ROOT
ATOM      1  C   UNL     1       0.717   3.059  -0.866  1.00  0.00     0.081 C 
ENDROOT
BRANCH   1   2
ATOM      2  C   UNL     1       0.011   1.952  -0.094  1.00  0.00     0.146 C 
ATOM      3  O   UNL     1       0.613   1.340   0.793  1.00  0.00    -0.298 OA
BRANCH   2   4
ATOM      4  C   UNL     1      -1.425   1.631  -0.478  1.00  0.00     0.123 C 
ATOM      5  C   UNL     1      -5.127  -1.440  -0.307  1.00  0.00     0.161 A 
ATOM      6  C   UNL     1      -4.295  -0.623   0.469  1.00  0.00     0.055 A 
ATOM      7  C   UNL     1      -4.834  -1.655  -1.677  1.00  0.00     0.161 A 
ATOM      8  C   UNL     1      -3.191  -0.019  -0.125  1.00  0.00    -0.029 A 
ATOM      9  C   UNL     1      -3.712  -1.052  -2.256  1.00  0.00     0.065 A 
ATOM     10  C   UNL     1      -2.906  -0.242  -1.471  1.00  0.00     0.015 A 
ATOM     11  C   UNL     1      -2.180   0.828   0.595  1.00  0.00     0.059 C 
ATOM     12  S   UNL     1      -1.447   0.611  -1.993  1.00  0.00    -0.114 SA
BRANCH   5  13
ATOM     13  O   UNL     1      -6.242  -2.083   0.173  1.00  0.00    -0.493 OA
ATOM     14  C   UNL     1      -6.623  -1.837   1.519  1.00  0.00     0.278 C 
ENDBRANCH   5  13
BRANCH   7  15
ATOM     15  O   UNL     1      -5.704  -2.476  -2.352  1.00  0.00    -0.493 OA
ATOM     16  C   UNL     1      -5.509  -2.644  -3.749  1.00  0.00     0.278 C 
ENDBRANCH   7  15
ENDBRANCH   2   4
ENDBRANCH   1   2
BRANCH   1  17
ATOM     17  C   UNL     1       1.708   2.532  -1.906  1.00  0.00     0.044 C 
BRANCH  17  18
ATOM     18  C   UNL     1       2.799   1.671  -1.314  1.00  0.00    -0.036 A 
ATOM     19  C   UNL     1       3.845   2.238  -0.588  1.00  0.00     0.074 A 
ATOM     20  C   UNL     1       2.734   0.280  -1.415  1.00  0.00     0.074 A 
ATOM     21  C   UNL     1       4.777   1.415   0.035  1.00  0.00     0.308 A 
ATOM     22  C   UNL     1       3.682  -0.504  -0.768  1.00  0.00     0.308 A 
ATOM     23  N   UNL     1       4.676   0.068  -0.052  1.00  0.00    -0.201 N 
BRANCH  23  24
ATOM     24  C   UNL     1       5.659  -0.787   0.656  1.00  0.00     0.394 C 
BRANCH  24  25
ATOM     25  C   UNL     1       5.476  -0.689   2.141  1.00  0.00     0.027 A 
ATOM     26  C   UNL     1       4.232  -0.871   2.838  1.00  0.00     0.022 A 
ATOM     27  C   UNL     1       6.497  -0.416   3.036  1.00  0.00     0.075 A 
ATOM     28  C   UNL     1       4.359  -0.716   4.201  1.00  0.00     0.065 A 
ATOM     29  S   UNL     1       5.963  -0.360   4.659  1.00  0.00    -0.152 S 
ENDBRANCH  24  25
ENDBRANCH  23  24
ENDBRANCH  17  18
ENDBRANCH   1  17
TORSDOF 8
