REMARK SMILES COc1cc2c(cc1OC)S[C@H](C(=O)CCc1cc[n+](Cc3ccccc3)cc1)C2
REMARK SMILES IDX 15 1 13 2 14 3 12 4 3 5 4 6 8 7 5 8 7 9 6 10 30 11 11 12
REMARK SMILES IDX 2 13 1 14 9 15 10 16 16 17 17 18 18 19 29 20 19 21 28 22
REMARK SMILES IDX 20 23 21 24 22 25 23 26 27 27 24 28 26 29 25 30
REMARK H PARENT
ROOT
ATOM      1  C   UNL     1      -0.144   4.173   1.639  1.00  0.00     0.081 C 
ENDROOT
BRANCH   1   2
ATOM      2  C   UNL     1      -0.517   2.791   2.160  1.00  0.00     0.146 C 
ATOM      3  O   UNL     1       0.044   2.331   3.158  1.00  0.00    -0.298 OA
BRANCH   2   4
ATOM      4  C   UNL     1      -1.620   2.036   1.431  1.00  0.00     0.123 C 
ATOM      5  C   UNL     1      -3.422  -2.257   0.155  1.00  0.00     0.161 A 
ATOM      6  C   UNL     1      -3.138  -1.423   1.244  1.00  0.00     0.055 A 
ATOM      7  C   UNL     1      -2.995  -1.893  -1.145  1.00  0.00     0.161 A 
ATOM      8  C   UNL     1      -2.432  -0.242   1.030  1.00  0.00    -0.029 A 
ATOM      9  C   UNL     1      -2.272  -0.712  -1.343  1.00  0.00     0.065 A 
ATOM     10  C   UNL     1      -1.996   0.094  -0.249  1.00  0.00     0.015 A 
ATOM     11  C   UNL     1      -1.998   0.708   2.111  1.00  0.00     0.059 C 
ATOM     12  S   UNL     1      -1.068   1.596  -0.263  1.00  0.00    -0.114 SA
BRANCH   5  13
ATOM     13  O   UNL     1      -4.102  -3.446   0.248  1.00  0.00    -0.493 OA
ATOM     14  C   UNL     1      -4.623  -3.815   1.518  1.00  0.00     0.278 C 
ENDBRANCH   5  13
BRANCH   7  15
ATOM     15  O   UNL     1      -3.294  -2.779  -2.151  1.00  0.00    -0.493 OA
ATOM     16  C   UNL     1      -3.281  -2.277  -3.481  1.00  0.00     0.278 C 
ENDBRANCH   7  15
ENDBRANCH   2   4
ENDBRANCH   1   2
BRANCH   1  17
ATOM     17  C   UNL     1       1.370   4.403   1.665  1.00  0.00     0.044 C 
BRANCH  17  18
ATOM     18  C   UNL     1       2.131   3.393   0.833  1.00  0.00    -0.036 A 
ATOM     19  C   UNL     1       2.767   2.313   1.447  1.00  0.00     0.074 A 
ATOM     20  C   UNL     1       2.157   3.474  -0.558  1.00  0.00     0.074 A 
ATOM     21  C   UNL     1       3.380   1.337   0.672  1.00  0.00     0.308 A 
ATOM     22  C   UNL     1       2.779   2.472  -1.296  1.00  0.00     0.308 A 
ATOM     23  N   UNL     1       3.364   1.420  -0.679  1.00  0.00    -0.201 N 
BRANCH  23  24
ATOM     24  C   UNL     1       4.000   0.347  -1.484  1.00  0.00     0.393 C 
BRANCH  24  25
ATOM     25  C   UNL     1       3.325  -0.984  -1.271  1.00  0.00     0.017 A 
ATOM     26  C   UNL     1       1.945  -1.139  -1.480  1.00  0.00     0.010 A 
ATOM     27  C   UNL     1       4.080  -2.099  -0.873  1.00  0.00     0.010 A 
ATOM     28  C   UNL     1       1.334  -2.377  -1.272  1.00  0.00     0.001 A 
ATOM     29  C   UNL     1       3.463  -3.334  -0.668  1.00  0.00     0.001 A 
ATOM     30  C   UNL     1       2.092  -3.471  -0.864  1.00  0.00     0.000 A 
ENDBRANCH  24  25
ENDBRANCH  23  24
ENDBRANCH  17  18
ENDBRANCH   1  17
TORSDOF 8
