REMARK SMILES N=c1c2c([nH]c3cc(Cl)ccc13)CCCC2
REMARK SMILES IDX 5 1 4 2 3 3 2 4 12 5 11 6 10 7 8 8 9 9 7 10 6 11 16 12 15 13
REMARK SMILES IDX 14 14 13 15 1 17
REMARK H PARENT 5 16 1 18
ROOT
ATOM      1  N   UNL     1       0.535   1.323  -0.443  1.00  0.00    -0.358 N 
ATOM      2  C   UNL     1      -0.694   0.755  -0.189  1.00  0.00     0.020 A 
ATOM      3  C   UNL     1      -0.851  -0.539   0.168  1.00  0.00    -0.003 A 
ATOM      4  C   UNL     1       0.378  -1.404   0.276  1.00  0.00     0.068 A 
ATOM      5  C   UNL     1       1.699  -0.742   0.073  1.00  0.00     0.023 A 
ATOM      6  C   UNL     1       2.889  -1.468   0.217  1.00  0.00     0.014 A 
ATOM      7  C   UNL     1       4.117  -0.837   0.014  1.00  0.00     0.021 A 
ATOM      8  C   UNL     1       4.149   0.511  -0.338  1.00  0.00     0.043 A 
ATOM      9  Cl  UNL     1       5.662   1.288  -0.598  1.00  0.00    -0.084 Cl
ATOM     10  C   UNL     1       2.965   1.238  -0.485  1.00  0.00     0.047 A 
ATOM     11  C   UNL     1       1.730   0.617  -0.270  1.00  0.00     0.049 A 
ATOM     12  C   UNL     1      -2.190  -1.152   0.479  1.00  0.00     0.039 C 
ATOM     13  C   UNL     1      -3.316  -0.131   0.639  1.00  0.00     0.005 C 
ATOM     14  C   UNL     1      -3.227   0.948  -0.429  1.00  0.00     0.007 C 
ATOM     15  C   UNL     1      -1.887   1.677  -0.346  1.00  0.00     0.054 C 
ATOM     16  H   UNL     1       0.580   2.325  -0.586  1.00  0.00     0.166 HD
ENDROOT
BRANCH   4  17
ATOM     17  N   UNL     1       0.345  -2.676   0.528  1.00  0.00    -0.300 NA
ATOM     18  H   UNL     1      -0.610  -3.022   0.632  1.00  0.00     0.188 HD
ENDBRANCH   4  17
TORSDOF 1
