REMARK SMILES C[N@H+]1CC[C@H](C[C@H]2Cc3ccccc3C2=O)CC1
REMARK SMILES IDX 6 1 5 2 2 3 3 4 18 5 4 6 17 7 1 8 7 10 8 11 15 12 9 13 14 14
REMARK SMILES IDX 10 15 13 16 11 17 12 18 16 19
REMARK H PARENT 2 9
ROOT
ATOM      1  C   UNL     1       0.079   1.027   0.840  1.00  0.00     0.016 C 
ENDROOT
BRANCH   1   2
ATOM      2  C   UNL     1      -1.380   0.580   0.582  1.00  0.00     0.001 C 
ATOM      3  N   UNL     1      -3.583  -0.659  -0.884  1.00  0.00    -0.337 N 
ATOM      4  C   UNL     1      -3.035  -1.317   0.362  1.00  0.00     0.262 C 
ATOM      5  C   UNL     1      -3.457   0.843  -0.841  1.00  0.00     0.262 C 
ATOM      6  C   UNL     1      -1.570  -0.939   0.519  1.00  0.00     0.065 C 
ATOM      7  C   UNL     1      -1.991   1.232  -0.668  1.00  0.00     0.065 C 
ATOM      8  C   UNL     1      -4.994  -1.095  -1.164  1.00  0.00     0.332 C 
ATOM      9  H   UNL     1      -3.013  -0.996  -1.673  1.00  0.00     0.347 HD
ENDBRANCH   1   2
BRANCH   1  10
ATOM     10  C   UNL     1       1.141   0.618  -0.192  1.00  0.00     0.066 C 
ATOM     11  C   UNL     1       2.327   1.621  -0.228  1.00  0.00     0.048 C 
ATOM     12  C   UNL     1       1.811  -0.712   0.132  1.00  0.00     0.166 C 
ATOM     13  C   UNL     1       3.551   0.765  -0.190  1.00  0.00    -0.036 A 
ATOM     14  C   UNL     1       3.257  -0.570   0.050  1.00  0.00     0.021 A 
ATOM     15  C   UNL     1       4.871   1.167  -0.319  1.00  0.00     0.004 A 
ATOM     16  C   UNL     1       4.229  -1.547   0.169  1.00  0.00     0.012 A 
ATOM     17  C   UNL     1       5.876   0.199  -0.208  1.00  0.00     0.000 A 
ATOM     18  C   UNL     1       5.558  -1.148   0.035  1.00  0.00     0.001 A 
ATOM     19  O   UNL     1       1.248  -1.763   0.387  1.00  0.00    -0.294 OA
ENDBRANCH   1  10
TORSDOF 2
