REMARK SMILES COc1cc(/C=C/c2nnc(-c3ccc(OC(F)(F)F)cc3)o2)ccc1O
REMARK SMILES IDX 8 1 9 2 10 3 11 4 23 5 7 6 6 7 5 8 3 9 4 10 26 11 25 12
REMARK SMILES IDX 24 13 2 14 1 15 27 16 12 18 13 19 22 20 14 21 21 22 15 23
REMARK SMILES IDX 16 24 17 25 18 26 19 27 20 28
REMARK H PARENT 27 17
ROOT
ATOM      1  C   UNL     1      -0.039   0.568  -0.168  1.00  0.00     0.241 A 
ATOM      2  N   UNL     1      -0.201   1.857   0.098  1.00  0.00    -0.108 NA
ATOM      3  N   UNL     1      -1.553   2.122   0.107  1.00  0.00    -0.107 NA
ATOM      4  C   UNL     1      -2.154   0.982  -0.154  1.00  0.00     0.248 A 
ATOM      5  O   UNL     1      -1.269  -0.043  -0.340  1.00  0.00    -0.417 OA
ENDROOT
BRANCH   1   6
ATOM      6  C   UNL     1       1.181  -0.154  -0.277  1.00  0.00     0.071 C 
BRANCH   6   7
ATOM      7  C   UNL     1       2.366   0.451  -0.101  1.00  0.00     0.014 C 
BRANCH   7   8
ATOM      8  C   UNL     1       3.656  -0.249  -0.186  1.00  0.00    -0.022 A 
ATOM      9  C   UNL     1       5.916  -0.544   0.682  1.00  0.00     0.161 A 
ATOM     10  C   UNL     1       4.664   0.078   0.736  1.00  0.00     0.058 A 
ATOM     11  C   UNL     1       6.154  -1.494  -0.321  1.00  0.00     0.157 A 
ATOM     12  C   UNL     1       5.169  -1.817  -1.254  1.00  0.00     0.051 A 
ATOM     13  C   UNL     1       3.924  -1.190  -1.187  1.00  0.00     0.012 A 
BRANCH   9  14
ATOM     14  O   UNL     1       6.955  -0.299   1.541  1.00  0.00    -0.493 OA
ATOM     15  C   UNL     1       6.749   0.665   2.563  1.00  0.00     0.278 C 
ENDBRANCH   9  14
BRANCH  11  16
ATOM     16  O   UNL     1       7.376  -2.108  -0.384  1.00  0.00    -0.504 OA
ATOM     17  H   UNL     1       7.387  -2.722  -1.134  1.00  0.00     0.293 HD
ENDBRANCH  11  16
ENDBRANCH   7   8
ENDBRANCH   6   7
ENDBRANCH   1   6
BRANCH   4  18
ATOM     18  C   UNL     1      -3.574   0.676  -0.268  1.00  0.00     0.039 A 
ATOM     19  C   UNL     1      -4.521   1.695  -0.092  1.00  0.00     0.017 A 
ATOM     20  C   UNL     1      -4.037  -0.615  -0.550  1.00  0.00     0.017 A 
ATOM     21  C   UNL     1      -5.895   1.436  -0.195  1.00  0.00     0.047 A 
ATOM     22  C   UNL     1      -5.408  -0.874  -0.652  1.00  0.00     0.047 A 
ATOM     23  C   UNL     1      -6.346   0.147  -0.476  1.00  0.00     0.129 A 
BRANCH  23  24
ATOM     24  O   UNL     1      -7.645  -0.251  -0.605  1.00  0.00    -0.406 OA
BRANCH  24  25
ATOM     25  C   UNL     1      -8.657   0.728  -0.440  1.00  0.00     0.573 C 
ATOM     26  F   UNL     1      -8.541   1.708  -1.361  1.00  0.00    -0.132 F 
ATOM     27  F   UNL     1      -9.861   0.137  -0.605  1.00  0.00    -0.132 F 
ATOM     28  F   UNL     1      -8.618   1.265   0.798  1.00  0.00    -0.132 F 
ENDBRANCH  24  25
ENDBRANCH  23  24
ENDBRANCH   4  18
TORSDOF 8
