REMARK SMILES CNC(=O)Oc1cccc2c1SC[C@H]1CC[N@H+](C)[C@H]21
REMARK SMILES IDX 5 1 6 2 16 3 17 4 15 5 19 6 14 7 10 8 13 9 11 10 9 11 12 12
REMARK SMILES IDX 8 13 7 14 18 15 3 17 2 18 4 19 1 20
REMARK H PARENT 17 16 2 21
ROOT
ATOM      1  O   UNL     1       2.842  -1.496  -0.195  1.00  0.00    -0.409 OA
ENDROOT
BRANCH   1   2
ATOM      2  C   UNL     1       1.759  -0.883  -0.839  1.00  0.00     0.146 A 
ATOM      3  C   UNL     1      -3.986   0.943   0.390  1.00  0.00     0.263 C 
ATOM      4  N   UNL     1      -3.003   0.627  -0.740  1.00  0.00    -0.331 N 
ATOM      5  C   UNL     1      -3.146   0.989   1.665  1.00  0.00     0.072 C 
ATOM      6  C   UNL     1      -1.613   0.741  -0.104  1.00  0.00     0.220 C 
ATOM      7  C   UNL     1      -1.891   0.213   1.298  1.00  0.00     0.068 C 
ATOM      8  C   UNL     1      -0.425   0.168  -0.821  1.00  0.00     0.027 A 
ATOM      9  C   UNL     1      -0.702   0.438   2.200  1.00  0.00     0.085 C 
ATOM     10  C   UNL     1       0.631  -0.448  -0.114  1.00  0.00     0.059 A 
ATOM     11  C   UNL     1      -0.286   0.369  -2.213  1.00  0.00     0.011 A 
ATOM     12  S   UNL     1       0.608  -0.699   1.668  1.00  0.00    -0.121 SA
ATOM     13  C   UNL     1       0.828  -0.102  -2.910  1.00  0.00     0.004 A 
ATOM     14  C   UNL     1       1.849  -0.744  -2.224  1.00  0.00     0.048 A 
ATOM     15  C   UNL     1      -3.319  -0.694  -1.394  1.00  0.00     0.333 C 
ATOM     16  H   UNL     1      -3.083   1.356  -1.459  1.00  0.00     0.348 HD
ENDBRANCH   1   2
BRANCH   1  17
ATOM     17  C   UNL     1       3.775  -0.571   0.252  1.00  0.00     0.412 C 
ATOM     18  N   UNL     1       4.803  -1.227   0.868  1.00  0.00    -0.324 N 
ATOM     19  O   UNL     1       3.696   0.644   0.125  1.00  0.00    -0.224 OA
ATOM     20  C   UNL     1       5.861  -0.525   1.544  1.00  0.00     0.146 C 
ATOM     21  H   UNL     1       4.680  -2.219   1.020  1.00  0.00     0.166 HD
ENDBRANCH   1  17
TORSDOF 2
