REMARK SMILES Cn1c(=O)cc2cc3o[nH]c(CC[C@H]4CC[N@@H+](Cc5ccccc5)CC4)c3cc21
REMARK SMILES IDX 13 1 12 2 11 3 10 4 9 5 8 6 27 7 7 8 28 9 6 10 29 11 5 12
REMARK SMILES IDX 2 13 3 14 1 16 4 17 14 18 26 19 15 20 25 21 16 22 17 23
REMARK SMILES IDX 18 25 19 26 20 27 24 28 21 29 23 30 22 31
REMARK H PARENT 10 15 17 24
ROOT
ATOM      1  C   UNL     1      -0.645  -0.029  -1.653  1.00  0.00     0.010 C 
ENDROOT
BRANCH   1   2
ATOM      2  C   UNL     1      -0.028   1.212  -2.317  1.00  0.00     0.058 C 
BRANCH   2   3
ATOM      3  C   UNL     1       1.463   1.269  -2.236  1.00  0.00     0.060 A 
ATOM      4  N   UNL     1       2.119   2.054  -1.292  1.00  0.00    -0.226 N 
ATOM      5  O   UNL     1       3.522   1.860  -1.364  1.00  0.00    -0.382 OA
ATOM      6  C   UNL     1       3.669   1.048  -2.473  1.00  0.00     0.164 A 
ATOM      7  C   UNL     1       2.369   0.675  -3.022  1.00  0.00     0.044 A 
ATOM      8  C   UNL     1       4.816   0.603  -3.013  1.00  0.00     0.061 A 
ATOM      9  C   UNL     1       2.233  -0.199  -4.173  1.00  0.00     0.041 A 
ATOM     10  C   UNL     1       4.684  -0.267  -4.170  1.00  0.00     0.008 A 
ATOM     11  C   UNL     1       3.380  -0.640  -4.713  1.00  0.00     0.052 A 
ATOM     12  C   UNL     1       5.655  -0.840  -4.892  1.00  0.00     0.082 A 
ATOM     13  N   UNL     1       3.615  -1.455  -5.780  1.00  0.00    -0.311 N 
ATOM     14  C   UNL     1       4.982  -1.628  -5.957  1.00  0.00     0.251 A 
ATOM     15  H   UNL     1       1.765   1.990  -0.344  1.00  0.00     0.208 HD
ATOM     16  C   UNL     1       2.618  -2.048  -6.630  1.00  0.00     0.153 C 
ATOM     17  O   UNL     1       5.568  -2.285  -6.797  1.00  0.00    -0.269 OA
ENDBRANCH   2   3
ENDBRANCH   1   2
BRANCH   1  18
ATOM     18  C   UNL     1      -0.392  -0.179  -0.135  1.00  0.00     0.000 C 
ATOM     19  C   UNL     1      -1.012   0.949   0.707  1.00  0.00     0.065 C 
ATOM     20  C   UNL     1      -0.906  -1.539   0.375  1.00  0.00     0.065 C 
ATOM     21  C   UNL     1      -2.533   0.867   0.790  1.00  0.00     0.262 C 
ATOM     22  C   UNL     1      -2.426  -1.612   0.463  1.00  0.00     0.262 C 
ATOM     23  N   UNL     1      -2.926  -0.485   1.331  1.00  0.00    -0.331 N 
ATOM     24  H   UNL     1      -2.454  -0.586   2.237  1.00  0.00     0.348 HD
BRANCH  23  25
ATOM     25  C   UNL     1      -4.403  -0.593   1.667  1.00  0.00     0.299 C 
BRANCH  25  26
ATOM     26  C   UNL     1      -5.352  -0.474   0.505  1.00  0.00     0.006 A 
ATOM     27  C   UNL     1      -5.853   0.778   0.116  1.00  0.00     0.009 A 
ATOM     28  C   UNL     1      -5.750  -1.614  -0.212  1.00  0.00     0.009 A 
ATOM     29  C   UNL     1      -6.717   0.888  -0.975  1.00  0.00     0.001 A 
ATOM     30  C   UNL     1      -6.614  -1.499  -1.302  1.00  0.00     0.001 A 
ATOM     31  C   UNL     1      -7.093  -0.249  -1.685  1.00  0.00     0.000 A 
ENDBRANCH  25  26
ENDBRANCH  23  25
ENDBRANCH   1  18
TORSDOF 5
