REMARK SMILES N#Cc1cc(C#N)c(=NCCC[C@H]2CC[N@H+](Cc3ccccc3)CC2)[nH]c1N
REMARK SMILES IDX 10 1 9 2 8 3 26 4 27 5 3 6 5 7 4 8 28 10 2 13 1 14 6 15 7 16
REMARK SMILES IDX 11 17 12 18 13 19 14 20 25 21 15 22 24 23 16 24 17 26 18 27
REMARK SMILES IDX 19 28 23 29 20 30 22 31 21 32
REMARK H PARENT 26 9 28 11 28 12 16 25
ROOT
ATOM      1  C   UNL     1       0.141   3.619   2.428  1.00  0.00     0.144 C 
ENDROOT
BRANCH   1   2
ATOM      2  N   UNL     1      -0.559   4.448   3.396  1.00  0.00    -0.267 NA
BRANCH   2   3
ATOM      3  C   UNL     1      -1.020   3.992   4.511  1.00  0.00     0.144 A 
ATOM      4  N   UNL     1      -0.944   2.679   4.935  1.00  0.00    -0.325 N 
ATOM      5  C   UNL     1      -1.347   2.227   6.178  1.00  0.00     0.120 A 
ATOM      6  C   UNL     1      -1.906   3.120   7.037  1.00  0.00     0.094 A 
ATOM      7  C   UNL     1      -1.694   4.980   5.431  1.00  0.00     0.096 A 
ATOM      8  C   UNL     1      -2.094   4.511   6.628  1.00  0.00     0.046 A 
ATOM      9  H   UNL     1      -0.378   2.027   4.417  1.00  0.00     0.170 HD
BRANCH   5  10
ATOM     10  N   UNL     1      -1.137   0.892   6.457  1.00  0.00    -0.384 N 
ATOM     11  H   UNL     1      -1.420   0.291   5.688  1.00  0.00     0.158 HD
ATOM     12  H   UNL     1      -1.573   0.568   7.322  1.00  0.00     0.158 HD
ENDBRANCH   5  10
BRANCH   6  13
ATOM     13  C   UNL     1      -2.346   2.741   8.341  1.00  0.00     0.103 C 
ATOM     14  N   UNL     1      -2.711   2.405   9.389  1.00  0.00    -0.192 NA
ENDBRANCH   6  13
BRANCH   7  15
ATOM     15  C   UNL     1      -1.881   6.335   5.049  1.00  0.00     0.103 C 
ATOM     16  N   UNL     1      -2.063   7.451   4.786  1.00  0.00    -0.192 NA
ENDBRANCH   7  15
ENDBRANCH   2   3
ENDBRANCH   1   2
BRANCH   1  17
ATOM     17  C   UNL     1      -0.858   2.915   1.510  1.00  0.00     0.024 C 
BRANCH  17  18
ATOM     18  C   UNL     1      -0.281   2.564   0.134  1.00  0.00     0.006 C 
BRANCH  18  19
ATOM     19  C   UNL     1       0.981   1.681   0.132  1.00  0.00     0.000 C 
ATOM     20  C   UNL     1       1.514   1.550  -1.307  1.00  0.00     0.065 C 
ATOM     21  C   UNL     1       0.724   0.290   0.730  1.00  0.00     0.065 C 
ATOM     22  C   UNL     1       2.734   0.642  -1.385  1.00  0.00     0.262 C 
ATOM     23  C   UNL     1       1.949  -0.614   0.621  1.00  0.00     0.262 C 
ATOM     24  N   UNL     1       2.374  -0.709  -0.821  1.00  0.00    -0.331 N 
ATOM     25  H   UNL     1       1.557  -1.038  -1.351  1.00  0.00     0.348 HD
BRANCH  24  26
ATOM     26  C   UNL     1       3.433  -1.767  -1.072  1.00  0.00     0.299 C 
BRANCH  26  27
ATOM     27  C   UNL     1       4.755  -1.549  -0.387  1.00  0.00     0.006 A 
ATOM     28  C   UNL     1       5.772  -0.811  -1.013  1.00  0.00     0.009 A 
ATOM     29  C   UNL     1       4.994  -2.078   0.892  1.00  0.00     0.009 A 
ATOM     30  C   UNL     1       6.990  -0.593  -0.367  1.00  0.00     0.001 A 
ATOM     31  C   UNL     1       6.213  -1.858   1.534  1.00  0.00     0.001 A 
ATOM     32  C   UNL     1       7.208  -1.113   0.906  1.00  0.00     0.000 A 
ENDBRANCH  26  27
ENDBRANCH  24  26
ENDBRANCH  18  19
ENDBRANCH  17  18
ENDBRANCH   1  17
TORSDOF 10
