REMARK SMILES COc1cc2c(cc1OC(C)C)C[C@@H](C)C2=O
REMARK SMILES IDX 3 1 4 2 5 3 6 4 7 5 8 6 13 7 14 8 15 9 16 10 17 11 2 12 1 13
REMARK SMILES IDX 9 14 10 15 11 16 12 17
REMARK H PARENT
ROOT
ATOM      1  C   UNL     1       0.765   1.149  -0.126  1.00  0.00     0.161 A 
ATOM      2  C   UNL     1      -0.497   1.632   0.229  1.00  0.00     0.062 A 
ATOM      3  C   UNL     1      -1.601   0.865  -0.109  1.00  0.00     0.025 A 
ATOM      4  C   UNL     1      -1.514  -0.348  -0.777  1.00  0.00    -0.033 A 
ATOM      5  C   UNL     1      -0.273  -0.844  -1.130  1.00  0.00     0.055 A 
ATOM      6  C   UNL     1       0.865  -0.102  -0.781  1.00  0.00     0.161 A 
ATOM      7  C   UNL     1      -2.852  -0.972  -1.018  1.00  0.00     0.048 C 
ATOM      8  C   UNL     1      -3.863   0.063  -0.474  1.00  0.00     0.062 C 
ATOM      9  C   UNL     1      -4.814  -0.531   0.552  1.00  0.00     0.017 C 
ATOM     10  C   UNL     1      -3.006   1.153   0.140  1.00  0.00     0.166 C 
ATOM     11  O   UNL     1      -3.397   2.136   0.746  1.00  0.00    -0.294 OA
ENDROOT
BRANCH   1  12
ATOM     12  O   UNL     1       1.943   1.808   0.112  1.00  0.00    -0.493 OA
ATOM     13  C   UNL     1       1.860   3.116   0.664  1.00  0.00     0.278 C 
ENDBRANCH   1  12
BRANCH   6  14
ATOM     14  O   UNL     1       2.069  -0.623  -1.189  1.00  0.00    -0.487 OA
BRANCH  14  15
ATOM     15  C   UNL     1       2.893  -1.044  -0.089  1.00  0.00     0.167 C 
ATOM     16  C   UNL     1       4.318  -0.584  -0.377  1.00  0.00     0.052 C 
ATOM     17  C   UNL     1       2.833  -2.567  -0.001  1.00  0.00     0.052 C 
ENDBRANCH  14  15
ENDBRANCH   6  14
TORSDOF 3
