REMARK SMILES Cc1cccc(C(=O)N2Cc3cc(NC(=O)c4cccc(Cl)c4)ccc3CC2=O)c1
REMARK SMILES IDX 9 1 10 2 11 3 12 4 13 5 24 6 25 7 26 8 27 9 28 10 29 11 7 12
REMARK SMILES IDX 8 13 6 14 2 15 3 16 30 17 4 18 5 19 1 20 14 21 15 22 16 24
REMARK SMILES IDX 17 25 18 26 23 27 19 28 21 29 20 30 22 31
REMARK H PARENT 14 23
ROOT
ATOM      1  N   UNL     1      -2.349  -1.253  -0.792  1.00  0.00    -0.274 N 
ATOM      2  C   UNL     1      -1.066  -1.878  -0.517  1.00  0.00     0.164 C 
ATOM      3  C   UNL     1       0.079  -0.997  -0.928  1.00  0.00    -0.022 A 
ATOM      4  C   UNL     1       1.278  -0.949  -0.204  1.00  0.00     0.032 A 
ATOM      5  C   UNL     1       2.343  -0.147  -0.636  1.00  0.00     0.041 A 
ATOM      6  C   UNL     1       2.193   0.599  -1.806  1.00  0.00     0.026 A 
ATOM      7  C   UNL     1       1.004   0.542  -2.539  1.00  0.00     0.007 A 
ATOM      8  C   UNL     1      -0.059  -0.249  -2.099  1.00  0.00    -0.033 A 
ATOM      9  C   UNL     1      -1.334  -0.365  -2.888  1.00  0.00     0.136 C 
ATOM     10  C   UNL     1      -2.565  -0.746  -2.074  1.00  0.00     0.234 C 
ATOM     11  O   UNL     1      -3.681  -0.593  -2.573  1.00  0.00    -0.274 OA
ENDROOT
BRANCH   1  12
ATOM     12  C   UNL     1      -3.413  -1.738  -0.028  1.00  0.00     0.260 C 
ATOM     13  O   UNL     1      -3.378  -2.833   0.535  1.00  0.00    -0.269 OA
BRANCH  12  14
ATOM     14  C   UNL     1      -4.625  -0.887   0.138  1.00  0.00     0.040 A 
ATOM     15  C   UNL     1      -5.688   1.288   0.387  1.00  0.00    -0.050 A 
ATOM     16  C   UNL     1      -6.921   0.648   0.563  1.00  0.00     0.003 A 
ATOM     17  C   UNL     1      -4.536   0.511   0.195  1.00  0.00     0.017 A 
ATOM     18  C   UNL     1      -7.010  -0.745   0.528  1.00  0.00     0.001 A 
ATOM     19  C   UNL     1      -5.864  -1.512   0.320  1.00  0.00     0.014 A 
ATOM     20  C   UNL     1      -5.590   2.783   0.465  1.00  0.00     0.044 C 
ENDBRANCH  12  14
ENDBRANCH   1  12
BRANCH   5  21
ATOM     21  N   UNL     1       3.510  -0.144   0.158  1.00  0.00    -0.322 N 
ATOM     22  C   UNL     1       4.703   0.504  -0.110  1.00  0.00     0.255 C 
ATOM     23  H   UNL     1       3.482  -0.735   0.978  1.00  0.00     0.170 HD
ATOM     24  O   UNL     1       4.988   1.136  -1.120  1.00  0.00    -0.269 OA
BRANCH  22  25
ATOM     25  C   UNL     1       5.745   0.364   0.946  1.00  0.00     0.041 A 
ATOM     26  C   UNL     1       7.087   0.274   0.551  1.00  0.00     0.014 A 
ATOM     27  C   UNL     1       5.416   0.354   2.306  1.00  0.00     0.034 A 
ATOM     28  C   UNL     1       8.094   0.145   1.509  1.00  0.00     0.002 A 
ATOM     29  C   UNL     1       6.430   0.225   3.255  1.00  0.00     0.041 A 
ATOM     30  C   UNL     1       7.764   0.115   2.864  1.00  0.00     0.020 A 
ATOM     31  Cl  UNL     1       6.028   0.205   4.928  1.00  0.00    -0.084 Cl
ENDBRANCH  22  25
ENDBRANCH   5  21
TORSDOF 4
