REMARK SMILES COc1ccc([C@@H]2C=C(c3cc(F)cc(F)c3)NN2c2ccc(S(N)(=O)=O)cc2)c(OC)c1
REMARK SMILES IDX 20 1 21 2 22 3 23 4 28 5 29 6 19 7 18 8 9 9 8 10 7 11 10 13
REMARK SMILES IDX 11 14 17 15 12 16 15 17 14 18 13 19 16 20 6 21 5 22 30 23
REMARK SMILES IDX 4 24 33 25 3 26 31 27 32 28 2 29 1 30 24 31 26 32 27 33
REMARK SMILES IDX 25 34
REMARK H PARENT 18 12 25 35 25 36
ROOT
ATOM      1  C   UNL     1       1.517  -1.103   0.033  1.00  0.00     0.058 A 
ATOM      2  C   UNL     1       2.595  -1.479  -0.790  1.00  0.00     0.029 A 
ATOM      3  C   UNL     1       3.084  -2.790  -0.815  1.00  0.00     0.024 A 
ATOM      4  C   UNL     1       2.497  -3.753   0.003  1.00  0.00     0.082 A 
ATOM      5  C   UNL     1       1.419  -3.422   0.820  1.00  0.00     0.024 A 
ATOM      6  C   UNL     1       0.941  -2.106   0.832  1.00  0.00     0.029 A 
ENDROOT
BRANCH   1   7
ATOM      7  N   UNL     1       1.057   0.212   0.035  1.00  0.00    -0.276 N 
ATOM      8  N   UNL     1       1.704   1.294  -0.542  1.00  0.00    -0.297 N 
ATOM      9  C   UNL     1       1.054   2.472  -0.190  1.00  0.00     0.060 C 
ATOM     10  C   UNL     1      -0.046   2.192   0.529  1.00  0.00     0.033 C 
ATOM     11  C   UNL     1      -0.175   0.691   0.732  1.00  0.00     0.164 C 
ATOM     12  H   UNL     1       2.708   1.354  -0.359  1.00  0.00     0.188 HD
BRANCH   9  13
ATOM     13  C   UNL     1       1.575   3.787  -0.573  1.00  0.00     0.005 A 
ATOM     14  C   UNL     1       1.351   4.920   0.221  1.00  0.00     0.049 A 
ATOM     15  C   UNL     1       2.329   3.935  -1.746  1.00  0.00     0.049 A 
ATOM     16  C   UNL     1       1.867   6.158  -0.159  1.00  0.00     0.126 A 
ATOM     17  C   UNL     1       2.834   5.183  -2.106  1.00  0.00     0.126 A 
ATOM     18  C   UNL     1       2.610   6.303  -1.320  1.00  0.00     0.078 A 
ATOM     19  F   UNL     1       1.643   7.227   0.617  1.00  0.00    -0.207 F 
ATOM     20  F   UNL     1       3.550   5.302  -3.231  1.00  0.00    -0.207 F 
ENDBRANCH   9  13
BRANCH  11  21
ATOM     21  C   UNL     1      -1.466   0.154   0.132  1.00  0.00     0.023 A 
ATOM     22  C   UNL     1      -1.597  -0.013  -1.258  1.00  0.00     0.014 A 
ATOM     23  C   UNL     1      -2.571  -0.145   0.954  1.00  0.00     0.128 A 
ATOM     24  C   UNL     1      -2.784  -0.488  -1.813  1.00  0.00     0.047 A 
ATOM     25  C   UNL     1      -3.762  -0.624   0.385  1.00  0.00     0.093 A 
ATOM     26  C   UNL     1      -3.870  -0.799  -0.997  1.00  0.00     0.122 A 
BRANCH  23  27
ATOM     27  O   UNL     1      -2.385   0.064   2.298  1.00  0.00    -0.496 OA
ATOM     28  C   UNL     1      -3.481  -0.200   3.167  1.00  0.00     0.278 C 
ENDBRANCH  23  27
BRANCH  26  29
ATOM     29  O   UNL     1      -4.971  -1.255  -1.669  1.00  0.00    -0.497 OA
ATOM     30  C   UNL     1      -6.100  -1.628  -0.890  1.00  0.00     0.278 C 
ENDBRANCH  26  29
ENDBRANCH  11  21
ENDBRANCH   1   7
BRANCH   4  31
ATOM     31  S   UNL     1       3.113  -5.414  -0.027  1.00  0.00     0.238 S 
ATOM     32  O   UNL     1       2.143  -6.278   0.607  1.00  0.00    -0.207 OA
ATOM     33  O   UNL     1       3.655  -5.680  -1.337  1.00  0.00    -0.207 OA
BRANCH  31  34
ATOM     34  N   UNL     1       4.399  -5.312   1.057  1.00  0.00    -0.225 NA
ATOM     35  H   UNL     1       4.615  -4.356   1.335  1.00  0.00     0.137 HD
ATOM     36  H   UNL     1       4.197  -5.908   1.862  1.00  0.00     0.137 HD
ENDBRANCH  31  34
ENDBRANCH   4  31
TORSDOF 7
