REMARK SMILES Oc1ccc([C@@H]2C[C@@H](c3c4ccccc4cc4ccccc34)N=N2)c(O)c1
REMARK SMILES IDX 5 1 4 2 3 3 2 4 27 5 25 6 6 7 8 8 7 9 23 10 24 11 9 12 10 13
REMARK SMILES IDX 22 14 11 15 15 16 21 17 17 18 12 19 14 20 16 21 20 22 18 23
REMARK SMILES IDX 13 24 19 25 26 26 1 28
REMARK H PARENT 26 27 1 29
ROOT
ATOM      1  C   UNL     1       3.265   0.447   0.561  1.00  0.00     0.021 A 
ATOM      2  C   UNL     1       4.468   1.165   0.374  1.00  0.00     0.013 A 
ATOM      3  C   UNL     1       5.707   0.523   0.335  1.00  0.00     0.047 A 
ATOM      4  C   UNL     1       5.765  -0.853   0.478  1.00  0.00     0.119 A 
ATOM      5  C   UNL     1       4.604  -1.595   0.657  1.00  0.00     0.092 A 
ATOM      6  C   UNL     1       3.363  -0.943   0.696  1.00  0.00     0.124 A 
ENDROOT
BRANCH   1   7
ATOM      7  C   UNL     1       1.989   1.273   0.588  1.00  0.00     0.164 C 
ATOM      8  C   UNL     1       0.095   0.313  -0.381  1.00  0.00     0.162 C 
ATOM      9  C   UNL     1       0.653   0.669   0.983  1.00  0.00     0.068 C 
ATOM     10  N   UNL     1       0.679   1.345  -1.273  1.00  0.00    -0.185 NA
ATOM     11  N   UNL     1       1.707   1.854  -0.753  1.00  0.00    -0.185 NA
BRANCH   8  12
ATOM     12  C   UNL     1      -1.433   0.196  -0.395  1.00  0.00    -0.006 A 
ATOM     13  C   UNL     1      -2.019  -1.121  -0.309  1.00  0.00    -0.012 A 
ATOM     14  C   UNL     1      -2.281   1.361  -0.469  1.00  0.00    -0.012 A 
ATOM     15  C   UNL     1      -1.295  -2.332  -0.137  1.00  0.00     0.009 A 
ATOM     16  C   UNL     1      -3.425  -1.249  -0.392  1.00  0.00    -0.017 A 
ATOM     17  C   UNL     1      -1.841   2.712  -0.459  1.00  0.00     0.009 A 
ATOM     18  C   UNL     1      -3.683   1.175  -0.547  1.00  0.00    -0.017 A 
ATOM     19  C   UNL     1      -1.917  -3.584  -0.078  1.00  0.00     0.001 A 
ATOM     20  C   UNL     1      -4.042  -2.512  -0.336  1.00  0.00     0.009 A 
ATOM     21  C   UNL     1      -4.224  -0.112  -0.523  1.00  0.00     0.017 A 
ATOM     22  C   UNL     1      -2.717   3.799  -0.548  1.00  0.00     0.001 A 
ATOM     23  C   UNL     1      -4.557   2.273  -0.642  1.00  0.00     0.009 A 
ATOM     24  C   UNL     1      -3.294  -3.674  -0.183  1.00  0.00     0.001 A 
ATOM     25  C   UNL     1      -4.079   3.579  -0.646  1.00  0.00     0.001 A 
ENDBRANCH   8  12
ENDBRANCH   1   7
BRANCH   6  26
ATOM     26  O   UNL     1       2.240  -1.702   0.863  1.00  0.00    -0.507 OA
ATOM     27  H   UNL     1       2.498  -2.632   0.980  1.00  0.00     0.293 HD
ENDBRANCH   6  26
BRANCH   4  28
ATOM     28  O   UNL     1       6.993  -1.443   0.434  1.00  0.00    -0.508 OA
ATOM     29  H   UNL     1       6.887  -2.404   0.515  1.00  0.00     0.293 HD
ENDBRANCH   4  28
TORSDOF 4
