REMARK SMILES O=C1C(=NCCCN=c2c3c([nH]c4cc(Cl)ccc24)CCCC3)C=C(O)c2c(O)cccc21
REMARK SMILES IDX 5 1 4 2 3 3 25 4 24 5 27 6 28 7 33 8 2 9 30 10 32 11 31 12
REMARK SMILES IDX 1 13 26 14 29 16 6 18 7 19 8 20 9 21 10 22 19 23 11 24 23 25
REMARK SMILES IDX 18 26 13 27 12 28 20 29 22 30 17 31 14 32 21 33 15 34 16 36
REMARK H PARENT 26 15 29 17 12 35
ROOT
ATOM      1  C   UNL     1       1.256  -0.146  -0.159  1.00  0.00     0.145 C 
ENDROOT
BRANCH   1   2
ATOM      2  N   UNL     1       2.216   0.911   0.146  1.00  0.00    -0.281 NA
BRANCH   2   3
ATOM      3  C   UNL     1       3.467   0.621   0.286  1.00  0.00     0.109 C 
ATOM      4  C   UNL     1       5.731   1.546   0.416  1.00  0.00     0.129 C 
ATOM      5  C   UNL     1       4.416   1.721   0.570  1.00  0.00     0.079 C 
ATOM      6  C   UNL     1       6.309   0.290  -0.096  1.00  0.00     0.069 A 
ATOM      7  C   UNL     1       7.643   0.178  -0.517  1.00  0.00     0.127 A 
ATOM      8  C   UNL     1       5.515  -0.864  -0.155  1.00  0.00     0.039 A 
ATOM      9  C   UNL     1       4.082  -0.775   0.197  1.00  0.00     0.211 C 
ATOM     10  C   UNL     1       8.190  -1.047  -0.899  1.00  0.00     0.047 A 
ATOM     11  C   UNL     1       6.052  -2.100  -0.544  1.00  0.00     0.013 A 
ATOM     12  C   UNL     1       7.395  -2.190  -0.906  1.00  0.00     0.005 A 
ATOM     13  O   UNL     1       3.432  -1.783   0.427  1.00  0.00    -0.287 OA
BRANCH   4  14
ATOM     14  O   UNL     1       6.601   2.562   0.760  1.00  0.00    -0.507 OA
ATOM     15  H   UNL     1       7.418   2.152   1.112  1.00  0.00     0.293 HD
ENDBRANCH   4  14
BRANCH   7  16
ATOM     16  O   UNL     1       8.474   1.265  -0.593  1.00  0.00    -0.507 OA
ATOM     17  H   UNL     1       7.929   2.032  -0.863  1.00  0.00     0.293 HD
ENDBRANCH   7  16
ENDBRANCH   2   3
ENDBRANCH   1   2
BRANCH   1  18
ATOM     18  C   UNL     1      -0.095   0.482  -0.501  1.00  0.00     0.047 C 
BRANCH  18  19
ATOM     19  C   UNL     1      -0.716   1.213   0.688  1.00  0.00     0.145 C 
BRANCH  19  20
ATOM     20  N   UNL     1      -2.062   1.645   0.365  1.00  0.00    -0.284 NA
BRANCH  20  21
ATOM     21  C   UNL     1      -3.139   0.949   0.366  1.00  0.00     0.072 A 
ATOM     22  C   UNL     1      -3.372  -0.495   0.776  1.00  0.00    -0.003 A 
ATOM     23  C   UNL     1      -4.360   1.667  -0.149  1.00  0.00     0.024 A 
ATOM     24  C   UNL     1      -4.496  -1.109   0.336  1.00  0.00     0.021 A 
ATOM     25  C   UNL     1      -2.411  -1.179   1.711  1.00  0.00     0.039 C 
ATOM     26  C   UNL     1      -4.359   3.063  -0.299  1.00  0.00     0.014 A 
ATOM     27  C   UNL     1      -5.483   0.920  -0.527  1.00  0.00     0.049 A 
ATOM     28  N   UNL     1      -5.464  -0.475  -0.417  1.00  0.00    -0.358 N 
ATOM     29  C   UNL     1      -4.800  -2.558   0.668  1.00  0.00     0.054 C 
ATOM     30  C   UNL     1      -2.945  -2.469   2.335  1.00  0.00     0.005 C 
ATOM     31  C   UNL     1      -5.474   3.712  -0.830  1.00  0.00     0.021 A 
ATOM     32  C   UNL     1      -6.587   1.576  -1.085  1.00  0.00     0.047 A 
ATOM     33  C   UNL     1      -3.630  -3.322   1.282  1.00  0.00     0.007 C 
ATOM     34  C   UNL     1      -6.580   2.964  -1.225  1.00  0.00     0.043 A 
ATOM     35  H   UNL     1      -6.353  -0.954  -0.510  1.00  0.00     0.166 HD
ATOM     36  Cl  UNL     1      -7.951   3.759  -1.897  1.00  0.00    -0.084 Cl
ENDBRANCH  20  21
ENDBRANCH  19  20
ENDBRANCH  18  19
ENDBRANCH   1  18
TORSDOF 8
