REMARK SMILES COc1ccc(NC(=O)C2CCN(C(=O)c3ccccc3)CC2)cc1OC
REMARK SMILES IDX 3 1 4 2 5 3 6 4 24 5 25 6 2 7 1 8 26 9 27 10 7 11 8 12 9 14
REMARK SMILES IDX 10 15 11 16 23 17 12 18 22 19 13 20 14 21 15 22 16 23 17 24
REMARK SMILES IDX 21 25 18 26 20 27 19 28
REMARK H PARENT 7 13
ROOT
ATOM      1  C   UNL     1       5.186  -0.933  -0.306  1.00  0.00     0.160 A 
ATOM      2  C   UNL     1       4.929  -1.085   1.061  1.00  0.00     0.052 A 
ATOM      3  C   UNL     1       3.654  -0.844   1.591  1.00  0.00     0.030 A 
ATOM      4  C   UNL     1       2.610  -0.438   0.765  1.00  0.00     0.045 A 
ATOM      5  C   UNL     1       2.860  -0.292  -0.603  1.00  0.00     0.076 A 
ATOM      6  C   UNL     1       4.126  -0.557  -1.146  1.00  0.00     0.162 A 
ENDROOT
BRANCH   1   7
ATOM      7  O   UNL     1       6.420  -1.108  -0.872  1.00  0.00    -0.493 OA
ATOM      8  C   UNL     1       7.516  -1.381  -0.008  1.00  0.00     0.278 C 
ENDBRANCH   1   7
BRANCH   6   9
ATOM      9  O   UNL     1       4.187  -0.354  -2.503  1.00  0.00    -0.493 OA
ATOM     10  C   UNL     1       5.038  -1.235  -3.228  1.00  0.00     0.278 C 
ENDBRANCH   6   9
BRANCH   4  11
ATOM     11  N   UNL     1       1.302  -0.158   1.215  1.00  0.00    -0.326 N 
ATOM     12  C   UNL     1       0.821  -0.234   2.509  1.00  0.00     0.227 C 
ATOM     13  H   UNL     1       0.651   0.129   0.496  1.00  0.00     0.169 HD
ATOM     14  O   UNL     1       1.462  -0.567   3.501  1.00  0.00    -0.274 OA
BRANCH  12  15
ATOM     15  C   UNL     1      -0.649   0.152   2.657  1.00  0.00     0.082 C 
ATOM     16  C   UNL     1      -0.892   1.618   2.282  1.00  0.00     0.035 C 
ATOM     17  C   UNL     1      -1.573  -0.769   1.855  1.00  0.00     0.035 C 
ATOM     18  C   UNL     1      -2.361   1.982   2.456  1.00  0.00     0.120 C 
ATOM     19  C   UNL     1      -3.031  -0.359   2.025  1.00  0.00     0.120 C 
ATOM     20  N   UNL     1      -3.232   1.058   1.723  1.00  0.00    -0.339 N 
ATOM     21  C   UNL     1      -4.529   1.427   1.338  1.00  0.00     0.253 C 
ATOM     22  O   UNL     1      -5.464   0.633   1.258  1.00  0.00    -0.269 OA
BRANCH  21  23
ATOM     23  C   UNL     1      -4.793   2.838   0.975  1.00  0.00     0.040 A 
ATOM     24  C   UNL     1      -5.895   3.488   1.540  1.00  0.00     0.014 A 
ATOM     25  C   UNL     1      -3.996   3.492   0.028  1.00  0.00     0.014 A 
ATOM     26  C   UNL     1      -6.173   4.810   1.189  1.00  0.00     0.001 A 
ATOM     27  C   UNL     1      -4.279   4.814  -0.319  1.00  0.00     0.001 A 
ATOM     28  C   UNL     1      -5.363   5.472   0.264  1.00  0.00     0.000 A 
ENDBRANCH  21  23
ENDBRANCH  12  15
ENDBRANCH   4  11
TORSDOF 5
