REMARK SMILES O=C1C(=NCCN=c2c3c([nH]c4cc(Cl)ccc24)CCCC3)C=C(O)c2c(O)cccc21
REMARK SMILES IDX 5 1 4 2 3 3 24 4 23 5 26 6 27 7 32 8 2 9 29 10 31 11 30 12
REMARK SMILES IDX 1 13 25 14 28 16 6 18 7 19 8 20 9 21 18 22 10 23 22 24 17 25
REMARK SMILES IDX 12 26 11 27 19 28 21 29 16 30 13 31 20 32 14 33 15 35
REMARK H PARENT 25 15 28 17 11 34
ROOT
ATOM      1  C   UNL     1       0.832  -0.550   0.786  1.00  0.00     0.166 C 
ENDROOT
BRANCH   1   2
ATOM      2  N   UNL     1       1.893  -1.451   0.348  1.00  0.00    -0.279 NA
BRANCH   2   3
ATOM      3  C   UNL     1       3.010  -1.012  -0.116  1.00  0.00     0.109 C 
ATOM      4  C   UNL     1       4.654   0.748  -0.642  1.00  0.00     0.129 C 
ATOM      5  C   UNL     1       3.401   0.407  -0.318  1.00  0.00     0.079 C 
ATOM      6  C   UNL     1       5.735  -0.243  -0.820  1.00  0.00     0.069 A 
ATOM      7  C   UNL     1       7.076   0.108  -1.063  1.00  0.00     0.127 A 
ATOM      8  C   UNL     1       5.437  -1.613  -0.762  1.00  0.00     0.039 A 
ATOM      9  C   UNL     1       4.051  -2.056  -0.516  1.00  0.00     0.211 C 
ATOM     10  C   UNL     1       8.071  -0.856  -1.238  1.00  0.00     0.047 A 
ATOM     11  C   UNL     1       6.432  -2.589  -0.945  1.00  0.00     0.013 A 
ATOM     12  C   UNL     1       7.749  -2.208  -1.180  1.00  0.00     0.005 A 
ATOM     13  O   UNL     1       3.737  -3.233  -0.633  1.00  0.00    -0.287 OA
BRANCH   4  14
ATOM     14  O   UNL     1       5.015   2.073  -0.822  1.00  0.00    -0.507 OA
ATOM     15  H   UNL     1       4.228   2.636  -0.702  1.00  0.00     0.293 HD
ENDBRANCH   4  14
BRANCH   7  16
ATOM     16  O   UNL     1       7.501   1.408  -1.148  1.00  0.00    -0.507 OA
ATOM     17  H   UNL     1       6.707   1.973  -1.050  1.00  0.00     0.293 HD
ENDBRANCH   7  16
ENDBRANCH   2   3
ENDBRANCH   1   2
BRANCH   1  18
ATOM     18  C   UNL     1      -0.106  -0.221  -0.378  1.00  0.00     0.166 C 
BRANCH  18  19
ATOM     19  N   UNL     1      -1.194   0.616   0.090  1.00  0.00    -0.282 NA
BRANCH  19  20
ATOM     20  C   UNL     1      -2.434   0.273   0.211  1.00  0.00     0.072 A 
ATOM     21  C   UNL     1      -3.400   1.392   0.515  1.00  0.00    -0.003 A 
ATOM     22  C   UNL     1      -3.062  -1.084   0.052  1.00  0.00     0.024 A 
ATOM     23  C   UNL     1      -4.697   1.227   0.191  1.00  0.00     0.021 A 
ATOM     24  C   UNL     1      -2.839   2.655   1.112  1.00  0.00     0.039 C 
ATOM     25  C   UNL     1      -2.375  -2.286   0.260  1.00  0.00     0.014 A 
ATOM     26  C   UNL     1      -4.436  -1.131  -0.262  1.00  0.00     0.049 A 
ATOM     27  N   UNL     1      -5.185   0.055  -0.350  1.00  0.00    -0.358 N 
ATOM     28  C   UNL     1      -5.704   2.340   0.397  1.00  0.00     0.054 C 
ATOM     29  C   UNL     1      -3.918   3.599   1.641  1.00  0.00     0.005 C 
ATOM     30  C   UNL     1      -3.009  -3.514   0.050  1.00  0.00     0.021 A 
ATOM     31  C   UNL     1      -5.058  -2.364  -0.503  1.00  0.00     0.047 A 
ATOM     32  C   UNL     1      -5.072   3.709   0.654  1.00  0.00     0.007 C 
ATOM     33  C   UNL     1      -4.341  -3.547  -0.349  1.00  0.00     0.043 A 
ATOM     34  H   UNL     1      -6.194  -0.042  -0.385  1.00  0.00     0.166 HD
ATOM     35  Cl  UNL     1      -5.117  -5.058  -0.622  1.00  0.00    -0.084 Cl
ENDBRANCH  19  20
ENDBRANCH  18  19
ENDBRANCH   1  18
TORSDOF 7
