REMARK SMILES Cn1c(=O)cc2cc3o[nH]c(CC[C@H]4CC[N@H+](Cc5ccccc5)CC4)c3cc21
REMARK SMILES IDX 13 1 12 2 11 3 10 4 9 5 8 6 27 7 7 8 28 9 6 10 29 11 5 12
REMARK SMILES IDX 2 13 3 14 1 16 4 17 14 18 15 19 26 20 16 21 25 22 17 23
REMARK SMILES IDX 18 25 19 26 20 27 24 28 21 29 23 30 22 31
REMARK H PARENT 10 15 17 24
ROOT
ATOM      1  C   UNL     1      -0.823   1.804   0.532  1.00  0.00     0.010 C 
ENDROOT
BRANCH   1   2
ATOM      2  C   UNL     1      -1.489   1.254   1.804  1.00  0.00     0.058 C 
BRANCH   2   3
ATOM      3  C   UNL     1      -2.061  -0.116   1.628  1.00  0.00     0.060 A 
ATOM      4  N   UNL     1      -1.374  -1.250   2.071  1.00  0.00    -0.226 N 
ATOM      5  O   UNL     1      -2.156  -2.417   1.841  1.00  0.00    -0.382 OA
ATOM      6  C   UNL     1      -3.279  -1.931   1.199  1.00  0.00     0.164 A 
ATOM      7  C   UNL     1      -3.223  -0.479   1.075  1.00  0.00     0.044 A 
ATOM      8  C   UNL     1      -4.325  -2.638   0.736  1.00  0.00     0.061 A 
ATOM      9  C   UNL     1      -4.292   0.293   0.468  1.00  0.00     0.041 A 
ATOM     10  C   UNL     1      -5.388  -1.870   0.109  1.00  0.00     0.008 A 
ATOM     11  C   UNL     1      -5.333  -0.414   0.002  1.00  0.00     0.052 A 
ATOM     12  C   UNL     1      -6.527  -2.320  -0.432  1.00  0.00     0.082 A 
ATOM     13  N   UNL     1      -6.480  -0.021  -0.619  1.00  0.00    -0.311 N 
ATOM     14  C   UNL     1      -7.264  -1.126  -0.921  1.00  0.00     0.251 A 
ATOM     15  H   UNL     1      -1.120  -1.176   3.057  1.00  0.00     0.208 HD
ATOM     16  C   UNL     1      -6.859   1.335  -0.921  1.00  0.00     0.153 C 
ATOM     17  O   UNL     1      -8.346  -1.171  -1.478  1.00  0.00    -0.269 OA
ENDBRANCH   2   3
ENDBRANCH   1   2
BRANCH   1  18
ATOM     18  C   UNL     1       0.239   0.892  -0.116  1.00  0.00     0.000 C 
ATOM     19  C   UNL     1       1.435   0.626   0.807  1.00  0.00     0.065 C 
ATOM     20  C   UNL     1       0.735   1.505  -1.434  1.00  0.00     0.065 C 
ATOM     21  C   UNL     1       2.475  -0.260   0.133  1.00  0.00     0.262 C 
ATOM     22  C   UNL     1       1.775   0.619  -2.105  1.00  0.00     0.262 C 
ATOM     23  N   UNL     1       2.925   0.377  -1.161  1.00  0.00    -0.331 N 
ATOM     24  H   UNL     1       3.332   1.290  -0.921  1.00  0.00     0.348 HD
BRANCH  23  25
ATOM     25  C   UNL     1       4.033  -0.406  -1.838  1.00  0.00     0.299 C 
BRANCH  25  26
ATOM     26  C   UNL     1       5.333  -0.359  -1.083  1.00  0.00     0.006 A 
ATOM     27  C   UNL     1       6.098   0.818  -1.055  1.00  0.00     0.009 A 
ATOM     28  C   UNL     1       5.792  -1.485  -0.382  1.00  0.00     0.009 A 
ATOM     29  C   UNL     1       7.291   0.868  -0.332  1.00  0.00     0.001 A 
ATOM     30  C   UNL     1       6.985  -1.429   0.339  1.00  0.00     0.001 A 
ATOM     31  C   UNL     1       7.732  -0.254   0.365  1.00  0.00     0.000 A 
ENDBRANCH  25  26
ENDBRANCH  23  25
ENDBRANCH   1  18
TORSDOF 5
