REMARK SMILES O=[N+]([O-])OCCC[NH2+]CCCNc1c2c(nc3ccccc13)CCCC2
REMARK SMILES IDX 7 1 8 2 9 5 10 6 11 7 12 8 13 10 14 11 22 12 15 13 26 14
REMARK SMILES IDX 21 15 17 16 16 17 23 18 25 19 20 20 18 21 24 22 19 23 6 24
REMARK SMILES IDX 5 25 4 26 2 27 1 28 3 29
REMARK H PARENT 8 3 8 4 12 9
ROOT
ATOM      1  C   UNL     1       2.469  -0.782  -0.431  1.00  0.00     0.262 C 
ENDROOT
BRANCH   1   2
ATOM      2  N   UNL     1       1.464  -0.227   0.523  1.00  0.00    -0.346 N 
ATOM      3  H   UNL     1       1.077   0.664   0.185  1.00  0.00     0.346 HD
ATOM      4  H   UNL     1       0.659  -0.865   0.466  1.00  0.00     0.346 HD
BRANCH   2   5
ATOM      5  C   UNL     1       1.856  -0.122   1.957  1.00  0.00     0.262 C 
BRANCH   5   6
ATOM      6  C   UNL     1       0.753   0.506   2.809  1.00  0.00     0.082 C 
BRANCH   6   7
ATOM      7  C   UNL     1      -0.434  -0.414   3.116  1.00  0.00     0.118 C 
BRANCH   7   8
ATOM      8  N   UNL     1      -1.632  -0.063   2.339  1.00  0.00    -0.384 N 
ATOM      9  H   UNL     1      -2.470  -0.413   2.817  1.00  0.00     0.160 HD
BRANCH   8  10
ATOM     10  C   UNL     1      -1.695  -0.496   0.996  1.00  0.00     0.049 A 
ATOM     11  C   UNL     1      -1.756   0.495  -0.006  1.00  0.00    -0.003 A 
ATOM     12  C   UNL     1      -1.684  -1.869   0.626  1.00  0.00     0.024 A 
ATOM     13  C   UNL     1      -1.588   0.091  -1.327  1.00  0.00     0.046 A 
ATOM     14  C   UNL     1      -1.941   1.954   0.343  1.00  0.00     0.039 C 
ATOM     15  C   UNL     1      -1.823  -2.950   1.532  1.00  0.00     0.012 A 
ATOM     16  C   UNL     1      -1.511  -2.159  -0.741  1.00  0.00     0.073 A 
ATOM     17  N   UNL     1      -1.385  -1.201  -1.668  1.00  0.00    -0.252 NA
ATOM     18  C   UNL     1      -1.662   1.064  -2.477  1.00  0.00     0.056 C 
ATOM     19  C   UNL     1      -2.359   2.819  -0.845  1.00  0.00     0.005 C 
ATOM     20  C   UNL     1      -1.756  -4.273   1.098  1.00  0.00     0.001 A 
ATOM     21  C   UNL     1      -1.438  -3.484  -1.150  1.00  0.00     0.029 A 
ATOM     22  C   UNL     1      -1.480   2.517  -2.050  1.00  0.00     0.007 C 
ATOM     23  C   UNL     1      -1.555  -4.541  -0.247  1.00  0.00     0.002 A 
ENDBRANCH   8  10
ENDBRANCH   7   8
ENDBRANCH   6   7
ENDBRANCH   5   6
ENDBRANCH   2   5
ENDBRANCH   1   2
BRANCH   1  24
ATOM     24  C   UNL     1       3.654   0.150  -0.670  1.00  0.00     0.089 C 
BRANCH  24  25
ATOM     25  C   UNL     1       3.297   1.494  -1.305  1.00  0.00     0.214 C 
BRANCH  25  26
ATOM     26  O   UNL     1       2.590   1.258  -2.516  1.00  0.00    -0.314 OA
BRANCH  26  27
ATOM     27  N   UNL     1       2.222   2.461  -3.176  1.00  0.00     0.294 N 
ATOM     28  O   UNL     1       2.488   3.513  -2.597  1.00  0.00    -0.109 OA
ATOM     29  O   UNL     1       1.619   2.257  -4.225  1.00  0.00    -0.109 OA
ENDBRANCH  26  27
ENDBRANCH  25  26
ENDBRANCH  24  25
ENDBRANCH   1  24
TORSDOF 10
