REMARK SMILES COc1cc2c(cc1OC)C(O)=C(C[C@H]1CC[N@@H+](Cc3ccccc3)CC1)C2
REMARK SMILES IDX 14 1 13 2 11 3 6 4 28 5 7 6 5 7 8 8 4 9 3 10 12 11 9 13
REMARK SMILES IDX 10 14 2 15 1 16 15 17 27 18 16 19 26 20 17 21 18 22 19 24
REMARK SMILES IDX 20 25 21 26 25 27 22 28 24 29 23 30
REMARK H PARENT 12 12 18 23
ROOT
ATOM      1  C   UNL     1       0.554  -1.497   0.096  1.00  0.00     0.039 C 
ENDROOT
BRANCH   1   2
ATOM      2  C   UNL     1      -0.722  -1.542  -0.676  1.00  0.00    -0.023 C 
ATOM      3  C   UNL     1      -0.855  -1.620  -2.009  1.00  0.00     0.122 C 
ATOM      4  C   UNL     1      -2.268  -1.662  -2.354  1.00  0.00     0.024 A 
ATOM      5  C   UNL     1      -2.072  -1.539   0.014  1.00  0.00     0.071 C 
ATOM      6  C   UNL     1      -2.917  -1.722  -3.572  1.00  0.00     0.062 A 
ATOM      7  C   UNL     1      -3.002  -1.615  -1.163  1.00  0.00    -0.029 A 
ATOM      8  C   UNL     1      -4.320  -1.754  -3.593  1.00  0.00     0.161 A 
ATOM      9  C   UNL     1      -4.391  -1.623  -1.163  1.00  0.00     0.055 A 
ATOM     10  C   UNL     1      -5.068  -1.682  -2.391  1.00  0.00     0.161 A 
BRANCH   3  11
ATOM     11  O   UNL     1       0.145  -1.644  -2.930  1.00  0.00    -0.507 OA
ATOM     12  H   UNL     1      -0.253  -1.909  -3.780  1.00  0.00     0.293 HD
ENDBRANCH   3  11
BRANCH   8  13
ATOM     13  O   UNL     1      -4.832  -1.800  -4.868  1.00  0.00    -0.493 OA
ATOM     14  C   UNL     1      -6.019  -2.568  -5.038  1.00  0.00     0.278 C 
ENDBRANCH   8  13
BRANCH  10  15
ATOM     15  O   UNL     1      -6.433  -1.641  -2.502  1.00  0.00    -0.493 OA
ATOM     16  C   UNL     1      -7.202  -1.541  -1.310  1.00  0.00     0.278 C 
ENDBRANCH  10  15
ENDBRANCH   1   2
BRANCH   1  17
ATOM     17  C   UNL     1       0.900  -0.096   0.649  1.00  0.00     0.004 C 
ATOM     18  C   UNL     1       2.246  -0.120   1.390  1.00  0.00     0.065 C 
ATOM     19  C   UNL     1       0.945   1.002  -0.426  1.00  0.00     0.065 C 
ATOM     20  C   UNL     1       3.447  -0.247   0.457  1.00  0.00     0.262 C 
ATOM     21  C   UNL     1       2.117   0.833  -1.381  1.00  0.00     0.262 C 
ATOM     22  N   UNL     1       3.405   0.839  -0.592  1.00  0.00    -0.331 N 
ATOM     23  H   UNL     1       3.463   1.737  -0.098  1.00  0.00     0.348 HD
BRANCH  22  24
ATOM     24  C   UNL     1       4.604   0.796  -1.520  1.00  0.00     0.299 C 
BRANCH  24  25
ATOM     25  C   UNL     1       5.894   1.151  -0.832  1.00  0.00     0.006 A 
ATOM     26  C   UNL     1       6.157   2.476  -0.450  1.00  0.00     0.009 A 
ATOM     27  C   UNL     1       6.845   0.159  -0.545  1.00  0.00     0.009 A 
ATOM     28  C   UNL     1       7.343   2.798   0.212  1.00  0.00     0.001 A 
ATOM     29  C   UNL     1       8.029   0.487   0.118  1.00  0.00     0.001 A 
ATOM     30  C   UNL     1       8.276   1.804   0.497  1.00  0.00     0.000 A 
ENDBRANCH  24  25
ENDBRANCH  22  24
ENDBRANCH   1  17
TORSDOF 7
