REMARK SMILES COc1cc2c(cc1O)C(O)=C(C)C2
REMARK SMILES IDX 10 1 12 2 13 3 14 4 5 5 4 6 3 7 8 8 7 9 6 10 11 11 9 13 2 15
REMARK SMILES IDX 1 16
REMARK H PARENT 11 12 9 14
ROOT
ATOM      1  C   UNL     1      -2.025  -0.759  -0.773  1.00  0.00     0.122 C 
ATOM      2  C   UNL     1      -2.568  -0.103   0.262  1.00  0.00    -0.026 C 
ATOM      3  C   UNL     1      -4.005  -0.010   0.626  1.00  0.00     0.044 C 
ATOM      4  C   UNL     1      -1.513   0.590   1.095  1.00  0.00     0.071 C 
ATOM      5  C   UNL     1      -0.258   0.217   0.355  1.00  0.00    -0.029 A 
ATOM      6  C   UNL     1       1.053   0.570   0.655  1.00  0.00     0.055 A 
ATOM      7  C   UNL     1       2.065   0.102  -0.183  1.00  0.00     0.160 A 
ATOM      8  C   UNL     1       1.729  -0.703  -1.292  1.00  0.00     0.158 A 
ATOM      9  C   UNL     1       0.415  -1.056  -1.592  1.00  0.00     0.062 A 
ATOM     10  C   UNL     1      -0.579  -0.586  -0.754  1.00  0.00     0.024 A 
ENDROOT
BRANCH   1  11
ATOM     11  O   UNL     1      -2.682  -1.484  -1.716  1.00  0.00    -0.507 OA
ATOM     12  H   UNL     1      -2.026  -1.841  -2.336  1.00  0.00     0.293 HD
ENDBRANCH   1  11
BRANCH   8  13
ATOM     13  O   UNL     1       2.718  -1.167  -2.121  1.00  0.00    -0.504 OA
ATOM     14  H   UNL     1       3.547  -0.813  -1.742  1.00  0.00     0.293 HD
ENDBRANCH   8  13
BRANCH   7  15
ATOM     15  O   UNL     1       3.408   0.348  -0.042  1.00  0.00    -0.493 OA
ATOM     16  C   UNL     1       3.793   1.156   1.065  1.00  0.00     0.278 C 
ENDBRANCH   7  15
TORSDOF 3
