REMARK SMILES COc1cc2c(cc1OC)C(=O)/C(=C/c1cc[n+](Cc3cccc(F)c3)cc1)C2
REMARK SMILES IDX 15 1 16 2 17 3 18 4 27 5 28 6 14 7 13 8 3 9 4 10 8 11 5 12
REMARK SMILES IDX 7 13 6 14 29 15 11 16 12 17 2 18 1 19 9 20 10 21 19 22 20 23
REMARK SMILES IDX 21 24 26 25 22 26 24 27 23 28 25 29
REMARK H PARENT
ROOT
ATOM      1  C   UNL     1      -1.167   0.531   0.959  1.00  0.00    -0.013 A 
ATOM      2  C   UNL     1      -1.874   1.661   1.364  1.00  0.00     0.079 A 
ATOM      3  C   UNL     1      -3.053   2.007   0.713  1.00  0.00     0.309 A 
ATOM      4  N   UNL     1      -3.527   1.250  -0.303  1.00  0.00    -0.201 N 
ATOM      5  C   UNL     1      -2.857   0.144  -0.708  1.00  0.00     0.309 A 
ATOM      6  C   UNL     1      -1.673  -0.237  -0.086  1.00  0.00     0.079 A 
ENDROOT
BRANCH   1   7
ATOM      7  C   UNL     1       0.043   0.149   1.686  1.00  0.00     0.016 C 
BRANCH   7   8
ATOM      8  C   UNL     1       1.257  -0.012   1.143  1.00  0.00     0.005 C 
ATOM      9  C   UNL     1       5.510  -0.393  -0.845  1.00  0.00     0.161 A 
ATOM     10  C   UNL     1       4.176  -0.102  -1.174  1.00  0.00     0.055 A 
ATOM     11  C   UNL     1       5.874  -0.702   0.496  1.00  0.00     0.161 A 
ATOM     12  C   UNL     1       3.225  -0.122  -0.165  1.00  0.00    -0.028 A 
ATOM     13  C   UNL     1       4.904  -0.719   1.502  1.00  0.00     0.063 A 
ATOM     14  C   UNL     1       3.602  -0.427   1.141  1.00  0.00     0.030 A 
ATOM     15  C   UNL     1       1.754   0.148  -0.273  1.00  0.00     0.076 C 
ATOM     16  C   UNL     1       2.423  -0.377   2.008  1.00  0.00     0.189 C 
ATOM     17  O   UNL     1       2.397  -0.586   3.204  1.00  0.00    -0.289 OA
BRANCH   9  18
ATOM     18  O   UNL     1       6.540  -0.405  -1.754  1.00  0.00    -0.493 OA
ATOM     19  C   UNL     1       6.242  -0.100  -3.108  1.00  0.00     0.278 C 
ENDBRANCH   9  18
BRANCH  11  20
ATOM     20  O   UNL     1       7.205  -0.971   0.706  1.00  0.00    -0.493 OA
ATOM     21  C   UNL     1       7.616  -1.291   2.028  1.00  0.00     0.278 C 
ENDBRANCH  11  20
ENDBRANCH   7   8
ENDBRANCH   1   7
BRANCH   4  22
ATOM     22  C   UNL     1      -4.790   1.633  -0.985  1.00  0.00     0.393 C 
BRANCH  22  23
ATOM     23  C   UNL     1      -5.897   0.665  -0.660  1.00  0.00     0.020 A 
ATOM     24  C   UNL     1      -6.402   0.555   0.647  1.00  0.00     0.010 A 
ATOM     25  C   UNL     1      -6.445  -0.148  -1.664  1.00  0.00     0.049 A 
ATOM     26  C   UNL     1      -7.422  -0.355   0.942  1.00  0.00     0.004 A 
ATOM     27  C   UNL     1      -7.460  -1.050  -1.356  1.00  0.00     0.123 A 
ATOM     28  C   UNL     1      -7.951  -1.162  -0.063  1.00  0.00     0.039 A 
ATOM     29  F   UNL     1      -7.963  -1.821  -2.326  1.00  0.00    -0.207 F 
ENDBRANCH  22  23
ENDBRANCH   4  22
TORSDOF 6
