REMARK SMILES COc1ccc(OC)c([C@H](C)NS(=O)(=O)NC(=O)OCc2ccccc2)c1
REMARK SMILES IDX 12 1 10 3 11 4 9 5 3 6 4 7 27 8 5 9 6 10 2 11 1 12 7 13 8 14
REMARK SMILES IDX 13 15 14 16 15 17 16 18 17 19 18 21 19 22 20 23 21 24 22 25
REMARK SMILES IDX 26 26 23 27 25 28 24 29
REMARK H PARENT 12 2 16 20
ROOT
ATOM      1  N   UNL     1      -1.382   1.281  -2.875  1.00  0.00    -0.190 NA
ATOM      2  H   UNL     1      -2.085   0.710  -3.330  1.00  0.00     0.143 HD
ENDROOT
BRANCH   1   3
ATOM      3  C   UNL     1      -1.738   2.055  -1.678  1.00  0.00     0.102 C 
ATOM      4  C   UNL     1      -2.957   2.913  -2.024  1.00  0.00     0.031 C 
BRANCH   3   5
ATOM      5  C   UNL     1      -2.042   1.194  -0.457  1.00  0.00     0.016 A 
ATOM      6  C   UNL     1      -2.907  -0.867   0.530  1.00  0.00     0.119 A 
ATOM      7  C   UNL     1      -2.556  -0.397   1.794  1.00  0.00     0.050 A 
ATOM      8  C   UNL     1      -2.660  -0.069  -0.588  1.00  0.00     0.055 A 
ATOM      9  C   UNL     1      -1.974   0.862   1.950  1.00  0.00     0.050 A 
ATOM     10  C   UNL     1      -1.711   1.656   0.832  1.00  0.00     0.123 A 
BRANCH   6  11
ATOM     11  O   UNL     1      -3.476  -2.110   0.523  1.00  0.00    -0.497 OA
ATOM     12  C   UNL     1      -3.925  -2.611  -0.730  1.00  0.00     0.278 C 
ENDBRANCH   6  11
BRANCH  10  13
ATOM     13  O   UNL     1      -1.181   2.916   0.918  1.00  0.00    -0.496 OA
ATOM     14  C   UNL     1      -0.255   3.127   1.979  1.00  0.00     0.278 C 
ENDBRANCH  10  13
ENDBRANCH   3   5
ENDBRANCH   1   3
BRANCH   1  15
ATOM     15  S   UNL     1       0.191   0.880  -3.196  1.00  0.00     0.304 S 
ATOM     16  O   UNL     1       1.028   2.037  -3.035  1.00  0.00    -0.189 OA
ATOM     17  O   UNL     1       0.134   0.152  -4.443  1.00  0.00    -0.189 OA
BRANCH  15  18
ATOM     18  N   UNL     1       0.477  -0.251  -2.056  1.00  0.00    -0.205 N 
ATOM     19  C   UNL     1       1.048  -0.057  -0.811  1.00  0.00     0.422 C 
ATOM     20  H   UNL     1       0.271  -1.201  -2.331  1.00  0.00     0.188 HD
ATOM     21  O   UNL     1       1.409   1.018  -0.364  1.00  0.00    -0.223 OA
BRANCH  19  22
ATOM     22  O   UNL     1       1.116  -1.237  -0.147  1.00  0.00    -0.444 OA
BRANCH  22  23
ATOM     23  C   UNL     1       1.638  -1.167   1.183  1.00  0.00     0.270 C 
BRANCH  23  24
ATOM     24  C   UNL     1       3.089  -1.567   1.172  1.00  0.00    -0.011 A 
ATOM     25  C   UNL     1       4.092  -0.596   1.043  1.00  0.00     0.007 A 
ATOM     26  C   UNL     1       3.456  -2.918   1.246  1.00  0.00     0.007 A 
ATOM     27  C   UNL     1       5.437  -0.969   1.009  1.00  0.00     0.000 A 
ATOM     28  C   UNL     1       4.802  -3.288   1.212  1.00  0.00     0.000 A 
ATOM     29  C   UNL     1       5.791  -2.313   1.096  1.00  0.00     0.000 A 
ENDBRANCH  23  24
ENDBRANCH  22  23
ENDBRANCH  19  22
ENDBRANCH  15  18
ENDBRANCH   1  15
TORSDOF 9
