REMARK SMILES Nc1c2c(nc3cccc(Cl)c13)CCCC2
REMARK SMILES IDX 2 1 3 2 4 3 5 4 6 5 7 6 8 7 9 8 10 9 11 10 12 11 13 12 14 13
REMARK SMILES IDX 15 14 16 15 1 16
REMARK H PARENT 1 17 1 18
ROOT
ATOM      1  C   UNL     1       0.487   1.111   0.284  1.00  0.00     0.048 A 
ATOM      2  C   UNL     1      -0.751   0.431   0.269  1.00  0.00    -0.003 A 
ATOM      3  C   UNL     1      -0.751  -0.910  -0.101  1.00  0.00     0.046 A 
ATOM      4  N   UNL     1       0.361  -1.554  -0.514  1.00  0.00    -0.252 NA
ATOM      5  C   UNL     1       1.521  -0.892  -0.573  1.00  0.00     0.074 A 
ATOM      6  C   UNL     1       2.605  -1.621  -1.044  1.00  0.00     0.029 A 
ATOM      7  C   UNL     1       3.877  -1.069  -1.164  1.00  0.00     0.004 A 
ATOM      8  C   UNL     1       4.073   0.249  -0.795  1.00  0.00     0.021 A 
ATOM      9  C   UNL     1       2.998   1.005  -0.313  1.00  0.00     0.052 A 
ATOM     10  Cl  UNL     1       3.402   2.629   0.154  1.00  0.00    -0.084 Cl
ATOM     11  C   UNL     1       1.677   0.459  -0.194  1.00  0.00     0.042 A 
ATOM     12  C   UNL     1      -2.014  -1.732  -0.136  1.00  0.00     0.056 C 
ATOM     13  C   UNL     1      -3.145  -1.133   0.691  1.00  0.00     0.007 C 
ATOM     14  C   UNL     1      -3.304   0.339   0.348  1.00  0.00     0.005 C 
ATOM     15  C   UNL     1      -2.032   1.111   0.699  1.00  0.00     0.039 C 
ENDROOT
BRANCH   1  16
ATOM     16  N   UNL     1       0.484   2.494   0.582  1.00  0.00    -0.398 N 
ATOM     17  H   UNL     1      -0.200   2.776   1.276  1.00  0.00     0.156 HD
ATOM     18  H   UNL     1       1.408   2.865   0.794  1.00  0.00     0.156 HD
ENDBRANCH   1  16
TORSDOF 1
