REMARK SMILES C[N@H+]1CC[C@H](CCN2C(=O)c3ccccc3C2=O)CC1
REMARK SMILES IDX 6 1 5 2 2 3 3 4 20 5 4 6 19 7 1 8 7 10 8 11 9 12 17 13 11 14
REMARK SMILES IDX 16 15 12 16 15 17 13 18 14 19 10 20 18 21
REMARK H PARENT 2 9
ROOT
ATOM      1  C   UNL     1      -0.058   0.828   0.223  1.00  0.00     0.026 C 
ENDROOT
BRANCH   1   2
ATOM      2  C   UNL     1      -1.596   0.851   0.284  1.00  0.00     0.002 C 
ATOM      3  N   UNL     1      -4.279  -0.273   0.052  1.00  0.00    -0.337 N 
ATOM      4  C   UNL     1      -3.685  -0.010   1.416  1.00  0.00     0.262 C 
ATOM      5  C   UNL     1      -3.770   0.689  -0.995  1.00  0.00     0.262 C 
ATOM      6  C   UNL     1      -2.166  -0.111   1.335  1.00  0.00     0.065 C 
ATOM      7  C   UNL     1      -2.251   0.589  -1.079  1.00  0.00     0.065 C 
ATOM      8  C   UNL     1      -5.783  -0.293   0.099  1.00  0.00     0.332 C 
ATOM      9  H   UNL     1      -3.988  -1.219  -0.232  1.00  0.00     0.347 HD
ENDBRANCH   1   2
BRANCH   1  10
ATOM     10  C   UNL     1       0.577  -0.506  -0.186  1.00  0.00     0.129 C 
BRANCH  10  11
ATOM     11  N   UNL     1       2.021  -0.411  -0.209  1.00  0.00    -0.274 N 
ATOM     12  C   UNL     1       2.741   0.013  -1.293  1.00  0.00     0.261 C 
ATOM     13  C   UNL     1       2.817  -0.618   0.884  1.00  0.00     0.261 C 
ATOM     14  C   UNL     1       4.144   0.024  -0.880  1.00  0.00     0.053 A 
ATOM     15  C   UNL     1       4.190  -0.362   0.450  1.00  0.00     0.053 A 
ATOM     16  C   UNL     1       5.283   0.348  -1.588  1.00  0.00     0.015 A 
ATOM     17  C   UNL     1       5.380  -0.445   1.147  1.00  0.00     0.015 A 
ATOM     18  C   UNL     1       6.501   0.270  -0.905  1.00  0.00     0.001 A 
ATOM     19  C   UNL     1       6.549  -0.123   0.450  1.00  0.00     0.001 A 
ATOM     20  O   UNL     1       2.330   0.346  -2.388  1.00  0.00    -0.269 OA
ATOM     21  O   UNL     1       2.485  -0.930   2.011  1.00  0.00    -0.269 OA
ENDBRANCH  10  11
ENDBRANCH   1  10
TORSDOF 3
