REMARK SMILES COc1ccc(-c2cc(=O)c3ccc(OCC[N@H+]4CC[C@H](C)CC4)cc3o2)cc1
REMARK SMILES IDX 15 1 16 2 17 3 18 4 24 5 19 6 23 7 20 8 21 9 22 11 14 12
REMARK SMILES IDX 13 13 25 14 12 15 26 16 11 17 27 18 9 19 7 20 8 21 10 22
REMARK SMILES IDX 6 23 5 24 28 25 4 26 29 27 3 28 2 29 1 30
REMARK H PARENT 18 10
ROOT
ATOM      1  O   UNL     1      -1.393  -1.289   0.077  1.00  0.00    -0.488 OA
ENDROOT
BRANCH   1   2
ATOM      2  C   UNL     1      -2.517  -0.573   0.588  1.00  0.00     0.290 C 
BRANCH   2   3
ATOM      3  C   UNL     1      -3.763  -0.872  -0.254  1.00  0.00     0.304 C 
BRANCH   3   4
ATOM      4  N   UNL     1      -5.051  -0.286   0.296  1.00  0.00    -0.332 N 
ATOM      5  C   UNL     1      -5.480  -0.890   1.613  1.00  0.00     0.262 C 
ATOM      6  C   UNL     1      -5.073   1.223   0.321  1.00  0.00     0.262 C 
ATOM      7  C   UNL     1      -6.895  -0.427   1.936  1.00  0.00     0.065 C 
ATOM      8  C   UNL     1      -6.486   1.698   0.638  1.00  0.00     0.065 C 
ATOM      9  C   UNL     1      -7.002   1.103   1.955  1.00  0.00    -0.003 C 
ATOM     10  H   UNL     1      -5.768  -0.569  -0.387  1.00  0.00     0.348 HD
ATOM     11  C   UNL     1      -8.440   1.543   2.220  1.00  0.00     0.008 C 
ENDBRANCH   3   4
ENDBRANCH   2   3
ENDBRANCH   1   2
BRANCH   1  12
ATOM     12  C   UNL     1      -0.702  -0.781  -0.986  1.00  0.00     0.123 A 
ATOM     13  C   UNL     1      -0.860   0.489  -1.546  1.00  0.00     0.047 A 
ATOM     14  C   UNL     1       0.249  -1.656  -1.524  1.00  0.00     0.094 A 
ATOM     15  C   UNL     1      -0.083   0.872  -2.644  1.00  0.00     0.020 A 
ATOM     16  C   UNL     1       1.026  -1.274  -2.619  1.00  0.00     0.142 A 
ATOM     17  C   UNL     1       0.856  -0.015  -3.178  1.00  0.00     0.065 A 
ATOM     18  O   UNL     1       1.935  -2.183  -3.095  1.00  0.00    -0.456 OA
ATOM     19  C   UNL     1       1.680   0.363  -4.333  1.00  0.00     0.193 A 
ATOM     20  C   UNL     1       2.721  -1.824  -4.181  1.00  0.00     0.138 A 
ATOM     21  C   UNL     1       2.653  -0.636  -4.801  1.00  0.00     0.100 A 
ATOM     22  O   UNL     1       1.559   1.448  -4.885  1.00  0.00    -0.289 OA
BRANCH  20  23
ATOM     23  C   UNL     1       3.680  -2.865  -4.601  1.00  0.00     0.018 A 
ATOM     24  C   UNL     1       4.377  -3.605  -3.637  1.00  0.00     0.016 A 
ATOM     25  C   UNL     1       3.902  -3.161  -5.954  1.00  0.00     0.016 A 
ATOM     26  C   UNL     1       5.280  -4.601  -4.019  1.00  0.00     0.047 A 
ATOM     27  C   UNL     1       4.808  -4.160  -6.335  1.00  0.00     0.047 A 
ATOM     28  C   UNL     1       5.503  -4.883  -5.367  1.00  0.00     0.118 A 
BRANCH  28  29
ATOM     29  O   UNL     1       6.409  -5.879  -5.601  1.00  0.00    -0.497 OA
ATOM     30  C   UNL     1       6.701  -6.181  -6.960  1.00  0.00     0.278 C 
ENDBRANCH  28  29
ENDBRANCH  20  23
ENDBRANCH   1  12
TORSDOF 6
