REMARK SMILES COc1ccc([C@H](C)NS(=O)(=O)NC(=O)OCc2ccccc2)cc1OC
REMARK SMILES IDX 9 1 7 3 8 4 6 5 3 6 4 7 25 8 5 9 24 10 2 11 1 12 26 13 27 14
REMARK SMILES IDX 10 15 11 16 12 17 13 18 14 19 15 21 16 22 17 23 18 24 19 25
REMARK SMILES IDX 23 26 20 27 22 28 21 29
REMARK H PARENT 9 2 13 20
ROOT
ATOM      1  N   UNL     1      -0.502   1.401   0.043  1.00  0.00    -0.190 NA
ATOM      2  H   UNL     1      -1.069   1.883  -0.658  1.00  0.00     0.143 HD
ENDROOT
BRANCH   1   3
ATOM      3  C   UNL     1      -1.344   0.764   1.084  1.00  0.00     0.098 C 
ATOM      4  C   UNL     1      -1.084   1.496   2.404  1.00  0.00     0.031 C 
BRANCH   3   5
ATOM      5  C   UNL     1      -2.804   0.761   0.659  1.00  0.00    -0.026 A 
ATOM      6  C   UNL     1      -5.486   0.696  -0.234  1.00  0.00     0.160 A 
ATOM      7  C   UNL     1      -4.988   1.813   0.442  1.00  0.00     0.051 A 
ATOM      8  C   UNL     1      -4.632  -0.393  -0.489  1.00  0.00     0.161 A 
ATOM      9  C   UNL     1      -3.658   1.849   0.875  1.00  0.00     0.009 A 
ATOM     10  C   UNL     1      -3.306  -0.352  -0.039  1.00  0.00     0.055 A 
BRANCH   6  11
ATOM     11  O   UNL     1      -6.773   0.578  -0.696  1.00  0.00    -0.493 OA
ATOM     12  C   UNL     1      -7.670   1.645  -0.431  1.00  0.00     0.278 C 
ENDBRANCH   6  11
BRANCH   8  13
ATOM     13  O   UNL     1      -5.183  -1.450  -1.171  1.00  0.00    -0.493 OA
ATOM     14  C   UNL     1      -4.297  -2.453  -1.648  1.00  0.00     0.278 C 
ENDBRANCH   8  13
ENDBRANCH   3   5
ENDBRANCH   1   3
BRANCH   1  15
ATOM     15  S   UNL     1       0.588   0.410  -0.761  1.00  0.00     0.304 S 
ATOM     16  O   UNL     1      -0.109  -0.805  -1.092  1.00  0.00    -0.189 OA
ATOM     17  O   UNL     1       1.218   1.247  -1.750  1.00  0.00    -0.189 OA
BRANCH  15  18
ATOM     18  N   UNL     1       1.653   0.187   0.470  1.00  0.00    -0.205 N 
ATOM     19  C   UNL     1       2.558  -0.869   0.480  1.00  0.00     0.422 C 
ATOM     20  H   UNL     1       2.047   1.057   0.807  1.00  0.00     0.188 HD
ATOM     21  O   UNL     1       2.458  -1.878  -0.194  1.00  0.00    -0.223 OA
BRANCH  19  22
ATOM     22  O   UNL     1       3.564  -0.610   1.353  1.00  0.00    -0.444 OA
BRANCH  22  23
ATOM     23  C   UNL     1       4.592  -1.605   1.421  1.00  0.00     0.270 C 
BRANCH  23  24
ATOM     24  C   UNL     1       5.746  -1.184   0.549  1.00  0.00    -0.011 A 
ATOM     25  C   UNL     1       6.707  -0.282   1.027  1.00  0.00     0.007 A 
ATOM     26  C   UNL     1       5.849  -1.654  -0.767  1.00  0.00     0.007 A 
ATOM     27  C   UNL     1       7.762   0.126   0.209  1.00  0.00     0.000 A 
ATOM     28  C   UNL     1       6.903  -1.244  -1.584  1.00  0.00     0.000 A 
ATOM     29  C   UNL     1       7.860  -0.356  -1.095  1.00  0.00     0.000 A 
ENDBRANCH  23  24
ENDBRANCH  22  23
ENDBRANCH  19  22
ENDBRANCH  15  18
ENDBRANCH   1  15
TORSDOF 9
