REMARK SMILES COc1cc(C=Cc2nnc(-c3ccc(F)cc3F)o2)ccc1O
REMARK SMILES IDX 6 1 5 2 23 3 22 4 3 5 21 6 4 7 24 8 2 10 1 11 7 12 8 13 9 14
REMARK SMILES IDX 20 15 10 16 11 17 12 18 13 19 18 20 14 21 17 22 15 23 19 24
REMARK SMILES IDX 16 25
REMARK H PARENT 24 9
ROOT
ATOM      1  C   UNL     1       0.845   0.489  -0.147  1.00  0.00     0.014 C 
ENDROOT
BRANCH   1   2
ATOM      2  C   UNL     1       2.243   0.875  -0.383  1.00  0.00    -0.022 A 
ATOM      3  C   UNL     1       4.862   1.644  -0.932  1.00  0.00     0.157 A 
ATOM      4  C   UNL     1       3.813   2.403  -1.430  1.00  0.00     0.051 A 
ATOM      5  C   UNL     1       4.637   0.494  -0.168  1.00  0.00     0.161 A 
ATOM      6  C   UNL     1       2.502   2.014  -1.159  1.00  0.00     0.012 A 
ATOM      7  C   UNL     1       3.321   0.110   0.099  1.00  0.00     0.058 A 
BRANCH   3   8
ATOM      8  O   UNL     1       6.140   2.046  -1.211  1.00  0.00    -0.504 OA
ATOM      9  H   UNL     1       6.713   1.383  -0.778  1.00  0.00     0.293 HD
ENDBRANCH   3   8
BRANCH   5  10
ATOM     10  O   UNL     1       5.771  -0.157   0.245  1.00  0.00    -0.493 OA
ATOM     11  C   UNL     1       5.586  -1.330   1.029  1.00  0.00     0.278 C 
ENDBRANCH   5  10
ENDBRANCH   1   2
BRANCH   1  12
ATOM     12  C   UNL     1       0.393   0.013   1.024  1.00  0.00     0.071 C 
BRANCH  12  13
ATOM     13  C   UNL     1      -0.971  -0.339   1.211  1.00  0.00     0.241 A 
ATOM     14  N   UNL     1      -1.500  -0.829   2.322  1.00  0.00    -0.108 NA
ATOM     15  O   UNL     1      -1.943  -0.215   0.234  1.00  0.00    -0.417 OA
ATOM     16  N   UNL     1      -2.842  -1.038   2.096  1.00  0.00    -0.107 NA
ATOM     17  C   UNL     1      -3.071  -0.665   0.856  1.00  0.00     0.251 A 
BRANCH  17  18
ATOM     18  C   UNL     1      -4.316  -0.673   0.101  1.00  0.00     0.075 A 
ATOM     19  C   UNL     1      -5.492  -1.135   0.721  1.00  0.00     0.020 A 
ATOM     20  C   UNL     1      -4.400  -0.238  -1.229  1.00  0.00     0.138 A 
ATOM     21  C   UNL     1      -6.705  -1.157   0.026  1.00  0.00     0.040 A 
ATOM     22  C   UNL     1      -5.606  -0.257  -1.927  1.00  0.00     0.079 A 
ATOM     23  C   UNL     1      -6.749  -0.717  -1.291  1.00  0.00     0.126 A 
ATOM     24  F   UNL     1      -3.316   0.214  -1.877  1.00  0.00    -0.206 F 
ATOM     25  F   UNL     1      -7.912  -0.738  -1.955  1.00  0.00    -0.207 F 
ENDBRANCH  17  18
ENDBRANCH  12  13
ENDBRANCH   1  12
TORSDOF 6
