REMARK SMILES O=C(Nc1cncc(OC[C@H]2CC[N@H+](Cc3ccccc3)CC2)c1)c1ccnc2[nH]ccc12
REMARK SMILES IDX 9 1 10 2 11 3 13 4 14 5 12 6 22 7 23 8 15 10 16 11 17 12
REMARK SMILES IDX 21 13 18 14 20 15 19 16 8 17 7 18 24 19 6 20 4 21 5 22 3 23
REMARK SMILES IDX 2 24 1 26 25 27 26 28 33 29 27 30 32 31 29 32 28 33 31 34
REMARK SMILES IDX 30 35
REMARK H PARENT 14 9 3 25 30 36
ROOT
ATOM      1  O   UNL     1       0.029  -1.259   0.304  1.00  0.00    -0.492 OA
ENDROOT
BRANCH   1   2
ATOM      2  C   UNL     1      -1.246  -1.205   0.944  1.00  0.00     0.233 C 
BRANCH   2   3
ATOM      3  C   UNL     1      -2.363  -1.693   0.004  1.00  0.00     0.038 C 
ATOM      4  C   UNL     1      -3.528  -1.333  -2.215  1.00  0.00     0.262 C 
ATOM      5  N   UNL     1      -4.845  -1.256  -1.477  1.00  0.00    -0.331 N 
ATOM      6  C   UNL     1      -2.401  -0.878  -1.297  1.00  0.00     0.069 C 
ATOM      7  C   UNL     1      -4.848  -2.092  -0.223  1.00  0.00     0.262 C 
ATOM      8  C   UNL     1      -3.726  -1.638   0.701  1.00  0.00     0.069 C 
ATOM      9  H   UNL     1      -4.982  -0.274  -1.206  1.00  0.00     0.348 HD
BRANCH   5  10
ATOM     10  C   UNL     1      -6.026  -1.602  -2.366  1.00  0.00     0.299 C 
BRANCH  10  11
ATOM     11  C   UNL     1      -6.284  -0.571  -3.431  1.00  0.00     0.006 A 
ATOM     12  C   UNL     1      -5.973  -0.839  -4.773  1.00  0.00     0.009 A 
ATOM     13  C   UNL     1      -6.822   0.681  -3.094  1.00  0.00     0.009 A 
ATOM     14  C   UNL     1      -6.188   0.130  -5.754  1.00  0.00     0.001 A 
ATOM     15  C   UNL     1      -7.035   1.646  -4.079  1.00  0.00     0.001 A 
ATOM     16  C   UNL     1      -6.716   1.371  -5.407  1.00  0.00     0.000 A 
ENDBRANCH  10  11
ENDBRANCH   5  10
ENDBRANCH   2   3
ENDBRANCH   1   2
BRANCH   1  17
ATOM     17  C   UNL     1       0.715  -2.439   0.312  1.00  0.00     0.139 A 
ATOM     18  C   UNL     1       0.305  -3.646   0.860  1.00  0.00     0.157 A 
ATOM     19  C   UNL     1       1.959  -2.413  -0.322  1.00  0.00     0.075 A 
ATOM     20  N   UNL     1       1.018  -4.790   0.787  1.00  0.00    -0.259 NA
ATOM     21  C   UNL     1       2.743  -3.568  -0.403  1.00  0.00     0.063 A 
ATOM     22  C   UNL     1       2.223  -4.727   0.163  1.00  0.00     0.137 A 
BRANCH  21  23
ATOM     23  N   UNL     1       3.993  -3.470  -1.052  1.00  0.00    -0.320 N 
ATOM     24  C   UNL     1       4.918  -4.485  -1.210  1.00  0.00     0.256 C 
ATOM     25  H   UNL     1       4.262  -2.550  -1.377  1.00  0.00     0.170 HD
ATOM     26  O   UNL     1       4.821  -5.626  -0.777  1.00  0.00    -0.269 OA
BRANCH  24  27
ATOM     27  C   UNL     1       6.156  -4.107  -1.925  1.00  0.00     0.052 A 
ATOM     28  C   UNL     1       7.377  -4.613  -1.466  1.00  0.00     0.035 A 
ATOM     29  C   UNL     1       6.159  -3.275  -3.062  1.00  0.00     0.031 A 
ATOM     30  C   UNL     1       8.540  -4.239  -2.119  1.00  0.00     0.114 A 
ATOM     31  C   UNL     1       5.199  -2.621  -3.891  1.00  0.00     0.030 A 
ATOM     32  C   UNL     1       7.405  -2.986  -3.610  1.00  0.00     0.138 A 
ATOM     33  N   UNL     1       8.607  -3.416  -3.188  1.00  0.00    -0.239 NA
ATOM     34  C   UNL     1       5.883  -1.942  -4.877  1.00  0.00     0.085 A 
ATOM     35  N   UNL     1       7.222  -2.172  -4.692  1.00  0.00    -0.346 N 
ATOM     36  H   UNL     1       7.980  -1.827  -5.266  1.00  0.00     0.167 HD
ENDBRANCH  24  27
ENDBRANCH  21  23
ENDBRANCH   1  17
TORSDOF 7
