REMARK SMILES COc1ccccc1C(=O)N1Cc2cc(NC(=O)c3ccccc3)ccc2CC1=O
REMARK SMILES IDX 9 1 10 2 8 3 3 4 4 5 5 6 7 7 6 8 2 9 1 10 11 11 12 12 29 13
REMARK SMILES IDX 13 14 28 15 14 16 27 17 15 18 26 19 25 20 30 21 16 22 17 23
REMARK SMILES IDX 18 25 19 26 20 27 24 28 21 29 23 30 22 31
REMARK H PARENT 16 24
ROOT
ATOM      1  C   UNL     1      -3.437  -0.952  -1.574  1.00  0.00     0.264 C 
ATOM      2  O   UNL     1      -3.328  -1.278  -2.757  1.00  0.00    -0.268 OA
ENDROOT
BRANCH   1   3
ATOM      3  C   UNL     1      -4.641  -0.182  -1.162  1.00  0.00     0.082 A 
ATOM      4  C   UNL     1      -4.557   0.948  -0.329  1.00  0.00     0.131 A 
ATOM      5  C   UNL     1      -5.736   1.630  -0.003  1.00  0.00     0.047 A 
ATOM      6  C   UNL     1      -6.970   1.199  -0.503  1.00  0.00     0.004 A 
ATOM      7  C   UNL     1      -5.877  -0.596  -1.680  1.00  0.00     0.018 A 
ATOM      8  C   UNL     1      -7.041   0.091  -1.343  1.00  0.00     0.001 A 
BRANCH   4   9
ATOM      9  O   UNL     1      -3.307   1.339   0.077  1.00  0.00    -0.496 OA
ATOM     10  C   UNL     1      -3.231   2.300   1.122  1.00  0.00     0.278 C 
ENDBRANCH   4   9
ENDBRANCH   1   3
BRANCH   1  11
ATOM     11  N   UNL     1      -2.488  -1.293  -0.607  1.00  0.00    -0.274 N 
ATOM     12  C   UNL     1      -1.175  -1.652  -1.112  1.00  0.00     0.164 C 
ATOM     13  C   UNL     1      -2.852  -1.718   0.669  1.00  0.00     0.234 C 
ATOM     14  C   UNL     1      -0.093  -1.331  -0.120  1.00  0.00    -0.022 A 
ATOM     15  C   UNL     1      -1.722  -2.026   1.644  1.00  0.00     0.136 C 
ATOM     16  C   UNL     1       1.179  -0.902  -0.524  1.00  0.00     0.032 A 
ATOM     17  C   UNL     1      -0.368  -1.514   1.237  1.00  0.00    -0.033 A 
ATOM     18  C   UNL     1       2.181  -0.644   0.420  1.00  0.00     0.041 A 
ATOM     19  C   UNL     1       0.632  -1.270   2.181  1.00  0.00     0.007 A 
ATOM     20  C   UNL     1       1.896  -0.829   1.773  1.00  0.00     0.026 A 
ATOM     21  O   UNL     1      -4.018  -1.882   1.035  1.00  0.00    -0.274 OA
BRANCH  18  22
ATOM     22  N   UNL     1       3.428  -0.200  -0.069  1.00  0.00    -0.322 N 
ATOM     23  C   UNL     1       4.578   0.042   0.660  1.00  0.00     0.255 C 
ATOM     24  H   UNL     1       3.499  -0.113  -1.074  1.00  0.00     0.170 HD
ATOM     25  O   UNL     1       4.745  -0.154   1.858  1.00  0.00    -0.269 OA
BRANCH  23  26
ATOM     26  C   UNL     1       5.727   0.555  -0.139  1.00  0.00     0.040 A 
ATOM     27  C   UNL     1       7.019   0.137   0.204  1.00  0.00     0.014 A 
ATOM     28  C   UNL     1       5.545   1.458  -1.195  1.00  0.00     0.014 A 
ATOM     29  C   UNL     1       8.119   0.595  -0.523  1.00  0.00     0.001 A 
ATOM     30  C   UNL     1       6.649   1.914  -1.919  1.00  0.00     0.001 A 
ATOM     31  C   UNL     1       7.933   1.479  -1.586  1.00  0.00     0.000 A 
ENDBRANCH  23  26
ENDBRANCH  18  22
ENDBRANCH   1  11
TORSDOF 5
