REMARK SMILES CC1=C[C@H]2Cc3[nH]c4cc(Cl)ccc4c(=N)c3[C@@H](C1)C2
REMARK SMILES IDX 7 1 6 2 17 3 15 4 14 5 13 6 12 7 10 8 11 9 9 10 8 11 18 12
REMARK SMILES IDX 19 13 2 14 1 15 3 16 4 17 5 18 20 19 16 21
REMARK H PARENT 7 20 16 22
ROOT
ATOM      1  N   UNL     1       1.974   0.925  -1.289  1.00  0.00    -0.358 N 
ATOM      2  C   UNL     1       0.720   0.522  -0.887  1.00  0.00     0.021 A 
ATOM      3  C   UNL     1       0.512  -0.561  -0.108  1.00  0.00     0.000 A 
ATOM      4  C   UNL     1       1.697  -1.357   0.357  1.00  0.00     0.068 A 
ATOM      5  C   UNL     1       3.057  -0.852  -0.020  1.00  0.00     0.023 A 
ATOM      6  C   UNL     1       4.234  -1.481   0.412  1.00  0.00     0.014 A 
ATOM      7  C   UNL     1       5.481  -0.979   0.028  1.00  0.00     0.021 A 
ATOM      8  C   UNL     1       5.554   0.146  -0.787  1.00  0.00     0.043 A 
ATOM      9  Cl  UNL     1       7.090   0.755  -1.266  1.00  0.00    -0.084 Cl
ATOM     10  C   UNL     1       4.393   0.783  -1.219  1.00  0.00     0.047 A 
ATOM     11  C   UNL     1       3.138   0.299  -0.827  1.00  0.00     0.049 A 
ATOM     12  C   UNL     1      -0.873  -1.031   0.312  1.00  0.00     0.028 C 
ATOM     13  C   UNL     1      -1.215  -0.535   1.736  1.00  0.00     0.039 C 
ATOM     14  C   UNL     1      -1.660   0.916   1.788  1.00  0.00    -0.076 C 
ATOM     15  C   UNL     1      -1.794   1.514   3.157  1.00  0.00     0.039 C 
ATOM     16  C   UNL     1      -1.907   1.620   0.666  1.00  0.00    -0.024 C 
ATOM     17  C   UNL     1      -1.799   1.020  -0.722  1.00  0.00     0.018 C 
ATOM     18  C   UNL     1      -0.445   1.378  -1.367  1.00  0.00     0.062 C 
ATOM     19  C   UNL     1      -1.934  -0.504  -0.664  1.00  0.00     0.017 C 
ATOM     20  H   UNL     1       2.056   1.831  -1.736  1.00  0.00     0.166 HD
ENDROOT
BRANCH   4  21
ATOM     21  N   UNL     1       1.496  -2.432   1.059  1.00  0.00    -0.300 NA
ATOM     22  H   UNL     1       2.357  -2.908   1.319  1.00  0.00     0.188 HD
ENDBRANCH   4  21
TORSDOF 1
