REMARK SMILES CCOCC[n+]1ccc(CCC(O)=C2Cc3cc(OC)c(OC)cc3S2)cc1
REMARK SMILES IDX 9 1 8 2 7 3 6 4 28 5 27 6 10 7 11 8 12 9 13 10 14 12 15 13
REMARK SMILES IDX 26 14 16 15 25 16 17 17 24 18 18 19 21 20 19 21 20 22 22 23
REMARK SMILES IDX 23 24 5 25 4 26 3 27 2 28 1 29
REMARK H PARENT 13 11
ROOT
ATOM      1  C   UNL     1       2.076  -0.065  -2.481  1.00  0.00    -0.036 A 
ATOM      2  C   UNL     1       1.599   0.968  -1.671  1.00  0.00     0.074 A 
ATOM      3  C   UNL     1       1.375   0.741  -0.319  1.00  0.00     0.308 A 
ATOM      4  N   UNL     1       1.621  -0.472   0.227  1.00  0.00    -0.203 N 
ATOM      5  C   UNL     1       2.119  -1.477  -0.528  1.00  0.00     0.308 A 
ATOM      6  C   UNL     1       2.358  -1.295  -1.887  1.00  0.00     0.074 A 
ENDROOT
BRANCH   1   7
ATOM      7  C   UNL     1       2.187   0.125  -3.980  1.00  0.00     0.044 C 
BRANCH   7   8
ATOM      8  C   UNL     1       0.977  -0.425  -4.763  1.00  0.00     0.080 C 
BRANCH   8   9
ATOM      9  C   UNL     1      -0.329   0.222  -4.342  1.00  0.00     0.103 C 
BRANCH   9  10
ATOM     10  O   UNL     1      -0.456   1.514  -4.826  1.00  0.00    -0.511 OA
ATOM     11  H   UNL     1      -1.400   1.735  -4.916  1.00  0.00     0.293 HD
ENDBRANCH   9  10
BRANCH   9  12
ATOM     12  C   UNL     1      -1.249  -0.322  -3.517  1.00  0.00     0.032 C 
ATOM     13  C   UNL     1      -2.369   0.449  -2.834  1.00  0.00     0.083 C 
ATOM     14  S   UNL     1      -1.080  -1.931  -2.812  1.00  0.00    -0.090 SA
ATOM     15  C   UNL     1      -2.436  -0.113  -1.436  1.00  0.00    -0.025 A 
ATOM     16  C   UNL     1      -1.829  -1.366  -1.306  1.00  0.00     0.020 A 
ATOM     17  C   UNL     1      -2.993   0.521  -0.327  1.00  0.00     0.055 A 
ATOM     18  C   UNL     1      -1.748  -1.999  -0.080  1.00  0.00     0.066 A 
ATOM     19  C   UNL     1      -2.901  -0.092   0.930  1.00  0.00     0.161 A 
ATOM     20  C   UNL     1      -2.281  -1.357   1.040  1.00  0.00     0.161 A 
BRANCH  19  21
ATOM     21  O   UNL     1      -3.309   0.501   2.095  1.00  0.00    -0.493 OA
ATOM     22  C   UNL     1      -4.249   1.565   1.987  1.00  0.00     0.278 C 
ENDBRANCH  19  21
BRANCH  20  23
ATOM     23  O   UNL     1      -2.053  -2.005   2.231  1.00  0.00    -0.493 OA
ATOM     24  C   UNL     1      -3.243  -2.201   2.998  1.00  0.00     0.278 C 
ENDBRANCH  20  23
ENDBRANCH   9  12
ENDBRANCH   8   9
ENDBRANCH   7   8
ENDBRANCH   1   7
BRANCH   4  25
ATOM     25  C   UNL     1       1.310  -0.701   1.664  1.00  0.00     0.385 C 
BRANCH  25  26
ATOM     26  C   UNL     1       2.499  -0.275   2.521  1.00  0.00     0.233 C 
BRANCH  26  27
ATOM     27  O   UNL     1       2.667   1.141   2.406  1.00  0.00    -0.375 OA
BRANCH  27  28
ATOM     28  C   UNL     1       3.746   1.649   3.196  1.00  0.00     0.157 C 
ATOM     29  C   UNL     1       3.326   1.843   4.642  1.00  0.00     0.035 C 
ENDBRANCH  27  28
ENDBRANCH  26  27
ENDBRANCH  25  26
ENDBRANCH   4  25
TORSDOF 11
