REMARK SMILES COc1cccc([C@@H]2C=C(c3cc(F)cc(F)c3)NN2c2ccc(S(N)(=O)=O)cc2)c1OC
REMARK SMILES IDX 21 1 22 2 23 3 24 4 29 5 30 6 20 7 19 8 10 9 9 10 8 11 11 13
REMARK SMILES IDX 12 14 18 15 13 16 16 17 15 18 14 19 17 20 7 21 6 22 31 23
REMARK SMILES IDX 5 24 3 25 4 26 32 27 33 28 2 29 1 30 25 31 27 32 28 33 26 34
REMARK H PARENT 19 12 26 35 26 36
ROOT
ATOM      1  C   UNL     1      -1.900  -0.020  -0.516  1.00  0.00     0.058 A 
ATOM      2  C   UNL     1      -2.169  -0.914  -1.565  1.00  0.00     0.029 A 
ATOM      3  C   UNL     1      -3.256  -1.795  -1.518  1.00  0.00     0.024 A 
ATOM      4  C   UNL     1      -4.095  -1.792  -0.405  1.00  0.00     0.082 A 
ATOM      5  C   UNL     1      -3.875  -0.902   0.642  1.00  0.00     0.024 A 
ATOM      6  C   UNL     1      -2.784  -0.029   0.579  1.00  0.00     0.029 A 
ENDROOT
BRANCH   1   7
ATOM      7  N   UNL     1      -0.816   0.854  -0.536  1.00  0.00    -0.276 N 
ATOM      8  N   UNL     1      -0.613   1.904   0.347  1.00  0.00    -0.297 N 
ATOM      9  C   UNL     1       0.547   2.588   0.009  1.00  0.00     0.060 C 
ATOM     10  C   UNL     1       1.156   1.977  -1.021  1.00  0.00     0.033 C 
ATOM     11  C   UNL     1       0.335   0.781  -1.474  1.00  0.00     0.165 C 
ATOM     12  H   UNL     1      -1.408   2.532   0.473  1.00  0.00     0.188 HD
BRANCH   9  13
ATOM     13  C   UNL     1       0.970   3.793   0.726  1.00  0.00     0.005 A 
ATOM     14  C   UNL     1       0.637   3.965   2.078  1.00  0.00     0.049 A 
ATOM     15  C   UNL     1       1.701   4.804   0.087  1.00  0.00     0.049 A 
ATOM     16  C   UNL     1       1.033   5.113   2.760  1.00  0.00     0.126 A 
ATOM     17  C   UNL     1       2.085   5.945   0.790  1.00  0.00     0.126 A 
ATOM     18  C   UNL     1       1.757   6.111   2.127  1.00  0.00     0.078 A 
ATOM     19  F   UNL     1       0.708   5.255   4.051  1.00  0.00    -0.207 F 
ATOM     20  F   UNL     1       2.781   6.899   0.159  1.00  0.00    -0.207 F 
ENDBRANCH   9  13
BRANCH  11  21
ATOM     21  C   UNL     1       1.139  -0.510  -1.477  1.00  0.00     0.026 A 
ATOM     22  C   UNL     1       1.597  -0.984  -2.723  1.00  0.00     0.010 A 
ATOM     23  C   UNL     1       1.495  -1.242  -0.327  1.00  0.00     0.166 A 
ATOM     24  C   UNL     1       2.347  -2.155  -2.821  1.00  0.00     0.004 A 
ATOM     25  C   UNL     1       2.227  -2.447  -0.422  1.00  0.00     0.161 A 
ATOM     26  C   UNL     1       2.656  -2.887  -1.676  1.00  0.00     0.050 A 
BRANCH  23  27
ATOM     27  O   UNL     1       1.055  -0.813   0.901  1.00  0.00    -0.492 OA
ATOM     28  C   UNL     1       2.120  -0.261   1.672  1.00  0.00     0.278 C 
ENDBRANCH  23  27
BRANCH  25  29
ATOM     29  O   UNL     1       2.466  -3.112   0.753  1.00  0.00    -0.493 OA
ATOM     30  C   UNL     1       3.088  -4.387   0.675  1.00  0.00     0.278 C 
ENDBRANCH  25  29
ENDBRANCH  11  21
ENDBRANCH   1   7
BRANCH   4  31
ATOM     31  S   UNL     1      -5.451  -2.928  -0.333  1.00  0.00     0.238 S 
ATOM     32  O   UNL     1      -6.394  -2.459   0.656  1.00  0.00    -0.207 OA
ATOM     33  O   UNL     1      -5.842  -3.264  -1.681  1.00  0.00    -0.207 OA
BRANCH  31  34
ATOM     34  N   UNL     1      -4.714  -4.282   0.347  1.00  0.00    -0.225 NA
ATOM     35  H   UNL     1      -5.128  -4.454   1.265  1.00  0.00     0.137 HD
ATOM     36  H   UNL     1      -3.699  -4.195   0.404  1.00  0.00     0.137 HD
ENDBRANCH  31  34
ENDBRANCH   4  31
TORSDOF 7
