REMARK SMILES CN(C)S(=O)(=O)N[C@@H]1CCc2c(O)cccc2C1
REMARK SMILES IDX 7 1 4 3 5 4 6 5 2 6 1 7 3 8 8 9 9 10 18 11 10 12 17 13 11 14
REMARK SMILES IDX 16 15 12 16 15 17 14 18 13 19
REMARK H PARENT 7 2 13 20
ROOT
ATOM      1  N   UNL     1       1.234   0.523  -1.859  1.00  0.00    -0.199 NA
ATOM      2  H   UNL     1       1.993   0.465  -1.187  1.00  0.00     0.142 HD
ENDROOT
BRANCH   1   3
ATOM      3  S   UNL     1       1.659   1.113  -3.351  1.00  0.00     0.279 S 
ATOM      4  O   UNL     1       3.050   0.794  -3.557  1.00  0.00    -0.195 OA
ATOM      5  O   UNL     1       0.632   0.735  -4.290  1.00  0.00    -0.195 OA
BRANCH   3   6
ATOM      6  N   UNL     1       1.542   2.774  -3.045  1.00  0.00    -0.195 NA
ATOM      7  C   UNL     1       2.593   3.330  -2.166  1.00  0.00     0.125 C 
ATOM      8  C   UNL     1       1.385   3.583  -4.275  1.00  0.00     0.125 C 
ENDBRANCH   3   6
ENDBRANCH   1   3
BRANCH   1   9
ATOM      9  C   UNL     1      -0.146   0.702  -1.380  1.00  0.00     0.075 C 
ATOM     10  C   UNL     1      -0.119   1.188   0.066  1.00  0.00     0.025 C 
ATOM     11  C   UNL     1      -0.886  -0.637  -1.460  1.00  0.00     0.056 C 
ATOM     12  C   UNL     1      -1.538   1.447   0.564  1.00  0.00     0.041 C 
ATOM     13  C   UNL     1      -2.204  -0.638  -0.719  1.00  0.00    -0.040 A 
ATOM     14  C   UNL     1      -2.511   0.334   0.258  1.00  0.00    -0.003 A 
ATOM     15  C   UNL     1      -3.116  -1.673  -0.988  1.00  0.00     0.004 A 
ATOM     16  C   UNL     1      -3.758   0.259   0.901  1.00  0.00     0.119 A 
ATOM     17  C   UNL     1      -4.334  -1.740  -0.317  1.00  0.00     0.004 A 
ATOM     18  C   UNL     1      -4.656  -0.770   0.626  1.00  0.00     0.046 A 
BRANCH  16  19
ATOM     19  O   UNL     1      -4.176   1.176   1.824  1.00  0.00    -0.508 OA
ATOM     20  H   UNL     1      -3.591   1.948   1.801  1.00  0.00     0.293 HD
ENDBRANCH  16  19
ENDBRANCH   1   9
TORSDOF 4
