REMARK SMILES O=C1Cc2cc3c(CC[C@H]4CC[N@H+](Cc5ccccc5)CC4)noc3cc2N1
REMARK SMILES IDX 9 1 10 2 12 3 13 4 11 5 21 6 22 7 14 9 15 10 16 11 20 12
REMARK SMILES IDX 17 13 19 14 18 15 8 16 7 17 6 18 23 19 5 20 25 21 24 22 4 23
REMARK SMILES IDX 26 24 3 25 27 26 2 27 28 28 1 29
REMARK H PARENT 13 8 28 30
ROOT
ATOM      1  C   UNL     1       0.919   2.656   0.779  1.00  0.00     0.010 C 
ENDROOT
BRANCH   1   2
ATOM      2  C   UNL     1      -0.406   2.367   0.029  1.00  0.00     0.000 C 
ATOM      3  C   UNL     1      -1.498   1.145  -1.923  1.00  0.00     0.262 C 
ATOM      4  N   UNL     1      -2.443   0.519  -0.935  1.00  0.00    -0.331 N 
ATOM      5  C   UNL     1      -0.195   1.498  -1.222  1.00  0.00     0.065 C 
ATOM      6  C   UNL     1      -2.788   1.478   0.176  1.00  0.00     0.262 C 
ATOM      7  C   UNL     1      -1.517   1.826   0.939  1.00  0.00     0.065 C 
ATOM      8  H   UNL     1      -1.956  -0.279  -0.500  1.00  0.00     0.348 HD
BRANCH   4   9
ATOM      9  C   UNL     1      -3.663  -0.059  -1.617  1.00  0.00     0.299 C 
BRANCH   9  10
ATOM     10  C   UNL     1      -4.468  -0.967  -0.729  1.00  0.00     0.006 A 
ATOM     11  C   UNL     1      -5.742  -0.583  -0.282  1.00  0.00     0.009 A 
ATOM     12  C   UNL     1      -3.951  -2.208  -0.322  1.00  0.00     0.009 A 
ATOM     13  C   UNL     1      -6.477  -1.418   0.560  1.00  0.00     0.001 A 
ATOM     14  C   UNL     1      -4.690  -3.039   0.521  1.00  0.00     0.001 A 
ATOM     15  C   UNL     1      -5.950  -2.643   0.963  1.00  0.00     0.000 A 
ENDBRANCH   9  10
ENDBRANCH   4   9
ENDBRANCH   1   2
BRANCH   1  16
ATOM     16  C   UNL     1       1.415   1.631   1.812  1.00  0.00     0.061 C 
BRANCH  16  17
ATOM     17  C   UNL     1       1.799   0.306   1.248  1.00  0.00     0.091 A 
ATOM     18  C   UNL     1       3.064  -0.106   0.753  1.00  0.00     0.045 A 
ATOM     19  N   UNL     1       0.890  -0.679   1.165  1.00  0.00    -0.084 NA
ATOM     20  C   UNL     1       4.339   0.473   0.590  1.00  0.00     0.020 A 
ATOM     21  C   UNL     1       2.853  -1.427   0.371  1.00  0.00     0.169 A 
ATOM     22  O   UNL     1       1.558  -1.761   0.616  1.00  0.00    -0.356 OA
ATOM     23  C   UNL     1       5.320  -0.346   0.041  1.00  0.00    -0.014 A 
ATOM     24  C   UNL     1       3.819  -2.270  -0.180  1.00  0.00     0.077 A 
ATOM     25  C   UNL     1       6.760  -0.030  -0.251  1.00  0.00     0.138 C 
ATOM     26  C   UNL     1       5.055  -1.667  -0.325  1.00  0.00     0.048 A 
ATOM     27  C   UNL     1       7.269  -1.350  -0.838  1.00  0.00     0.228 C 
ATOM     28  N   UNL     1       6.205  -2.245  -0.840  1.00  0.00    -0.325 N 
ATOM     29  O   UNL     1       8.396  -1.584  -1.237  1.00  0.00    -0.274 OA
ATOM     30  H   UNL     1       6.300  -3.192  -1.176  1.00  0.00     0.169 HD
ENDBRANCH  16  17
ENDBRANCH   1  16
TORSDOF 5
