REMARK SMILES CCC(CC)n1cc(C(=O)C(F)(F)F)cn1
REMARK SMILES IDX 6 1 7 2 8 3 15 4 16 5 3 6 2 7 1 8 4 9 5 10 9 11 10 12 11 13
REMARK SMILES IDX 12 14 13 15 14 16
REMARK H PARENT
ROOT
ATOM      1  N   UNL     1      -0.086   0.065  -0.159  1.00  0.00    -0.269 N 
ATOM      2  C   UNL     1       1.011   0.243  -0.955  1.00  0.00     0.121 A 
ATOM      3  C   UNL     1       2.120   0.095  -0.143  1.00  0.00     0.065 A 
ATOM      4  C   UNL     1       1.572  -0.173   1.131  1.00  0.00     0.147 A 
ATOM      5  N   UNL     1       0.238  -0.192   1.123  1.00  0.00    -0.180 NA
ENDROOT
BRANCH   1   6
ATOM      6  C   UNL     1      -1.482   0.125  -0.587  1.00  0.00     0.107 C 
BRANCH   6   7
ATOM      7  C   UNL     1      -2.337  -1.043  -0.056  1.00  0.00     0.024 C 
ATOM      8  C   UNL     1      -1.889  -2.396  -0.598  1.00  0.00     0.006 C 
ENDBRANCH   6   7
BRANCH   6   9
ATOM      9  C   UNL     1      -2.107   1.506  -0.297  1.00  0.00     0.024 C 
ATOM     10  C   UNL     1      -2.380   1.813   1.170  1.00  0.00     0.006 C 
ENDBRANCH   6   9
ENDBRANCH   1   6
BRANCH   3  11
ATOM     11  C   UNL     1       3.513   0.203  -0.563  1.00  0.00     0.269 C 
ATOM     12  O   UNL     1       3.790   0.448  -1.741  1.00  0.00    -0.284 OA
BRANCH  11  13
ATOM     13  C   UNL     1       4.583   0.001   0.508  1.00  0.00     0.454 C 
ATOM     14  F   UNL     1       4.471   0.903   1.526  1.00  0.00    -0.163 F 
ATOM     15  F   UNL     1       5.854   0.117   0.035  1.00  0.00    -0.163 F 
ATOM     16  F   UNL     1       4.504  -1.230   1.090  1.00  0.00    -0.163 F 
ENDBRANCH  11  13
ENDBRANCH   3  11
TORSDOF 5
