REMARK SMILES CCOc1cc2c(cc1OCC)C(=O)[C@@H](C)C2
REMARK SMILES IDX 4 1 5 2 6 3 7 4 8 5 9 6 13 7 14 8 15 9 16 10 17 11 3 12 2 13
REMARK SMILES IDX 1 14 10 15 11 16 12 17
REMARK H PARENT
ROOT
ATOM      1  C   UNL     1      -0.600   0.924   0.486  1.00  0.00     0.161 A 
ATOM      2  C   UNL     1       0.684   1.190   0.992  1.00  0.00     0.055 A 
ATOM      3  C   UNL     1       1.670   0.229   0.862  1.00  0.00    -0.033 A 
ATOM      4  C   UNL     1       1.367  -0.975   0.248  1.00  0.00     0.025 A 
ATOM      5  C   UNL     1       0.108  -1.284  -0.243  1.00  0.00     0.062 A 
ATOM      6  C   UNL     1      -0.903  -0.326  -0.113  1.00  0.00     0.161 A 
ATOM      7  C   UNL     1       2.564  -1.802   0.239  1.00  0.00     0.166 C 
ATOM      8  O   UNL     1       2.618  -2.909  -0.268  1.00  0.00    -0.294 OA
ATOM      9  C   UNL     1       3.686  -1.074   0.955  1.00  0.00     0.062 C 
ATOM     10  C   UNL     1       4.927  -0.984   0.082  1.00  0.00     0.017 C 
ATOM     11  C   UNL     1       3.097   0.313   1.299  1.00  0.00     0.048 C 
ENDROOT
BRANCH   1  12
ATOM     12  O   UNL     1      -1.490   1.950   0.691  1.00  0.00    -0.490 OA
BRANCH  12  13
ATOM     13  C   UNL     1      -2.369   2.227  -0.401  1.00  0.00     0.226 C 
ATOM     14  C   UNL     1      -2.722   3.704  -0.348  1.00  0.00     0.049 C 
ENDBRANCH  12  13
ENDBRANCH   1  12
BRANCH   6  15
ATOM     15  O   UNL     1      -2.197  -0.531  -0.512  1.00  0.00    -0.490 OA
BRANCH  15  16
ATOM     16  C   UNL     1      -2.542  -1.810  -1.041  1.00  0.00     0.226 C 
ATOM     17  C   UNL     1      -4.025  -1.794  -1.367  1.00  0.00     0.049 C 
ENDBRANCH  15  16
ENDBRANCH   6  15
TORSDOF 4
