REMARK SMILES CC1=C[C@H]2Cc3nc4cc(Cl)ccc4c(N)c3[C@@H](C1)C2
REMARK SMILES IDX 1 1 2 2 3 3 4 4 5 5 6 6 7 7 8 8 9 9 10 10 11 11 12 12 13 13
REMARK SMILES IDX 14 14 15 15 17 16 18 17 19 18 20 19 16 20
REMARK H PARENT 16 21 16 22
ROOT
ATOM      1  C   UNL     1       0.957   2.078   0.010  1.00  0.00     0.039 C 
ATOM      2  C   UNL     1      -0.217   1.145   0.165  1.00  0.00    -0.076 C 
ATOM      3  C   UNL     1      -1.358   1.460  -0.406  1.00  0.00    -0.024 C 
ATOM      4  C   UNL     1      -1.944  -1.342  -1.464  1.00  0.00     0.018 C 
ATOM      5  C   UNL     1      -1.302  -0.077  -1.902  1.00  0.00     0.064 C 
ATOM      6  C   UNL     1      -0.015  -0.095  -1.159  1.00  0.00     0.047 A 
ATOM      7  N   UNL     1       1.091   0.372  -1.768  1.00  0.00    -0.252 NA
ATOM      8  C   UNL     1       2.285   0.382  -1.147  1.00  0.00     0.074 A 
ATOM      9  C   UNL     1       3.355   0.874  -1.840  1.00  0.00     0.049 A 
ATOM     10  C   UNL     1       4.603   0.893  -1.213  1.00  0.00     0.043 A 
ATOM     11  Cl  UNL     1       5.986   1.531  -2.117  1.00  0.00    -0.084 Cl
ATOM     12  C   UNL     1       4.779   0.431   0.076  1.00  0.00     0.021 A 
ATOM     13  C   UNL     1       3.691  -0.064   0.768  1.00  0.00     0.014 A 
ATOM     14  C   UNL     1       2.458  -0.083   0.149  1.00  0.00     0.024 A 
ATOM     15  C   UNL     1       1.329  -0.566   0.788  1.00  0.00     0.046 A 
ATOM     16  C   UNL     1       0.111  -0.566   0.129  1.00  0.00     0.001 A 
ATOM     17  C   UNL     1      -1.080  -1.091   0.841  1.00  0.00     0.028 C 
ATOM     18  C   UNL     1       0.015  -0.078   0.964  1.00  0.00     0.039 C 
ATOM     19  C   UNL     1      -2.308  -1.391   0.001  1.00  0.00     0.017 C 
ENDROOT
BRANCH  15  20
ATOM     20  N   UNL     1       1.437  -1.059   2.123  1.00  0.00    -0.398 N 
ATOM     21  H   UNL     1       0.700  -0.893   2.848  1.00  0.00     0.156 HD
ATOM     22  H   UNL     1       2.273  -1.619   2.442  1.00  0.00     0.156 HD
ENDBRANCH  15  20
TORSDOF 1
