REMARK SMILES COc1cc(N)c(Cl)cc1C(O)=CC[C@H]1CC[N@H+](Cc2ccccc2)CC1
REMARK SMILES IDX 13 1 11 2 12 3 10 5 9 6 3 7 7 8 4 9 5 10 8 11 2 12 1 13 6 14
REMARK SMILES IDX 14 17 15 18 16 19 27 20 17 21 26 22 18 23 19 25 20 26 21 27
REMARK SMILES IDX 25 28 22 29 24 30 23 31
REMARK H PARENT 12 4 6 15 6 16 18 24
ROOT
ATOM      1  C   UNL     1       2.049  -1.113   1.966  1.00  0.00     0.020 C 
ENDROOT
BRANCH   1   2
ATOM      2  C   UNL     1       2.499  -2.370   2.079  1.00  0.00     0.122 C 
BRANCH   2   3
ATOM      3  O   UNL     1       1.741  -3.355   2.673  1.00  0.00    -0.508 OA
ATOM      4  H   UNL     1       2.259  -4.181   2.653  1.00  0.00     0.293 HD
ENDBRANCH   2   3
BRANCH   2   5
ATOM      5  C   UNL     1       3.838  -2.759   1.610  1.00  0.00     0.060 A 
ATOM      6  C   UNL     1       4.839  -2.939   2.574  1.00  0.00     0.038 A 
ATOM      7  C   UNL     1       4.143  -2.931   0.245  1.00  0.00     0.131 A 
ATOM      8  C   UNL     1       6.130  -3.297   2.187  1.00  0.00     0.065 A 
ATOM      9  C   UNL     1       5.447  -3.294  -0.125  1.00  0.00     0.074 A 
ATOM     10  C   UNL     1       6.441  -3.522   0.837  1.00  0.00     0.054 A 
ATOM     11  Cl  UNL     1       7.332  -3.490   3.415  1.00  0.00    -0.082 Cl
BRANCH   7  12
ATOM     12  O   UNL     1       3.115  -2.721  -0.642  1.00  0.00    -0.496 OA
ATOM     13  C   UNL     1       3.404  -2.884  -2.026  1.00  0.00     0.278 C 
ENDBRANCH   7  12
BRANCH  10  14
ATOM     14  N   UNL     1       7.760  -3.757   0.411  1.00  0.00    -0.397 N 
ATOM     15  H   UNL     1       7.851  -4.271  -0.460  1.00  0.00     0.156 HD
ATOM     16  H   UNL     1       8.360  -4.126   1.149  1.00  0.00     0.156 HD
ENDBRANCH  10  14
ENDBRANCH   2   5
ENDBRANCH   1   2
BRANCH   1  17
ATOM     17  C   UNL     1       0.710  -0.651   2.462  1.00  0.00     0.035 C 
BRANCH  17  18
ATOM     18  C   UNL     1      -0.449  -1.040   1.528  1.00  0.00     0.004 C 
ATOM     19  C   UNL     1      -0.307  -0.421   0.130  1.00  0.00     0.065 C 
ATOM     20  C   UNL     1      -1.790  -0.627   2.147  1.00  0.00     0.065 C 
ATOM     21  C   UNL     1      -1.483  -0.788  -0.762  1.00  0.00     0.262 C 
ATOM     22  C   UNL     1      -2.962  -0.989   1.247  1.00  0.00     0.262 C 
ATOM     23  N   UNL     1      -2.772  -0.355  -0.111  1.00  0.00    -0.331 N 
ATOM     24  H   UNL     1      -2.723   0.660   0.036  1.00  0.00     0.348 HD
BRANCH  23  25
ATOM     25  C   UNL     1      -3.955  -0.586  -1.030  1.00  0.00     0.299 C 
BRANCH  25  26
ATOM     26  C   UNL     1      -5.192   0.152  -0.596  1.00  0.00     0.006 A 
ATOM     27  C   UNL     1      -6.274  -0.540  -0.031  1.00  0.00     0.009 A 
ATOM     28  C   UNL     1      -5.274   1.547  -0.732  1.00  0.00     0.009 A 
ATOM     29  C   UNL     1      -7.409   0.150   0.395  1.00  0.00     0.001 A 
ATOM     30  C   UNL     1      -6.412   2.233  -0.305  1.00  0.00     0.001 A 
ATOM     31  C   UNL     1      -7.476   1.535   0.260  1.00  0.00     0.000 A 
ENDBRANCH  25  26
ENDBRANCH  23  25
ENDBRANCH  17  18
ENDBRANCH   1  17
TORSDOF 9
