REMARK SMILES CC[N+](C)(C)c1cccc(O)c1
REMARK SMILES IDX 6 1 7 2 8 3 9 4 10 5 12 6 3 7 4 8 5 9 2 10 1 11 11 12
REMARK H PARENT 11 13
ROOT
ATOM      1  C   UNL     1       0.594  -0.274   0.070  1.00  0.00     0.136 A 
ATOM      2  C   UNL     1       1.263  -1.284  -0.639  1.00  0.00     0.068 A 
ATOM      3  C   UNL     1       2.663  -1.314  -0.695  1.00  0.00     0.010 A 
ATOM      4  C   UNL     1       3.415  -0.331  -0.059  1.00  0.00     0.046 A 
ATOM      5  C   UNL     1       2.757   0.682   0.622  1.00  0.00     0.121 A 
ATOM      6  C   UNL     1       1.366   0.722   0.686  1.00  0.00     0.114 A 
ENDROOT
BRANCH   1   7
ATOM      7  N   UNL     1      -0.937  -0.196   0.131  1.00  0.00    -0.296 N 
ATOM      8  C   UNL     1      -1.353   0.083   1.580  1.00  0.00     0.340 C 
ATOM      9  C   UNL     1      -1.570  -1.526  -0.273  1.00  0.00     0.340 C 
BRANCH   7  10
ATOM     10  C   UNL     1      -1.353   0.936  -0.828  1.00  0.00     0.265 C 
ATOM     11  C   UNL     1      -2.858   1.146  -0.892  1.00  0.00     0.072 C 
ENDBRANCH   7  10
ENDBRANCH   1   7
BRANCH   5  12
ATOM     12  O   UNL     1       3.438   1.680   1.251  1.00  0.00    -0.508 OA
ATOM     13  H   UNL     1       4.396   1.545   1.139  1.00  0.00     0.293 HD
ENDBRANCH   5  12
TORSDOF 3
