REMARK SMILES CSc1nc(/C=C/c2ccccc2)nn1C(=O)N(C)C
REMARK SMILES IDX 3 1 4 2 5 3 14 4 15 5 2 6 1 7 16 8 18 9 17 10 19 11 20 12
REMARK SMILES IDX 6 13 7 14 8 15 9 16 13 17 10 18 12 19 11 20
REMARK H PARENT
ROOT
ATOM      1  C   UNL     1      -1.966  -1.459   0.380  1.00  0.00     0.196 A 
ATOM      2  N   UNL     1      -0.671  -1.488   0.164  1.00  0.00    -0.201 NA
ATOM      3  C   UNL     1      -0.334  -0.169   0.073  1.00  0.00     0.175 A 
ATOM      4  N   UNL     1      -1.346   0.684   0.237  1.00  0.00    -0.141 NA
ATOM      5  N   UNL     1      -2.421  -0.149   0.432  1.00  0.00    -0.155 N 
ENDROOT
BRANCH   1   6
ATOM      6  S   UNL     1      -2.938  -2.869   0.654  1.00  0.00    -0.089 SA
ATOM      7  C   UNL     1      -1.740  -4.180   0.331  1.00  0.00     0.094 C 
ENDBRANCH   1   6
BRANCH   5   8
ATOM      8  C   UNL     1      -3.748   0.344   0.532  1.00  0.00     0.346 C 
ATOM      9  N   UNL     1      -3.895   1.700   0.854  1.00  0.00    -0.329 N 
ATOM     10  O   UNL     1      -4.689  -0.405   0.287  1.00  0.00    -0.246 OA
ATOM     11  C   UNL     1      -2.934   2.500   1.605  1.00  0.00     0.148 C 
ATOM     12  C   UNL     1      -5.202   2.300   0.654  1.00  0.00     0.148 C 
ENDBRANCH   5   8
BRANCH   3  13
ATOM     13  C   UNL     1       1.018   0.211  -0.171  1.00  0.00     0.052 C 
BRANCH  13  14
ATOM     14  C   UNL     1       2.047  -0.640  -0.325  1.00  0.00     0.012 C 
BRANCH  14  15
ATOM     15  C   UNL     1       3.431  -0.224  -0.587  1.00  0.00    -0.026 A 
ATOM     16  C   UNL     1       4.217  -0.996  -1.452  1.00  0.00     0.008 A 
ATOM     17  C   UNL     1       4.011   0.887   0.041  1.00  0.00     0.008 A 
ATOM     18  C   UNL     1       5.546  -0.650  -1.707  1.00  0.00     0.001 A 
ATOM     19  C   UNL     1       5.340   1.233  -0.214  1.00  0.00     0.001 A 
ATOM     20  C   UNL     1       6.106   0.467  -1.090  1.00  0.00     0.000 A 
ENDBRANCH  14  15
ENDBRANCH  13  14
ENDBRANCH   3  13
TORSDOF 5
