REMARK SMILES CO[P@]1(=O)OC[C@H]2COC(=O)C2=C(C)O1
REMARK SMILES IDX 15 1 3 2 4 3 2 4 1 5 5 6 6 7 13 9 14 10 12 11 10 12 7 13
REMARK SMILES IDX 9 14 8 15 11 16
REMARK H PARENT
REMARK Flexibility Score:   19.900
ROOT
ATOM      1  O   UNL     1       0.883   1.183  -0.296  1.00  0.00    -0.408 OA
ENDROOT
BRANCH   1   2
ATOM      2  P   UNL     1       1.758  -0.044   0.271  1.00  0.00     0.529 P 
ATOM      3  O   UNL     1       1.948  -0.074   1.755  1.00  0.00    -0.216 OA
BRANCH   2   4
ATOM      4  O   UNL     1       3.115   0.035  -0.592  1.00  0.00    -0.281 OA
ATOM      5  C   UNL     1       4.126  -0.894  -0.265  1.00  0.00     0.210 C 
ENDBRANCH   2   4
BRANCH   2   6
ATOM      6  O   UNL     1       1.022  -1.346  -0.333  1.00  0.00    -0.276 OA
BRANCH   6   7
ATOM      7  C   UNL     1      -0.213  -1.692   0.263  1.00  0.00     0.186 CG0
ATOM      8  G   UNL     1      -1.352  -0.882  -0.344  1.00  0.00     0.000 G0
ENDBRANCH   6   7
ENDBRANCH   2   6
ENDBRANCH   1   2
BRANCH   1   9
ATOM      9  C   UNL     1      -0.428   1.486   0.022  1.00  0.00     0.116 C 
ATOM     10  C   UNL     1      -0.622   2.945   0.320  1.00  0.00     0.088 C 
BRANCH   9  11
ATOM     11  C   UNL     1      -1.418   0.574  -0.013  1.00  0.00     0.084 C 
ATOM     12  C   UNL     1      -2.853   0.910   0.196  1.00  0.00     0.337 C 
ATOM     13  C   UNL     1      -1.352  -0.882  -0.344  1.00  0.00     0.094 CG0
ATOM     14  O   UNL     1      -3.567  -0.247   0.161  1.00  0.00    -0.461 OA
ATOM     15  C   UNL     1      -2.684  -1.363   0.194  1.00  0.00     0.244 C 
ATOM     16  O   UNL     1      -3.337   2.017   0.333  1.00  0.00    -0.246 OA
ATOM     17  G   UNL     1      -0.213  -1.692   0.263  1.00  0.00     0.000 G0
ENDBRANCH   9  11
ENDBRANCH   1   9
TORSDOF 1
