REMARK SMILES Nc1c2c(nc3cc(Cl)ccc13)CCCC2
REMARK SMILES IDX 2 1 3 2 4 3 5 4 6 5 7 6 8 7 9 8 10 9 11 10 12 11 13 12 14 13
REMARK SMILES IDX 15 14 16 15 1 16
REMARK H PARENT 1 17 1 18
ROOT
ATOM      1  C   UNL     1       0.468   1.167  -0.028  1.00  0.00     0.046 A 
ATOM      2  C   UNL     1      -0.769   0.493  -0.072  1.00  0.00    -0.003 A 
ATOM      3  C   UNL     1      -0.749  -0.903  -0.103  1.00  0.00     0.046 A 
ATOM      4  N   UNL     1       0.390  -1.629  -0.017  1.00  0.00    -0.252 NA
ATOM      5  C   UNL     1       1.556  -0.991   0.127  1.00  0.00     0.074 A 
ATOM      6  C   UNL     1       2.698  -1.767   0.266  1.00  0.00     0.049 A 
ATOM      7  C   UNL     1       3.950  -1.187   0.445  1.00  0.00     0.043 A 
ATOM      8  Cl  UNL     1       5.341  -2.184   0.618  1.00  0.00    -0.084 Cl
ATOM      9  C   UNL     1       4.081   0.192   0.492  1.00  0.00     0.021 A 
ATOM     10  C   UNL     1       2.945   0.988   0.348  1.00  0.00     0.014 A 
ATOM     11  C   UNL     1       1.663   0.416   0.151  1.00  0.00     0.024 A 
ATOM     12  C   UNL     1      -2.016  -1.718  -0.173  1.00  0.00     0.056 C 
ATOM     13  C   UNL     1      -3.217  -0.924  -0.673  1.00  0.00     0.007 C 
ATOM     14  C   UNL     1      -3.317   0.388   0.089  1.00  0.00     0.005 C 
ATOM     15  C   UNL     1      -2.077   1.246  -0.160  1.00  0.00     0.039 C 
ENDROOT
BRANCH   1  16
ATOM     16  N   UNL     1       0.493   2.582   0.037  1.00  0.00    -0.398 N 
ATOM     17  H   UNL     1       1.353   2.987  -0.317  1.00  0.00     0.156 HD
ATOM     18  H   UNL     1      -0.311   3.026  -0.394  1.00  0.00     0.156 HD
ENDBRANCH   1  16
TORSDOF 1
