REMARK SMILES Cc1cccc(C(=O)N2Cc3cc(NC(=O)c4ccccc4)ccc3CC2=O)c1
REMARK SMILES IDX 9 1 10 2 11 3 12 4 13 5 23 6 24 7 25 8 26 9 27 10 28 11 7 12
REMARK SMILES IDX 8 13 6 14 2 15 3 16 29 17 4 18 5 19 1 20 14 21 15 22 16 24
REMARK SMILES IDX 17 25 18 26 22 27 19 28 21 29 20 30
REMARK H PARENT 14 23
ROOT
ATOM      1  N   UNL     1      -2.126   1.226   1.141  1.00  0.00    -0.274 N 
ATOM      2  C   UNL     1      -0.728   1.626   1.112  1.00  0.00     0.164 C 
ATOM      3  C   UNL     1       0.190   0.444   1.242  1.00  0.00    -0.022 A 
ATOM      4  C   UNL     1       1.418   0.385   0.567  1.00  0.00     0.032 A 
ATOM      5  C   UNL     1       2.268  -0.710   0.734  1.00  0.00     0.041 A 
ATOM      6  C   UNL     1       1.883  -1.738   1.604  1.00  0.00     0.026 A 
ATOM      7  C   UNL     1       0.667  -1.678   2.291  1.00  0.00     0.007 A 
ATOM      8  C   UNL     1      -0.187  -0.590   2.104  1.00  0.00    -0.033 A 
ATOM      9  C   UNL     1      -1.482  -0.465   2.856  1.00  0.00     0.136 C 
ATOM     10  C   UNL     1      -2.546   0.386   2.171  1.00  0.00     0.234 C 
ATOM     11  O   UNL     1      -3.715   0.293   2.552  1.00  0.00    -0.274 OA
ENDROOT
BRANCH   1  12
ATOM     12  C   UNL     1      -3.011   2.153   0.588  1.00  0.00     0.260 C 
ATOM     13  O   UNL     1      -2.736   3.348   0.476  1.00  0.00    -0.269 OA
BRANCH  12  14
ATOM     14  C   UNL     1      -4.331   1.672   0.089  1.00  0.00     0.040 A 
ATOM     15  C   UNL     1      -5.724  -0.020  -0.969  1.00  0.00    -0.050 A 
ATOM     16  C   UNL     1      -6.812   0.860  -0.906  1.00  0.00     0.003 A 
ATOM     17  C   UNL     1      -4.483   0.391  -0.463  1.00  0.00     0.017 A 
ATOM     18  C   UNL     1      -6.659   2.142  -0.376  1.00  0.00     0.001 A 
ATOM     19  C   UNL     1      -5.419   2.551   0.113  1.00  0.00     0.014 A 
ATOM     20  C   UNL     1      -5.899  -1.406  -1.515  1.00  0.00     0.044 C 
ENDBRANCH  12  14
ENDBRANCH   1  12
BRANCH   5  21
ATOM     21  N   UNL     1       3.515  -0.844   0.090  1.00  0.00    -0.322 N 
ATOM     22  C   UNL     1       4.062  -0.004  -0.864  1.00  0.00     0.255 C 
ATOM     23  H   UNL     1       4.029  -1.689   0.302  1.00  0.00     0.170 HD
ATOM     24  O   UNL     1       3.529   0.975  -1.372  1.00  0.00    -0.269 OA
BRANCH  22  25
ATOM     25  C   UNL     1       5.426  -0.388  -1.327  1.00  0.00     0.040 A 
ATOM     26  C   UNL     1       6.380  -0.921  -0.449  1.00  0.00     0.014 A 
ATOM     27  C   UNL     1       5.758  -0.179  -2.671  1.00  0.00     0.014 A 
ATOM     28  C   UNL     1       7.647  -1.267  -0.924  1.00  0.00     0.001 A 
ATOM     29  C   UNL     1       7.025  -0.527  -3.141  1.00  0.00     0.001 A 
ATOM     30  C   UNL     1       7.966  -1.075  -2.268  1.00  0.00     0.000 A 
ENDBRANCH  22  25
ENDBRANCH   5  21
TORSDOF 4
