REMARK SMILES COc1ccc([C@H]2C=C(c3cc(F)ccc3F)NN2c2ccc(S(N)(=O)=O)cc2)c(OC)c1
REMARK SMILES IDX 20 1 21 2 22 3 23 4 28 5 29 6 19 7 18 8 9 9 8 10 7 11 10 13
REMARK SMILES IDX 11 14 16 15 12 16 15 17 14 18 17 19 13 20 6 21 5 22 30 23
REMARK SMILES IDX 4 24 33 25 3 26 31 27 32 28 2 29 1 30 24 31 26 32 27 33
REMARK SMILES IDX 25 34
REMARK H PARENT 18 12 25 35 25 36
ROOT
ATOM      1  C   UNL     1       1.804   0.097   0.295  1.00  0.00     0.058 A 
ATOM      2  C   UNL     1       2.620   0.863   1.151  1.00  0.00     0.029 A 
ATOM      3  C   UNL     1       3.881   0.420   1.564  1.00  0.00     0.024 A 
ATOM      4  C   UNL     1       4.350  -0.814   1.121  1.00  0.00     0.082 A 
ATOM      5  C   UNL     1       3.562  -1.611   0.294  1.00  0.00     0.024 A 
ATOM      6  C   UNL     1       2.301  -1.152  -0.111  1.00  0.00     0.029 A 
ENDROOT
BRANCH   1   7
ATOM      7  N   UNL     1       0.536   0.567  -0.078  1.00  0.00    -0.276 N 
ATOM      8  N   UNL     1       0.113   1.873   0.169  1.00  0.00    -0.297 N 
ATOM      9  C   UNL     1      -0.872   2.243  -0.744  1.00  0.00     0.063 C 
ATOM     10  C   UNL     1      -1.056   1.259  -1.637  1.00  0.00     0.033 C 
ATOM     11  C   UNL     1      -0.163   0.079  -1.307  1.00  0.00     0.164 C 
ATOM     12  H   UNL     1      -0.207   2.027   1.127  1.00  0.00     0.188 HD
BRANCH   9  13
ATOM     13  C   UNL     1      -1.561   3.535  -0.653  1.00  0.00     0.038 A 
ATOM     14  C   UNL     1      -0.914   4.629  -0.055  1.00  0.00     0.052 A 
ATOM     15  C   UNL     1      -2.866   3.731  -1.132  1.00  0.00     0.132 A 
ATOM     16  C   UNL     1      -1.558   5.860   0.048  1.00  0.00     0.124 A 
ATOM     17  C   UNL     1      -3.508   4.967  -1.026  1.00  0.00     0.043 A 
ATOM     18  C   UNL     1      -2.849   6.040  -0.431  1.00  0.00     0.042 A 
ATOM     19  F   UNL     1      -3.547   2.727  -1.704  1.00  0.00    -0.206 F 
ATOM     20  F   UNL     1      -0.920   6.890   0.620  1.00  0.00    -0.207 F 
ENDBRANCH   9  13
BRANCH  11  21
ATOM     21  C   UNL     1      -0.947  -1.209  -1.122  1.00  0.00     0.023 A 
ATOM     22  C   UNL     1      -0.855  -2.191  -2.127  1.00  0.00     0.014 A 
ATOM     23  C   UNL     1      -1.785  -1.476  -0.028  1.00  0.00     0.128 A 
ATOM     24  C   UNL     1      -1.566  -3.390  -2.031  1.00  0.00     0.047 A 
ATOM     25  C   UNL     1      -2.519  -2.670   0.052  1.00  0.00     0.093 A 
ATOM     26  C   UNL     1      -2.404  -3.636  -0.945  1.00  0.00     0.122 A 
BRANCH  23  27
ATOM     27  O   UNL     1      -1.963  -0.528   0.947  1.00  0.00    -0.496 OA
ATOM     28  C   UNL     1      -1.414  -0.961   2.193  1.00  0.00     0.278 C 
ENDBRANCH  23  27
BRANCH  26  29
ATOM     29  O   UNL     1      -3.052  -4.839  -0.983  1.00  0.00    -0.497 OA
ATOM     30  C   UNL     1      -3.931  -5.130   0.097  1.00  0.00     0.278 C 
ENDBRANCH  26  29
ENDBRANCH  11  21
ENDBRANCH   1   7
BRANCH   4  31
ATOM     31  S   UNL     1       5.945  -1.377   1.646  1.00  0.00     0.238 S 
ATOM     32  O   UNL     1       6.198  -0.862   2.970  1.00  0.00    -0.207 OA
ATOM     33  O   UNL     1       6.070  -2.778   1.319  1.00  0.00    -0.207 OA
BRANCH  31  34
ATOM     34  N   UNL     1       6.958  -0.570   0.569  1.00  0.00    -0.225 NA
ATOM     35  H   UNL     1       7.432  -1.260  -0.015  1.00  0.00     0.137 HD
ATOM     36  H   UNL     1       6.474   0.133   0.011  1.00  0.00     0.137 HD
ENDBRANCH  31  34
ENDBRANCH   4  31
TORSDOF 7
