REMARK SMILES Nc1c2c(nc3ccccc13)CCCC2
REMARK SMILES IDX 1 1 2 4 3 5 11 6 4 7 15 8 10 9 6 10 5 11 12 12 14 13 9 14
REMARK SMILES IDX 7 15 13 16 8 17
REMARK H PARENT 1 2 1 3
ROOT
ATOM      1  N   UNL     1       0.355   2.567  -0.280  1.00  0.00    -0.398 N 
ATOM      2  H   UNL     1      -0.497   2.896  -0.720  1.00  0.00     0.156 HD
ATOM      3  H   UNL     1       1.168   2.949  -0.752  1.00  0.00     0.156 HD
ENDROOT
BRANCH   1   4
ATOM      4  C   UNL     1       0.411   1.158  -0.130  1.00  0.00     0.046 A 
ATOM      5  C   UNL     1      -0.784   0.427   0.025  1.00  0.00    -0.003 A 
ATOM      6  C   UNL     1       1.659   0.502   0.066  1.00  0.00     0.023 A 
ATOM      7  C   UNL     1      -0.683  -0.955   0.203  1.00  0.00     0.046 A 
ATOM      8  C   UNL     1      -2.137   1.094  -0.072  1.00  0.00     0.039 C 
ATOM      9  C   UNL     1       2.917   1.157   0.073  1.00  0.00     0.012 A 
ATOM     10  C   UNL     1       1.634  -0.894   0.260  1.00  0.00     0.073 A 
ATOM     11  N   UNL     1       0.499  -1.603   0.306  1.00  0.00    -0.252 NA
ATOM     12  C   UNL     1      -1.901  -1.830   0.356  1.00  0.00     0.056 C 
ATOM     13  C   UNL     1      -3.303   0.227   0.401  1.00  0.00     0.005 C 
ATOM     14  C   UNL     1       4.107   0.450   0.244  1.00  0.00     0.001 A 
ATOM     15  C   UNL     1       2.832  -1.578   0.422  1.00  0.00     0.029 A 
ATOM     16  C   UNL     1      -3.180  -1.181  -0.161  1.00  0.00     0.007 C 
ATOM     17  C   UNL     1       4.065  -0.925   0.413  1.00  0.00     0.002 A 
ENDBRANCH   1   4
TORSDOF 1
