REMARK SMILES Cc1ccc2onc(CC[C@H]3CC[N@@H+](Cc4ccccc4)CC3)c2c1
REMARK SMILES IDX 10 1 11 2 13 3 14 4 12 5 22 6 23 7 15 9 16 10 17 11 21 12
REMARK SMILES IDX 18 13 20 14 19 15 9 16 8 17 7 18 24 19 6 20 25 21 5 22 2 23
REMARK SMILES IDX 4 24 3 25 1 26
REMARK H PARENT 14 8
ROOT
ATOM      1  C   UNL     1      -0.540  -0.241   0.819  1.00  0.00     0.010 C 
ENDROOT
BRANCH   1   2
ATOM      2  C   UNL     1       0.650   0.725   1.050  1.00  0.00     0.000 C 
ATOM      3  C   UNL     1       2.437   0.577  -0.801  1.00  0.00     0.262 C 
ATOM      4  N   UNL     1       3.469   0.308   0.263  1.00  0.00    -0.331 N 
ATOM      5  C   UNL     1       1.262   1.342  -0.211  1.00  0.00     0.065 C 
ATOM      6  C   UNL     1       2.921  -0.472   1.424  1.00  0.00     0.262 C 
ATOM      7  C   UNL     1       1.719   0.227   2.033  1.00  0.00     0.065 C 
ATOM      8  H   UNL     1       3.791   1.218   0.613  1.00  0.00     0.348 HD
BRANCH   4   9
ATOM      9  C   UNL     1       4.696  -0.386  -0.304  1.00  0.00     0.299 C 
BRANCH   9  10
ATOM     10  C   UNL     1       5.503   0.496  -1.218  1.00  0.00     0.006 A 
ATOM     11  C   UNL     1       6.259   1.559  -0.699  1.00  0.00     0.009 A 
ATOM     12  C   UNL     1       5.496   0.280  -2.605  1.00  0.00     0.009 A 
ATOM     13  C   UNL     1       6.986   2.391  -1.552  1.00  0.00     0.001 A 
ATOM     14  C   UNL     1       6.224   1.115  -3.453  1.00  0.00     0.001 A 
ATOM     15  C   UNL     1       6.966   2.170  -2.927  1.00  0.00     0.000 A 
ENDBRANCH   9  10
ENDBRANCH   4   9
ENDBRANCH   1   2
BRANCH   1  16
ATOM     16  C   UNL     1      -0.479  -1.305  -0.281  1.00  0.00     0.061 C 
BRANCH  16  17
ATOM     17  C   UNL     1       0.327  -2.510   0.050  1.00  0.00     0.091 A 
ATOM     18  N   UNL     1       1.466  -2.756  -0.616  1.00  0.00    -0.084 NA
ATOM     19  C   UNL     1       0.050  -3.528   0.999  1.00  0.00     0.045 A 
ATOM     20  O   UNL     1       1.955  -3.944  -0.097  1.00  0.00    -0.356 OA
ATOM     21  C   UNL     1      -0.952  -3.819   1.942  1.00  0.00     0.017 A 
ATOM     22  C   UNL     1       1.111  -4.405   0.864  1.00  0.00     0.167 A 
ATOM     23  C   UNL     1      -0.840  -4.994   2.711  1.00  0.00    -0.050 A 
ATOM     24  C   UNL     1       1.270  -5.568   1.609  1.00  0.00     0.051 A 
ATOM     25  C   UNL     1       0.268  -5.841   2.547  1.00  0.00     0.007 A 
ATOM     26  C   UNL     1      -1.883  -5.316   3.744  1.00  0.00     0.044 C 
ENDBRANCH  16  17
ENDBRANCH   1  16
TORSDOF 5
