REMARK SMILES C[N@H+]1CC[C@@H](/C=C/C=C2\Cc3ccccc3C2=O)CC1
REMARK SMILES IDX 7 1 6 2 5 3 2 4 3 5 20 6 4 7 19 8 1 9 8 11 9 12 10 13 17 14
REMARK SMILES IDX 11 15 16 16 12 17 15 18 13 19 14 20 18 21
REMARK H PARENT 2 10
ROOT
ATOM      1  C   UNL     1      -0.155  -0.404  -0.113  1.00  0.00    -0.004 C 
ENDROOT
BRANCH   1   2
ATOM      2  C   UNL     1       1.160  -0.145  -0.026  1.00  0.00    -0.023 C 
BRANCH   2   3
ATOM      3  C   UNL     1       2.224  -1.218  -0.032  1.00  0.00     0.023 C 
ATOM      4  N   UNL     1       4.893  -0.010   0.186  1.00  0.00    -0.337 N 
ATOM      5  C   UNL     1       4.123   0.104  -1.108  1.00  0.00     0.262 C 
ATOM      6  C   UNL     1       3.986  -0.046   1.394  1.00  0.00     0.262 C 
ATOM      7  C   UNL     1       3.164  -1.071  -1.236  1.00  0.00     0.069 C 
ATOM      8  C   UNL     1       3.026  -1.222   1.276  1.00  0.00     0.069 C 
ATOM      9  C   UNL     1       5.931   1.074   0.308  1.00  0.00     0.332 C 
ATOM     10  H   UNL     1       5.409  -0.900   0.161  1.00  0.00     0.347 HD
ENDBRANCH   2   3
ENDBRANCH   1   2
BRANCH   1  11
ATOM     11  C   UNL     1      -1.146   0.648  -0.104  1.00  0.00     0.008 C 
BRANCH  11  12
ATOM     12  C   UNL     1      -2.470   0.457  -0.188  1.00  0.00     0.004 C 
ATOM     13  C   UNL     1      -3.284  -0.807  -0.308  1.00  0.00     0.076 C 
ATOM     14  C   UNL     1      -3.408   1.623  -0.169  1.00  0.00     0.189 C 
ATOM     15  C   UNL     1      -4.699  -0.313  -0.356  1.00  0.00    -0.032 A 
ATOM     16  C   UNL     1      -4.765   1.080  -0.276  1.00  0.00     0.026 A 
ATOM     17  C   UNL     1      -5.864  -1.055  -0.464  1.00  0.00     0.005 A 
ATOM     18  C   UNL     1      -5.960   1.775  -0.299  1.00  0.00     0.012 A 
ATOM     19  C   UNL     1      -7.086  -0.373  -0.490  1.00  0.00     0.000 A 
ATOM     20  C   UNL     1      -7.134   1.030  -0.408  1.00  0.00     0.001 A 
ATOM     21  O   UNL     1      -3.104   2.796  -0.082  1.00  0.00    -0.289 OA
ENDBRANCH  11  12
ENDBRANCH   1  11
TORSDOF 4
