REMARK SMILES COc1cc(/C=C/c2nnc(-c3ccc(F)cc3F)o2)ccc1O
REMARK SMILES IDX 6 1 5 2 3 3 4 4 23 5 22 6 21 7 2 8 1 9 24 10 7 12 8 13 9 14
REMARK SMILES IDX 20 15 10 16 11 17 12 18 13 19 18 20 14 21 17 22 15 23 19 24
REMARK SMILES IDX 16 25
REMARK H PARENT 24 11
ROOT
ATOM      1  C   UNL     1       1.294  -0.056   0.493  1.00  0.00     0.014 C 
ENDROOT
BRANCH   1   2
ATOM      2  C   UNL     1       2.597   0.546   0.174  1.00  0.00    -0.022 A 
ATOM      3  C   UNL     1       4.964   0.230  -0.291  1.00  0.00     0.161 A 
ATOM      4  C   UNL     1       3.704  -0.301  -0.009  1.00  0.00     0.058 A 
ATOM      5  C   UNL     1       5.106   1.619  -0.378  1.00  0.00     0.157 A 
ATOM      6  C   UNL     1       4.029   2.473  -0.185  1.00  0.00     0.051 A 
ATOM      7  C   UNL     1       2.773   1.936   0.097  1.00  0.00     0.012 A 
BRANCH   3   8
ATOM      8  O   UNL     1       6.117  -0.482  -0.500  1.00  0.00    -0.493 OA
ATOM      9  C   UNL     1       6.017  -1.899  -0.409  1.00  0.00     0.278 C 
ENDBRANCH   3   8
BRANCH   5  10
ATOM     10  O   UNL     1       6.327   2.171  -0.654  1.00  0.00    -0.504 OA
ATOM     11  H   UNL     1       6.932   1.410  -0.745  1.00  0.00     0.293 HD
ENDBRANCH   5  10
ENDBRANCH   1   2
BRANCH   1  12
ATOM     12  C   UNL     1       0.126   0.391   0.004  1.00  0.00     0.071 C 
BRANCH  12  13
ATOM     13  C   UNL     1      -1.102  -0.243   0.334  1.00  0.00     0.241 A 
ATOM     14  N   UNL     1      -1.289  -1.301   1.111  1.00  0.00    -0.108 NA
ATOM     15  O   UNL     1      -2.315   0.208  -0.157  1.00  0.00    -0.417 OA
ATOM     16  N   UNL     1      -2.639  -1.568   1.145  1.00  0.00    -0.107 NA
ATOM     17  C   UNL     1      -3.219  -0.663   0.390  1.00  0.00     0.251 A 
BRANCH  17  18
ATOM     18  C   UNL     1      -4.622  -0.455   0.059  1.00  0.00     0.075 A 
ATOM     19  C   UNL     1      -5.031   0.596  -0.783  1.00  0.00     0.020 A 
ATOM     20  C   UNL     1      -5.609  -1.305   0.577  1.00  0.00     0.138 A 
ATOM     21  C   UNL     1      -6.384   0.779  -1.089  1.00  0.00     0.040 A 
ATOM     22  C   UNL     1      -6.958  -1.127   0.276  1.00  0.00     0.079 A 
ATOM     23  C   UNL     1      -7.333  -0.084  -0.556  1.00  0.00     0.126 A 
ATOM     24  F   UNL     1      -5.281  -2.324   1.385  1.00  0.00    -0.206 F 
ATOM     25  F   UNL     1      -8.626   0.095  -0.851  1.00  0.00    -0.207 F 
ENDBRANCH  17  18
ENDBRANCH  12  13
ENDBRANCH   1  12
TORSDOF 6
