REMARK SMILES CN1C(=O)Cc2cc3c(CC[C@H]4CC[N@H+](Cc5ccccc5)CC4)noc3cc21
REMARK SMILES IDX 11 1 12 2 14 3 15 4 13 5 23 6 24 7 16 9 17 10 18 11 22 12
REMARK SMILES IDX 19 13 21 14 20 15 10 16 9 17 8 18 25 19 7 20 27 21 26 22
REMARK SMILES IDX 6 23 28 24 5 25 29 26 3 27 2 28 4 29 1 30
REMARK H PARENT 15 8
ROOT
ATOM      1  C   UNL     1       0.663  -0.632   1.465  1.00  0.00     0.010 C 
ENDROOT
BRANCH   1   2
ATOM      2  C   UNL     1      -0.852  -0.694   1.741  1.00  0.00     0.000 C 
ATOM      3  C   UNL     1      -3.172  -0.016   0.968  1.00  0.00     0.262 C 
ATOM      4  N   UNL     1      -3.564  -1.473   0.946  1.00  0.00    -0.331 N 
ATOM      5  C   UNL     1      -1.671   0.119   0.730  1.00  0.00     0.065 C 
ATOM      6  C   UNL     1      -2.819  -2.275   1.981  1.00  0.00     0.262 C 
ATOM      7  C   UNL     1      -1.322  -2.156   1.737  1.00  0.00     0.065 C 
ATOM      8  H   UNL     1      -3.312  -1.841   0.020  1.00  0.00     0.348 HD
BRANCH   4   9
ATOM      9  C   UNL     1      -5.063  -1.675   1.072  1.00  0.00     0.299 C 
BRANCH   9  10
ATOM     10  C   UNL     1      -5.824  -1.198  -0.135  1.00  0.00     0.006 A 
ATOM     11  C   UNL     1      -5.762  -1.911  -1.343  1.00  0.00     0.009 A 
ATOM     12  C   UNL     1      -6.592  -0.025  -0.077  1.00  0.00     0.009 A 
ATOM     13  C   UNL     1      -6.447  -1.453  -2.469  1.00  0.00     0.001 A 
ATOM     14  C   UNL     1      -7.275   0.429  -1.206  1.00  0.00     0.001 A 
ATOM     15  C   UNL     1      -7.200  -0.283  -2.401  1.00  0.00     0.000 A 
ENDBRANCH   9  10
ENDBRANCH   4   9
ENDBRANCH   1   2
BRANCH   1  16
ATOM     16  C   UNL     1       1.261   0.773   1.621  1.00  0.00     0.061 C 
BRANCH  16  17
ATOM     17  C   UNL     1       2.751   0.748   1.616  1.00  0.00     0.091 A 
ATOM     18  C   UNL     1       3.643   1.039   0.551  1.00  0.00     0.045 A 
ATOM     19  N   UNL     1       3.407   0.406   2.733  1.00  0.00    -0.084 NA
ATOM     20  C   UNL     1       3.541   1.434  -0.797  1.00  0.00     0.020 A 
ATOM     21  C   UNL     1       4.899   0.847   1.116  1.00  0.00     0.169 A 
ATOM     22  O   UNL     1       4.753   0.470   2.414  1.00  0.00    -0.356 OA
ATOM     23  C   UNL     1       4.742   1.607  -1.481  1.00  0.00    -0.014 A 
ATOM     24  C   UNL     1       6.115   1.014   0.452  1.00  0.00     0.077 A 
ATOM     25  C   UNL     1       4.948   2.020  -2.910  1.00  0.00     0.138 C 
ATOM     26  C   UNL     1       5.984   1.402  -0.872  1.00  0.00     0.051 A 
ATOM     27  C   UNL     1       6.472   2.022  -3.043  1.00  0.00     0.231 C 
ATOM     28  N   UNL     1       6.997   1.649  -1.804  1.00  0.00    -0.315 N 
ATOM     29  O   UNL     1       7.091   2.299  -4.058  1.00  0.00    -0.274 OA
ATOM     30  C   UNL     1       8.404   1.537  -1.519  1.00  0.00     0.153 C 
ENDBRANCH  16  17
ENDBRANCH   1  16
TORSDOF 5
