REMARK SMILES N#Cc1cc(C#N)c(=N)[nH]c1NCCC[C@H]1CC[N@H+](Cc2ccccc2)CC1
REMARK SMILES IDX 13 1 12 2 11 4 10 5 8 6 3 7 5 8 4 9 9 11 2 13 1 14 6 15 7 16
REMARK SMILES IDX 14 17 15 18 16 19 17 20 28 21 18 22 27 23 19 24 20 26 21 27
REMARK SMILES IDX 22 28 26 29 23 30 25 31 24 32
REMARK H PARENT 12 3 10 10 9 12 19 25
ROOT
ATOM      1  C   UNL     1      -1.568  -4.712  -1.890  1.00  0.00     0.114 C 
ENDROOT
BRANCH   1   2
ATOM      2  N   UNL     1      -2.688  -3.941  -2.393  1.00  0.00    -0.370 N 
ATOM      3  H   UNL     1      -3.402  -3.726  -1.698  1.00  0.00     0.162 HD
BRANCH   2   4
ATOM      4  C   UNL     1      -2.975  -3.588  -3.701  1.00  0.00     0.123 A 
ATOM      5  N   UNL     1      -2.125  -3.955  -4.727  1.00  0.00    -0.325 N 
ATOM      6  C   UNL     1      -2.301  -3.662  -6.054  1.00  0.00     0.141 A 
ATOM      7  C   UNL     1      -4.080  -2.867  -4.048  1.00  0.00     0.094 A 
ATOM      8  C   UNL     1      -3.514  -2.877  -6.456  1.00  0.00     0.096 A 
ATOM      9  C   UNL     1      -4.336  -2.521  -5.450  1.00  0.00     0.046 A 
ATOM     10  H   UNL     1      -1.327  -4.529  -4.503  1.00  0.00     0.170 HD
BRANCH   6  11
ATOM     11  N   UNL     1      -1.393  -4.088  -6.876  1.00  0.00    -0.283 NA
ATOM     12  H   UNL     1      -1.595  -3.839  -7.852  1.00  0.00     0.189 HD
ENDBRANCH   6  11
BRANCH   7  13
ATOM     13  C   UNL     1      -5.009  -2.401  -3.071  1.00  0.00     0.103 C 
ATOM     14  N   UNL     1      -5.738  -2.017  -2.254  1.00  0.00    -0.192 NA
ENDBRANCH   7  13
BRANCH   8  15
ATOM     15  C   UNL     1      -3.765  -2.527  -7.805  1.00  0.00     0.103 C 
ATOM     16  N   UNL     1      -3.961  -2.233  -8.910  1.00  0.00    -0.192 NA
ENDBRANCH   8  15
ENDBRANCH   2   4
ENDBRANCH   1   2
BRANCH   1  17
ATOM     17  C   UNL     1      -0.311  -3.846  -1.765  1.00  0.00     0.021 C 
BRANCH  17  18
ATOM     18  C   UNL     1      -0.461  -2.732  -0.719  1.00  0.00     0.006 C 
BRANCH  18  19
ATOM     19  C   UNL     1       0.723  -1.744  -0.701  1.00  0.00     0.000 C 
ATOM     20  C   UNL     1       2.047  -2.412  -0.300  1.00  0.00     0.065 C 
ATOM     21  C   UNL     1       0.410  -0.575   0.249  1.00  0.00     0.065 C 
ATOM     22  C   UNL     1       3.187  -1.402  -0.200  1.00  0.00     0.262 C 
ATOM     23  C   UNL     1       1.565   0.414   0.335  1.00  0.00     0.262 C 
ATOM     24  N   UNL     1       2.807  -0.318   0.774  1.00  0.00    -0.331 N 
ATOM     25  H   UNL     1       2.575  -0.786   1.659  1.00  0.00     0.348 HD
BRANCH  24  26
ATOM     26  C   UNL     1       3.958   0.605   1.129  1.00  0.00     0.299 C 
BRANCH  26  27
ATOM     27  C   UNL     1       4.512   1.431   0.000  1.00  0.00     0.006 A 
ATOM     28  C   UNL     1       3.988   2.703  -0.280  1.00  0.00     0.009 A 
ATOM     29  C   UNL     1       5.561   0.943  -0.796  1.00  0.00     0.009 A 
ATOM     30  C   UNL     1       4.489   3.459  -1.340  1.00  0.00     0.001 A 
ATOM     31  C   UNL     1       6.059   1.703  -1.855  1.00  0.00     0.001 A 
ATOM     32  C   UNL     1       5.522   2.958  -2.129  1.00  0.00     0.000 A 
ENDBRANCH  26  27
ENDBRANCH  24  26
ENDBRANCH  18  19
ENDBRANCH  17  18
ENDBRANCH   1  17
TORSDOF 10
