REMARK SMILES COc1cc2c(cc1OC)SC(=C(O)CCc1cc[n+](Cc3ccsc3)cc1)C2
REMARK SMILES IDX 15 1 13 2 14 3 12 5 29 6 11 7 5 8 6 9 4 10 7 11 3 12 8 13
REMARK SMILES IDX 2 14 1 15 9 16 10 17 16 18 17 19 18 20 28 21 19 22 27 23
REMARK SMILES IDX 20 24 21 25 22 26 23 27 26 28 24 29 25 30
REMARK H PARENT 14 4
ROOT
ATOM      1  C   UNL     1      -0.680  -0.451  -1.522  1.00  0.00     0.080 C 
ENDROOT
BRANCH   1   2
ATOM      2  C   UNL     1       0.638  -0.596  -2.236  1.00  0.00     0.103 C 
BRANCH   2   3
ATOM      3  O   UNL     1       0.511  -1.131  -3.508  1.00  0.00    -0.511 OA
ATOM      4  H   UNL     1       1.408  -1.155  -3.900  1.00  0.00     0.293 HD
ENDBRANCH   2   3
BRANCH   2   5
ATOM      5  C   UNL     1       1.836  -0.236  -1.737  1.00  0.00     0.032 C 
ATOM      6  C   UNL     1       2.084   0.368  -0.369  1.00  0.00     0.083 C 
ATOM      7  S   UNL     1       3.314  -0.458  -2.668  1.00  0.00    -0.090 SA
ATOM      8  C   UNL     1       3.567   0.560  -0.227  1.00  0.00    -0.025 A 
ATOM      9  C   UNL     1       4.312   0.174  -1.342  1.00  0.00     0.020 A 
ATOM     10  C   UNL     1       4.202   1.079   0.899  1.00  0.00     0.055 A 
ATOM     11  C   UNL     1       5.695   0.293  -1.359  1.00  0.00     0.066 A 
ATOM     12  C   UNL     1       5.597   1.207   0.901  1.00  0.00     0.161 A 
ATOM     13  C   UNL     1       6.347   0.810  -0.234  1.00  0.00     0.161 A 
BRANCH  12  14
ATOM     14  O   UNL     1       6.325   1.701   1.955  1.00  0.00    -0.493 OA
ATOM     15  C   UNL     1       5.617   2.177   3.090  1.00  0.00     0.278 C 
ENDBRANCH  12  14
BRANCH  13  16
ATOM     16  O   UNL     1       7.708   0.972  -0.136  1.00  0.00    -0.493 OA
ATOM     17  C   UNL     1       8.501   0.605  -1.256  1.00  0.00     0.278 C 
ENDBRANCH  13  16
ENDBRANCH   2   5
ENDBRANCH   1   2
BRANCH   1  18
ATOM     18  C   UNL     1      -1.288  -1.818  -1.187  1.00  0.00     0.044 C 
BRANCH  18  19
ATOM     19  C   UNL     1      -2.690  -1.697  -0.634  1.00  0.00    -0.036 A 
ATOM     20  C   UNL     1      -3.779  -1.565  -1.496  1.00  0.00     0.074 A 
ATOM     21  C   UNL     1      -2.925  -1.700   0.740  1.00  0.00     0.074 A 
ATOM     22  C   UNL     1      -5.063  -1.451  -0.977  1.00  0.00     0.308 A 
ATOM     23  C   UNL     1      -4.227  -1.584   1.216  1.00  0.00     0.308 A 
ATOM     24  N   UNL     1      -5.269  -1.463   0.360  1.00  0.00    -0.201 N 
BRANCH  24  25
ATOM     25  C   UNL     1      -6.647  -1.344   0.896  1.00  0.00     0.394 C 
BRANCH  25  26
ATOM     26  C   UNL     1      -6.879   0.043   1.409  1.00  0.00     0.027 A 
ATOM     27  C   UNL     1      -7.041   1.208   0.583  1.00  0.00     0.022 A 
ATOM     28  C   UNL     1      -6.979   0.380   2.748  1.00  0.00     0.075 A 
ATOM     29  C   UNL     1      -7.233   2.357   1.318  1.00  0.00     0.065 A 
ATOM     30  S   UNL     1      -7.227   2.053   2.997  1.00  0.00    -0.152 S 
ENDBRANCH  25  26
ENDBRANCH  24  25
ENDBRANCH  18  19
ENDBRANCH   1  18
TORSDOF 9
