REMARK SMILES COc1cc2c(cc1OC)S[C@H](C(O)=CCc1cc[n+](Cc3ccc(F)cc3)cc1)C2
REMARK SMILES IDX 15 1 13 2 14 3 12 5 31 6 11 7 5 8 6 9 4 10 7 11 3 12 8 13
REMARK SMILES IDX 2 14 1 15 9 16 10 17 16 18 17 19 18 20 30 21 19 22 29 23
REMARK SMILES IDX 20 24 21 25 22 26 23 27 28 28 24 29 27 30 25 31 26 32
REMARK H PARENT 14 4
ROOT
ATOM      1  C   UNL     1      -0.058   0.837   1.648  1.00  0.00     0.020 C 
ENDROOT
BRANCH   1   2
ATOM      2  C   UNL     1      -0.994  -0.035   1.239  1.00  0.00     0.102 C 
BRANCH   2   3
ATOM      3  O   UNL     1      -0.767  -1.396   1.381  1.00  0.00    -0.511 OA
ATOM      4  H   UNL     1      -1.465  -1.866   0.880  1.00  0.00     0.293 HD
ENDBRANCH   2   3
BRANCH   2   5
ATOM      5  C   UNL     1      -2.292   0.390   0.586  1.00  0.00     0.121 C 
ATOM      6  C   UNL     1      -3.530   0.149   1.473  1.00  0.00     0.059 C 
ATOM      7  S   UNL     1      -2.563  -0.562  -0.955  1.00  0.00    -0.114 SA
ATOM      8  C   UNL     1      -4.683  -0.137   0.553  1.00  0.00    -0.029 A 
ATOM      9  C   UNL     1      -4.318  -0.551  -0.727  1.00  0.00     0.015 A 
ATOM     10  C   UNL     1      -6.025  -0.079   0.916  1.00  0.00     0.055 A 
ATOM     11  C   UNL     1      -5.270  -0.904  -1.672  1.00  0.00     0.065 A 
ATOM     12  C   UNL     1      -7.005  -0.425  -0.024  1.00  0.00     0.161 A 
ATOM     13  C   UNL     1      -6.624  -0.839  -1.325  1.00  0.00     0.161 A 
BRANCH  12  14
ATOM     14  O   UNL     1      -8.355  -0.399   0.223  1.00  0.00    -0.493 OA
ATOM     15  C   UNL     1      -8.789   0.016   1.510  1.00  0.00     0.278 C 
ENDBRANCH  12  14
BRANCH  13  16
ATOM     16  O   UNL     1      -7.655  -1.160  -2.175  1.00  0.00    -0.493 OA
ATOM     17  C   UNL     1      -7.325  -1.579  -3.491  1.00  0.00     0.278 C 
ENDBRANCH  13  16
ENDBRANCH   2   5
ENDBRANCH   1   2
BRANCH   1  18
ATOM     18  C   UNL     1       1.234   0.460   2.314  1.00  0.00     0.067 C 
BRANCH  18  19
ATOM     19  C   UNL     1       2.388   0.444   1.338  1.00  0.00    -0.032 A 
ATOM     20  C   UNL     1       3.233   1.543   1.196  1.00  0.00     0.075 A 
ATOM     21  C   UNL     1       2.602  -0.670   0.524  1.00  0.00     0.075 A 
ATOM     22  C   UNL     1       4.267   1.501   0.267  1.00  0.00     0.308 A 
ATOM     23  C   UNL     1       3.645  -0.668  -0.393  1.00  0.00     0.308 A 
ATOM     24  N   UNL     1       4.461   0.405  -0.505  1.00  0.00    -0.201 N 
BRANCH  24  25
ATOM     25  C   UNL     1       5.563   0.394  -1.498  1.00  0.00     0.393 C 
BRANCH  25  26
ATOM     26  C   UNL     1       6.912   0.376  -0.820  1.00  0.00     0.017 A 
ATOM     27  C   UNL     1       7.279  -0.684   0.028  1.00  0.00     0.013 A 
ATOM     28  C   UNL     1       7.828   1.420  -1.040  1.00  0.00     0.013 A 
ATOM     29  C   UNL     1       8.528  -0.688   0.652  1.00  0.00     0.040 A 
ATOM     30  C   UNL     1       9.075   1.410  -0.413  1.00  0.00     0.040 A 
ATOM     31  C   UNL     1       9.414   0.358   0.428  1.00  0.00     0.123 A 
ATOM     32  F   UNL     1      10.609   0.352   1.030  1.00  0.00    -0.207 F 
ENDBRANCH  25  26
ENDBRANCH  24  25
ENDBRANCH  18  19
ENDBRANCH   1  18
TORSDOF 9
