REMARK SMILES COc1cc2onc(CC[C@H]3CC[N@@H+](Cc4ccccc4)CC3)c2cc1C
REMARK SMILES IDX 10 1 11 2 13 3 14 4 12 5 22 6 23 7 15 9 16 10 17 11 21 12
REMARK SMILES IDX 18 13 20 14 19 15 9 16 8 17 7 18 24 19 6 20 25 21 5 22 26 23
REMARK SMILES IDX 4 24 3 25 27 26 2 27 1 28
REMARK H PARENT 14 8
ROOT
ATOM      1  C   UNL     1      -0.407  -0.964  -2.871  1.00  0.00     0.010 C 
ENDROOT
BRANCH   1   2
ATOM      2  C   UNL     1      -1.079  -0.976  -1.482  1.00  0.00     0.000 C 
ATOM      3  C   UNL     1      -2.432   0.397   0.162  1.00  0.00     0.262 C 
ATOM      4  N   UNL     1      -3.416  -0.741   0.290  1.00  0.00    -0.331 N 
ATOM      5  C   UNL     1      -1.752   0.378  -1.202  1.00  0.00     0.065 C 
ATOM      6  C   UNL     1      -2.762  -2.077   0.050  1.00  0.00     0.262 C 
ATOM      7  C   UNL     1      -2.100  -2.113  -1.321  1.00  0.00     0.065 C 
ATOM      8  H   UNL     1      -3.699  -0.741   1.278  1.00  0.00     0.348 HD
BRANCH   4   9
ATOM      9  C   UNL     1      -4.712  -0.559  -0.472  1.00  0.00     0.299 C 
BRANCH   9  10
ATOM     10  C   UNL     1      -5.557   0.565   0.062  1.00  0.00     0.006 A 
ATOM     11  C   UNL     1      -5.656   1.778  -0.638  1.00  0.00     0.009 A 
ATOM     12  C   UNL     1      -6.242   0.425   1.279  1.00  0.00     0.009 A 
ATOM     13  C   UNL     1      -6.418   2.828  -0.127  1.00  0.00     0.001 A 
ATOM     14  C   UNL     1      -7.004   1.479   1.786  1.00  0.00     0.001 A 
ATOM     15  C   UNL     1      -7.089   2.679   1.085  1.00  0.00     0.000 A 
ENDBRANCH   9  10
ENDBRANCH   4   9
ENDBRANCH   1   2
BRANCH   1  16
ATOM     16  C   UNL     1       0.354  -2.243  -3.252  1.00  0.00     0.061 C 
BRANCH  16  17
ATOM     17  C   UNL     1       1.455  -2.584  -2.307  1.00  0.00     0.091 A 
ATOM     18  N   UNL     1       1.195  -3.325  -1.219  1.00  0.00    -0.084 NA
ATOM     19  C   UNL     1       2.822  -2.214  -2.372  1.00  0.00     0.045 A 
ATOM     20  O   UNL     1       2.408  -3.455  -0.559  1.00  0.00    -0.356 OA
ATOM     21  C   UNL     1       3.652  -1.471  -3.225  1.00  0.00     0.021 A 
ATOM     22  C   UNL     1       3.376  -2.793  -1.247  1.00  0.00     0.170 A 
ATOM     23  C   UNL     1       5.019  -1.345  -2.901  1.00  0.00    -0.008 A 
ATOM     24  C   UNL     1       4.718  -2.701  -0.886  1.00  0.00     0.097 A 
ATOM     25  C   UNL     1       5.544  -1.960  -1.742  1.00  0.00     0.125 A 
ATOM     26  C   UNL     1       5.919  -0.553  -3.815  1.00  0.00     0.048 C 
BRANCH  25  27
ATOM     27  O   UNL     1       6.887  -1.764  -1.537  1.00  0.00    -0.496 OA
ATOM     28  C   UNL     1       7.491  -2.438  -0.439  1.00  0.00     0.278 C 
ENDBRANCH  25  27
ENDBRANCH  16  17
ENDBRANCH   1  16
TORSDOF 6
