REMARK SMILES COc1ccccc1[C@H](C)NS(=O)(=O)NC(=O)OCc1ccccc1
REMARK SMILES IDX 11 1 9 3 10 4 8 5 3 6 4 7 5 8 7 9 6 10 2 11 1 12 12 13 13 14
REMARK SMILES IDX 14 15 15 16 16 17 17 19 18 20 19 21 20 22 21 23 25 24 22 25
REMARK SMILES IDX 24 26 23 27
REMARK H PARENT 11 2 15 18
ROOT
ATOM      1  N   UNL     1      -1.400  -1.696   1.644  1.00  0.00    -0.190 NA
ATOM      2  H   UNL     1      -1.750  -2.340   2.353  1.00  0.00     0.143 HD
ENDROOT
BRANCH   1   3
ATOM      3  C   UNL     1      -2.393  -1.450   0.560  1.00  0.00     0.102 C 
ATOM      4  C   UNL     1      -3.362  -2.633   0.495  1.00  0.00     0.031 C 
BRANCH   3   5
ATOM      5  C   UNL     1      -3.162  -0.150   0.778  1.00  0.00     0.012 A 
ATOM      6  C   UNL     1      -3.712   0.548  -0.319  1.00  0.00     0.123 A 
ATOM      7  C   UNL     1      -4.428   1.731  -0.102  1.00  0.00     0.047 A 
ATOM      8  C   UNL     1      -4.611   2.223   1.192  1.00  0.00     0.004 A 
ATOM      9  C   UNL     1      -3.367   0.359   2.075  1.00  0.00     0.009 A 
ATOM     10  C   UNL     1      -4.083   1.538   2.279  1.00  0.00     0.001 A 
BRANCH   6  11
ATOM     11  O   UNL     1      -3.496  -0.010  -1.552  1.00  0.00    -0.496 OA
ATOM     12  C   UNL     1      -4.059   0.646  -2.681  1.00  0.00     0.278 C 
ENDBRANCH   6  11
ENDBRANCH   3   5
ENDBRANCH   1   3
BRANCH   1  13
ATOM     13  S   UNL     1       0.129  -2.195   1.174  1.00  0.00     0.304 S 
ATOM     14  O   UNL     1      -0.056  -3.238   0.199  1.00  0.00    -0.189 OA
ATOM     15  O   UNL     1       0.862  -2.392   2.399  1.00  0.00    -0.189 OA
BRANCH  13  16
ATOM     16  N   UNL     1       0.634  -0.795   0.484  1.00  0.00    -0.205 N 
ATOM     17  C   UNL     1       1.729  -0.742  -0.367  1.00  0.00     0.422 C 
ATOM     18  H   UNL     1       0.544   0.009   1.093  1.00  0.00     0.188 HD
ATOM     19  O   UNL     1       2.238  -1.709  -0.907  1.00  0.00    -0.223 OA
BRANCH  17  20
ATOM     20  O   UNL     1       2.152   0.539  -0.506  1.00  0.00    -0.444 OA
BRANCH  20  21
ATOM     21  C   UNL     1       3.306   0.721  -1.333  1.00  0.00     0.270 C 
BRANCH  21  22
ATOM     22  C   UNL     1       4.530   0.819  -0.461  1.00  0.00    -0.011 A 
ATOM     23  C   UNL     1       4.879   2.034   0.144  1.00  0.00     0.007 A 
ATOM     24  C   UNL     1       5.313  -0.317  -0.208  1.00  0.00     0.007 A 
ATOM     25  C   UNL     1       6.001   2.116   0.971  1.00  0.00     0.000 A 
ATOM     26  C   UNL     1       6.433  -0.233   0.621  1.00  0.00     0.000 A 
ATOM     27  C   UNL     1       6.778   0.983   1.208  1.00  0.00     0.000 A 
ENDBRANCH  21  22
ENDBRANCH  20  21
ENDBRANCH  17  20
ENDBRANCH  13  16
ENDBRANCH   1  13
TORSDOF 8
