REMARK SMILES C[N@H+]1CC[C@H](CCCC2=C(O)c3ccccc3C2)CC1
REMARK SMILES IDX 8 1 9 2 10 3 12 4 18 5 13 6 17 7 14 8 16 9 15 10 11 11 7 13
REMARK SMILES IDX 6 14 5 15 19 16 4 17 20 18 3 19 2 20 1 21
REMARK H PARENT 11 12 2 22
ROOT
ATOM      1  C   UNL     1       0.462  -3.259   1.429  1.00  0.00     0.035 C 
ENDROOT
BRANCH   1   2
ATOM      2  C   UNL     1       1.653  -2.832   2.224  1.00  0.00    -0.023 C 
ATOM      3  C   UNL     1       2.828  -2.345   1.785  1.00  0.00     0.122 C 
ATOM      4  C   UNL     1       3.684  -2.046   2.921  1.00  0.00     0.020 A 
ATOM      5  C   UNL     1       1.639  -2.925   3.743  1.00  0.00     0.071 C 
ATOM      6  C   UNL     1       4.965  -1.526   2.973  1.00  0.00     0.012 A 
ATOM      7  C   UNL     1       2.994  -2.386   4.092  1.00  0.00    -0.033 A 
ATOM      8  C   UNL     1       5.555  -1.347   4.227  1.00  0.00     0.001 A 
ATOM      9  C   UNL     1       3.568  -2.214   5.340  1.00  0.00     0.005 A 
ATOM     10  C   UNL     1       4.862  -1.688   5.401  1.00  0.00     0.000 A 
BRANCH   3  11
ATOM     11  O   UNL     1       3.254  -2.110   0.520  1.00  0.00    -0.507 OA
ATOM     12  H   UNL     1       2.606  -2.486  -0.095  1.00  0.00     0.293 HD
ENDBRANCH   3  11
ENDBRANCH   1   2
BRANCH   1  13
ATOM     13  C   UNL     1      -0.635  -2.188   1.455  1.00  0.00     0.005 C 
BRANCH  13  14
ATOM     14  C   UNL     1      -1.844  -2.606   0.611  1.00  0.00     0.004 C 
BRANCH  14  15
ATOM     15  C   UNL     1      -2.981  -1.568   0.516  1.00  0.00    -0.000 C 
ATOM     16  C   UNL     1      -3.594  -1.226   1.881  1.00  0.00     0.065 C 
ATOM     17  C   UNL     1      -2.552  -0.283  -0.208  1.00  0.00     0.065 C 
ATOM     18  C   UNL     1      -4.748  -0.240   1.744  1.00  0.00     0.262 C 
ATOM     19  C   UNL     1      -3.710   0.699  -0.337  1.00  0.00     0.262 C 
ATOM     20  N   UNL     1      -4.265   1.002   1.034  1.00  0.00    -0.337 N 
ATOM     21  C   UNL     1      -5.333   2.060   0.978  1.00  0.00     0.332 C 
ATOM     22  H   UNL     1      -3.497   1.396   1.595  1.00  0.00     0.347 HD
ENDBRANCH  14  15
ENDBRANCH  13  14
ENDBRANCH   1  13
TORSDOF 5
