REMARK SMILES CC[C@H](C)n1cc(C(=O)C(F)(F)F)cn1
REMARK SMILES IDX 5 1 6 2 7 3 14 4 15 5 3 6 4 7 2 8 1 9 8 10 9 11 10 12 11 13
REMARK SMILES IDX 12 14 13 15
REMARK H PARENT
ROOT
ATOM      1  N   UNL     1      -0.023  -0.374   0.226  1.00  0.00    -0.269 N 
ATOM      2  C   UNL     1       1.129   0.143  -0.304  1.00  0.00     0.121 A 
ATOM      3  C   UNL     1       2.171  -0.374   0.441  1.00  0.00     0.065 A 
ATOM      4  C   UNL     1       1.531  -1.192   1.397  1.00  0.00     0.147 A 
ATOM      5  N   UNL     1       0.203  -1.194   1.269  1.00  0.00    -0.180 NA
ENDROOT
BRANCH   1   6
ATOM      6  C   UNL     1      -1.390  -0.114  -0.231  1.00  0.00     0.104 C 
ATOM      7  C   UNL     1      -2.050  -1.404  -0.720  1.00  0.00     0.033 C 
BRANCH   6   8
ATOM      8  C   UNL     1      -2.200   0.606   0.862  1.00  0.00     0.023 C 
ATOM      9  C   UNL     1      -3.552   1.108   0.377  1.00  0.00     0.006 C 
ENDBRANCH   6   8
ENDBRANCH   1   6
BRANCH   3  10
ATOM     10  C   UNL     1       3.604  -0.144   0.296  1.00  0.00     0.269 C 
ATOM     11  O   UNL     1       4.393  -0.699   1.065  1.00  0.00    -0.284 OA
BRANCH  10  12
ATOM     12  C   UNL     1       4.066   0.789  -0.820  1.00  0.00     0.454 C 
ATOM     13  F   UNL     1       5.419   0.939  -0.874  1.00  0.00    -0.163 F 
ATOM     14  F   UNL     1       3.552   2.047  -0.694  1.00  0.00    -0.163 F 
ATOM     15  F   UNL     1       3.686   0.352  -2.056  1.00  0.00    -0.163 F 
ENDBRANCH  10  12
ENDBRANCH   3  10
TORSDOF 4
