REMARK SMILES COc1cc2cc(C(O)=CCc3cc[n+](Cc4ccc([N+](=O)[O-])o4)cc3)sc2cc1OC
REMARK SMILES IDX 11 1 10 2 8 3 9 4 7 6 6 7 27 8 5 9 28 10 4 11 29 12 3 13
REMARK SMILES IDX 30 14 2 15 1 16 31 17 32 18 12 19 13 20 26 21 14 22 25 23
REMARK SMILES IDX 15 24 16 25 17 26 18 27 24 28 19 29 20 30 21 31 22 32 23 33
REMARK H PARENT 9 5
ROOT
ATOM      1  C   UNL     1       1.323  -2.755   2.889  1.00  0.00     0.067 C 
ENDROOT
BRANCH   1   2
ATOM      2  C   UNL     1       0.473  -2.336   4.068  1.00  0.00     0.025 C 
BRANCH   2   3
ATOM      3  C   UNL     1      -0.556  -1.483   4.210  1.00  0.00     0.129 C 
BRANCH   3   4
ATOM      4  O   UNL     1      -1.175  -1.266   5.419  1.00  0.00    -0.507 OA
ATOM      5  H   UNL     1      -0.737  -1.790   6.109  1.00  0.00     0.293 HD
ENDBRANCH   3   4
BRANCH   3   6
ATOM      6  C   UNL     1      -1.132  -0.746   3.146  1.00  0.00     0.070 A 
ATOM      7  C   UNL     1      -1.993  -1.172   2.153  1.00  0.00     0.032 A 
ATOM      8  S   UNL     1      -0.825   0.935   2.992  1.00  0.00    -0.132 S 
ATOM      9  C   UNL     1      -2.190  -0.196   1.119  1.00  0.00    -0.003 A 
ATOM     10  C   UNL     1      -1.552   1.004   1.436  1.00  0.00     0.039 A 
ATOM     11  C   UNL     1      -2.843  -0.306  -0.134  1.00  0.00     0.060 A 
ATOM     12  C   UNL     1      -1.521   2.084   0.539  1.00  0.00     0.070 A 
ATOM     13  C   UNL     1      -2.784   0.746  -1.055  1.00  0.00     0.161 A 
ATOM     14  C   UNL     1      -2.120   1.924  -0.711  1.00  0.00     0.162 A 
BRANCH  13  15
ATOM     15  O   UNL     1      -3.254   0.633  -2.336  1.00  0.00    -0.493 OA
ATOM     16  C   UNL     1      -4.505  -0.044  -2.454  1.00  0.00     0.278 C 
ENDBRANCH  13  15
BRANCH  14  17
ATOM     17  O   UNL     1      -1.920   2.933  -1.619  1.00  0.00    -0.493 OA
ATOM     18  C   UNL     1      -3.108   3.720  -1.759  1.00  0.00     0.278 C 
ENDBRANCH  14  17
ENDBRANCH   3   6
ENDBRANCH   2   3
ENDBRANCH   1   2
BRANCH   1  19
ATOM     19  C   UNL     1       1.369  -1.869   1.665  1.00  0.00    -0.032 A 
ATOM     20  C   UNL     1       0.720  -2.240   0.486  1.00  0.00     0.075 A 
ATOM     21  C   UNL     1       2.053  -0.652   1.686  1.00  0.00     0.075 A 
ATOM     22  C   UNL     1       0.703  -1.371  -0.601  1.00  0.00     0.309 A 
ATOM     23  C   UNL     1       2.008   0.188   0.576  1.00  0.00     0.309 A 
ATOM     24  N   UNL     1       1.318  -0.169  -0.533  1.00  0.00    -0.198 N 
BRANCH  24  25
ATOM     25  C   UNL     1       1.215   0.776  -1.674  1.00  0.00     0.432 C 
BRANCH  25  26
ATOM     26  C   UNL     1       2.358   0.587  -2.608  1.00  0.00     0.176 A 
ATOM     27  C   UNL     1       2.459   0.442  -3.981  1.00  0.00     0.060 A 
ATOM     28  O   UNL     1       3.604   0.556  -2.045  1.00  0.00    -0.399 OA
ATOM     29  C   UNL     1       3.843   0.309  -4.278  1.00  0.00     0.134 A 
ATOM     30  C   UNL     1       4.488   0.384  -3.067  1.00  0.00     0.433 A 
BRANCH  30  31
ATOM     31  N   UNL     1       5.868   0.310  -2.703  1.00  0.00     0.102 N 
ATOM     32  O   UNL     1       6.137   0.383  -1.497  1.00  0.00    -0.256 OA
ATOM     33  O   UNL     1       6.674   0.170  -3.630  1.00  0.00    -0.256 OA
ENDBRANCH  30  31
ENDBRANCH  25  26
ENDBRANCH  24  25
ENDBRANCH   1  19
TORSDOF 10
