REMARK SMILES CC1=C[C@@H]2Cc3nc4cc(Cl)ccc4c(N)c3[C@H](C1)C2
REMARK SMILES IDX 1 1 2 2 3 3 4 4 5 5 6 6 7 7 8 8 9 9 10 10 11 11 12 12 13 13
REMARK SMILES IDX 14 14 15 15 17 16 18 17 19 18 20 19 16 20
REMARK H PARENT 16 21 16 22
ROOT
ATOM      1  C   UNL     1       1.225   1.829   0.881  1.00  0.00     0.039 C 
ATOM      2  C   UNL     1       0.249   0.719   0.650  1.00  0.00    -0.076 C 
ATOM      3  C   UNL     1      -0.453   0.236   1.657  1.00  0.00    -0.024 C 
ATOM      4  C   UNL     1      -1.664  -2.216   0.724  1.00  0.00     0.018 C 
ATOM      5  C   UNL     1      -0.613  -1.726   1.671  1.00  0.00     0.064 C 
ATOM      6  C   UNL     1       0.394  -1.060   0.806  1.00  0.00     0.047 A 
ATOM      7  N   UNL     1       1.673  -1.076   1.222  1.00  0.00    -0.252 NA
ATOM      8  C   UNL     1       2.681  -0.507   0.529  1.00  0.00     0.074 A 
ATOM      9  C   UNL     1       3.965  -0.537   0.971  1.00  0.00     0.049 A 
ATOM     10  C   UNL     1       5.000   0.052   0.250  1.00  0.00     0.043 A 
ATOM     11  Cl  UNL     1       6.625  -0.018   0.867  1.00  0.00    -0.084 Cl
ATOM     12  C   UNL     1       4.738   0.685  -0.942  1.00  0.00     0.021 A 
ATOM     13  C   UNL     1       3.427   0.708  -1.380  1.00  0.00     0.014 A 
ATOM     14  C   UNL     1       2.390   0.130  -0.679  1.00  0.00     0.024 A 
ATOM     15  C   UNL     1       1.073   0.172  -1.153  1.00  0.00     0.046 A 
ATOM     16  C   UNL     1       0.089  -0.437  -0.381  1.00  0.00     0.001 A 
ATOM     17  C   UNL     1      -1.304  -0.376  -0.912  1.00  0.00     0.028 C 
ATOM     18  C   UNL     1       0.080   0.167  -0.731  1.00  0.00     0.039 C 
ATOM     19  C   UNL     1      -2.306  -1.050   0.001  1.00  0.00     0.017 C 
ENDROOT
BRANCH  15  20
ATOM     20  N   UNL     1       0.791   0.822  -2.380  1.00  0.00    -0.398 N 
ATOM     21  H   UNL     1       0.523   0.324  -3.260  1.00  0.00     0.156 HD
ATOM     22  H   UNL     1       0.836   1.879  -2.479  1.00  0.00     0.156 HD
ENDBRANCH  15  20
TORSDOF 1
