REMARK SMILES COc1ccc([C@H]2C=C(c3cc(F)cc(F)c3)NN2c2ccc(S(N)(=O)=O)cc2)c(OC)c1
REMARK SMILES IDX 20 1 21 2 22 3 23 4 28 5 29 6 19 7 18 8 9 9 8 10 7 11 10 13
REMARK SMILES IDX 11 14 17 15 12 16 15 17 14 18 13 19 16 20 6 21 5 22 30 23
REMARK SMILES IDX 4 24 33 25 3 26 31 27 32 28 2 29 1 30 24 31 26 32 27 33
REMARK SMILES IDX 25 34
REMARK H PARENT 18 12 25 35 25 36
ROOT
ATOM      1  C   UNL     1       1.826  -0.026  -0.666  1.00  0.00     0.058 A 
ATOM      2  C   UNL     1       3.118   0.214  -0.162  1.00  0.00     0.029 A 
ATOM      3  C   UNL     1       4.191  -0.639  -0.442  1.00  0.00     0.024 A 
ATOM      4  C   UNL     1       3.979  -1.763  -1.236  1.00  0.00     0.082 A 
ATOM      5  C   UNL     1       2.717  -2.025  -1.766  1.00  0.00     0.024 A 
ATOM      6  C   UNL     1       1.654  -1.161  -1.476  1.00  0.00     0.029 A 
ENDROOT
BRANCH   1   7
ATOM      7  N   UNL     1       0.778   0.841  -0.361  1.00  0.00    -0.276 N 
ATOM      8  N   UNL     1       0.911   2.093   0.221  1.00  0.00    -0.297 N 
ATOM      9  C   UNL     1      -0.315   2.750   0.203  1.00  0.00     0.060 C 
ATOM     10  C   UNL     1      -1.262   1.942  -0.301  1.00  0.00     0.033 C 
ATOM     11  C   UNL     1      -0.657   0.608  -0.707  1.00  0.00     0.164 C 
ATOM     12  H   UNL     1       1.649   2.679  -0.173  1.00  0.00     0.188 HD
BRANCH   9  13
ATOM     13  C   UNL     1      -0.457   4.132   0.668  1.00  0.00     0.005 A 
ATOM     14  C   UNL     1       0.397   4.638   1.659  1.00  0.00     0.049 A 
ATOM     15  C   UNL     1      -1.430   4.987   0.130  1.00  0.00     0.049 A 
ATOM     16  C   UNL     1       0.270   5.955   2.094  1.00  0.00     0.126 A 
ATOM     17  C   UNL     1      -1.538   6.301   0.582  1.00  0.00     0.126 A 
ATOM     18  C   UNL     1      -0.695   6.797   1.563  1.00  0.00     0.078 A 
ATOM     19  F   UNL     1       1.094   6.415   3.044  1.00  0.00    -0.207 F 
ATOM     20  F   UNL     1      -2.474   7.100   0.052  1.00  0.00    -0.207 F 
ENDBRANCH   9  13
BRANCH  11  21
ATOM     21  C   UNL     1      -1.285  -0.549   0.056  1.00  0.00     0.023 A 
ATOM     22  C   UNL     1      -0.964  -0.776   1.407  1.00  0.00     0.014 A 
ATOM     23  C   UNL     1      -2.229  -1.391  -0.563  1.00  0.00     0.128 A 
ATOM     24  C   UNL     1      -1.548  -1.826   2.114  1.00  0.00     0.047 A 
ATOM     25  C   UNL     1      -2.810  -2.446   0.159  1.00  0.00     0.093 A 
ATOM     26  C   UNL     1      -2.470  -2.667   1.496  1.00  0.00     0.122 A 
BRANCH  23  27
ATOM     27  O   UNL     1      -2.515  -1.102  -1.874  1.00  0.00    -0.496 OA
ATOM     28  C   UNL     1      -3.470  -1.917  -2.542  1.00  0.00     0.278 C 
ENDBRANCH  23  27
BRANCH  26  29
ATOM     29  O   UNL     1      -2.963  -3.657   2.301  1.00  0.00    -0.497 OA
ATOM     30  C   UNL     1      -3.917  -4.544   1.732  1.00  0.00     0.278 C 
ENDBRANCH  26  29
ENDBRANCH  11  21
ENDBRANCH   1   7
BRANCH   4  31
ATOM     31  S   UNL     1       5.319  -2.864  -1.595  1.00  0.00     0.238 S 
ATOM     32  O   UNL     1       6.561  -2.200  -1.269  1.00  0.00    -0.207 OA
ATOM     33  O   UNL     1       5.079  -3.475  -2.880  1.00  0.00    -0.207 OA
BRANCH  31  34
ATOM     34  N   UNL     1       5.111  -4.042  -0.410  1.00  0.00    -0.225 NA
ATOM     35  H   UNL     1       4.232  -3.948   0.099  1.00  0.00     0.137 HD
ATOM     36  H   UNL     1       5.917  -4.023   0.218  1.00  0.00     0.137 HD
ENDBRANCH  31  34
ENDBRANCH   4  31
TORSDOF 7
