REMARK SMILES CC1=C[C@@H]2Cc3[nH]c4cc(Cl)ccc4c(=N)c3[C@H](C1)C2
REMARK SMILES IDX 7 1 6 2 17 3 15 4 14 5 13 6 12 7 10 8 11 9 9 10 8 11 18 12
REMARK SMILES IDX 19 13 2 14 1 15 3 16 4 17 5 18 20 19 16 21
REMARK H PARENT 7 20 16 22
ROOT
ATOM      1  N   UNL     1       1.781   2.106   0.276  1.00  0.00    -0.358 N 
ATOM      2  C   UNL     1       0.696   1.265   0.390  1.00  0.00     0.021 A 
ATOM      3  C   UNL     1       0.813  -0.052   0.660  1.00  0.00     0.000 A 
ATOM      4  C   UNL     1       2.185  -0.637   0.831  1.00  0.00     0.068 A 
ATOM      5  C   UNL     1       3.355   0.276   0.618  1.00  0.00     0.023 A 
ATOM      6  C   UNL     1       4.680  -0.178   0.691  1.00  0.00     0.014 A 
ATOM      7  C   UNL     1       5.740   0.712   0.493  1.00  0.00     0.021 A 
ATOM      8  C   UNL     1       5.478   2.053   0.227  1.00  0.00     0.043 A 
ATOM      9  Cl  UNL     1       6.785   3.148  -0.005  1.00  0.00    -0.084 Cl
ATOM     10  C   UNL     1       4.166   2.515   0.147  1.00  0.00     0.047 A 
ATOM     11  C   UNL     1       3.096   1.629   0.326  1.00  0.00     0.049 A 
ATOM     12  C   UNL     1      -0.383  -0.979   0.820  1.00  0.00     0.028 C 
ATOM     13  C   UNL     1      -0.654  -1.760  -0.487  1.00  0.00     0.039 C 
ATOM     14  C   UNL     1      -1.387  -0.950  -1.543  1.00  0.00    -0.076 C 
ATOM     15  C   UNL     1      -1.483  -1.577  -2.903  1.00  0.00     0.039 C 
ATOM     16  C   UNL     1      -1.904   0.263  -1.269  1.00  0.00    -0.024 C 
ATOM     17  C   UNL     1      -1.835   0.896   0.106  1.00  0.00     0.018 C 
ATOM     18  C   UNL     1      -0.671   1.905   0.184  1.00  0.00     0.062 C 
ATOM     19  C   UNL     1      -1.638  -0.173   1.184  1.00  0.00     0.017 C 
ATOM     20  H   UNL     1       1.618   3.039  -0.084  1.00  0.00     0.166 HD
ENDROOT
BRANCH   4  21
ATOM     21  N   UNL     1       2.299  -1.892   1.147  1.00  0.00    -0.300 NA
ATOM     22  H   UNL     1       3.265  -2.194   1.250  1.00  0.00     0.188 HD
ENDBRANCH   4  21
TORSDOF 1
