REMARK SMILES O=[N+]([O-])OCC[NH2+]CCCN=c1c2c([nH]c3ccccc13)CCCC2
REMARK SMILES IDX 8 1 9 2 10 3 11 4 12 5 15 6 14 7 16 8 13 9 22 10 17 11 21 12
REMARK SMILES IDX 25 13 23 14 18 15 20 16 24 17 19 18 7 20 6 23 5 24 4 25 2 26
REMARK SMILES IDX 1 27 3 28
REMARK H PARENT 15 19 7 21 7 22
ROOT
ATOM      1  C   UNL     1       1.394  -2.175  -0.579  1.00  0.00     0.262 C 
ENDROOT
BRANCH   1   2
ATOM      2  C   UNL     1       1.106  -2.351   0.912  1.00  0.00     0.085 C 
BRANCH   2   3
ATOM      3  C   UNL     1       0.910  -1.075   1.737  1.00  0.00     0.148 C 
BRANCH   3   4
ATOM      4  N   UNL     1       0.590   0.066   0.898  1.00  0.00    -0.284 NA
BRANCH   4   5
ATOM      5  C   UNL     1      -0.580   0.380   0.461  1.00  0.00     0.072 A 
ATOM      6  N   UNL     1      -2.593   0.572  -1.474  1.00  0.00    -0.358 N 
ATOM      7  C   UNL     1      -2.818  -0.181  -0.332  1.00  0.00     0.021 A 
ATOM      8  C   UNL     1      -1.624   1.589  -1.442  1.00  0.00     0.048 A 
ATOM      9  C   UNL     1      -1.910  -0.305   0.664  1.00  0.00    -0.003 A 
ATOM     10  C   UNL     1      -4.193  -0.820  -0.242  1.00  0.00     0.054 C 
ATOM     11  C   UNL     1      -1.591   2.591  -2.416  1.00  0.00     0.027 A 
ATOM     12  C   UNL     1      -0.617   1.554  -0.470  1.00  0.00     0.024 A 
ATOM     13  C   UNL     1      -2.225  -1.001   1.958  1.00  0.00     0.039 C 
ATOM     14  C   UNL     1      -4.367  -1.784   0.930  1.00  0.00     0.007 C 
ATOM     15  C   UNL     1      -0.603   3.579  -2.377  1.00  0.00     0.002 A 
ATOM     16  C   UNL     1       0.371   2.545  -0.425  1.00  0.00     0.012 A 
ATOM     17  C   UNL     1      -3.722  -1.219   2.186  1.00  0.00     0.005 C 
ATOM     18  C   UNL     1       0.370   3.563  -1.378  1.00  0.00     0.001 A 
ATOM     19  H   UNL     1      -3.429   0.803  -2.009  1.00  0.00     0.166 HD
ENDBRANCH   4   5
ENDBRANCH   3   4
ENDBRANCH   2   3
ENDBRANCH   1   2
BRANCH   1  20
ATOM     20  N   UNL     1       2.283  -1.012  -0.865  1.00  0.00    -0.345 N 
ATOM     21  H   UNL     1       2.174  -0.749  -1.852  1.00  0.00     0.346 HD
ATOM     22  H   UNL     1       1.865  -0.215  -0.332  1.00  0.00     0.346 HD
BRANCH  20  23
ATOM     23  C   UNL     1       3.725  -1.154  -0.494  1.00  0.00     0.288 C 
BRANCH  23  24
ATOM     24  C   UNL     1       4.481   0.132  -0.837  1.00  0.00     0.269 C 
BRANCH  24  25
ATOM     25  O   UNL     1       3.875   1.207  -0.122  1.00  0.00    -0.308 OA
BRANCH  25  26
ATOM     26  N   UNL     1       4.468   2.459  -0.424  1.00  0.00     0.294 N 
ATOM     27  O   UNL     1       5.415   2.448  -1.209  1.00  0.00    -0.109 OA
ATOM     28  O   UNL     1       3.909   3.392   0.144  1.00  0.00    -0.109 OA
ENDBRANCH  25  26
ENDBRANCH  24  25
ENDBRANCH  23  24
ENDBRANCH  20  23
ENDBRANCH   1  20
TORSDOF 9
