REMARK SMILES COc1ccc([C@H]2CC(c3cc(F)cc(F)c3)=NN2c2ccc(S(N)(=O)=O)cc2)c(OC)c1
REMARK SMILES IDX 20 1 21 2 22 3 23 4 28 5 29 6 19 7 7 8 8 9 9 10 18 11 6 12
REMARK SMILES IDX 3 13 4 14 33 15 5 16 30 17 2 18 1 19 31 20 32 21 10 22 11 23
REMARK SMILES IDX 17 24 12 25 15 26 14 27 13 28 16 29 24 30 26 31 27 32 25 33
REMARK H PARENT 25 34 25 35
ROOT
ATOM      1  C   UNL     1       1.856  -0.385  -0.532  1.00  0.00     0.060 A 
ATOM      2  C   UNL     1       1.952  -1.604  -1.222  1.00  0.00     0.029 A 
ATOM      3  C   UNL     1       3.048  -2.461  -1.060  1.00  0.00     0.024 A 
ATOM      4  C   UNL     1       4.075  -2.108  -0.188  1.00  0.00     0.082 A 
ATOM      5  C   UNL     1       4.027  -0.902   0.503  1.00  0.00     0.024 A 
ATOM      6  C   UNL     1       2.923  -0.060   0.330  1.00  0.00     0.029 A 
ENDROOT
BRANCH   1   7
ATOM      7  N   UNL     1       0.770   0.479  -0.670  1.00  0.00    -0.257 N 
ATOM      8  C   UNL     1      -0.389   0.289  -1.552  1.00  0.00     0.148 C 
ATOM      9  C   UNL     1      -0.989   1.694  -1.652  1.00  0.00     0.091 C 
ATOM     10  C   UNL     1      -0.158   2.417  -0.629  1.00  0.00     0.071 C 
ATOM     11  N   UNL     1       0.832   1.737  -0.136  1.00  0.00    -0.176 NA
BRANCH   8  12
ATOM     12  C   UNL     1      -1.381  -0.745  -1.036  1.00  0.00     0.019 A 
ATOM     13  C   UNL     1      -3.237  -2.718  -0.194  1.00  0.00     0.122 A 
ATOM     14  C   UNL     1      -2.580  -2.837  -1.417  1.00  0.00     0.047 A 
ATOM     15  C   UNL     1      -2.975  -1.611   0.609  1.00  0.00     0.093 A 
ATOM     16  C   UNL     1      -1.671  -1.862  -1.839  1.00  0.00     0.013 A 
ATOM     17  C   UNL     1      -2.044  -0.645   0.198  1.00  0.00     0.127 A 
BRANCH  13  18
ATOM     18  O   UNL     1      -4.109  -3.732   0.089  1.00  0.00    -0.497 OA
ATOM     19  C   UNL     1      -4.806  -3.655   1.327  1.00  0.00     0.278 C 
ENDBRANCH  13  18
BRANCH  17  20
ATOM     20  O   UNL     1      -1.864   0.462   0.986  1.00  0.00    -0.496 OA
ATOM     21  C   UNL     1      -1.104   0.136   2.152  1.00  0.00     0.278 C 
ENDBRANCH  17  20
ENDBRANCH   8  12
BRANCH  10  22
ATOM     22  C   UNL     1      -0.440   3.818  -0.241  1.00  0.00     0.004 A 
ATOM     23  C   UNL     1       0.351   4.419   0.746  1.00  0.00     0.049 A 
ATOM     24  C   UNL     1      -1.473   4.547  -0.835  1.00  0.00     0.049 A 
ATOM     25  C   UNL     1       0.100   5.733   1.126  1.00  0.00     0.126 A 
ATOM     26  C   UNL     1      -1.701   5.862  -0.435  1.00  0.00     0.126 A 
ATOM     27  C   UNL     1      -0.924   6.466   0.543  1.00  0.00     0.078 A 
ATOM     28  F   UNL     1       0.858   6.302   2.072  1.00  0.00    -0.207 F 
ATOM     29  F   UNL     1      -2.693   6.556  -1.008  1.00  0.00    -0.207 F 
ENDBRANCH  10  22
ENDBRANCH   1   7
BRANCH   4  30
ATOM     30  S   UNL     1       5.458  -3.194   0.018  1.00  0.00     0.238 S 
ATOM     31  O   UNL     1       5.614  -3.973  -1.188  1.00  0.00    -0.207 OA
ATOM     32  O   UNL     1       6.547  -2.453   0.612  1.00  0.00    -0.207 OA
BRANCH  30  33
ATOM     33  N   UNL     1       4.897  -4.223   1.229  1.00  0.00    -0.225 NA
ATOM     34  H   UNL     1       5.478  -4.095   2.060  1.00  0.00     0.137 HD
ATOM     35  H   UNL     1       3.907  -4.094   1.435  1.00  0.00     0.137 HD
ENDBRANCH  30  33
ENDBRANCH   4  30
TORSDOF 7
