REMARK SMILES O=[N+]([O-])OCCCCCC[NH2+]CCCNc1c2c(nc3ccccc13)CCCC2
REMARK SMILES IDX 9 1 10 2 11 3 12 6 13 7 14 8 15 9 16 11 17 12 25 13 18 14
REMARK SMILES IDX 29 15 24 16 20 17 19 18 26 19 28 20 23 21 21 22 27 23 22 24
REMARK SMILES IDX 8 25 7 26 6 27 5 28 4 29 2 30 1 31 3 32
REMARK H PARENT 11 4 11 5 15 10
ROOT
ATOM      1  C   UNL     1       4.597  -0.531  -2.877  1.00  0.00     0.061 C 
ENDROOT
BRANCH   1   2
ATOM      2  C   UNL     1       3.091  -0.286  -2.968  1.00  0.00     0.260 C 
BRANCH   2   3
ATOM      3  N   UNL     1       2.380  -0.891  -1.803  1.00  0.00    -0.346 N 
ATOM      4  H   UNL     1       2.646  -1.879  -1.698  1.00  0.00     0.346 HD
ATOM      5  H   UNL     1       2.692  -0.422  -0.930  1.00  0.00     0.346 HD
BRANCH   3   6
ATOM      6  C   UNL     1       0.888  -0.765  -1.861  1.00  0.00     0.262 C 
BRANCH   6   7
ATOM      7  C   UNL     1       0.285  -1.419  -0.628  1.00  0.00     0.082 C 
BRANCH   7   8
ATOM      8  C   UNL     1      -1.226  -1.198  -0.580  1.00  0.00     0.118 C 
BRANCH   8   9
ATOM      9  N   UNL     1      -1.723  -1.708   0.698  1.00  0.00    -0.384 N 
ATOM     10  H   UNL     1      -1.835  -2.722   0.685  1.00  0.00     0.160 HD
BRANCH   9  11
ATOM     11  C   UNL     1      -2.978  -1.115   1.033  1.00  0.00     0.049 A 
ATOM     12  C   UNL     1      -2.984   0.097   1.740  1.00  0.00    -0.003 A 
ATOM     13  C   UNL     1      -4.213  -1.663   0.577  1.00  0.00     0.024 A 
ATOM     14  C   UNL     1      -4.213   0.699   1.999  1.00  0.00     0.046 A 
ATOM     15  C   UNL     1      -1.758   0.755   2.317  1.00  0.00     0.039 C 
ATOM     16  C   UNL     1      -4.334  -2.865  -0.169  1.00  0.00     0.012 A 
ATOM     17  C   UNL     1      -5.393  -0.952   0.894  1.00  0.00     0.073 A 
ATOM     18  N   UNL     1      -5.393   0.195   1.585  1.00  0.00    -0.252 NA
ATOM     19  C   UNL     1      -4.236   1.966   2.813  1.00  0.00     0.056 C 
ATOM     20  C   UNL     1      -1.784   2.272   2.102  1.00  0.00     0.005 C 
ATOM     21  C   UNL     1      -5.578  -3.344  -0.581  1.00  0.00     0.001 A 
ATOM     22  C   UNL     1      -6.618  -1.451   0.472  1.00  0.00     0.029 A 
ATOM     23  C   UNL     1      -3.152   2.930   2.335  1.00  0.00     0.007 C 
ATOM     24  C   UNL     1      -6.724  -2.634  -0.259  1.00  0.00     0.002 A 
ENDBRANCH   9  11
ENDBRANCH   8   9
ENDBRANCH   7   8
ENDBRANCH   6   7
ENDBRANCH   3   6
ENDBRANCH   2   3
ENDBRANCH   1   2
BRANCH   1  25
ATOM     25  C   UNL     1       5.305   0.040  -1.642  1.00  0.00     0.006 C 
BRANCH  25  26
ATOM     26  C   UNL     1       5.234   1.568  -1.544  1.00  0.00     0.002 C 
BRANCH  26  27
ATOM     27  C   UNL     1       5.908   2.122  -0.282  1.00  0.00     0.028 C 
BRANCH  27  28
ATOM     28  C   UNL     1       5.178   1.832   1.034  1.00  0.00     0.208 C 
BRANCH  28  29
ATOM     29  O   UNL     1       3.976   2.591   1.140  1.00  0.00    -0.314 OA
BRANCH  29  30
ATOM     30  N   UNL     1       2.794   1.867   0.876  1.00  0.00     0.294 N 
ATOM     31  O   UNL     1       2.907   0.733   0.392  1.00  0.00    -0.109 OA
ATOM     32  O   UNL     1       1.771   2.510   1.083  1.00  0.00    -0.109 OA
ENDBRANCH  29  30
ENDBRANCH  28  29
ENDBRANCH  27  28
ENDBRANCH  26  27
ENDBRANCH  25  26
ENDBRANCH   1  25
TORSDOF 13
