REMARK SMILES C[N@H+]1CC[C@H](CCC[C@@H]2Cc3ccccc3C2=O)CC1
REMARK SMILES IDX 7 1 6 2 5 3 2 4 20 5 3 6 19 7 4 8 1 9 8 11 9 12 10 13 17 14
REMARK SMILES IDX 11 15 16 16 12 17 15 18 13 19 14 20 18 21
REMARK H PARENT 2 10
ROOT
ATOM      1  C   UNL     1       0.228  -1.048  -0.448  1.00  0.00     0.001 C 
ENDROOT
BRANCH   1   2
ATOM      2  C   UNL     1       0.601   0.136   0.449  1.00  0.00     0.004 C 
BRANCH   2   3
ATOM      3  C   UNL     1       2.103   0.488   0.492  1.00  0.00    -0.000 C 
ATOM      4  N   UNL     1       4.924   0.128  -0.170  1.00  0.00    -0.337 N 
ATOM      5  C   UNL     1       4.424  -0.216   1.212  1.00  0.00     0.262 C 
ATOM      6  C   UNL     1       4.139   1.253  -0.800  1.00  0.00     0.262 C 
ATOM      7  C   UNL     1       2.956  -0.617   1.134  1.00  0.00     0.065 C 
ATOM      8  C   UNL     1       2.669   0.859  -0.886  1.00  0.00     0.065 C 
ATOM      9  C   UNL     1       6.401   0.413  -0.171  1.00  0.00     0.332 C 
ATOM     10  H   UNL     1       4.791  -0.706  -0.760  1.00  0.00     0.347 HD
ENDBRANCH   2   3
ENDBRANCH   1   2
BRANCH   1  11
ATOM     11  C   UNL     1      -1.249  -1.455  -0.360  1.00  0.00     0.012 C 
BRANCH  11  12
ATOM     12  C   UNL     1      -2.224  -0.385  -0.870  1.00  0.00     0.065 C 
ATOM     13  C   UNL     1      -2.741   0.571   0.233  1.00  0.00     0.048 C 
ATOM     14  C   UNL     1      -3.480  -1.030  -1.432  1.00  0.00     0.166 C 
ATOM     15  C   UNL     1      -4.229   0.427   0.193  1.00  0.00    -0.036 A 
ATOM     16  C   UNL     1      -4.652  -0.491  -0.759  1.00  0.00     0.021 A 
ATOM     17  C   UNL     1      -5.164   1.087   0.975  1.00  0.00     0.004 A 
ATOM     18  C   UNL     1      -5.984  -0.793  -0.976  1.00  0.00     0.012 A 
ATOM     19  C   UNL     1      -6.520   0.801   0.777  1.00  0.00     0.000 A 
ATOM     20  C   UNL     1      -6.928  -0.132  -0.191  1.00  0.00     0.001 A 
ATOM     21  O   UNL     1      -3.523  -1.866  -2.318  1.00  0.00    -0.294 OA
ENDBRANCH  11  12
ENDBRANCH   1  11
TORSDOF 4
