REMARK SMILES Cc1cc(O)nc2c1C(=O)C(=NCCCCNc1c3c(nc4cc(Cl)ccc14)CCCC3)CC2=O
REMARK SMILES IDX 14 1 13 2 12 3 11 4 33 5 34 6 7 7 9 8 6 9 8 10 4 11 2 12
REMARK SMILES IDX 3 13 35 14 10 15 1 16 5 17 15 19 16 20 17 21 18 23 19 24
REMARK SMILES IDX 28 25 20 26 32 27 27 28 22 29 21 30 29 31 31 32 26 33 23 34
REMARK SMILES IDX 30 35 24 36 25 37
REMARK H PARENT 5 18 17 22
ROOT
ATOM      1  C   UNL     1       0.396   0.588  -1.430  1.00  0.00     0.025 C 
ENDROOT
BRANCH   1   2
ATOM      2  C   UNL     1       1.681   0.597  -2.256  1.00  0.00     0.142 C 
BRANCH   2   3
ATOM      3  N   UNL     1       2.726  -0.178  -1.598  1.00  0.00    -0.285 NA
BRANCH   3   4
ATOM      4  C   UNL     1       3.479   0.329  -0.687  1.00  0.00     0.091 C 
ATOM      5  C   UNL     1       3.475   1.717  -0.138  1.00  0.00     0.142 C 
ATOM      6  C   UNL     1       4.852   2.300   0.028  1.00  0.00     0.188 C 
ATOM      7  C   UNL     1       6.031   1.378   0.033  1.00  0.00     0.122 A 
ATOM      8  C   UNL     1       4.522  -0.563  -0.062  1.00  0.00     0.209 C 
ATOM      9  N   UNL     1       7.238   1.998   0.105  1.00  0.00    -0.210 NA
ATOM     10  C   UNL     1       5.881  -0.007   0.014  1.00  0.00     0.056 A 
ATOM     11  C   UNL     1       8.309   1.201   0.169  1.00  0.00     0.211 A 
ATOM     12  C   UNL     1       7.032  -0.814   0.079  1.00  0.00    -0.032 A 
ATOM     13  C   UNL     1       8.276  -0.178   0.164  1.00  0.00     0.072 A 
ATOM     14  O   UNL     1       4.995   3.510   0.193  1.00  0.00    -0.292 OA
ATOM     15  O   UNL     1       4.212  -1.658   0.372  1.00  0.00    -0.287 OA
ATOM     16  C   UNL     1       6.978  -2.316   0.068  1.00  0.00     0.045 C 
BRANCH  11  17
ATOM     17  O   UNL     1       9.489   1.860   0.246  1.00  0.00    -0.493 OA
ATOM     18  H   UNL     1       9.183   2.786   0.239  1.00  0.00     0.295 HD
ENDBRANCH  11  17
ENDBRANCH   3   4
ENDBRANCH   2   3
ENDBRANCH   1   2
BRANCH   1  19
ATOM     19  C   UNL     1      -0.220  -0.814  -1.332  1.00  0.00     0.023 C 
BRANCH  19  20
ATOM     20  C   UNL     1      -1.465  -0.861  -0.445  1.00  0.00     0.113 C 
BRANCH  20  21
ATOM     21  N   UNL     1      -2.572  -0.134  -1.083  1.00  0.00    -0.384 N 
ATOM     22  H   UNL     1      -2.359   0.858  -1.144  1.00  0.00     0.160 HD
BRANCH  21  23
ATOM     23  C   UNL     1      -3.802  -0.325  -0.384  1.00  0.00     0.049 A 
ATOM     24  C   UNL     1      -4.197   0.558   0.643  1.00  0.00    -0.003 A 
ATOM     25  C   UNL     1      -4.586  -1.479  -0.659  1.00  0.00     0.024 A 
ATOM     26  C   UNL     1      -5.347   0.229   1.368  1.00  0.00     0.046 A 
ATOM     27  C   UNL     1      -3.384   1.779   1.006  1.00  0.00     0.039 C 
ATOM     28  C   UNL     1      -4.282  -2.402  -1.688  1.00  0.00     0.014 A 
ATOM     29  C   UNL     1      -5.734  -1.696   0.128  1.00  0.00     0.074 A 
ATOM     30  N   UNL     1      -6.101  -0.867   1.112  1.00  0.00    -0.252 NA
ATOM     31  C   UNL     1      -5.866   1.107   2.478  1.00  0.00     0.056 C 
ATOM     32  C   UNL     1      -4.107   2.772   1.915  1.00  0.00     0.005 C 
ATOM     33  C   UNL     1      -5.086  -3.516  -1.920  1.00  0.00     0.021 A 
ATOM     34  C   UNL     1      -6.523  -2.811  -0.116  1.00  0.00     0.049 A 
ATOM     35  C   UNL     1      -4.809   2.043   3.050  1.00  0.00     0.007 C 
ATOM     36  C   UNL     1      -6.206  -3.715  -1.127  1.00  0.00     0.043 A 
ATOM     37  Cl  UNL     1      -7.212  -5.085  -1.397  1.00  0.00    -0.084 Cl
ENDBRANCH  21  23
ENDBRANCH  20  21
ENDBRANCH  19  20
ENDBRANCH   1  19
TORSDOF 8
