REMARK SMILES COc1cc2c(cc1OC)C(=O)[C@H](CC1CCN(c3ccccc3)CC1)C2
REMARK SMILES IDX 3 1 4 2 5 3 6 4 7 5 8 6 11 7 12 8 13 9 27 10 2 11 1 12 9 13
REMARK SMILES IDX 10 14 14 15 15 16 16 17 26 18 17 19 25 20 18 21 19 22 20 23
REMARK SMILES IDX 24 24 21 25 23 26 22 27
REMARK H PARENT
ROOT
ATOM      1  C   UNL     1      -4.332  -3.078   3.905  1.00  0.00     0.161 A 
ATOM      2  C   UNL     1      -4.050  -1.955   3.110  1.00  0.00     0.055 A 
ATOM      3  C   UNL     1      -2.788  -1.835   2.547  1.00  0.00    -0.033 A 
ATOM      4  C   UNL     1      -1.837  -2.817   2.772  1.00  0.00     0.025 A 
ATOM      5  C   UNL     1      -2.074  -3.938   3.545  1.00  0.00     0.062 A 
ATOM      6  C   UNL     1      -3.339  -4.073   4.123  1.00  0.00     0.161 A 
ATOM      7  C   UNL     1      -0.615  -2.446   2.074  1.00  0.00     0.166 C 
ATOM      8  O   UNL     1       0.387  -3.140   2.064  1.00  0.00    -0.294 OA
ATOM      9  C   UNL     1      -0.800  -1.102   1.389  1.00  0.00     0.066 C 
ATOM     10  C   UNL     1      -2.285  -0.740   1.662  1.00  0.00     0.048 C 
ENDROOT
BRANCH   1  11
ATOM     11  O   UNL     1      -5.543  -3.304   4.515  1.00  0.00    -0.493 OA
ATOM     12  C   UNL     1      -6.567  -2.336   4.333  1.00  0.00     0.278 C 
ENDBRANCH   1  11
BRANCH   6  13
ATOM     13  O   UNL     1      -3.716  -5.131   4.914  1.00  0.00    -0.493 OA
ATOM     14  C   UNL     1      -2.756  -6.153   5.147  1.00  0.00     0.278 C 
ENDBRANCH   6  13
BRANCH   9  15
ATOM     15  C   UNL     1       0.146  -0.028   1.942  1.00  0.00     0.016 C 
BRANCH  15  16
ATOM     16  C   UNL     1       1.649  -0.251   1.673  1.00  0.00    -0.007 C 
ATOM     17  C   UNL     1       2.459   0.910   2.279  1.00  0.00     0.025 C 
ATOM     18  C   UNL     1       1.977  -0.381   0.178  1.00  0.00     0.025 C 
ATOM     19  C   UNL     1       3.954   0.756   2.001  1.00  0.00     0.117 C 
ATOM     20  C   UNL     1       3.484  -0.489  -0.067  1.00  0.00     0.117 C 
ATOM     21  N   UNL     1       4.173   0.657   0.552  1.00  0.00    -0.372 N 
BRANCH  21  22
ATOM     22  C   UNL     1       5.494   0.809   0.089  1.00  0.00     0.037 A 
ATOM     23  C   UNL     1       5.711   1.161  -1.254  1.00  0.00     0.026 A 
ATOM     24  C   UNL     1       6.628   0.647   0.899  1.00  0.00     0.026 A 
ATOM     25  C   UNL     1       6.998   1.331  -1.772  1.00  0.00     0.002 A 
ATOM     26  C   UNL     1       7.920   0.813   0.386  1.00  0.00     0.002 A 
ATOM     27  C   UNL     1       8.105   1.154  -0.950  1.00  0.00     0.000 A 
ENDBRANCH  21  22
ENDBRANCH  15  16
ENDBRANCH   9  15
TORSDOF 5
