REMARK SMILES N=c1c2c([nH]c3ccccc13)CCCC2
REMARK SMILES IDX 5 1 4 2 3 3 2 4 11 5 10 6 9 7 8 8 7 9 6 10 15 11 14 12 13 13
REMARK SMILES IDX 12 14 1 16
REMARK H PARENT 5 15 1 17
ROOT
ATOM      1  N   UNL     1       0.245  -1.158   0.909  1.00  0.00    -0.358 N 
ATOM      2  C   UNL     1      -0.857  -0.449   0.487  1.00  0.00     0.020 A 
ATOM      3  C   UNL     1      -0.768   0.627  -0.321  1.00  0.00    -0.003 A 
ATOM      4  C   UNL     1       0.589   1.083  -0.775  1.00  0.00     0.068 A 
ATOM      5  C   UNL     1       1.765   0.242  -0.382  1.00  0.00     0.023 A 
ATOM      6  C   UNL     1       3.067   0.524  -0.820  1.00  0.00     0.012 A 
ATOM      7  C   UNL     1       4.135  -0.283  -0.417  1.00  0.00     0.001 A 
ATOM      8  C   UNL     1       3.911  -1.370   0.423  1.00  0.00     0.002 A 
ATOM      9  C   UNL     1       2.617  -1.660   0.858  1.00  0.00     0.027 A 
ATOM     10  C   UNL     1       1.535  -0.869   0.450  1.00  0.00     0.048 A 
ATOM     11  C   UNL     1      -1.959   1.410  -0.808  1.00  0.00     0.039 C 
ATOM     12  C   UNL     1      -3.291   0.700  -0.565  1.00  0.00     0.005 C 
ATOM     13  C   UNL     1      -3.331   0.076   0.823  1.00  0.00     0.007 C 
ATOM     14  C   UNL     1      -2.197  -0.936   0.995  1.00  0.00     0.054 C 
ATOM     15  H   UNL     1       0.092  -2.025   1.407  1.00  0.00     0.166 HD
ENDROOT
BRANCH   4  16
ATOM     16  N   UNL     1       0.682   2.173  -1.476  1.00  0.00    -0.300 NA
ATOM     17  H   UNL     1       1.642   2.405  -1.721  1.00  0.00     0.188 HD
ENDBRANCH   4  16
TORSDOF 1
