REMARK SMILES COc1cccc([C@@H]2CC(c3cc(F)ccc3F)=NN2c2ccc(S(N)(=O)=O)cc2)c1OC
REMARK SMILES IDX 21 1 22 2 23 3 24 4 29 5 30 6 20 7 8 8 9 9 10 10 19 11 7 12
REMARK SMILES IDX 3 13 4 14 31 15 5 16 6 17 2 18 1 19 32 20 33 21 11 22 12 23
REMARK SMILES IDX 17 24 13 25 16 26 15 27 18 28 14 29 25 30 27 31 28 32 26 33
REMARK H PARENT 26 34 26 35
ROOT
ATOM      1  C   UNL     1       2.039  -0.473   0.074  1.00  0.00     0.060 A 
ATOM      2  C   UNL     1       1.905  -1.572   0.941  1.00  0.00     0.029 A 
ATOM      3  C   UNL     1       2.917  -2.531   1.076  1.00  0.00     0.024 A 
ATOM      4  C   UNL     1       4.088  -2.408   0.330  1.00  0.00     0.082 A 
ATOM      5  C   UNL     1       4.261  -1.327  -0.531  1.00  0.00     0.024 A 
ATOM      6  C   UNL     1       3.239  -0.379  -0.655  1.00  0.00     0.029 A 
ENDROOT
BRANCH   1   7
ATOM      7  N   UNL     1       1.037   0.486  -0.076  1.00  0.00    -0.257 N 
ATOM      8  C   UNL     1      -0.213   0.541   0.692  1.00  0.00     0.148 C 
ATOM      9  C   UNL     1      -0.678   1.981   0.471  1.00  0.00     0.091 C 
ATOM     10  C   UNL     1       0.264   2.411  -0.619  1.00  0.00     0.074 C 
ATOM     11  N   UNL     1       1.223   1.574  -0.878  1.00  0.00    -0.176 NA
BRANCH   8  12
ATOM     12  C   UNL     1      -1.269  -0.449   0.215  1.00  0.00     0.023 A 
ATOM     13  C   UNL     1      -3.303  -1.746   0.672  1.00  0.00     0.161 A 
ATOM     14  C   UNL     1      -3.245  -2.269  -0.623  1.00  0.00     0.050 A 
ATOM     15  C   UNL     1      -2.332  -0.806   1.072  1.00  0.00     0.166 A 
ATOM     16  C   UNL     1      -2.227  -1.886  -1.496  1.00  0.00     0.004 A 
ATOM     17  C   UNL     1      -1.248  -0.987  -1.082  1.00  0.00     0.010 A 
BRANCH  13  18
ATOM     18  O   UNL     1      -4.250  -2.097   1.599  1.00  0.00    -0.493 OA
ATOM     19  C   UNL     1      -5.111  -3.183   1.282  1.00  0.00     0.278 C 
ENDBRANCH  13  18
BRANCH  15  20
ATOM     20  O   UNL     1      -2.313  -0.231   2.323  1.00  0.00    -0.492 OA
ATOM     21  C   UNL     1      -3.542   0.399   2.682  1.00  0.00     0.278 C 
ENDBRANCH  15  20
ENDBRANCH   8  12
BRANCH  10  22
ATOM     22  C   UNL     1       0.126   3.704  -1.324  1.00  0.00     0.037 A 
ATOM     23  C   UNL     1       0.966   3.967  -2.414  1.00  0.00     0.052 A 
ATOM     24  C   UNL     1      -0.807   4.670  -0.938  1.00  0.00     0.132 A 
ATOM     25  C   UNL     1       0.855   5.176  -3.095  1.00  0.00     0.124 A 
ATOM     26  C   UNL     1      -0.913   5.880  -1.625  1.00  0.00     0.043 A 
ATOM     27  C   UNL     1      -0.077   6.134  -2.711  1.00  0.00     0.042 A 
ATOM     28  F   UNL     1      -1.624   4.473   0.106  1.00  0.00    -0.206 F 
ATOM     29  F   UNL     1       1.657   5.421  -4.138  1.00  0.00    -0.207 F 
ENDBRANCH  10  22
ENDBRANCH   1   7
BRANCH   4  30
ATOM     30  S   UNL     1       5.380  -3.597   0.517  1.00  0.00     0.238 S 
ATOM     31  O   UNL     1       5.218  -4.287   1.776  1.00  0.00    -0.207 OA
ATOM     32  O   UNL     1       6.637  -3.009   0.116  1.00  0.00    -0.207 OA
BRANCH  30  33
ATOM     33  N   UNL     1       4.997  -4.718  -0.672  1.00  0.00    -0.225 NA
ATOM     34  H   UNL     1       4.788  -5.619  -0.243  1.00  0.00     0.137 HD
ATOM     35  H   UNL     1       5.744  -4.752  -1.367  1.00  0.00     0.137 HD
ENDBRANCH  30  33
ENDBRANCH   4  30
TORSDOF 7
