REMARK SMILES CC(C)(C)c1cccc(C(=O)C(F)F)c1
REMARK SMILES IDX 5 1 6 2 7 3 8 4 9 5 15 6 2 7 1 8 3 9 4 10 10 11 11 12 12 13
REMARK SMILES IDX 13 14 14 15
REMARK H PARENT
ROOT
ATOM      1  C   UNL     1      -0.499   0.323   0.178  1.00  0.00    -0.042 A 
ATOM      2  C   UNL     1      -0.102   1.598   0.622  1.00  0.00     0.004 A 
ATOM      3  C   UNL     1       1.241   1.983   0.631  1.00  0.00     0.001 A 
ATOM      4  C   UNL     1       2.228   1.101   0.198  1.00  0.00     0.012 A 
ATOM      5  C   UNL     1       1.873  -0.176  -0.243  1.00  0.00     0.024 A 
ATOM      6  C   UNL     1       0.516  -0.550  -0.254  1.00  0.00     0.016 A 
ENDROOT
BRANCH   1   7
ATOM      7  C   UNL     1      -1.988  -0.067   0.179  1.00  0.00    -0.013 C 
ATOM      8  C   UNL     1      -2.262  -1.497  -0.337  1.00  0.00     0.016 C 
ATOM      9  C   UNL     1      -2.544   0.014   1.617  1.00  0.00     0.016 C 
ATOM     10  C   UNL     1      -2.778   0.903  -0.726  1.00  0.00     0.016 C 
ENDBRANCH   1   7
BRANCH   5  11
ATOM     11  C   UNL     1       2.881  -1.166  -0.734  1.00  0.00     0.228 C 
ATOM     12  O   UNL     1       2.485  -2.153  -1.358  1.00  0.00    -0.288 OA
BRANCH  11  13
ATOM     13  C   UNL     1       4.354  -0.889  -0.502  1.00  0.00     0.413 C 
ATOM     14  F   UNL     1       5.125  -2.007  -0.618  1.00  0.00    -0.201 F 
ATOM     15  F   UNL     1       4.618  -0.389   0.739  1.00  0.00    -0.201 F 
ENDBRANCH  11  13
ENDBRANCH   5  11
TORSDOF 3
