REMARK SMILES COc1ccc2c(CC[C@H]3CC[N@@H+](Cc4ccccc4)CC3)noc2c1
REMARK SMILES IDX 9 1 10 2 12 3 13 4 11 5 21 6 22 7 14 9 15 10 16 11 20 12
REMARK SMILES IDX 17 13 19 14 18 15 8 16 7 17 6 18 23 19 5 20 25 21 24 22 4 23
REMARK SMILES IDX 26 24 3 25 2 26 1 27
REMARK H PARENT 13 8
ROOT
ATOM      1  C   UNL     1      -0.739  -0.414   1.488  1.00  0.00     0.010 C 
ENDROOT
BRANCH   1   2
ATOM      2  C   UNL     1      -1.892   0.440   0.917  1.00  0.00     0.000 C 
ATOM      3  C   UNL     1      -1.842  -0.445  -1.483  1.00  0.00     0.262 C 
ATOM      4  N   UNL     1      -3.211  -1.045  -1.270  1.00  0.00    -0.331 N 
ATOM      5  C   UNL     1      -1.652   0.762  -0.569  1.00  0.00     0.065 C 
ATOM      6  C   UNL     1      -3.459  -1.435   0.170  1.00  0.00     0.262 C 
ATOM      7  C   UNL     1      -3.279  -0.210   1.061  1.00  0.00     0.065 C 
ATOM      8  H   UNL     1      -3.908  -0.327  -1.508  1.00  0.00     0.348 HD
BRANCH   4   9
ATOM      9  C   UNL     1      -3.455  -2.194  -2.232  1.00  0.00     0.299 C 
BRANCH   9  10
ATOM     10  C   UNL     1      -4.900  -2.612  -2.303  1.00  0.00     0.006 A 
ATOM     11  C   UNL     1      -5.858  -1.776  -2.899  1.00  0.00     0.009 A 
ATOM     12  C   UNL     1      -5.314  -3.840  -1.761  1.00  0.00     0.009 A 
ATOM     13  C   UNL     1      -7.199  -2.160  -2.947  1.00  0.00     0.001 A 
ATOM     14  C   UNL     1      -6.657  -4.220  -1.814  1.00  0.00     0.001 A 
ATOM     15  C   UNL     1      -7.597  -3.380  -2.405  1.00  0.00     0.000 A 
ENDBRANCH   9  10
ENDBRANCH   4   9
ENDBRANCH   1   2
BRANCH   1  16
ATOM     16  C   UNL     1      -0.834  -0.663   3.002  1.00  0.00     0.061 C 
BRANCH  16  17
ATOM     17  C   UNL     1       0.236  -1.574   3.502  1.00  0.00     0.091 A 
ATOM     18  C   UNL     1       1.152  -1.367   4.566  1.00  0.00     0.045 A 
ATOM     19  N   UNL     1       0.386  -2.787   2.949  1.00  0.00    -0.084 NA
ATOM     20  C   UNL     1       1.450  -0.354   5.489  1.00  0.00     0.018 A 
ATOM     21  C   UNL     1       1.872  -2.547   4.618  1.00  0.00     0.170 A 
ATOM     22  O   UNL     1       1.418  -3.391   3.653  1.00  0.00    -0.356 OA
ATOM     23  C   UNL     1       2.471  -0.593   6.425  1.00  0.00     0.047 A 
ATOM     24  C   UNL     1       2.893  -2.818   5.530  1.00  0.00     0.097 A 
ATOM     25  C   UNL     1       3.179  -1.804   6.454  1.00  0.00     0.122 A 
BRANCH  25  26
ATOM     26  O   UNL     1       4.120  -1.876   7.448  1.00  0.00    -0.497 OA
ATOM     27  C   UNL     1       4.867  -3.085   7.548  1.00  0.00     0.278 C 
ENDBRANCH  25  26
ENDBRANCH  16  17
ENDBRANCH   1  16
TORSDOF 6
