REMARK SMILES COc1ccc([C@H]2CC(c3cc(F)ccc3F)=NN2c2ccc(S(N)(=O)=O)cc2)cc1OC
REMARK SMILES IDX 20 1 21 2 22 3 23 4 28 5 29 6 19 7 7 8 8 9 9 10 18 11 6 12
REMARK SMILES IDX 3 13 4 14 31 15 5 16 30 17 2 18 1 19 32 20 33 21 10 22 11 23
REMARK SMILES IDX 16 24 12 25 15 26 14 27 17 28 13 29 24 30 26 31 27 32 25 33
REMARK H PARENT 25 34 25 35
ROOT
ATOM      1  C   UNL     1      -1.949  -0.891   0.591  1.00  0.00     0.060 A 
ATOM      2  C   UNL     1      -1.467  -1.765   1.581  1.00  0.00     0.029 A 
ATOM      3  C   UNL     1      -2.015  -3.040   1.768  1.00  0.00     0.024 A 
ATOM      4  C   UNL     1      -3.062  -3.467   0.952  1.00  0.00     0.082 A 
ATOM      5  C   UNL     1      -3.575  -2.624  -0.030  1.00  0.00     0.024 A 
ATOM      6  C   UNL     1      -3.015  -1.354  -0.204  1.00  0.00     0.029 A 
ENDROOT
BRANCH   1   7
ATOM      7  N   UNL     1      -1.415   0.380   0.391  1.00  0.00    -0.257 N 
ATOM      8  C   UNL     1      -0.305   0.977   1.135  1.00  0.00     0.144 C 
ATOM      9  C   UNL     1      -0.395   2.450   0.734  1.00  0.00     0.091 C 
ATOM     10  C   UNL     1      -1.321   2.351  -0.451  1.00  0.00     0.074 C 
ATOM     11  N   UNL     1      -1.900   1.199  -0.589  1.00  0.00    -0.176 NA
BRANCH   8  12
ATOM     12  C   UNL     1       1.054   0.397   0.773  1.00  0.00    -0.019 A 
ATOM     13  C   UNL     1       3.628  -0.639   0.171  1.00  0.00     0.160 A 
ATOM     14  C   UNL     1       2.611  -0.625  -0.792  1.00  0.00     0.051 A 
ATOM     15  C   UNL     1       3.361  -0.094   1.438  1.00  0.00     0.161 A 
ATOM     16  C   UNL     1       1.344  -0.109  -0.498  1.00  0.00     0.010 A 
ATOM     17  C   UNL     1       2.079   0.400   1.729  1.00  0.00     0.056 A 
BRANCH  13  18
ATOM     18  O   UNL     1       4.870  -1.169  -0.056  1.00  0.00    -0.493 OA
ATOM     19  C   UNL     1       5.076  -1.891  -1.263  1.00  0.00     0.278 C 
ENDBRANCH  13  18
BRANCH  15  20
ATOM     20  O   UNL     1       4.213  -0.003   2.510  1.00  0.00    -0.493 OA
ATOM     21  C   UNL     1       5.606   0.060   2.233  1.00  0.00     0.278 C 
ENDBRANCH  15  20
ENDBRANCH   8  12
BRANCH  10  22
ATOM     22  C   UNL     1      -1.559   3.505  -1.345  1.00  0.00     0.037 A 
ATOM     23  C   UNL     1      -1.150   4.790  -0.970  1.00  0.00     0.052 A 
ATOM     24  C   UNL     1      -2.200   3.330  -2.578  1.00  0.00     0.132 A 
ATOM     25  C   UNL     1      -1.389   5.865  -1.823  1.00  0.00     0.124 A 
ATOM     26  C   UNL     1      -2.434   4.415  -3.425  1.00  0.00     0.043 A 
ATOM     27  C   UNL     1      -2.026   5.691  -3.046  1.00  0.00     0.042 A 
ATOM     28  F   UNL     1      -2.595   2.121  -3.000  1.00  0.00    -0.206 F 
ATOM     29  F   UNL     1      -0.996   7.091  -1.455  1.00  0.00    -0.207 F 
ENDBRANCH  10  22
ENDBRANCH   1   7
BRANCH   4  30
ATOM     30  S   UNL     1      -3.777  -5.062   1.203  1.00  0.00     0.238 S 
ATOM     31  O   UNL     1      -5.121  -5.076   0.672  1.00  0.00    -0.207 OA
ATOM     32  O   UNL     1      -3.470  -5.519   2.539  1.00  0.00    -0.207 OA
BRANCH  30  33
ATOM     33  N   UNL     1      -2.865  -6.021   0.170  1.00  0.00    -0.225 NA
ATOM     34  H   UNL     1      -2.353  -6.719   0.709  1.00  0.00     0.137 HD
ATOM     35  H   UNL     1      -3.464  -6.413  -0.556  1.00  0.00     0.137 HD
ENDBRANCH  30  33
ENDBRANCH   4  30
TORSDOF 7
