REMARK SMILES C[N+](C)(CCNC(=O)C(=O)NCC[N+](C)(C)Cc1ccccc1Cl)Cc1ccccc1Cl
REMARK SMILES IDX 6 1 7 2 8 3 5 5 4 6 2 7 1 8 3 9 25 10 26 11 27 12 31 13
REMARK SMILES IDX 28 14 30 15 29 16 32 17 9 18 11 19 10 20 12 22 13 23 14 24
REMARK SMILES IDX 15 25 16 26 17 27 18 28 19 29 23 30 20 31 22 32 21 33 24 34
REMARK H PARENT 6 4 11 21
ROOT
ATOM      1  N   UNL     1       1.468  -0.122  -1.340  1.00  0.00    -0.342 N 
ATOM      2  C   UNL     1       0.675  -0.725  -0.390  1.00  0.00     0.309 C 
ATOM      3  O   UNL     1       0.957  -1.747   0.218  1.00  0.00    -0.264 OA
ATOM      4  H   UNL     1       1.067   0.688  -1.815  1.00  0.00     0.164 HD
ENDROOT
BRANCH   1   5
ATOM      5  C   UNL     1       2.676  -0.746  -1.851  1.00  0.00     0.177 C 
BRANCH   5   6
ATOM      6  C   UNL     1       3.808  -0.843  -0.801  1.00  0.00     0.285 C 
BRANCH   6   7
ATOM      7  N   UNL     1       5.146  -1.397  -1.333  1.00  0.00    -0.323 N 
ATOM      8  C   UNL     1       5.768  -0.450  -2.352  1.00  0.00     0.334 C 
ATOM      9  C   UNL     1       4.949  -2.764  -1.992  1.00  0.00     0.334 C 
BRANCH   7  10
ATOM     10  C   UNL     1       6.143  -1.620  -0.144  1.00  0.00     0.301 C 
BRANCH  10  11
ATOM     11  C   UNL     1       6.459  -0.439   0.744  1.00  0.00     0.025 A 
ATOM     12  C   UNL     1       5.625  -0.170   1.849  1.00  0.00     0.011 A 
ATOM     13  C   UNL     1       7.578   0.391   0.548  1.00  0.00     0.049 A 
ATOM     14  C   UNL     1       5.879   0.909   2.699  1.00  0.00     0.001 A 
ATOM     15  C   UNL     1       7.827   1.472   1.399  1.00  0.00     0.021 A 
ATOM     16  C   UNL     1       6.975   1.733   2.470  1.00  0.00     0.002 A 
ATOM     17  Cl  UNL     1       8.712   0.117  -0.725  1.00  0.00    -0.084 Cl
ENDBRANCH  10  11
ENDBRANCH   7  10
ENDBRANCH   6   7
ENDBRANCH   5   6
ENDBRANCH   1   5
BRANCH   2  18
ATOM     18  C   UNL     1      -0.658   0.010  -0.111  1.00  0.00     0.309 C 
ATOM     19  N   UNL     1      -1.438  -0.566   0.875  1.00  0.00    -0.342 N 
ATOM     20  O   UNL     1      -0.943   1.020  -0.735  1.00  0.00    -0.264 OA
ATOM     21  H   UNL     1      -0.959  -1.295   1.404  1.00  0.00     0.164 HD
BRANCH  19  22
ATOM     22  C   UNL     1      -2.464   0.211   1.554  1.00  0.00     0.177 C 
BRANCH  22  23
ATOM     23  C   UNL     1      -3.662   0.696   0.699  1.00  0.00     0.285 C 
BRANCH  23  24
ATOM     24  N   UNL     1      -4.660  -0.400   0.246  1.00  0.00    -0.323 N 
ATOM     25  C   UNL     1      -5.271  -1.123   1.436  1.00  0.00     0.334 C 
ATOM     26  C   UNL     1      -3.973  -1.422  -0.655  1.00  0.00     0.334 C 
BRANCH  24  27
ATOM     27  C   UNL     1      -5.785   0.265  -0.621  1.00  0.00     0.301 C 
BRANCH  27  28
ATOM     28  C   UNL     1      -6.672   1.294   0.042  1.00  0.00     0.025 A 
ATOM     29  C   UNL     1      -7.793   0.862   0.780  1.00  0.00     0.011 A 
ATOM     30  C   UNL     1      -6.456   2.679  -0.074  1.00  0.00     0.049 A 
ATOM     31  C   UNL     1      -8.640   1.778   1.407  1.00  0.00     0.001 A 
ATOM     32  C   UNL     1      -7.306   3.593   0.556  1.00  0.00     0.021 A 
ATOM     33  C   UNL     1      -8.393   3.142   1.300  1.00  0.00     0.002 A 
ATOM     34  Cl  UNL     1      -5.152   3.330  -1.002  1.00  0.00    -0.084 Cl
ENDBRANCH  27  28
ENDBRANCH  24  27
ENDBRANCH  23  24
ENDBRANCH  22  23
ENDBRANCH  19  22
ENDBRANCH   2  18
TORSDOF 11
