REMARK SMILES O=C(c1cnn(C2CCCC2)c1)C(F)(F)F
REMARK SMILES IDX 1 1 2 2 3 3 4 4 12 5 5 6 6 7 7 8 8 9 11 10 9 11 10 12 13 13
REMARK SMILES IDX 14 14 15 15 16 16
REMARK H PARENT
ROOT
ATOM      1  O   UNL     1       3.105   2.048  -0.338  1.00  0.00    -0.284 OA
ATOM      2  C   UNL     1       3.249   0.828  -0.218  1.00  0.00     0.269 C 
ENDROOT
BRANCH   2   3
ATOM      3  C   UNL     1       2.090  -0.029   0.008  1.00  0.00     0.065 A 
ATOM      4  C   UNL     1       2.011  -1.430   0.173  1.00  0.00     0.147 A 
ATOM      5  C   UNL     1       0.776   0.388   0.109  1.00  0.00     0.121 A 
ATOM      6  N   UNL     1       0.761  -1.856   0.360  1.00  0.00    -0.180 NA
ATOM      7  N   UNL     1       0.022  -0.731   0.321  1.00  0.00    -0.269 N 
BRANCH   7   8
ATOM      8  C   UNL     1      -1.420  -0.816   0.487  1.00  0.00     0.107 C 
ATOM      9  C   UNL     1      -1.970   0.107   1.589  1.00  0.00     0.027 C 
ATOM     10  C   UNL     1      -2.187  -0.455  -0.796  1.00  0.00     0.027 C 
ATOM     11  C   UNL     1      -2.808   1.149   0.859  1.00  0.00     0.002 C 
ATOM     12  C   UNL     1      -3.368   0.383  -0.327  1.00  0.00     0.002 C 
ENDBRANCH   7   8
ENDBRANCH   2   3
BRANCH   2  13
ATOM     13  C   UNL     1       4.614   0.150  -0.295  1.00  0.00     0.454 C 
ATOM     14  F   UNL     1       4.678  -0.769  -1.302  1.00  0.00    -0.163 F 
ATOM     15  F   UNL     1       4.919  -0.529   0.848  1.00  0.00    -0.163 F 
ATOM     16  F   UNL     1       5.642   1.018  -0.507  1.00  0.00    -0.163 F 
ENDBRANCH   2  13
TORSDOF 3
