REMARK SMILES CC1=C[C@@H]2Cc3nc4cc(Cl)ccc4c(N)c3[C@H](C1)C2
REMARK SMILES IDX 1 1 2 2 3 3 4 4 5 5 6 6 7 7 8 8 9 9 10 10 11 11 12 12 13 13
REMARK SMILES IDX 14 14 15 15 17 16 18 17 19 18 20 19 16 20
REMARK H PARENT 16 21 16 22
ROOT
ATOM      1  C   UNL     1      -0.780   0.173   3.271  1.00  0.00     0.039 C 
ATOM      2  C   UNL     1      -0.738  -0.276   1.834  1.00  0.00    -0.076 C 
ATOM      3  C   UNL     1      -1.195  -1.483   1.514  1.00  0.00    -0.024 C 
ATOM      4  C   UNL     1      -1.534  -1.548  -1.271  1.00  0.00     0.018 C 
ATOM      5  C   UNL     1      -0.755  -2.096  -0.124  1.00  0.00     0.064 C 
ATOM      6  C   UNL     1       0.379  -1.137  -0.107  1.00  0.00     0.047 A 
ATOM      7  N   UNL     1       1.643  -1.573   0.017  1.00  0.00    -0.252 NA
ATOM      8  C   UNL     1       2.709  -0.734   0.037  1.00  0.00     0.074 A 
ATOM      9  C   UNL     1       4.008  -1.213   0.167  1.00  0.00     0.049 A 
ATOM     10  C   UNL     1       5.093  -0.351   0.187  1.00  0.00     0.043 A 
ATOM     11  Cl  UNL     1       6.726  -0.968   0.351  1.00  0.00    -0.084 Cl
ATOM     12  C   UNL     1       4.904   1.026   0.077  1.00  0.00     0.021 A 
ATOM     13  C   UNL     1       3.611   1.489  -0.052  1.00  0.00     0.014 A 
ATOM     14  C   UNL     1       2.548   0.621  -0.070  1.00  0.00     0.024 A 
ATOM     15  C   UNL     1       1.257   1.125  -0.201  1.00  0.00     0.046 A 
ATOM     16  C   UNL     1       0.202   0.235  -0.217  1.00  0.00     0.001 A 
ATOM     17  C   UNL     1      -1.214   0.697  -0.354  1.00  0.00     0.028 C 
ATOM     18  C   UNL     1      -0.204   0.581   0.753  1.00  0.00     0.039 C 
ATOM     19  C   UNL     1      -2.256  -0.246  -0.956  1.00  0.00     0.017 C 
ENDROOT
BRANCH  15  20
ATOM     20  N   UNL     1       1.013   2.532  -0.318  1.00  0.00    -0.398 N 
ATOM     21  H   UNL     1       1.373   3.158   0.432  1.00  0.00     0.156 HD
ATOM     22  H   UNL     1       0.482   2.878  -1.153  1.00  0.00     0.156 HD
ENDBRANCH  15  20
TORSDOF 1
