REMARK SMILES CCNC(=O)Oc1ccc2c(c1)[C@]1(C)CCO[C@@H]1O2
REMARK SMILES IDX 3 1 4 2 5 3 2 5 1 6 6 7 7 8 8 9 12 10 9 11 11 12 10 13 13 14
REMARK SMILES IDX 19 15 15 16 18 17 16 18 17 19 14 20
REMARK H PARENT 3 4
ROOT
ATOM      1  N   UNL     1       3.999  -0.914   0.422  1.00  0.00    -0.321 N 
ATOM      2  C   UNL     1       2.763  -0.464   0.048  1.00  0.00     0.412 C 
ATOM      3  O   UNL     1       2.284  -0.598  -1.070  1.00  0.00    -0.224 OA
ATOM      4  H   UNL     1       4.306  -0.662   1.352  1.00  0.00     0.167 HD
ENDROOT
BRANCH   1   5
ATOM      5  C   UNL     1       4.919  -1.526  -0.506  1.00  0.00     0.116 C 
ATOM      6  C   UNL     1       5.712  -0.487  -1.279  1.00  0.00     0.027 C 
ENDBRANCH   1   5
BRANCH   2   7
ATOM      7  O   UNL     1       2.162   0.164   1.129  1.00  0.00    -0.410 OA
BRANCH   7   8
ATOM      8  C   UNL     1       0.873   0.676   0.918  1.00  0.00     0.133 A 
ATOM      9  C   UNL     1       0.680   2.043   1.176  1.00  0.00     0.051 A 
ATOM     10  C   UNL     1      -0.186  -0.157   0.546  1.00  0.00     0.055 A 
ATOM     11  C   UNL     1      -0.588   2.606   1.029  1.00  0.00     0.051 A 
ATOM     12  C   UNL     1      -1.437   0.420   0.408  1.00  0.00     0.010 A 
ATOM     13  C   UNL     1      -1.625   1.775   0.651  1.00  0.00     0.127 A 
ATOM     14  C   UNL     1      -2.726  -0.176  -0.029  1.00  0.00     0.061 C 
ATOM     15  O   UNL     1      -2.912   2.203   0.455  1.00  0.00    -0.464 OA
ATOM     16  C   UNL     1      -2.864  -0.274  -1.540  1.00  0.00     0.047 C 
ATOM     17  C   UNL     1      -3.680   0.982   0.313  1.00  0.00     0.317 C 
ATOM     18  C   UNL     1      -4.295   0.158  -1.776  1.00  0.00     0.166 C 
ATOM     19  O   UNL     1      -4.629   1.103  -0.757  1.00  0.00    -0.342 OA
ATOM     20  C   UNL     1      -3.102  -1.473   0.682  1.00  0.00     0.023 C 
ENDBRANCH   7   8
ENDBRANCH   2   7
TORSDOF 3
