REMARK SMILES C[N@H+]1CC[C@H](CCc2c(O)nc3ccccc3c2O)CC1
REMARK SMILES IDX 7 1 8 2 18 3 17 4 9 5 16 6 12 7 11 8 15 9 13 10 14 11 19 12
REMARK SMILES IDX 10 14 6 16 5 17 4 18 20 19 3 20 21 21 2 22 1 23
REMARK H PARENT 19 13 10 15 2 24
ROOT
ATOM      1  C   UNL     1      -1.356   2.816   1.725  1.00  0.00     0.045 C 
ENDROOT
BRANCH   1   2
ATOM      2  C   UNL     1      -0.318   3.893   1.575  1.00  0.00     0.056 A 
ATOM      3  C   UNL     1       1.051   3.626   1.559  1.00  0.00     0.133 A 
ATOM      4  C   UNL     1       2.003   4.658   1.379  1.00  0.00     0.043 A 
ATOM      5  C   UNL     1      -0.669   5.218   1.416  1.00  0.00     0.218 A 
ATOM      6  C   UNL     1       3.405   4.463   1.309  1.00  0.00     0.014 A 
ATOM      7  C   UNL     1       1.491   5.969   1.246  1.00  0.00     0.078 A 
ATOM      8  N   UNL     1       0.178   6.245   1.265  1.00  0.00    -0.213 NA
ATOM      9  C   UNL     1       4.274   5.541   1.138  1.00  0.00     0.001 A 
ATOM     10  C   UNL     1       2.379   7.023   1.080  1.00  0.00     0.029 A 
ATOM     11  C   UNL     1       3.760   6.825   1.028  1.00  0.00     0.002 A 
BRANCH   3  12
ATOM     12  O   UNL     1       1.427   2.314   1.724  1.00  0.00    -0.507 OA
ATOM     13  H   UNL     1       2.330   2.296   2.082  1.00  0.00     0.293 HD
ENDBRANCH   3  12
BRANCH   5  14
ATOM     14  O   UNL     1      -1.971   5.603   1.389  1.00  0.00    -0.493 OA
ATOM     15  H   UNL     1      -1.851   6.566   1.286  1.00  0.00     0.295 HD
ENDBRANCH   5  14
ENDBRANCH   1   2
BRANCH   1  16
ATOM     16  C   UNL     1      -1.760   2.241   0.362  1.00  0.00     0.009 C 
BRANCH  16  17
ATOM     17  C   UNL     1      -2.929   1.240   0.441  1.00  0.00     0.000 C 
ATOM     18  C   UNL     1      -2.566  -0.023   1.236  1.00  0.00     0.065 C 
ATOM     19  C   UNL     1      -3.380   0.859  -0.978  1.00  0.00     0.065 C 
ATOM     20  C   UNL     1      -3.693  -1.046   1.230  1.00  0.00     0.262 C 
ATOM     21  C   UNL     1      -4.506  -0.164  -0.964  1.00  0.00     0.262 C 
ATOM     22  N   UNL     1      -4.064  -1.382  -0.192  1.00  0.00    -0.337 N 
ATOM     23  C   UNL     1      -5.087  -2.482  -0.256  1.00  0.00     0.332 C 
ATOM     24  H   UNL     1      -3.217  -1.745  -0.652  1.00  0.00     0.347 HD
ENDBRANCH  16  17
ENDBRANCH   1  16
TORSDOF 5
