REMARK SMILES O=C(CC[C@H]1CC[N@H+](Cc2ccccc2)CC1)c1cc2c3c(c1)CC(=O)N3CCC2
REMARK SMILES IDX 4 1 5 2 7 3 8 4 6 5 16 6 17 7 9 9 10 10 11 11 15 12 12 13
REMARK SMILES IDX 14 14 13 15 3 16 2 17 1 18 18 19 19 20 23 21 20 22 22 23
REMARK SMILES IDX 21 24 30 25 24 26 27 27 29 28 25 29 28 30 26 31
REMARK H PARENT 8 8
ROOT
ATOM      1  C   UNL     1      -2.076   3.185  -2.285  1.00  0.00     0.012 C 
ENDROOT
BRANCH   1   2
ATOM      2  C   UNL     1      -3.007   1.942  -2.310  1.00  0.00     0.000 C 
ATOM      3  C   UNL     1      -2.762  -0.612  -1.871  1.00  0.00     0.262 C 
ATOM      4  N   UNL     1      -3.325  -0.285  -0.523  1.00  0.00    -0.331 N 
ATOM      5  C   UNL     1      -2.176   0.649  -2.481  1.00  0.00     0.065 C 
ATOM      6  C   UNL     1      -4.516   0.608  -0.679  1.00  0.00     0.262 C 
ATOM      7  C   UNL     1      -4.047   1.966  -1.169  1.00  0.00     0.065 C 
ATOM      8  H   UNL     1      -2.596   0.257  -0.010  1.00  0.00     0.348 HD
BRANCH   4   9
ATOM      9  C   UNL     1      -3.614  -1.496   0.326  1.00  0.00     0.299 C 
BRANCH   9  10
ATOM     10  C   UNL     1      -2.377  -2.245   0.745  1.00  0.00     0.006 A 
ATOM     11  C   UNL     1      -2.111  -3.527   0.240  1.00  0.00     0.009 A 
ATOM     12  C   UNL     1      -1.463  -1.666   1.641  1.00  0.00     0.009 A 
ATOM     13  C   UNL     1      -0.953  -4.209   0.617  1.00  0.00     0.001 A 
ATOM     14  C   UNL     1      -0.306  -2.351   2.015  1.00  0.00     0.001 A 
ATOM     15  C   UNL     1      -0.051  -3.621   1.501  1.00  0.00     0.000 A 
ENDBRANCH   9  10
ENDBRANCH   4   9
ENDBRANCH   1   2
BRANCH   1  16
ATOM     16  C   UNL     1      -1.415   3.566  -0.948  1.00  0.00     0.081 C 
BRANCH  16  17
ATOM     17  C   UNL     1      -0.757   2.412  -0.206  1.00  0.00     0.162 C 
ATOM     18  O   UNL     1      -1.441   1.542   0.346  1.00  0.00    -0.294 OA
BRANCH  17  19
ATOM     19  C   UNL     1       0.730   2.297  -0.169  1.00  0.00     0.018 A 
ATOM     20  C   UNL     1       1.548   2.898  -1.158  1.00  0.00     0.017 A 
ATOM     21  C   UNL     1       1.297   1.519   0.864  1.00  0.00     0.018 A 
ATOM     22  C   UNL     1       2.937   2.752  -1.108  1.00  0.00    -0.023 A 
ATOM     23  C   UNL     1       2.669   1.370   0.891  1.00  0.00    -0.014 A 
ATOM     24  C   UNL     1       3.442   1.982  -0.081  1.00  0.00     0.051 A 
ATOM     25  C   UNL     1       3.894   3.315  -2.122  1.00  0.00     0.039 C 
ATOM     26  C   UNL     1       3.573   0.609   1.817  1.00  0.00     0.138 C 
ATOM     27  N   UNL     1       4.784   1.707   0.118  1.00  0.00    -0.312 N 
ATOM     28  C   UNL     1       5.316   3.445  -1.542  1.00  0.00     0.027 C 
ATOM     29  C   UNL     1       4.968   0.855   1.202  1.00  0.00     0.231 C 
ATOM     30  C   UNL     1       5.774   2.163  -0.834  1.00  0.00     0.126 C 
ATOM     31  O   UNL     1       6.017   0.378   1.599  1.00  0.00    -0.274 OA
ENDBRANCH  17  19
ENDBRANCH  16  17
ENDBRANCH   1  16
TORSDOF 6
