REMARK SMILES CC1=C[C@H]2Cc3nc4cc(Cl)ccc4c(N)c3[C@@H](C1)C2
REMARK SMILES IDX 1 1 2 2 3 3 4 4 5 5 6 6 7 7 8 8 9 9 10 10 11 11 12 12 13 13
REMARK SMILES IDX 14 14 15 15 17 16 18 17 19 18 20 19 16 20
REMARK H PARENT 16 21 16 22
ROOT
ATOM      1  C   UNL     1       0.125   1.610   2.276  1.00  0.00     0.039 C 
ATOM      2  C   UNL     1      -0.620   0.864   1.216  1.00  0.00    -0.076 C 
ATOM      3  C   UNL     1      -1.546   1.516   0.553  1.00  0.00    -0.024 C 
ATOM      4  C   UNL     1      -1.642   0.050  -2.036  1.00  0.00     0.018 C 
ATOM      5  C   UNL     1      -1.088   1.268  -1.382  1.00  0.00     0.064 C 
ATOM      6  C   UNL     1       0.160   0.762  -0.807  1.00  0.00     0.047 A 
ATOM      7  N   UNL     1       1.277   1.493  -0.930  1.00  0.00    -0.252 NA
ATOM      8  C   UNL     1       2.418   1.017  -0.398  1.00  0.00     0.074 A 
ATOM      9  C   UNL     1       3.569   1.763  -0.522  1.00  0.00     0.049 A 
ATOM     10  C   UNL     1       4.790   1.342   0.001  1.00  0.00     0.043 A 
ATOM     11  Cl  UNL     1       6.212   2.367  -0.207  1.00  0.00    -0.084 Cl
ATOM     12  C   UNL     1       4.867   0.134   0.670  1.00  0.00     0.021 A 
ATOM     13  C   UNL     1       3.709  -0.607   0.789  1.00  0.00     0.014 A 
ATOM     14  C   UNL     1       2.499  -0.186   0.270  1.00  0.00     0.024 A 
ATOM     15  C   UNL     1       1.368  -0.956   0.411  1.00  0.00     0.046 A 
ATOM     16  C   UNL     1       0.202  -0.461  -0.138  1.00  0.00     0.001 A 
ATOM     17  C   UNL     1      -1.077  -1.245  -0.026  1.00  0.00     0.028 C 
ATOM     18  C   UNL     1      -0.252  -0.553   1.001  1.00  0.00     0.039 C 
ATOM     19  C   UNL     1      -2.158  -0.998  -1.076  1.00  0.00     0.017 C 
ENDROOT
BRANCH  15  20
ATOM     20  N   UNL     1       1.390  -2.207   1.090  1.00  0.00    -0.398 N 
ATOM     21  H   UNL     1       1.676  -2.310   2.096  1.00  0.00     0.156 HD
ATOM     22  H   UNL     1       1.103  -3.063   0.544  1.00  0.00     0.156 HD
ENDBRANCH  15  20
TORSDOF 1
