REMARK SMILES COc1cc2c(cc1OC)C(=O)/C(=C/c1cc[n+](Cc3cccc(C)c3)cc1)C2
REMARK SMILES IDX 15 1 16 2 17 3 18 4 27 5 28 6 14 7 13 8 3 9 4 10 8 11 5 12
REMARK SMILES IDX 7 13 6 14 29 15 11 16 12 17 2 18 1 19 9 20 10 21 19 22 20 23
REMARK SMILES IDX 21 24 26 25 22 26 24 27 23 28 25 29
REMARK H PARENT
ROOT
ATOM      1  C   UNL     1       0.780   0.716  -0.507  1.00  0.00    -0.013 A 
ATOM      2  C   UNL     1       1.209  -0.495   0.028  1.00  0.00     0.079 A 
ATOM      3  C   UNL     1       2.286  -1.158  -0.553  1.00  0.00     0.309 A 
ATOM      4  N   UNL     1       2.924  -0.634  -1.626  1.00  0.00    -0.201 N 
ATOM      5  C   UNL     1       2.524   0.544  -2.156  1.00  0.00     0.309 A 
ATOM      6  C   UNL     1       1.454   1.241  -1.607  1.00  0.00     0.079 A 
ENDROOT
BRANCH   1   7
ATOM      7  C   UNL     1      -0.310   1.483   0.094  1.00  0.00     0.016 C 
BRANCH   7   8
ATOM      8  C   UNL     1      -1.567   1.048   0.258  1.00  0.00     0.005 C 
ATOM      9  C   UNL     1      -5.989  -0.529   0.638  1.00  0.00     0.161 A 
ATOM     10  C   UNL     1      -4.723  -0.934   0.185  1.00  0.00     0.055 A 
ATOM     11  C   UNL     1      -6.175   0.764   1.204  1.00  0.00     0.161 A 
ATOM     12  C   UNL     1      -3.663  -0.049   0.301  1.00  0.00    -0.028 A 
ATOM     13  C   UNL     1      -5.096   1.646   1.315  1.00  0.00     0.063 A 
ATOM     14  C   UNL     1      -3.866   1.212   0.858  1.00  0.00     0.030 A 
ATOM     15  C   UNL     1      -2.234  -0.256  -0.104  1.00  0.00     0.076 C 
ATOM     16  C   UNL     1      -2.600   1.948   0.863  1.00  0.00     0.189 C 
ATOM     17  O   UNL     1      -2.423   3.076   1.273  1.00  0.00    -0.289 OA
BRANCH   9  18
ATOM     18  O   UNL     1      -7.115  -1.315   0.577  1.00  0.00    -0.493 OA
ATOM     19  C   UNL     1      -6.996  -2.613   0.014  1.00  0.00     0.278 C 
ENDBRANCH   9  18
BRANCH  11  20
ATOM     20  O   UNL     1      -7.453   1.056   1.615  1.00  0.00    -0.493 OA
ATOM     21  C   UNL     1      -7.688   2.334   2.191  1.00  0.00     0.278 C 
ENDBRANCH  11  20
ENDBRANCH   7   8
ENDBRANCH   1   7
BRANCH   4  22
ATOM     22  C   UNL     1       4.072  -1.364  -2.225  1.00  0.00     0.393 C 
BRANCH  22  23
ATOM     23  C   UNL     1       5.243  -1.409  -1.278  1.00  0.00     0.017 A 
ATOM     24  C   UNL     1       5.739  -2.641  -0.827  1.00  0.00     0.010 A 
ATOM     25  C   UNL     1       5.858  -0.225  -0.837  1.00  0.00     0.013 A 
ATOM     26  C   UNL     1       6.812  -2.686   0.062  1.00  0.00     0.001 A 
ATOM     27  C   UNL     1       6.946  -0.266   0.045  1.00  0.00    -0.051 A 
ATOM     28  C   UNL     1       7.406  -1.505   0.503  1.00  0.00     0.003 A 
ATOM     29  C   UNL     1       7.579   1.003   0.540  1.00  0.00     0.044 C 
ENDBRANCH  22  23
ENDBRANCH   4  22
TORSDOF 6
