REMARK SMILES NC(=O)c1ccc2c(CC[C@H]3CC[N@H+](Cc4ccccc4)CC3)noc2c1
REMARK SMILES IDX 10 1 11 2 13 3 14 4 12 5 22 6 23 7 15 9 16 10 17 11 21 12
REMARK SMILES IDX 18 13 20 14 19 15 9 16 8 17 7 18 24 19 6 20 26 21 25 22 5 23
REMARK SMILES IDX 27 24 4 25 2 26 1 27 3 28
REMARK H PARENT 14 8 1 29 1 30
ROOT
ATOM      1  C   UNL     1       1.005   0.706  -1.237  1.00  0.00     0.010 C 
ENDROOT
BRANCH   1   2
ATOM      2  C   UNL     1      -0.528   0.859  -1.271  1.00  0.00     0.000 C 
ATOM      3  C   UNL     1      -2.788  -0.273  -1.156  1.00  0.00     0.262 C 
ATOM      4  N   UNL     1      -3.220   0.755  -0.136  1.00  0.00    -0.331 N 
ATOM      5  C   UNL     1      -1.276  -0.465  -1.080  1.00  0.00     0.065 C 
ATOM      6  C   UNL     1      -2.536   2.084  -0.339  1.00  0.00     0.262 C 
ATOM      7  C   UNL     1      -1.026   1.899  -0.256  1.00  0.00     0.065 C 
ATOM      8  H   UNL     1      -2.946   0.400   0.788  1.00  0.00     0.348 HD
BRANCH   4   9
ATOM      9  C   UNL     1      -4.727   0.921  -0.080  1.00  0.00     0.299 C 
BRANCH   9  10
ATOM     10  C   UNL     1      -5.431  -0.287   0.474  1.00  0.00     0.006 A 
ATOM     11  C   UNL     1      -6.169  -1.133  -0.369  1.00  0.00     0.009 A 
ATOM     12  C   UNL     1      -5.345  -0.596   1.841  1.00  0.00     0.009 A 
ATOM     13  C   UNL     1      -6.798  -2.267   0.145  1.00  0.00     0.001 A 
ATOM     14  C   UNL     1      -5.977  -1.732   2.349  1.00  0.00     0.001 A 
ATOM     15  C   UNL     1      -6.700  -2.567   1.502  1.00  0.00     0.000 A 
ENDBRANCH   9  10
ENDBRANCH   4   9
ENDBRANCH   1   2
BRANCH   1  16
ATOM     16  C   UNL     1       1.576  -0.004  -0.001  1.00  0.00     0.061 C 
BRANCH  16  17
ATOM     17  C   UNL     1       3.011   0.328   0.217  1.00  0.00     0.091 A 
ATOM     18  C   UNL     1       4.167  -0.343  -0.255  1.00  0.00     0.045 A 
ATOM     19  N   UNL     1       3.326   1.409   0.942  1.00  0.00    -0.084 NA
ATOM     20  C   UNL     1       4.464  -1.475  -1.033  1.00  0.00     0.015 A 
ATOM     21  C   UNL     1       5.212   0.422   0.234  1.00  0.00     0.167 A 
ATOM     22  O   UNL     1       4.711   1.464   0.949  1.00  0.00    -0.356 OA
ATOM     23  C   UNL     1       5.814  -1.785  -1.276  1.00  0.00     0.015 A 
ATOM     24  C   UNL     1       6.558   0.152   0.014  1.00  0.00     0.064 A 
ATOM     25  C   UNL     1       6.846  -0.988  -0.753  1.00  0.00     0.043 A 
BRANCH  25  26
ATOM     26  C   UNL     1       8.277  -1.292  -1.017  1.00  0.00     0.248 C 
ATOM     27  N   UNL     1       8.608  -2.587  -1.300  1.00  0.00    -0.366 N 
ATOM     28  O   UNL     1       9.134  -0.421  -0.954  1.00  0.00    -0.270 OA
ATOM     29  H   UNL     1       9.602  -2.780  -1.348  1.00  0.00     0.159 HD
ATOM     30  H   UNL     1       8.005  -3.362  -1.068  1.00  0.00     0.159 HD
ENDBRANCH  25  26
ENDBRANCH  16  17
ENDBRANCH   1  16
TORSDOF 6
