REMARK SMILES Cc1ccccc1C[N@H+]1CC[C@H](C)CC1
REMARK SMILES IDX 8 1 9 2 10 3 15 4 11 5 14 6 12 7 13 9 7 10 6 11 2 12 5 13
REMARK SMILES IDX 3 14 4 15 1 16
REMARK H PARENT 9 8
ROOT
ATOM      1  C   UNL     1       1.360   0.230   0.217  1.00  0.00     0.299 C 
ENDROOT
BRANCH   1   2
ATOM      2  N   UNL     1      -0.139   0.178  -0.007  1.00  0.00    -0.331 N 
ATOM      3  C   UNL     1      -0.763   1.541   0.147  1.00  0.00     0.262 C 
ATOM      4  C   UNL     1      -0.822  -0.862   0.848  1.00  0.00     0.262 C 
ATOM      5  C   UNL     1      -2.238   1.477  -0.223  1.00  0.00     0.065 C 
ATOM      6  C   UNL     1      -2.300  -0.934   0.485  1.00  0.00     0.065 C 
ATOM      7  C   UNL     1      -2.985   0.430   0.609  1.00  0.00    -0.003 C 
ATOM      8  H   UNL     1      -0.264  -0.117  -0.984  1.00  0.00     0.348 HD
ATOM      9  C   UNL     1      -4.449   0.344   0.184  1.00  0.00     0.008 C 
ENDBRANCH   1   2
BRANCH   1  10
ATOM     10  C   UNL     1       2.087  -0.965  -0.349  1.00  0.00     0.009 A 
ATOM     11  C   UNL     1       2.472  -1.998   0.527  1.00  0.00     0.010 A 
ATOM     12  C   UNL     1       2.374  -1.090  -1.727  1.00  0.00    -0.042 A 
ATOM     13  C   UNL     1       3.111  -3.141   0.050  1.00  0.00     0.001 A 
ATOM     14  C   UNL     1       3.015  -2.252  -2.188  1.00  0.00     0.004 A 
ATOM     15  C   UNL     1       3.378  -3.269  -1.307  1.00  0.00     0.000 A 
ATOM     16  C   UNL     1       2.045  -0.013  -2.727  1.00  0.00     0.045 C 
ENDBRANCH   1  10
TORSDOF 2
