REMARK SMILES C=C(O)c1c[n+](Cc2cccc(Cl)c2)ccc1C[C@H]1Cc2cc(OC)c(O)cc2C1=O
REMARK SMILES IDX 4 1 5 2 6 3 15 4 16 5 17 6 2 7 1 8 3 9 18 11 19 12 20 13
REMARK SMILES IDX 30 14 21 15 29 16 22 17 28 18 23 19 26 20 31 21 24 22 25 23
REMARK SMILES IDX 27 24 7 26 8 27 9 28 14 29 10 30 12 31 11 32 13 33
REMARK H PARENT 3 10 27 25
ROOT
ATOM      1  C   UNL     1      -1.558   1.286  -0.163  1.00  0.00     0.083 A 
ATOM      2  C   UNL     1      -2.650   1.068   0.685  1.00  0.00     0.320 A 
ATOM      3  N   UNL     1      -2.964  -0.170   1.127  1.00  0.00    -0.200 N 
ATOM      4  C   UNL     1      -2.213  -1.236   0.771  1.00  0.00     0.308 A 
ATOM      5  C   UNL     1      -1.105  -1.077  -0.054  1.00  0.00     0.075 A 
ATOM      6  C   UNL     1      -0.755   0.193  -0.531  1.00  0.00    -0.024 A 
ENDROOT
BRANCH   1   7
ATOM      7  C   UNL     1      -1.319   2.675  -0.577  1.00  0.00     0.121 C 
ATOM      8  C   UNL     1      -1.364   3.087  -1.848  1.00  0.00     0.059 C 
BRANCH   7   9
ATOM      9  O   UNL     1      -1.099   3.537   0.471  1.00  0.00    -0.508 OA
ATOM     10  H   UNL     1      -0.868   4.413   0.107  1.00  0.00     0.293 HD
ENDBRANCH   7   9
ENDBRANCH   1   7
BRANCH   6  11
ATOM     11  C   UNL     1       0.477   0.327  -1.407  1.00  0.00     0.049 C 
BRANCH  11  12
ATOM     12  C   UNL     1       1.661   1.002  -0.710  1.00  0.00     0.070 C 
ATOM     13  C   UNL     1       2.392   0.092   0.306  1.00  0.00     0.048 C 
ATOM     14  C   UNL     1       2.724   1.367  -1.727  1.00  0.00     0.167 C 
ATOM     15  C   UNL     1       3.830   0.155  -0.105  1.00  0.00    -0.032 A 
ATOM     16  C   UNL     1       4.017   0.871  -1.281  1.00  0.00     0.025 A 
ATOM     17  C   UNL     1       4.918  -0.427   0.533  1.00  0.00     0.055 A 
ATOM     18  C   UNL     1       5.252   1.042  -1.874  1.00  0.00     0.062 A 
ATOM     19  C   UNL     1       6.193  -0.274  -0.031  1.00  0.00     0.160 A 
ATOM     20  C   UNL     1       6.342   0.460  -1.232  1.00  0.00     0.158 A 
ATOM     21  O   UNL     1       2.549   1.992  -2.757  1.00  0.00    -0.294 OA
BRANCH  19  22
ATOM     22  O   UNL     1       7.346  -0.796   0.494  1.00  0.00    -0.493 OA
ATOM     23  C   UNL     1       7.258  -1.492   1.728  1.00  0.00     0.278 C 
ENDBRANCH  19  22
BRANCH  20  24
ATOM     24  O   UNL     1       7.595   0.595  -1.771  1.00  0.00    -0.504 OA
ATOM     25  H   UNL     1       7.549   1.122  -2.585  1.00  0.00     0.293 HD
ENDBRANCH  20  24
ENDBRANCH  11  12
ENDBRANCH   6  11
BRANCH   3  26
ATOM     26  C   UNL     1      -4.132  -0.359   2.022  1.00  0.00     0.393 C 
BRANCH  26  27
ATOM     27  C   UNL     1      -5.244  -1.095   1.318  1.00  0.00     0.018 A 
ATOM     28  C   UNL     1      -5.703  -2.329   1.807  1.00  0.00     0.010 A 
ATOM     29  C   UNL     1      -5.847  -0.558   0.169  1.00  0.00     0.030 A 
ATOM     30  C   UNL     1      -6.730  -3.014   1.153  1.00  0.00     0.002 A 
ATOM     31  C   UNL     1      -6.872  -1.251  -0.480  1.00  0.00     0.041 A 
ATOM     32  C   UNL     1      -7.313  -2.477   0.007  1.00  0.00     0.020 A 
ATOM     33  Cl  UNL     1      -7.585  -0.579  -1.892  1.00  0.00    -0.084 Cl
ENDBRANCH  26  27
ENDBRANCH   3  26
TORSDOF 8
