REMARK SMILES COc1ccc(NC(=O)C2CCN(C(=O)c3ccccc3)CC2)cc1
REMARK SMILES IDX 3 1 4 2 5 3 6 4 24 5 25 6 2 7 1 8 7 9 8 10 9 12 10 13 11 14
REMARK SMILES IDX 23 15 12 16 22 17 13 18 14 19 15 20 16 21 17 22 21 23 18 24
REMARK SMILES IDX 20 25 19 26
REMARK H PARENT 7 11
ROOT
ATOM      1  C   UNL     1      -3.162  -5.727  -3.236  1.00  0.00     0.119 A 
ATOM      2  C   UNL     1      -1.943  -6.256  -2.813  1.00  0.00     0.048 A 
ATOM      3  C   UNL     1      -1.088  -5.511  -1.994  1.00  0.00     0.030 A 
ATOM      4  C   UNL     1      -1.440  -4.221  -1.583  1.00  0.00     0.041 A 
ATOM      5  C   UNL     1      -2.660  -3.694  -2.009  1.00  0.00     0.030 A 
ATOM      6  C   UNL     1      -3.517  -4.442  -2.830  1.00  0.00     0.048 A 
ENDROOT
BRANCH   1   7
ATOM      7  O   UNL     1      -3.903  -6.556  -4.031  1.00  0.00    -0.497 OA
ATOM      8  C   UNL     1      -5.159  -6.061  -4.479  1.00  0.00     0.278 C 
ENDBRANCH   1   7
BRANCH   4   9
ATOM      9  N   UNL     1      -0.523  -3.534  -0.761  1.00  0.00    -0.326 N 
ATOM     10  C   UNL     1      -0.663  -2.270  -0.211  1.00  0.00     0.227 C 
ATOM     11  H   UNL     1       0.320  -4.043  -0.530  1.00  0.00     0.169 HD
ATOM     12  O   UNL     1      -1.636  -1.534  -0.330  1.00  0.00    -0.274 OA
BRANCH  10  13
ATOM     13  C   UNL     1       0.567  -1.852   0.599  1.00  0.00     0.082 C 
ATOM     14  C   UNL     1       1.767  -1.617  -0.327  1.00  0.00     0.035 C 
ATOM     15  C   UNL     1       0.290  -0.582   1.413  1.00  0.00     0.035 C 
ATOM     16  C   UNL     1       2.986  -1.144   0.457  1.00  0.00     0.120 C 
ATOM     17  C   UNL     1       1.530  -0.133   2.176  1.00  0.00     0.120 C 
ATOM     18  N   UNL     1       2.684   0.017   1.294  1.00  0.00    -0.339 N 
ATOM     19  C   UNL     1       3.706   0.860   1.756  1.00  0.00     0.253 C 
ATOM     20  O   UNL     1       3.687   1.407   2.857  1.00  0.00    -0.269 OA
BRANCH  19  21
ATOM     21  C   UNL     1       4.858   1.136   0.866  1.00  0.00     0.040 A 
ATOM     22  C   UNL     1       6.153   1.058   1.389  1.00  0.00     0.014 A 
ATOM     23  C   UNL     1       4.656   1.536  -0.460  1.00  0.00     0.014 A 
ATOM     24  C   UNL     1       7.248   1.340   0.572  1.00  0.00     0.001 A 
ATOM     25  C   UNL     1       5.754   1.818  -1.273  1.00  0.00     0.001 A 
ATOM     26  C   UNL     1       7.048   1.714  -0.758  1.00  0.00     0.000 A 
ENDBRANCH  19  21
ENDBRANCH  10  13
ENDBRANCH   4   9
TORSDOF 4
