REMARK SMILES COc1ccc(OC)c([C@@H]2C=C(c3cc(F)ccc3F)NN2c2ccc(S(N)(=O)=O)cc2)c1
REMARK SMILES IDX 23 1 24 2 25 3 26 4 31 5 32 6 22 7 21 8 12 9 11 10 10 11
REMARK SMILES IDX 13 13 14 14 19 15 15 16 18 17 17 18 20 19 16 20 9 21 33 22
REMARK SMILES IDX 6 23 3 24 5 25 4 26 7 27 8 28 2 29 1 30 27 31 29 32 30 33
REMARK SMILES IDX 28 34
REMARK H PARENT 21 12 28 35 28 36
ROOT
ATOM      1  C   UNL     1       1.722  -0.087   0.729  1.00  0.00     0.058 A 
ATOM      2  C   UNL     1       2.962   0.159   0.109  1.00  0.00     0.029 A 
ATOM      3  C   UNL     1       4.068  -0.674   0.311  1.00  0.00     0.024 A 
ATOM      4  C   UNL     1       3.942  -1.784   1.142  1.00  0.00     0.082 A 
ATOM      5  C   UNL     1       2.736  -2.049   1.788  1.00  0.00     0.024 A 
ATOM      6  C   UNL     1       1.640  -1.205   1.576  1.00  0.00     0.029 A 
ENDROOT
BRANCH   1   7
ATOM      7  N   UNL     1       0.639   0.758   0.497  1.00  0.00    -0.276 N 
ATOM      8  N   UNL     1       0.692   1.980  -0.150  1.00  0.00    -0.297 N 
ATOM      9  C   UNL     1      -0.538   2.620  -0.058  1.00  0.00     0.063 C 
ATOM     10  C   UNL     1      -1.425   1.814   0.550  1.00  0.00     0.033 C 
ATOM     11  C   UNL     1      -0.761   0.506   0.953  1.00  0.00     0.165 C 
ATOM     12  H   UNL     1       1.464   2.599   0.111  1.00  0.00     0.188 HD
BRANCH   9  13
ATOM     13  C   UNL     1      -0.745   3.994  -0.528  1.00  0.00     0.038 A 
ATOM     14  C   UNL     1      -2.009   4.422  -0.960  1.00  0.00     0.052 A 
ATOM     15  C   UNL     1       0.312   4.917  -0.585  1.00  0.00     0.132 A 
ATOM     16  C   UNL     1      -2.192   5.726  -1.417  1.00  0.00     0.124 A 
ATOM     17  C   UNL     1       0.125   6.222  -1.042  1.00  0.00     0.043 A 
ATOM     18  C   UNL     1      -1.138   6.630  -1.461  1.00  0.00     0.042 A 
ATOM     19  F   UNL     1       1.544   4.564  -0.180  1.00  0.00    -0.206 F 
ATOM     20  F   UNL     1      -3.408   6.114  -1.823  1.00  0.00    -0.207 F 
ENDBRANCH   9  13
BRANCH  11  21
ATOM     21  C   UNL     1      -1.422  -0.687   0.280  1.00  0.00     0.026 A 
ATOM     22  C   UNL     1      -1.185  -0.967  -1.083  1.00  0.00     0.056 A 
ATOM     23  C   UNL     1      -2.314  -1.509   0.993  1.00  0.00     0.124 A 
ATOM     24  C   UNL     1      -1.794  -2.045  -1.726  1.00  0.00     0.119 A 
ATOM     25  C   UNL     1      -2.922  -2.590   0.346  1.00  0.00     0.050 A 
ATOM     26  C   UNL     1      -2.662  -2.857  -1.004  1.00  0.00     0.050 A 
BRANCH  23  27
ATOM     27  O   UNL     1      -2.522  -1.175   2.305  1.00  0.00    -0.496 OA
ATOM     28  C   UNL     1      -3.413  -1.988   3.059  1.00  0.00     0.278 C 
ENDBRANCH  23  27
BRANCH  24  29
ATOM     29  O   UNL     1      -1.461  -2.192  -3.043  1.00  0.00    -0.497 OA
ATOM     30  C   UNL     1      -2.079  -3.259  -3.751  1.00  0.00     0.278 C 
ENDBRANCH  24  29
ENDBRANCH  11  21
ENDBRANCH   1   7
BRANCH   4  31
ATOM     31  S   UNL     1       5.323  -2.863   1.395  1.00  0.00     0.238 S 
ATOM     32  O   UNL     1       5.184  -3.494   2.686  1.00  0.00    -0.207 OA
ATOM     33  O   UNL     1       6.527  -2.176   0.989  1.00  0.00    -0.207 OA
BRANCH  31  34
ATOM     34  N   UNL     1       5.049  -4.034   0.213  1.00  0.00    -0.225 NA
ATOM     35  H   UNL     1       4.135  -3.946  -0.229  1.00  0.00     0.137 HD
ATOM     36  H   UNL     1       5.806  -3.991  -0.471  1.00  0.00     0.137 HD
ENDBRANCH  31  34
ENDBRANCH   4  31
TORSDOF 7
