REMARK SMILES O=C1C(=NCCN=c2c3c([nH]c4cc(Cl)ccc24)CCCC3)CC(=O)c2c(O)cccc21
REMARK SMILES IDX 5 1 6 2 7 3 8 4 11 5 10 6 12 7 9 8 19 9 13 10 18 11 22 12
REMARK SMILES IDX 20 13 14 14 17 15 21 16 16 17 15 19 4 20 3 21 23 22 2 23
REMARK SMILES IDX 24 24 32 25 26 26 31 27 27 28 30 29 29 30 1 31 25 32 28 33
REMARK H PARENT 11 18 28 34
ROOT
ATOM      1  C   UNL     1       1.016   0.017  -1.033  1.00  0.00     0.166 C 
ENDROOT
BRANCH   1   2
ATOM      2  C   UNL     1      -0.386   0.651  -1.097  1.00  0.00     0.166 C 
BRANCH   2   3
ATOM      3  N   UNL     1      -1.209   0.114  -0.026  1.00  0.00    -0.282 NA
BRANCH   3   4
ATOM      4  C   UNL     1      -2.499   0.077  -0.002  1.00  0.00     0.072 A 
ATOM      5  N   UNL     1      -5.146  -0.885  -0.134  1.00  0.00    -0.358 N 
ATOM      6  C   UNL     1      -4.380  -1.161   0.980  1.00  0.00     0.021 A 
ATOM      7  C   UNL     1      -4.774   0.143  -1.016  1.00  0.00     0.049 A 
ATOM      8  C   UNL     1      -3.119  -0.711   1.125  1.00  0.00    -0.003 A 
ATOM      9  C   UNL     1      -5.030  -2.022   2.043  1.00  0.00     0.054 C 
ATOM     10  C   UNL     1      -5.696   0.617  -1.960  1.00  0.00     0.047 A 
ATOM     11  C   UNL     1      -3.472   0.683  -0.973  1.00  0.00     0.024 A 
ATOM     12  C   UNL     1      -2.259  -0.994   2.328  1.00  0.00     0.039 C 
ATOM     13  C   UNL     1      -4.047  -2.598   3.063  1.00  0.00     0.007 C 
ATOM     14  C   UNL     1      -5.355   1.675  -2.797  1.00  0.00     0.043 A 
ATOM     15  C   UNL     1      -3.167   1.783  -1.784  1.00  0.00     0.014 A 
ATOM     16  C   UNL     1      -3.051  -1.538   3.517  1.00  0.00     0.005 C 
ATOM     17  C   UNL     1      -4.102   2.273  -2.700  1.00  0.00     0.021 A 
ATOM     18  H   UNL     1      -6.133  -1.106  -0.072  1.00  0.00     0.166 HD
ATOM     19  Cl  UNL     1      -6.500   2.269  -3.936  1.00  0.00    -0.084 Cl
ENDBRANCH   3   4
ENDBRANCH   2   3
ENDBRANCH   1   2
BRANCH   1  20
ATOM     20  N   UNL     1       1.751   0.552   0.119  1.00  0.00    -0.283 NA
BRANCH  20  21
ATOM     21  C   UNL     1       2.991   0.239   0.278  1.00  0.00     0.091 C 
ATOM     22  C   UNL     1       3.741   0.772   1.457  1.00  0.00     0.141 C 
ATOM     23  C   UNL     1       3.814  -0.622  -0.652  1.00  0.00     0.208 C 
ATOM     24  C   UNL     1       5.107   1.295   1.118  1.00  0.00     0.173 C 
ATOM     25  C   UNL     1       5.191  -0.169  -0.914  1.00  0.00     0.038 A 
ATOM     26  C   UNL     1       5.802   0.776  -0.086  1.00  0.00     0.071 A 
ATOM     27  C   UNL     1       5.878  -0.700  -2.016  1.00  0.00     0.013 A 
ATOM     28  C   UNL     1       7.105   1.197  -0.387  1.00  0.00     0.127 A 
ATOM     29  C   UNL     1       7.173  -0.272  -2.302  1.00  0.00     0.005 A 
ATOM     30  C   UNL     1       7.785   0.681  -1.489  1.00  0.00     0.047 A 
ATOM     31  O   UNL     1       3.360  -1.633  -1.160  1.00  0.00    -0.287 OA
ATOM     32  O   UNL     1       5.693   2.099   1.843  1.00  0.00    -0.294 OA
BRANCH  28  33
ATOM     33  O   UNL     1       7.791   2.115   0.363  1.00  0.00    -0.507 OA
ATOM     34  H   UNL     1       7.227   2.387   1.123  1.00  0.00     0.293 HD
ENDBRANCH  28  33
ENDBRANCH  20  21
ENDBRANCH   1  20
TORSDOF 6
