REMARK SMILES COc1ccc(/C=C/C(=O)Nc2cc[n+](Cc3ccc(F)cc3)cc2)cc1OC
REMARK SMILES IDX 9 1 10 2 11 3 8 5 7 6 6 7 3 8 4 9 27 10 5 11 26 12 2 13 1 14
REMARK SMILES IDX 28 15 29 16 12 17 13 18 25 19 14 20 24 21 15 22 16 23 17 24
REMARK SMILES IDX 18 25 23 26 19 27 22 28 20 29 21 30
REMARK H PARENT 11 4
ROOT
ATOM      1  C   UNL     1       0.387   0.478  -1.857  1.00  0.00     0.248 C 
ATOM      2  O   UNL     1      -0.021   0.963  -2.904  1.00  0.00    -0.270 OA
ATOM      3  N   UNL     1      -0.307  -0.375  -1.022  1.00  0.00    -0.322 N 
ATOM      4  H   UNL     1       0.227  -0.779  -0.260  1.00  0.00     0.170 HD
ENDROOT
BRANCH   1   5
ATOM      5  C   UNL     1       1.788   0.730  -1.437  1.00  0.00     0.072 C 
BRANCH   5   6
ATOM      6  C   UNL     1       2.136   0.977  -0.164  1.00  0.00     0.014 C 
BRANCH   6   7
ATOM      7  C   UNL     1       3.518   1.254   0.247  1.00  0.00    -0.022 A 
ATOM      8  C   UNL     1       6.154   1.762   1.153  1.00  0.00     0.160 A 
ATOM      9  C   UNL     1       5.065   2.480   1.664  1.00  0.00     0.051 A 
ATOM     10  C   UNL     1       5.915   0.791   0.167  1.00  0.00     0.161 A 
ATOM     11  C   UNL     1       3.762   2.227   1.218  1.00  0.00     0.012 A 
ATOM     12  C   UNL     1       4.603   0.530  -0.258  1.00  0.00     0.058 A 
BRANCH   8  13
ATOM     13  O   UNL     1       7.442   1.929   1.586  1.00  0.00    -0.493 OA
ATOM     14  C   UNL     1       7.692   2.899   2.595  1.00  0.00     0.278 C 
ENDBRANCH   8  13
BRANCH  10  15
ATOM     15  O   UNL     1       6.843  -0.022  -0.435  1.00  0.00    -0.493 OA
ATOM     16  C   UNL     1       8.132   0.541  -0.653  1.00  0.00     0.278 C 
ENDBRANCH  10  15
ENDBRANCH   6   7
ENDBRANCH   5   6
ENDBRANCH   1   5
BRANCH   3  17
ATOM     17  C   UNL     1      -1.641  -0.802  -1.176  1.00  0.00     0.053 A 
ATOM     18  C   UNL     1      -2.495  -0.334  -2.170  1.00  0.00     0.097 A 
ATOM     19  C   UNL     1      -2.129  -1.745  -0.275  1.00  0.00     0.097 A 
ATOM     20  C   UNL     1      -3.797  -0.815  -2.251  1.00  0.00     0.310 A 
ATOM     21  C   UNL     1      -3.439  -2.201  -0.392  1.00  0.00     0.310 A 
ATOM     22  N   UNL     1      -4.251  -1.731  -1.368  1.00  0.00    -0.201 N 
BRANCH  22  23
ATOM     23  C   UNL     1      -5.642  -2.239  -1.478  1.00  0.00     0.393 C 
BRANCH  23  24
ATOM     24  C   UNL     1      -6.484  -1.777  -0.314  1.00  0.00     0.017 A 
ATOM     25  C   UNL     1      -7.051  -2.716   0.567  1.00  0.00     0.013 A 
ATOM     26  C   UNL     1      -6.721  -0.408  -0.095  1.00  0.00     0.013 A 
ATOM     27  C   UNL     1      -7.824  -2.291   1.649  1.00  0.00     0.040 A 
ATOM     28  C   UNL     1      -7.495   0.009   0.989  1.00  0.00     0.040 A 
ATOM     29  C   UNL     1      -8.037  -0.934   1.852  1.00  0.00     0.123 A 
ATOM     30  F   UNL     1      -8.777  -0.530   2.892  1.00  0.00    -0.207 F 
ENDBRANCH  23  24
ENDBRANCH  22  23
ENDBRANCH   3  17
TORSDOF 8
