REMARK SMILES CCOCC[n+]1ccc(CCC(=O)[C@H]2Cc3cc(OC)c(OC)cc3S2)cc1
REMARK SMILES IDX 6 1 7 2 8 3 9 4 27 5 28 6 5 7 4 8 3 9 2 10 1 11 10 12 11 13
REMARK SMILES IDX 12 14 13 15 14 16 15 17 26 18 16 19 25 20 17 21 24 22 18 23
REMARK SMILES IDX 21 24 19 25 20 26 22 27 23 28
REMARK H PARENT
ROOT
ATOM      1  N   UNL     1       2.872   0.272  -0.071  1.00  0.00    -0.203 N 
ATOM      2  C   UNL     1       2.824  -1.042  -0.393  1.00  0.00     0.308 A 
ATOM      3  C   UNL     1       2.418  -1.989   0.543  1.00  0.00     0.074 A 
ATOM      4  C   UNL     1       2.057  -1.581   1.826  1.00  0.00    -0.036 A 
ATOM      5  C   UNL     1       2.127  -0.222   2.136  1.00  0.00     0.074 A 
ATOM      6  C   UNL     1       2.535   0.689   1.170  1.00  0.00     0.308 A 
ENDROOT
BRANCH   1   7
ATOM      7  C   UNL     1       3.285   1.263  -1.099  1.00  0.00     0.385 C 
BRANCH   7   8
ATOM      8  C   UNL     1       4.809   1.346  -1.152  1.00  0.00     0.233 C 
BRANCH   8   9
ATOM      9  O   UNL     1       5.319   0.109  -1.655  1.00  0.00    -0.375 OA
BRANCH   9  10
ATOM     10  C   UNL     1       6.746   0.086  -1.762  1.00  0.00     0.157 C 
ATOM     11  C   UNL     1       7.216   0.773  -3.031  1.00  0.00     0.035 C 
ENDBRANCH   9  10
ENDBRANCH   8   9
ENDBRANCH   7   8
ENDBRANCH   1   7
BRANCH   4  12
ATOM     12  C   UNL     1       1.543  -2.573   2.846  1.00  0.00     0.044 C 
BRANCH  12  13
ATOM     13  C   UNL     1       0.073  -2.936   2.627  1.00  0.00     0.081 C 
BRANCH  13  14
ATOM     14  C   UNL     1      -0.844  -1.731   2.791  1.00  0.00     0.146 C 
ATOM     15  O   UNL     1      -0.630  -0.893   3.670  1.00  0.00    -0.298 OA
BRANCH  14  16
ATOM     16  C   UNL     1      -2.025  -1.629   1.839  1.00  0.00     0.123 C 
ATOM     17  C   UNL     1      -3.071  -0.586   2.265  1.00  0.00     0.059 C 
ATOM     18  S   UNL     1      -1.432  -1.107   0.183  1.00  0.00    -0.114 SA
ATOM     19  C   UNL     1      -3.701  -0.059   1.006  1.00  0.00    -0.029 A 
ATOM     20  C   UNL     1      -2.937  -0.239  -0.146  1.00  0.00     0.015 A 
ATOM     21  C   UNL     1      -4.909   0.630   0.948  1.00  0.00     0.055 A 
ATOM     22  C   UNL     1      -3.361   0.239  -1.376  1.00  0.00     0.065 A 
ATOM     23  C   UNL     1      -5.359   1.120  -0.284  1.00  0.00     0.161 A 
ATOM     24  C   UNL     1      -4.584   0.916  -1.453  1.00  0.00     0.161 A 
BRANCH  23  25
ATOM     25  O   UNL     1      -6.532   1.811  -0.460  1.00  0.00    -0.493 OA
ATOM     26  C   UNL     1      -7.370   1.996   0.672  1.00  0.00     0.278 C 
ENDBRANCH  23  25
BRANCH  24  27
ATOM     27  O   UNL     1      -5.098   1.440  -2.614  1.00  0.00    -0.493 OA
ATOM     28  C   UNL     1      -4.523   1.012  -3.840  1.00  0.00     0.278 C 
ENDBRANCH  24  27
ENDBRANCH  14  16
ENDBRANCH  13  14
ENDBRANCH  12  13
ENDBRANCH   4  12
TORSDOF 10
