REMARK SMILES COc1cc2c(cc1OC)SC(=C(O)CCc1cc[n+](Cc3coc([N+](=O)[O-])c3)cc1)C2
REMARK SMILES IDX 16 1 15 2 13 3 14 4 12 6 32 7 11 8 5 9 6 10 4 11 7 12 3 13
REMARK SMILES IDX 8 14 2 15 1 16 9 17 10 18 17 19 18 20 31 21 19 22 30 23
REMARK SMILES IDX 20 24 21 25 22 26 23 27 29 28 24 29 25 30 26 31 27 32 28 33
REMARK H PARENT 14 5
ROOT
ATOM      1  C   UNL     1       1.277  -2.340  -0.127  1.00  0.00     0.044 C 
ENDROOT
BRANCH   1   2
ATOM      2  C   UNL     1       0.463  -2.719   1.117  1.00  0.00     0.080 C 
BRANCH   2   3
ATOM      3  C   UNL     1      -0.465  -1.624   1.606  1.00  0.00     0.103 C 
BRANCH   3   4
ATOM      4  O   UNL     1       0.108  -0.848   2.604  1.00  0.00    -0.511 OA
ATOM      5  H   UNL     1      -0.597  -0.426   3.127  1.00  0.00     0.293 HD
ENDBRANCH   3   4
BRANCH   3   6
ATOM      6  C   UNL     1      -1.727  -1.416   1.174  1.00  0.00     0.032 C 
ATOM      7  C   UNL     1      -2.647  -0.314   1.672  1.00  0.00     0.083 C 
ATOM      8  S   UNL     1      -2.464  -2.370  -0.111  1.00  0.00    -0.090 SA
ATOM      9  C   UNL     1      -3.883  -0.331   0.820  1.00  0.00    -0.025 A 
ATOM     10  C   UNL     1      -3.914  -1.348  -0.133  1.00  0.00     0.020 A 
ATOM     11  C   UNL     1      -4.945   0.563   0.932  1.00  0.00     0.055 A 
ATOM     12  C   UNL     1      -4.993  -1.494  -0.994  1.00  0.00     0.066 A 
ATOM     13  C   UNL     1      -6.043   0.431   0.073  1.00  0.00     0.161 A 
ATOM     14  C   UNL     1      -6.066  -0.602  -0.897  1.00  0.00     0.161 A 
BRANCH  13  15
ATOM     15  O   UNL     1      -7.138   1.261   0.088  1.00  0.00    -0.493 OA
ATOM     16  C   UNL     1      -7.241   2.206   1.143  1.00  0.00     0.278 C 
ENDBRANCH  13  15
BRANCH  14  17
ATOM     17  O   UNL     1      -7.181  -0.645  -1.698  1.00  0.00    -0.493 OA
ATOM     18  C   UNL     1      -7.294  -1.719  -2.620  1.00  0.00     0.278 C 
ENDBRANCH  14  17
ENDBRANCH   3   6
ENDBRANCH   2   3
ENDBRANCH   1   2
BRANCH   1  19
ATOM     19  C   UNL     1       2.269  -1.223   0.108  1.00  0.00    -0.036 A 
ATOM     20  C   UNL     1       3.442  -1.452   0.825  1.00  0.00     0.074 A 
ATOM     21  C   UNL     1       2.016   0.064  -0.366  1.00  0.00     0.074 A 
ATOM     22  C   UNL     1       4.326  -0.404   1.051  1.00  0.00     0.308 A 
ATOM     23  C   UNL     1       2.929   1.081  -0.117  1.00  0.00     0.308 A 
ATOM     24  N   UNL     1       4.063   0.837   0.579  1.00  0.00    -0.201 N 
BRANCH  24  25
ATOM     25  C   UNL     1       5.021   1.938   0.840  1.00  0.00     0.397 C 
BRANCH  25  26
ATOM     26  C   UNL     1       6.169   1.859  -0.107  1.00  0.00     0.063 A 
ATOM     27  C   UNL     1       7.484   1.558   0.207  1.00  0.00     0.213 A 
ATOM     28  C   UNL     1       6.160   2.088  -1.520  1.00  0.00     0.143 A 
ATOM     29  O   UNL     1       8.267   1.568  -0.904  1.00  0.00    -0.409 OA
ATOM     30  C   UNL     1       7.455   1.895  -1.942  1.00  0.00     0.433 A 
BRANCH  30  31
ATOM     31  N   UNL     1       8.057   1.973  -3.237  1.00  0.00     0.102 N 
ATOM     32  O   UNL     1       9.268   1.746  -3.327  1.00  0.00    -0.256 OA
ATOM     33  O   UNL     1       7.291   2.260  -4.166  1.00  0.00    -0.256 OA
ENDBRANCH  30  31
ENDBRANCH  25  26
ENDBRANCH  24  25
ENDBRANCH   1  19
TORSDOF 10
