REMARK SMILES COc1cccc([C@H]2C=C(c3cc(F)ccc3F)NN2c2ccc(S(N)(=O)=O)cc2)c1OC
REMARK SMILES IDX 21 1 22 2 23 3 24 4 29 5 30 6 20 7 19 8 10 9 9 10 8 11 11 13
REMARK SMILES IDX 12 14 17 15 13 16 16 17 15 18 18 19 14 20 7 21 6 22 31 23
REMARK SMILES IDX 5 24 3 25 4 26 32 27 33 28 2 29 1 30 25 31 27 32 28 33 26 34
REMARK H PARENT 19 12 26 35 26 36
ROOT
ATOM      1  C   UNL     1      -1.541   1.120  -0.156  1.00  0.00     0.058 A 
ATOM      2  C   UNL     1      -2.619   1.602   0.611  1.00  0.00     0.029 A 
ATOM      3  C   UNL     1      -3.169   2.871   0.398  1.00  0.00     0.024 A 
ATOM      4  C   UNL     1      -2.645   3.682  -0.605  1.00  0.00     0.082 A 
ATOM      5  C   UNL     1      -1.569   3.245  -1.374  1.00  0.00     0.024 A 
ATOM      6  C   UNL     1      -1.030   1.973  -1.149  1.00  0.00     0.029 A 
ENDROOT
BRANCH   1   7
ATOM      7  N   UNL     1      -1.019  -0.150   0.082  1.00  0.00    -0.276 N 
ATOM      8  N   UNL     1      -1.587  -1.119   0.892  1.00  0.00    -0.297 N 
ATOM      9  C   UNL     1      -0.901  -2.319   0.749  1.00  0.00     0.063 C 
ATOM     10  C   UNL     1       0.159  -2.142  -0.058  1.00  0.00     0.033 C 
ATOM     11  C   UNL     1       0.211  -0.706  -0.556  1.00  0.00     0.165 C 
ATOM     12  H   UNL     1      -2.599  -1.246   0.809  1.00  0.00     0.188 HD
BRANCH   9  13
ATOM     13  C   UNL     1      -1.361  -3.564   1.373  1.00  0.00     0.038 A 
ATOM     14  C   UNL     1      -0.450  -4.574   1.715  1.00  0.00     0.052 A 
ATOM     15  C   UNL     1      -2.717  -3.779   1.669  1.00  0.00     0.132 A 
ATOM     16  C   UNL     1      -0.895  -5.748   2.319  1.00  0.00     0.124 A 
ATOM     17  C   UNL     1      -3.160  -4.957   2.274  1.00  0.00     0.043 A 
ATOM     18  C   UNL     1      -2.241  -5.950   2.600  1.00  0.00     0.042 A 
ATOM     19  F   UNL     1      -3.635  -2.849   1.359  1.00  0.00    -0.206 F 
ATOM     20  F   UNL     1      -0.008  -6.700   2.636  1.00  0.00    -0.207 F 
ENDBRANCH   9  13
BRANCH  11  21
ATOM     21  C   UNL     1       1.493  -0.013  -0.125  1.00  0.00     0.026 A 
ATOM     22  C   UNL     1       1.654   0.461   1.189  1.00  0.00     0.010 A 
ATOM     23  C   UNL     1       2.567   0.128  -1.026  1.00  0.00     0.166 A 
ATOM     24  C   UNL     1       2.831   1.094   1.580  1.00  0.00     0.004 A 
ATOM     25  C   UNL     1       3.744   0.807  -0.648  1.00  0.00     0.161 A 
ATOM     26  C   UNL     1       3.868   1.273   0.664  1.00  0.00     0.050 A 
BRANCH  23  27
ATOM     27  O   UNL     1       2.364  -0.364  -2.296  1.00  0.00    -0.492 OA
ATOM     28  C   UNL     1       3.395  -1.246  -2.737  1.00  0.00     0.278 C 
ENDBRANCH  23  27
BRANCH  25  29
ATOM     29  O   UNL     1       4.704   0.975  -1.613  1.00  0.00    -0.493 OA
ATOM     30  C   UNL     1       5.785   1.849  -1.319  1.00  0.00     0.278 C 
ENDBRANCH  25  29
ENDBRANCH  11  21
ENDBRANCH   1   7
BRANCH   4  31
ATOM     31  S   UNL     1      -3.325   5.292  -0.892  1.00  0.00     0.238 S 
ATOM     32  O   UNL     1      -2.279   6.151  -1.393  1.00  0.00    -0.207 OA
ATOM     33  O   UNL     1      -4.156   5.651   0.235  1.00  0.00    -0.207 OA
BRANCH  31  34
ATOM     34  N   UNL     1      -4.394   4.982  -2.158  1.00  0.00    -0.225 NA
ATOM     35  H   UNL     1      -5.346   5.154  -1.831  1.00  0.00     0.137 HD
ATOM     36  H   UNL     1      -4.289   4.046  -2.549  1.00  0.00     0.137 HD
ENDBRANCH  31  34
ENDBRANCH   4  31
TORSDOF 7
