REMARK SMILES COc1cccc2c1CC[C@@H](NC(=O)OCc1ccccc1)C2
REMARK SMILES IDX 12 1 13 2 14 3 11 5 3 6 4 7 8 8 5 9 7 10 9 11 6 12 23 13
REMARK SMILES IDX 10 14 2 15 1 16 15 17 16 18 17 19 18 20 22 21 19 22 21 23
REMARK SMILES IDX 20 24
REMARK H PARENT 12 4
ROOT
ATOM      1  N   UNL     1       0.690  -0.022  -0.620  1.00  0.00    -0.318 N 
ATOM      2  C   UNL     1       1.637   0.950  -0.509  1.00  0.00     0.407 C 
ATOM      3  O   UNL     1       1.419   2.143  -0.372  1.00  0.00    -0.225 OA
ATOM      4  H   UNL     1       1.048  -0.967  -0.571  1.00  0.00     0.167 HD
ENDROOT
BRANCH   1   5
ATOM      5  C   UNL     1      -0.727   0.236  -0.415  1.00  0.00     0.090 C 
ATOM      6  C   UNL     1      -4.883  -0.070   0.665  1.00  0.00     0.122 A 
ATOM      7  C   UNL     1      -5.783  -0.719  -0.185  1.00  0.00     0.047 A 
ATOM      8  C   UNL     1      -3.502  -0.097   0.375  1.00  0.00    -0.003 A 
ATOM      9  C   UNL     1      -5.325  -1.383  -1.323  1.00  0.00     0.004 A 
ATOM     10  C   UNL     1      -3.046  -0.747  -0.791  1.00  0.00    -0.039 A 
ATOM     11  C   UNL     1      -2.531   0.629   1.284  1.00  0.00     0.042 C 
ATOM     12  C   UNL     1      -3.966  -1.398  -1.624  1.00  0.00     0.004 A 
ATOM     13  C   UNL     1      -1.580  -0.810  -1.144  1.00  0.00     0.061 C 
ATOM     14  C   UNL     1      -1.072   0.233   1.074  1.00  0.00     0.030 C 
BRANCH   6  15
ATOM     15  O   UNL     1      -5.241   0.616   1.798  1.00  0.00    -0.496 OA
ATOM     16  C   UNL     1      -6.626   0.695   2.107  1.00  0.00     0.278 C 
ENDBRANCH   6  15
ENDBRANCH   1   5
BRANCH   2  17
ATOM     17  O   UNL     1       2.860   0.376  -0.562  1.00  0.00    -0.445 OA
BRANCH  17  18
ATOM     18  C   UNL     1       3.934   1.312  -0.451  1.00  0.00     0.270 C 
BRANCH  18  19
ATOM     19  C   UNL     1       5.227   0.540  -0.515  1.00  0.00    -0.011 A 
ATOM     20  C   UNL     1       5.844   0.085   0.659  1.00  0.00     0.007 A 
ATOM     21  C   UNL     1       5.811   0.233  -1.752  1.00  0.00     0.007 A 
ATOM     22  C   UNL     1       7.033  -0.644   0.597  1.00  0.00     0.000 A 
ATOM     23  C   UNL     1       7.000  -0.496  -1.812  1.00  0.00     0.000 A 
ATOM     24  C   UNL     1       7.611  -0.932  -0.638  1.00  0.00     0.000 A 
ENDBRANCH  18  19
ENDBRANCH  17  18
ENDBRANCH   2  17
TORSDOF 5
