REMARK SMILES CCOCC[n+]1ccc(CCC(O)=C2Cc3cc(OC)c(OC)cc3S2)cc1
REMARK SMILES IDX 9 1 8 2 7 3 6 4 28 5 27 6 10 7 11 8 12 9 13 10 14 12 15 13
REMARK SMILES IDX 26 14 16 15 25 16 17 17 24 18 18 19 21 20 19 21 20 22 22 23
REMARK SMILES IDX 23 24 5 25 4 26 3 27 2 28 1 29
REMARK H PARENT 13 11
ROOT
ATOM      1  C   UNL     1      -1.972   1.842  -1.519  1.00  0.00    -0.036 A 
ATOM      2  C   UNL     1      -3.236   1.598  -2.054  1.00  0.00     0.074 A 
ATOM      3  C   UNL     1      -4.368   1.829  -1.281  1.00  0.00     0.308 A 
ATOM      4  N   UNL     1      -4.257   2.288  -0.013  1.00  0.00    -0.203 N 
ATOM      5  C   UNL     1      -3.041   2.537   0.524  1.00  0.00     0.308 A 
ATOM      6  C   UNL     1      -1.883   2.324  -0.213  1.00  0.00     0.074 A 
ENDROOT
BRANCH   1   7
ATOM      7  C   UNL     1      -0.724   1.536  -2.315  1.00  0.00     0.044 C 
BRANCH   7   8
ATOM      8  C   UNL     1      -0.384   0.039  -2.386  1.00  0.00     0.080 C 
BRANCH   8   9
ATOM      9  C   UNL     1       0.023  -0.550  -1.056  1.00  0.00     0.103 C 
BRANCH   9  10
ATOM     10  O   UNL     1      -1.048  -0.919  -0.254  1.00  0.00    -0.511 OA
ATOM     11  H   UNL     1      -0.667  -1.407   0.505  1.00  0.00     0.293 HD
ENDBRANCH   9  10
BRANCH   9  12
ATOM     12  C   UNL     1       1.295  -0.755  -0.666  1.00  0.00     0.032 C 
ATOM     13  C   UNL     1       2.536  -0.408  -1.466  1.00  0.00     0.083 C 
ATOM     14  S   UNL     1       1.663  -1.442   0.914  1.00  0.00    -0.090 SA
ATOM     15  C   UNL     1       3.724  -0.707  -0.595  1.00  0.00    -0.025 A 
ATOM     16  C   UNL     1       3.410  -1.250   0.652  1.00  0.00     0.020 A 
ATOM     17  C   UNL     1       5.052  -0.488  -0.954  1.00  0.00     0.055 A 
ATOM     18  C   UNL     1       4.403  -1.581   1.563  1.00  0.00     0.066 A 
ATOM     19  C   UNL     1       6.069  -0.816  -0.049  1.00  0.00     0.161 A 
ATOM     20  C   UNL     1       5.742  -1.366   1.216  1.00  0.00     0.161 A 
BRANCH  19  21
ATOM     21  O   UNL     1       7.408  -0.638  -0.295  1.00  0.00    -0.493 OA
ATOM     22  C   UNL     1       7.792  -0.170  -1.579  1.00  0.00     0.278 C 
ENDBRANCH  19  21
BRANCH  20  23
ATOM     23  O   UNL     1       6.807  -1.650   2.036  1.00  0.00    -0.493 OA
ATOM     24  C   UNL     1       6.537  -2.284   3.279  1.00  0.00     0.278 C 
ENDBRANCH  20  23
ENDBRANCH   9  12
ENDBRANCH   8   9
ENDBRANCH   7   8
ENDBRANCH   1   7
BRANCH   4  25
ATOM     25  C   UNL     1      -5.484   2.502   0.798  1.00  0.00     0.385 C 
BRANCH  25  26
ATOM     26  C   UNL     1      -5.928   1.177   1.413  1.00  0.00     0.233 C 
BRANCH  26  27
ATOM     27  O   UNL     1      -6.396   0.322   0.368  1.00  0.00    -0.375 OA
BRANCH  27  28
ATOM     28  C   UNL     1      -6.819  -0.963   0.833  1.00  0.00     0.157 C 
ATOM     29  C   UNL     1      -5.634  -1.897   1.004  1.00  0.00     0.035 C 
ENDBRANCH  27  28
ENDBRANCH  26  27
ENDBRANCH  25  26
ENDBRANCH   4  25
TORSDOF 11
