REMARK SMILES O=C(NCCCCNc1c2c(nc3ccccc13)CCCC2)c1ccc(F)cc1
REMARK SMILES IDX 5 1 4 2 3 3 2 4 1 5 23 7 24 8 29 9 25 10 28 11 26 12 27 13
REMARK SMILES IDX 6 14 7 15 8 16 9 18 10 19 18 20 11 21 22 22 17 23 13 24
REMARK SMILES IDX 12 25 19 26 21 27 16 28 14 29 20 30 15 31
REMARK H PARENT 3 6 8 17
ROOT
ATOM      1  C   UNL     1       1.631  -1.226   0.272  1.00  0.00     0.023 C 
ENDROOT
BRANCH   1   2
ATOM      2  C   UNL     1       3.006  -1.784   0.065  1.00  0.00     0.116 C 
BRANCH   2   3
ATOM      3  N   UNL     1       3.964  -0.843  -0.449  1.00  0.00    -0.352 N 
ATOM      4  C   UNL     1       4.290   0.344   0.260  1.00  0.00     0.251 C 
ATOM      5  O   UNL     1       3.681   0.510   1.367  1.00  0.00    -0.269 OA
ATOM      6  H   UNL     1       4.439  -1.034  -1.376  1.00  0.00     0.163 HD
BRANCH   4   7
ATOM      7  C   UNL     1       5.252   1.328  -0.218  1.00  0.00     0.040 A 
ATOM      8  C   UNL     1       5.942   1.205  -1.405  1.00  0.00     0.017 A 
ATOM      9  C   UNL     1       5.492   2.445   0.551  1.00  0.00     0.017 A 
ATOM     10  C   UNL     1       6.841   2.178  -1.798  1.00  0.00     0.040 A 
ATOM     11  C   UNL     1       6.389   3.433   0.178  1.00  0.00     0.040 A 
ATOM     12  C   UNL     1       7.069   3.291  -1.014  1.00  0.00     0.123 A 
ATOM     13  F   UNL     1       7.963   4.242  -1.419  1.00  0.00    -0.207 F 
ENDBRANCH   4   7
ENDBRANCH   2   3
ENDBRANCH   1   2
BRANCH   1  14
ATOM     14  C   UNL     1       0.773  -2.370   0.816  1.00  0.00     0.023 C 
BRANCH  14  15
ATOM     15  C   UNL     1      -0.643  -1.898   1.058  1.00  0.00     0.113 C 
BRANCH  15  16
ATOM     16  N   UNL     1      -1.262  -1.418  -0.163  1.00  0.00    -0.384 N 
ATOM     17  H   UNL     1      -0.752  -1.419  -1.068  1.00  0.00     0.160 HD
BRANCH  16  18
ATOM     18  C   UNL     1      -2.606  -0.929  -0.131  1.00  0.00     0.049 A 
ATOM     19  C   UNL     1      -2.848   0.425   0.115  1.00  0.00    -0.003 A 
ATOM     20  C   UNL     1      -3.645  -1.808  -0.344  1.00  0.00     0.024 A 
ATOM     21  C   UNL     1      -4.169   0.798   0.117  1.00  0.00     0.046 A 
ATOM     22  C   UNL     1      -1.804   1.379   0.279  1.00  0.00     0.039 C 
ATOM     23  C   UNL     1      -3.365  -3.134  -0.581  1.00  0.00     0.012 A 
ATOM     24  C   UNL     1      -4.959  -1.389  -0.324  1.00  0.00     0.073 A 
ATOM     25  N   UNL     1      -5.189  -0.086  -0.092  1.00  0.00    -0.252 NA
ATOM     26  C   UNL     1      -4.521   2.211   0.089  1.00  0.00     0.056 C 
ATOM     27  C   UNL     1      -2.232   2.784   0.735  1.00  0.00     0.005 C 
ATOM     28  C   UNL     1      -4.375  -4.060  -0.799  1.00  0.00     0.001 A 
ATOM     29  C   UNL     1      -5.979  -2.299  -0.540  1.00  0.00     0.029 A 
ATOM     30  C   UNL     1      -3.376   3.192  -0.176  1.00  0.00     0.007 C 
ATOM     31  C   UNL     1      -5.701  -3.645  -0.780  1.00  0.00     0.002 A 
ENDBRANCH  16  18
ENDBRANCH  15  16
ENDBRANCH  14  15
ENDBRANCH   1  14
TORSDOF 7
