REMARK SMILES O=C1C(=NCCN=c2c3c([nH]c4cc(Cl)ccc24)CCCC3)C=C(O)c2ccccc21
REMARK SMILES IDX 5 1 6 2 7 3 8 4 11 5 10 6 12 7 9 8 19 9 13 10 18 11 22 12
REMARK SMILES IDX 20 13 14 14 17 15 21 16 16 17 15 19 4 20 3 21 23 22 2 23
REMARK SMILES IDX 24 24 31 25 26 26 30 27 27 28 29 29 28 30 1 31 25 32
REMARK H PARENT 11 18 25 33
ROOT
ATOM      1  C   UNL     1       1.212   0.226   2.275  1.00  0.00     0.166 C 
ENDROOT
BRANCH   1   2
ATOM      2  C   UNL     1       0.061  -0.691   1.826  1.00  0.00     0.166 C 
BRANCH   2   3
ATOM      3  N   UNL     1      -1.148   0.098   1.644  1.00  0.00    -0.282 NA
BRANCH   3   4
ATOM      4  C   UNL     1      -2.124  -0.191   0.850  1.00  0.00     0.072 A 
ATOM      5  N   UNL     1      -3.867  -0.182  -1.368  1.00  0.00    -0.358 N 
ATOM      6  C   UNL     1      -3.942   0.840  -0.444  1.00  0.00     0.021 A 
ATOM      7  C   UNL     1      -3.209  -1.382  -1.052  1.00  0.00     0.049 A 
ATOM      8  C   UNL     1      -3.162   0.886   0.654  1.00  0.00    -0.003 A 
ATOM      9  C   UNL     1      -4.946   1.934  -0.736  1.00  0.00     0.054 C 
ATOM     10  C   UNL     1      -3.392  -2.510  -1.864  1.00  0.00     0.047 A 
ATOM     11  C   UNL     1      -2.350  -1.452   0.064  1.00  0.00     0.024 A 
ATOM     12  C   UNL     1      -3.218   1.989   1.677  1.00  0.00     0.039 C 
ATOM     13  C   UNL     1      -4.740   3.204   0.091  1.00  0.00     0.007 C 
ATOM     14  C   UNL     1      -2.793  -3.719  -1.524  1.00  0.00     0.043 A 
ATOM     15  C   UNL     1      -1.804  -2.690   0.422  1.00  0.00     0.014 A 
ATOM     16  C   UNL     1      -4.465   2.863   1.550  1.00  0.00     0.005 C 
ATOM     17  C   UNL     1      -2.016  -3.820  -0.375  1.00  0.00     0.021 A 
ATOM     18  H   UNL     1      -4.611  -0.229  -2.055  1.00  0.00     0.166 HD
ATOM     19  Cl  UNL     1      -3.041  -5.105  -2.513  1.00  0.00    -0.084 Cl
ENDBRANCH   3   4
ENDBRANCH   2   3
ENDBRANCH   1   2
BRANCH   1  20
ATOM     20  N   UNL     1       1.672   1.084   1.181  1.00  0.00    -0.279 NA
BRANCH  20  21
ATOM     21  C   UNL     1       2.607   0.715   0.372  1.00  0.00     0.109 C 
ATOM     22  C   UNL     1       3.016   1.658  -0.693  1.00  0.00     0.078 C 
ATOM     23  C   UNL     1       3.347  -0.621   0.389  1.00  0.00     0.211 C 
ATOM     24  C   UNL     1       4.148   1.483  -1.380  1.00  0.00     0.125 C 
ATOM     25  C   UNL     1       4.683  -0.665  -0.241  1.00  0.00     0.035 A 
ATOM     26  C   UNL     1       5.082   0.381  -1.087  1.00  0.00     0.028 A 
ATOM     27  C   UNL     1       5.529  -1.751   0.022  1.00  0.00     0.013 A 
ATOM     28  C   UNL     1       6.381   0.337  -1.618  1.00  0.00     0.013 A 
ATOM     29  C   UNL     1       6.804  -1.787  -0.536  1.00  0.00     0.001 A 
ATOM     30  C   UNL     1       7.233  -0.740  -1.347  1.00  0.00     0.001 A 
ATOM     31  O   UNL     1       2.860  -1.630   0.877  1.00  0.00    -0.287 OA
BRANCH  24  32
ATOM     32  O   UNL     1       4.459   2.359  -2.400  1.00  0.00    -0.507 OA
ATOM     33  H   UNL     1       4.954   1.879  -3.085  1.00  0.00     0.293 HD
ENDBRANCH  24  32
ENDBRANCH  20  21
ENDBRANCH   1  20
TORSDOF 6
