REMARK SMILES O=C1Cc2c(ccc3c(CC[C@H]4CC[N@@H+](Cc5ccccc5)CC4)noc23)N1
REMARK SMILES IDX 11 1 12 2 14 3 15 4 13 5 23 6 24 7 16 9 17 10 18 11 22 12
REMARK SMILES IDX 19 13 21 14 20 15 10 16 9 17 8 18 25 19 7 20 27 21 26 22
REMARK SMILES IDX 6 23 4 24 5 25 3 26 28 27 2 28 1 30
REMARK H PARENT 15 8 28 29
ROOT
ATOM      1  C   UNL     1       0.514  -0.684   2.474  1.00  0.00     0.010 C 
ENDROOT
BRANCH   1   2
ATOM      2  C   UNL     1       1.877   0.028   2.603  1.00  0.00     0.000 C 
ATOM      3  C   UNL     1       3.264  -1.486   1.085  1.00  0.00     0.262 C 
ATOM      4  N   UNL     1       3.388  -0.357   0.094  1.00  0.00    -0.331 N 
ATOM      5  C   UNL     1       3.082  -0.920   2.488  1.00  0.00     0.065 C 
ATOM      6  C   UNL     1       2.205   0.583   0.127  1.00  0.00     0.262 C 
ATOM      7  C   UNL     1       2.018   1.130   1.539  1.00  0.00     0.065 C 
ATOM      8  H   UNL     1       4.214   0.196   0.352  1.00  0.00     0.348 HD
BRANCH   4   9
ATOM      9  C   UNL     1       3.666  -0.888  -1.300  1.00  0.00     0.299 C 
BRANCH   9  10
ATOM     10  C   UNL     1       4.152   0.173  -2.249  1.00  0.00     0.006 A 
ATOM     11  C   UNL     1       3.313   0.659  -3.264  1.00  0.00     0.009 A 
ATOM     12  C   UNL     1       5.445   0.706  -2.122  1.00  0.00     0.009 A 
ATOM     13  C   UNL     1       3.757   1.663  -4.127  1.00  0.00     0.001 A 
ATOM     14  C   UNL     1       5.883   1.709  -2.987  1.00  0.00     0.001 A 
ATOM     15  C   UNL     1       5.040   2.188  -3.986  1.00  0.00     0.000 A 
ENDBRANCH   9  10
ENDBRANCH   4   9
ENDBRANCH   1   2
BRANCH   1  16
ATOM     16  C   UNL     1       0.194  -1.643   3.631  1.00  0.00     0.061 C 
BRANCH  16  17
ATOM     17  C   UNL     1      -0.996  -2.489   3.329  1.00  0.00     0.091 A 
ATOM     18  C   UNL     1      -2.281  -2.472   3.928  1.00  0.00     0.045 A 
ATOM     19  N   UNL     1      -0.906  -3.421   2.366  1.00  0.00    -0.084 NA
ATOM     20  C   UNL     1      -2.950  -1.751   4.946  1.00  0.00     0.016 A 
ATOM     21  C   UNL     1      -2.964  -3.471   3.246  1.00  0.00     0.172 A 
ATOM     22  O   UNL     1      -2.149  -4.034   2.320  1.00  0.00    -0.356 OA
ATOM     23  C   UNL     1      -4.289  -2.062   5.245  1.00  0.00     0.027 A 
ATOM     24  C   UNL     1      -4.278  -3.795   3.518  1.00  0.00     0.031 A 
ATOM     25  C   UNL     1      -4.907  -3.067   4.527  1.00  0.00     0.048 A 
ATOM     26  C   UNL     1      -5.227  -4.806   2.946  1.00  0.00     0.142 C 
ATOM     27  N   UNL     1      -6.210  -3.519   4.667  1.00  0.00    -0.325 N 
ATOM     28  C   UNL     1      -6.492  -4.548   3.773  1.00  0.00     0.229 C 
ATOM     29  H   UNL     1      -6.894  -3.173   5.324  1.00  0.00     0.169 HD
ATOM     30  O   UNL     1      -7.558  -5.130   3.673  1.00  0.00    -0.274 OA
ENDBRANCH  16  17
ENDBRANCH   1  16
TORSDOF 5
