REMARK SMILES CN(C)C(=O)N[C@H]1CCc2ccc(O)cc2C1
REMARK SMILES IDX 7 1 8 2 9 3 10 4 11 5 12 6 13 7 15 8 16 9 17 10 6 11 2 12
REMARK SMILES IDX 4 13 1 14 3 15 5 16 14 18
REMARK H PARENT 6 17 14 19
ROOT
ATOM      1  C   UNL     1       0.352  -0.456  -0.580  1.00  0.00     0.088 C 
ATOM      2  C   UNL     1      -0.188  -1.883  -0.445  1.00  0.00     0.030 C 
ATOM      3  C   UNL     1      -1.615  -1.971  -0.977  1.00  0.00     0.038 C 
ATOM      4  C   UNL     1      -2.517  -0.897  -0.426  1.00  0.00    -0.044 A 
ATOM      5  C   UNL     1      -3.909  -1.056  -0.523  1.00  0.00     0.008 A 
ATOM      6  C   UNL     1      -4.774  -0.069  -0.049  1.00  0.00     0.046 A 
ATOM      7  C   UNL     1      -4.246   1.083   0.520  1.00  0.00     0.115 A 
ATOM      8  C   UNL     1      -2.871   1.264   0.615  1.00  0.00     0.050 A 
ATOM      9  C   UNL     1      -1.992   0.282   0.132  1.00  0.00    -0.039 A 
ATOM     10  C   UNL     1      -0.504   0.499   0.276  1.00  0.00     0.061 C 
ENDROOT
BRANCH   1  11
ATOM     11  N   UNL     1       1.762  -0.419  -0.189  1.00  0.00    -0.335 N 
ATOM     12  N   UNL     1       3.852   0.580  -0.028  1.00  0.00    -0.331 N 
ATOM     13  C   UNL     1       2.529   0.694  -0.439  1.00  0.00     0.317 C 
ATOM     14  C   UNL     1       4.712   1.725  -0.273  1.00  0.00     0.148 C 
ATOM     15  C   UNL     1       4.282  -0.307   1.044  1.00  0.00     0.148 C 
ATOM     16  O   UNL     1       2.079   1.695  -0.988  1.00  0.00    -0.249 OA
ATOM     17  H   UNL     1       2.280  -1.266  -0.367  1.00  0.00     0.165 HD
ENDBRANCH   1  11
BRANCH   7  18
ATOM     18  O   UNL     1      -5.053   2.072   1.001  1.00  0.00    -0.508 OA
ATOM     19  H   UNL     1      -5.977   1.815   0.852  1.00  0.00     0.293 HD
ENDBRANCH   7  18
TORSDOF 2
