REMARK SMILES O=c1c(O)c(-c2ccc(F)cc2)oc2cc(F)c(I)cc12
REMARK SMILES IDX 1 1 2 2 3 3 5 4 13 5 14 6 15 7 16 8 17 9 18 10 19 11 20 12
REMARK SMILES IDX 21 13 4 14 6 16 7 17 12 18 8 19 11 20 9 21 10 22
REMARK H PARENT 4 15
ROOT
ATOM      1  O   UNL     1       2.263  -2.638   0.445  1.00  0.00    -0.285 OA
ATOM      2  C   UNL     1       1.682  -1.577   0.244  1.00  0.00     0.235 A 
ATOM      3  C   UNL     1       0.204  -1.551   0.129  1.00  0.00     0.208 A 
ATOM      4  C   UNL     1      -0.407  -0.373  -0.096  1.00  0.00     0.180 A 
ATOM      5  O   UNL     1       0.265   0.835  -0.240  1.00  0.00    -0.452 OA
ATOM      6  C   UNL     1       1.631   0.851  -0.129  1.00  0.00     0.141 A 
ATOM      7  C   UNL     1       2.266   2.083  -0.264  1.00  0.00     0.088 A 
ATOM      8  C   UNL     1       3.654   2.154  -0.162  1.00  0.00     0.140 A 
ATOM      9  F   UNL     1       4.240   3.352  -0.296  1.00  0.00    -0.206 F 
ATOM     10  C   UNL     1       4.413   1.005   0.075  1.00  0.00     0.050 A 
ATOM     11  I   UNL     1       6.483   1.113   0.228  1.00  0.00    -0.041 I 
ATOM     12  C   UNL     1       3.779  -0.231   0.212  1.00  0.00     0.034 A 
ATOM     13  C   UNL     1       2.384  -0.296   0.108  1.00  0.00     0.070 A 
ENDROOT
BRANCH   3  14
ATOM     14  O   UNL     1      -0.454  -2.762   0.246  1.00  0.00    -0.502 OA
ATOM     15  H   UNL     1       0.256  -3.427   0.376  1.00  0.00     0.293 HD
ENDBRANCH   3  14
BRANCH   4  16
ATOM     16  C   UNL     1      -1.873  -0.236  -0.238  1.00  0.00     0.021 A 
ATOM     17  C   UNL     1      -2.402   0.524  -1.296  1.00  0.00     0.015 A 
ATOM     18  C   UNL     1      -2.760  -0.815   0.684  1.00  0.00     0.015 A 
ATOM     19  C   UNL     1      -3.783   0.687  -1.435  1.00  0.00     0.040 A 
ATOM     20  C   UNL     1      -4.141  -0.652   0.544  1.00  0.00     0.040 A 
ATOM     21  C   UNL     1      -4.639   0.096  -0.515  1.00  0.00     0.123 A 
ATOM     22  F   UNL     1      -5.962   0.253  -0.648  1.00  0.00    -0.207 F 
ENDBRANCH   4  16
TORSDOF 2
