REMARK SMILES COc1ccc(OC)c([C@H]2CC(c3cc(F)cc(F)c3)=NN2c2ccc(S(N)(=O)=O)cc2)c1
REMARK SMILES IDX 23 1 24 2 25 3 26 4 31 5 32 6 22 7 10 8 11 9 12 10 21 11
REMARK SMILES IDX 9 12 3 13 4 14 33 15 5 16 6 17 2 18 1 19 7 20 8 21 13 22
REMARK SMILES IDX 14 23 20 24 15 25 18 26 17 27 16 28 19 29 27 30 29 31 30 32
REMARK SMILES IDX 28 33
REMARK H PARENT 28 34 28 35
ROOT
ATOM      1  C   UNL     1       1.796  -0.210  -0.627  1.00  0.00     0.060 A 
ATOM      2  C   UNL     1       3.015   0.073   0.017  1.00  0.00     0.029 A 
ATOM      3  C   UNL     1       4.141  -0.744  -0.130  1.00  0.00     0.024 A 
ATOM      4  C   UNL     1       4.064  -1.869  -0.946  1.00  0.00     0.082 A 
ATOM      5  C   UNL     1       2.870  -2.192  -1.590  1.00  0.00     0.024 A 
ATOM      6  C   UNL     1       1.753  -1.364  -1.429  1.00  0.00     0.029 A 
ENDROOT
BRANCH   1   7
ATOM      7  N   UNL     1       0.692   0.624  -0.458  1.00  0.00    -0.257 N 
ATOM      8  C   UNL     1      -0.636   0.423  -1.052  1.00  0.00     0.148 C 
ATOM      9  C   UNL     1      -1.312   1.776  -0.825  1.00  0.00     0.091 C 
ATOM     10  C   UNL     1      -0.333   2.414   0.121  1.00  0.00     0.071 C 
ATOM     11  N   UNL     1       0.784   1.770   0.277  1.00  0.00    -0.176 NA
BRANCH   8  12
ATOM     12  C   UNL     1      -1.441  -0.696  -0.400  1.00  0.00     0.023 A 
ATOM     13  C   UNL     1      -1.978  -2.074   1.552  1.00  0.00     0.119 A 
ATOM     14  C   UNL     1      -2.958  -2.727   0.812  1.00  0.00     0.050 A 
ATOM     15  C   UNL     1      -1.232  -1.061   0.945  1.00  0.00     0.056 A 
ATOM     16  C   UNL     1      -3.194  -2.368  -0.520  1.00  0.00     0.050 A 
ATOM     17  C   UNL     1      -2.448  -1.355  -1.131  1.00  0.00     0.124 A 
BRANCH  13  18
ATOM     18  O   UNL     1      -1.659  -2.317   2.858  1.00  0.00    -0.497 OA
ATOM     19  C   UNL     1      -2.321  -3.402   3.494  1.00  0.00     0.278 C 
ENDBRANCH  13  18
BRANCH  17  20
ATOM     20  O   UNL     1      -2.631  -0.925  -2.420  1.00  0.00    -0.496 OA
ATOM     21  C   UNL     1      -3.586  -1.620  -3.213  1.00  0.00     0.278 C 
ENDBRANCH  17  20
ENDBRANCH   8  12
BRANCH  10  22
ATOM     22  C   UNL     1      -0.618   3.702   0.793  1.00  0.00     0.004 A 
ATOM     23  C   UNL     1      -1.782   4.426   0.520  1.00  0.00     0.049 A 
ATOM     24  C   UNL     1       0.306   4.201   1.719  1.00  0.00     0.049 A 
ATOM     25  C   UNL     1      -2.006   5.634   1.177  1.00  0.00     0.126 A 
ATOM     26  C   UNL     1       0.055   5.411   2.360  1.00  0.00     0.126 A 
ATOM     27  C   UNL     1      -1.098   6.136   2.097  1.00  0.00     0.078 A 
ATOM     28  F   UNL     1      -3.123   6.324   0.910  1.00  0.00    -0.207 F 
ATOM     29  F   UNL     1       0.942   5.884   3.245  1.00  0.00    -0.207 F 
ENDBRANCH  10  22
ENDBRANCH   1   7
BRANCH   4  30
ATOM     30  S   UNL     1       5.480  -2.911  -1.152  1.00  0.00     0.238 S 
ATOM     31  O   UNL     1       5.033  -4.230  -1.534  1.00  0.00    -0.207 OA
ATOM     32  O   UNL     1       6.387  -2.685  -0.050  1.00  0.00    -0.207 OA
BRANCH  30  33
ATOM     33  N   UNL     1       6.216  -2.208  -2.496  1.00  0.00    -0.225 NA
ATOM     34  H   UNL     1       5.634  -1.500  -2.942  1.00  0.00     0.137 HD
ATOM     35  H   UNL     1       7.121  -1.830  -2.211  1.00  0.00     0.137 HD
ENDBRANCH  30  33
ENDBRANCH   4  30
TORSDOF 7
