REMARK SMILES COc1cc2c(cc1OC)C(=O)/C(=C/c1cc[n+](Cc3ccccc3F)cc1)C2
REMARK SMILES IDX 15 1 16 2 17 3 18 4 27 5 28 6 14 7 13 8 3 9 4 10 8 11 5 12
REMARK SMILES IDX 7 13 6 14 29 15 11 16 12 17 2 18 1 19 9 20 10 21 19 22 20 23
REMARK SMILES IDX 21 24 25 25 22 26 24 27 23 28 26 29
REMARK H PARENT
ROOT
ATOM      1  C   UNL     1       1.055  -1.790  -1.389  1.00  0.00    -0.013 A 
ATOM      2  C   UNL     1       2.302  -2.240  -0.966  1.00  0.00     0.079 A 
ATOM      3  C   UNL     1       3.454  -1.659  -1.483  1.00  0.00     0.309 A 
ATOM      4  N   UNL     1       3.375  -0.666  -2.399  1.00  0.00    -0.201 N 
ATOM      5  C   UNL     1       2.171  -0.222  -2.829  1.00  0.00     0.309 A 
ATOM      6  C   UNL     1       0.992  -0.771  -2.336  1.00  0.00     0.079 A 
ENDROOT
BRANCH   1   7
ATOM      7  C   UNL     1      -0.153  -2.429  -0.872  1.00  0.00     0.016 C 
BRANCH   7   8
ATOM      8  C   UNL     1      -1.097  -1.812  -0.148  1.00  0.00     0.005 C 
ATOM      9  C   UNL     1      -4.272   0.442   2.501  1.00  0.00     0.161 A 
ATOM     10  C   UNL     1      -3.064   0.666   1.821  1.00  0.00     0.055 A 
ATOM     11  C   UNL     1      -4.883  -0.845   2.485  1.00  0.00     0.161 A 
ATOM     12  C   UNL     1      -2.482  -0.389   1.137  1.00  0.00    -0.028 A 
ATOM     13  C   UNL     1      -4.283  -1.900   1.791  1.00  0.00     0.063 A 
ATOM     14  C   UNL     1      -3.095  -1.641   1.134  1.00  0.00     0.030 A 
ATOM     15  C   UNL     1      -1.209  -0.390   0.343  1.00  0.00     0.076 C 
ATOM     16  C   UNL     1      -2.284  -2.575   0.350  1.00  0.00     0.189 C 
ATOM     17  O   UNL     1      -2.528  -3.746   0.145  1.00  0.00    -0.289 OA
BRANCH   9  18
ATOM     18  O   UNL     1      -4.945   1.406   3.211  1.00  0.00    -0.493 OA
ATOM     19  C   UNL     1      -4.373   2.703   3.286  1.00  0.00     0.278 C 
ENDBRANCH   9  18
BRANCH  11  20
ATOM     20  O   UNL     1      -6.062  -0.954   3.181  1.00  0.00    -0.493 OA
ATOM     21  C   UNL     1      -6.708  -2.219   3.196  1.00  0.00     0.278 C 
ENDBRANCH  11  20
ENDBRANCH   7   8
ENDBRANCH   1   7
BRANCH   4  22
ATOM     22  C   UNL     1       4.619  -0.067  -2.948  1.00  0.00     0.396 C 
BRANCH  22  23
ATOM     23  C   UNL     1       4.890   1.275  -2.333  1.00  0.00     0.052 A 
ATOM     24  C   UNL     1       4.739   2.464  -3.061  1.00  0.00     0.013 A 
ATOM     25  C   UNL     1       5.303   1.355  -1.000  1.00  0.00     0.132 A 
ATOM     26  C   UNL     1       4.994   3.696  -2.452  1.00  0.00     0.001 A 
ATOM     27  C   UNL     1       5.557   2.576  -0.388  1.00  0.00     0.040 A 
ATOM     28  C   UNL     1       5.401   3.752  -1.118  1.00  0.00     0.003 A 
ATOM     29  F   UNL     1       5.453   0.226  -0.294  1.00  0.00    -0.206 F 
ENDBRANCH  22  23
ENDBRANCH   4  22
TORSDOF 6
