REMARK SMILES COc1cccc2c1CC[C@H](NC(=O)N(C)C)C2
REMARK SMILES IDX 3 1 4 2 5 3 6 4 7 5 8 6 9 7 10 8 11 9 18 10 2 11 1 12 12 13
REMARK SMILES IDX 13 14 15 15 14 17 16 18 17 19
REMARK H PARENT 12 16
ROOT
ATOM      1  C   UNL     1      -3.548   0.209   0.057  1.00  0.00     0.122 A 
ATOM      2  C   UNL     1      -4.148  -0.323   1.202  1.00  0.00     0.047 A 
ATOM      3  C   UNL     1      -3.373  -0.939   2.183  1.00  0.00     0.004 A 
ATOM      4  C   UNL     1      -1.992  -1.024   2.031  1.00  0.00     0.004 A 
ATOM      5  C   UNL     1      -1.367  -0.493   0.895  1.00  0.00    -0.039 A 
ATOM      6  C   UNL     1      -2.150   0.109  -0.112  1.00  0.00    -0.003 A 
ATOM      7  C   UNL     1      -1.497   0.709  -1.338  1.00  0.00     0.042 C 
ATOM      8  C   UNL     1      -0.079   0.205  -1.586  1.00  0.00     0.030 C 
ATOM      9  C   UNL     1       0.749   0.282  -0.306  1.00  0.00     0.088 C 
ATOM     10  C   UNL     1       0.132  -0.630   0.767  1.00  0.00     0.061 C 
ENDROOT
BRANCH   1  11
ATOM     11  O   UNL     1      -4.226   0.843  -0.953  1.00  0.00    -0.496 OA
ATOM     12  C   UNL     1      -5.630   1.009  -0.797  1.00  0.00     0.278 C 
ENDBRANCH   1  11
BRANCH   9  13
ATOM     13  N   UNL     1       2.136  -0.081  -0.591  1.00  0.00    -0.335 N 
ATOM     14  C   UNL     1       3.140   0.230   0.291  1.00  0.00     0.317 C 
ATOM     15  N   UNL     1       4.402  -0.206  -0.094  1.00  0.00    -0.331 N 
ATOM     16  H   UNL     1       2.266  -0.972  -1.046  1.00  0.00     0.165 HD
ATOM     17  O   UNL     1       2.928   0.836   1.337  1.00  0.00    -0.249 OA
ATOM     18  C   UNL     1       4.787  -0.426  -1.482  1.00  0.00     0.148 C 
ATOM     19  C   UNL     1       5.497   0.080   0.818  1.00  0.00     0.148 C 
ENDBRANCH   9  13
TORSDOF 2
