REMARK SMILES COc1cc2c(cc1OC)C(=O)/C(=C/c1cc[n+](Cc3ccccc3C)cc1)C2
REMARK SMILES IDX 15 1 16 2 17 3 18 4 27 5 28 6 14 7 13 8 3 9 4 10 8 11 5 12
REMARK SMILES IDX 7 13 6 14 29 15 11 16 12 17 2 18 1 19 9 20 10 21 19 22 20 23
REMARK SMILES IDX 21 24 25 25 22 26 24 27 23 28 26 29
REMARK H PARENT
ROOT
ATOM      1  C   UNL     1      -0.780   1.810   0.604  1.00  0.00    -0.013 A 
ATOM      2  C   UNL     1      -1.820   2.029  -0.295  1.00  0.00     0.079 A 
ATOM      3  C   UNL     1      -3.098   1.574   0.009  1.00  0.00     0.309 A 
ATOM      4  N   UNL     1      -3.342   0.924   1.172  1.00  0.00    -0.201 N 
ATOM      5  C   UNL     1      -2.346   0.714   2.063  1.00  0.00     0.309 A 
ATOM      6  C   UNL     1      -1.052   1.149   1.799  1.00  0.00     0.079 A 
ENDROOT
BRANCH   1   7
ATOM      7  C   UNL     1       0.552   2.328   0.300  1.00  0.00     0.016 C 
BRANCH   7   8
ATOM      8  C   UNL     1       1.651   1.578   0.143  1.00  0.00     0.005 C 
ATOM      9  C   UNL     1       5.411  -1.179  -0.522  1.00  0.00     0.161 A 
ATOM     10  C   UNL     1       4.045  -1.257  -0.207  1.00  0.00     0.055 A 
ATOM     11  C   UNL     1       6.031   0.084  -0.744  1.00  0.00     0.161 A 
ATOM     12  C   UNL     1       3.316  -0.082  -0.119  1.00  0.00    -0.028 A 
ATOM     13  C   UNL     1       5.283   1.261  -0.651  1.00  0.00     0.063 A 
ATOM     14  C   UNL     1       3.941   1.144  -0.340  1.00  0.00     0.030 A 
ATOM     15  C   UNL     1       1.861   0.085   0.204  1.00  0.00     0.076 C 
ATOM     16  C   UNL     1       2.960   2.221  -0.192  1.00  0.00     0.189 C 
ATOM     17  O   UNL     1       3.169   3.410  -0.319  1.00  0.00    -0.289 OA
BRANCH   9  18
ATOM     18  O   UNL     1       6.237  -2.271  -0.637  1.00  0.00    -0.493 OA
ATOM     19  C   UNL     1       5.672  -3.560  -0.450  1.00  0.00     0.278 C 
ENDBRANCH   9  18
BRANCH  11  20
ATOM     20  O   UNL     1       7.371   0.045  -1.044  1.00  0.00    -0.493 OA
ATOM     21  C   UNL     1       8.034   1.281  -1.275  1.00  0.00     0.278 C 
ENDBRANCH  11  20
ENDBRANCH   7   8
ENDBRANCH   1   7
BRANCH   4  22
ATOM     22  C   UNL     1      -4.724   0.466   1.479  1.00  0.00     0.393 C 
BRANCH  22  23
ATOM     23  C   UNL     1      -5.167  -0.612   0.517  1.00  0.00     0.020 A 
ATOM     24  C   UNL     1      -4.442  -1.820   0.471  1.00  0.00     0.010 A 
ATOM     25  C   UNL     1      -6.287  -0.454  -0.330  1.00  0.00    -0.042 A 
ATOM     26  C   UNL     1      -4.801  -2.840  -0.408  1.00  0.00     0.001 A 
ATOM     27  C   UNL     1      -6.631  -1.492  -1.211  1.00  0.00     0.004 A 
ATOM     28  C   UNL     1      -5.893  -2.674  -1.251  1.00  0.00     0.000 A 
ATOM     29  C   UNL     1      -7.143   0.786  -0.323  1.00  0.00     0.045 C 
ENDBRANCH  22  23
ENDBRANCH   4  22
TORSDOF 6
