REMARK SMILES COc1cc2c(cc1OC)S[C@@H](C(O)=CCc1cc[n+](Cc3ccccc3)cc1)C2
REMARK SMILES IDX 15 1 13 2 14 3 12 5 30 6 11 7 5 8 6 9 4 10 7 11 3 12 8 13
REMARK SMILES IDX 2 14 1 15 9 16 10 17 16 18 17 19 18 20 29 21 19 22 28 23
REMARK SMILES IDX 20 24 21 25 22 26 23 27 27 28 24 29 26 30 25 31
REMARK H PARENT 14 4
ROOT
ATOM      1  C   UNL     1      -0.265   1.099   1.393  1.00  0.00     0.020 C 
ENDROOT
BRANCH   1   2
ATOM      2  C   UNL     1      -1.462   1.254   0.807  1.00  0.00     0.102 C 
BRANCH   2   3
ATOM      3  O   UNL     1      -2.565   0.799   1.522  1.00  0.00    -0.511 OA
ATOM      4  H   UNL     1      -3.354   1.282   1.203  1.00  0.00     0.293 HD
ENDBRANCH   2   3
BRANCH   2   5
ATOM      5  C   UNL     1      -1.735   1.900  -0.544  1.00  0.00     0.121 C 
ATOM      6  C   UNL     1      -2.280   0.904  -1.591  1.00  0.00     0.059 C 
ATOM      7  S   UNL     1      -2.987   3.222  -0.354  1.00  0.00    -0.114 SA
ATOM      8  C   UNL     1      -3.770   1.083  -1.685  1.00  0.00    -0.029 A 
ATOM      9  C   UNL     1      -4.252   2.264  -1.129  1.00  0.00     0.015 A 
ATOM     10  C   UNL     1      -4.640   0.195  -2.318  1.00  0.00     0.055 A 
ATOM     11  C   UNL     1      -5.598   2.580  -1.186  1.00  0.00     0.065 A 
ATOM     12  C   UNL     1      -6.011   0.489  -2.379  1.00  0.00     0.161 A 
ATOM     13  C   UNL     1      -6.479   1.703  -1.830  1.00  0.00     0.161 A 
BRANCH  12  14
ATOM     14  O   UNL     1      -6.943  -0.348  -2.933  1.00  0.00    -0.493 OA
ATOM     15  C   UNL     1      -6.518  -1.632  -3.368  1.00  0.00     0.278 C 
ENDBRANCH  12  14
BRANCH  13  16
ATOM     16  O   UNL     1      -7.788   2.114  -1.800  1.00  0.00    -0.493 OA
ATOM     17  C   UNL     1      -8.505   1.937  -3.019  1.00  0.00     0.278 C 
ENDBRANCH  13  16
ENDBRANCH   2   5
ENDBRANCH   1   2
BRANCH   1  18
ATOM     18  C   UNL     1       1.084   1.482   0.859  1.00  0.00     0.067 C 
BRANCH  18  19
ATOM     19  C   UNL     1       2.123   0.420   1.155  1.00  0.00    -0.032 A 
ATOM     20  C   UNL     1       2.189  -0.747   0.393  1.00  0.00     0.075 A 
ATOM     21  C   UNL     1       3.007   0.566   2.225  1.00  0.00     0.075 A 
ATOM     22  C   UNL     1       3.128  -1.725   0.705  1.00  0.00     0.308 A 
ATOM     23  C   UNL     1       3.930  -0.438   2.501  1.00  0.00     0.308 A 
ATOM     24  N   UNL     1       3.980  -1.558   1.742  1.00  0.00    -0.201 N 
BRANCH  24  25
ATOM     25  C   UNL     1       4.966  -2.619   2.069  1.00  0.00     0.393 C 
BRANCH  25  26
ATOM     26  C   UNL     1       6.375  -2.151   1.810  1.00  0.00     0.017 A 
ATOM     27  C   UNL     1       6.786  -1.786   0.518  1.00  0.00     0.010 A 
ATOM     28  C   UNL     1       7.302  -2.082   2.862  1.00  0.00     0.010 A 
ATOM     29  C   UNL     1       8.091  -1.346   0.290  1.00  0.00     0.001 A 
ATOM     30  C   UNL     1       8.605  -1.642   2.628  1.00  0.00     0.001 A 
ATOM     31  C   UNL     1       8.998  -1.273   1.344  1.00  0.00     0.000 A 
ENDBRANCH  25  26
ENDBRANCH  24  25
ENDBRANCH  18  19
ENDBRANCH   1  18
TORSDOF 9
