REMARK SMILES COc1ccc(OC)c([C@@H]2C=C(c3cc(F)cc(F)c3)NN2c2ccc(S(N)(=O)=O)cc2)c1
REMARK SMILES IDX 23 1 24 2 25 3 26 4 31 5 32 6 22 7 21 8 12 9 11 10 10 11
REMARK SMILES IDX 13 13 14 14 20 15 15 16 18 17 17 18 16 19 19 20 9 21 33 22
REMARK SMILES IDX 6 23 3 24 5 25 4 26 7 27 8 28 2 29 1 30 27 31 29 32 30 33
REMARK SMILES IDX 28 34
REMARK H PARENT 21 12 28 35 28 36
ROOT
ATOM      1  C   UNL     1       1.696   0.124   0.570  1.00  0.00     0.058 A 
ATOM      2  C   UNL     1       2.839   0.941   0.465  1.00  0.00     0.029 A 
ATOM      3  C   UNL     1       4.111   0.485   0.829  1.00  0.00     0.024 A 
ATOM      4  C   UNL     1       4.260  -0.820   1.290  1.00  0.00     0.082 A 
ATOM      5  C   UNL     1       3.153  -1.659   1.403  1.00  0.00     0.024 A 
ATOM      6  C   UNL     1       1.887  -1.187   1.036  1.00  0.00     0.029 A 
ENDROOT
BRANCH   1   7
ATOM      7  N   UNL     1       0.435   0.610   0.174  1.00  0.00    -0.276 N 
ATOM      8  N   UNL     1       0.237   1.946  -0.180  1.00  0.00    -0.297 N 
ATOM      9  C   UNL     1      -1.060   2.342   0.121  1.00  0.00     0.060 C 
ATOM     10  C   UNL     1      -1.706   1.355   0.760  1.00  0.00     0.033 C 
ATOM     11  C   UNL     1      -0.805   0.140   0.880  1.00  0.00     0.165 C 
ATOM     12  H   UNL     1       0.479   2.167  -1.147  1.00  0.00     0.188 HD
BRANCH   9  13
ATOM     13  C   UNL     1      -1.577   3.655  -0.267  1.00  0.00     0.005 A 
ATOM     14  C   UNL     1      -0.723   4.766  -0.314  1.00  0.00     0.049 A 
ATOM     15  C   UNL     1      -2.921   3.831  -0.621  1.00  0.00     0.049 A 
ATOM     16  C   UNL     1      -1.213   6.013  -0.696  1.00  0.00     0.126 A 
ATOM     17  C   UNL     1      -3.388   5.088  -1.001  1.00  0.00     0.126 A 
ATOM     18  C   UNL     1      -2.544   6.186  -1.042  1.00  0.00     0.078 A 
ATOM     19  F   UNL     1      -0.382   7.063  -0.731  1.00  0.00    -0.207 F 
ATOM     20  F   UNL     1      -4.676   5.235  -1.338  1.00  0.00    -0.207 F 
ENDBRANCH   9  13
BRANCH  11  21
ATOM     21  C   UNL     1      -1.431  -1.106   0.279  1.00  0.00     0.026 A 
ATOM     22  C   UNL     1      -1.806  -2.149   1.151  1.00  0.00     0.056 A 
ATOM     23  C   UNL     1      -1.688  -1.279  -1.089  1.00  0.00     0.124 A 
ATOM     24  C   UNL     1      -2.405  -3.324   0.685  1.00  0.00     0.119 A 
ATOM     25  C   UNL     1      -2.310  -2.441  -1.558  1.00  0.00     0.050 A 
ATOM     26  C   UNL     1      -2.659  -3.466  -0.675  1.00  0.00     0.050 A 
BRANCH  23  27
ATOM     27  O   UNL     1      -1.413  -0.272  -1.976  1.00  0.00    -0.496 OA
ATOM     28  C   UNL     1      -0.359  -0.643  -2.864  1.00  0.00     0.278 C 
ENDBRANCH  23  27
BRANCH  24  29
ATOM     29  O   UNL     1      -2.696  -4.239   1.659  1.00  0.00    -0.497 OA
ATOM     30  C   UNL     1      -3.316  -5.449   1.242  1.00  0.00     0.278 C 
ENDBRANCH  24  29
ENDBRANCH  11  21
ENDBRANCH   1   7
BRANCH   4  31
ATOM     31  S   UNL     1       5.860  -1.420   1.758  1.00  0.00     0.238 S 
ATOM     32  O   UNL     1       5.692  -2.439   2.766  1.00  0.00    -0.207 OA
ATOM     33  O   UNL     1       6.744  -0.291   1.931  1.00  0.00    -0.207 OA
BRANCH  31  34
ATOM     34  N   UNL     1       6.363  -2.174   0.337  1.00  0.00    -0.225 NA
ATOM     35  H   UNL     1       5.624  -2.247  -0.361  1.00  0.00     0.137 HD
ATOM     36  H   UNL     1       7.181  -1.679  -0.024  1.00  0.00     0.137 HD
ENDBRANCH  31  34
ENDBRANCH   4  31
TORSDOF 7
