REMARK SMILES COc1cc2c(c(OC)c1)C[C@@H](NC(=O)OCc1ccccc1)C2
REMARK SMILES IDX 13 1 14 2 15 3 12 5 3 6 4 7 10 8 5 9 7 10 6 11 24 12 11 13
REMARK SMILES IDX 2 14 1 15 8 16 9 17 16 18 17 19 18 20 19 21 23 22 20 23
REMARK SMILES IDX 22 24 21 25
REMARK H PARENT 13 4
ROOT
ATOM      1  N   UNL     1       0.843   0.711  -0.375  1.00  0.00    -0.318 N 
ATOM      2  C   UNL     1       1.734   0.392  -1.353  1.00  0.00     0.407 C 
ATOM      3  O   UNL     1       1.450   0.120  -2.509  1.00  0.00    -0.225 OA
ATOM      4  H   UNL     1       1.229   0.759   0.559  1.00  0.00     0.167 HD
ENDROOT
BRANCH   1   5
ATOM      5  C   UNL     1      -0.589   0.628  -0.578  1.00  0.00     0.094 C 
ATOM      6  C   UNL     1      -4.785  -1.219   0.357  1.00  0.00     0.122 A 
ATOM      7  C   UNL     1      -3.555  -1.566  -0.206  1.00  0.00     0.050 A 
ATOM      8  C   UNL     1      -4.941   0.022   1.008  1.00  0.00     0.093 A 
ATOM      9  C   UNL     1      -2.512  -0.658  -0.118  1.00  0.00    -0.035 A 
ATOM     10  C   UNL     1      -3.883   0.930   1.105  1.00  0.00     0.126 A 
ATOM     11  C   UNL     1      -2.674   0.573   0.527  1.00  0.00    -0.000 A 
ATOM     12  C   UNL     1      -1.109  -0.827  -0.612  1.00  0.00     0.061 C 
ATOM     13  C   UNL     1      -1.391   1.349   0.524  1.00  0.00     0.065 C 
BRANCH   6  14
ATOM     14  O   UNL     1      -5.914  -1.996   0.352  1.00  0.00    -0.497 OA
ATOM     15  C   UNL     1      -5.828  -3.249  -0.316  1.00  0.00     0.278 C 
ENDBRANCH   6  14
BRANCH  10  16
ATOM     16  O   UNL     1      -3.916   2.147   1.722  1.00  0.00    -0.496 OA
ATOM     17  C   UNL     1      -5.152   2.534   2.309  1.00  0.00     0.278 C 
ENDBRANCH  10  16
ENDBRANCH   1   5
BRANCH   2  18
ATOM     18  O   UNL     1       2.981   0.404  -0.832  1.00  0.00    -0.445 OA
BRANCH  18  19
ATOM     19  C   UNL     1       3.999   0.081  -1.781  1.00  0.00     0.270 C 
BRANCH  19  20
ATOM     20  C   UNL     1       5.327   0.123  -1.068  1.00  0.00    -0.011 A 
ATOM     21  C   UNL     1       5.883  -1.044  -0.526  1.00  0.00     0.007 A 
ATOM     22  C   UNL     1       6.005   1.339  -0.904  1.00  0.00     0.007 A 
ATOM     23  C   UNL     1       7.105  -0.998   0.148  1.00  0.00     0.000 A 
ATOM     24  C   UNL     1       7.226   1.383  -0.230  1.00  0.00     0.000 A 
ATOM     25  C   UNL     1       7.777   0.215   0.294  1.00  0.00     0.000 A 
ENDBRANCH  19  20
ENDBRANCH  18  19
ENDBRANCH   2  18
TORSDOF 6
