REMARK SMILES O=C(C[NH2+]Cc1cc(F)cc(F)c1)Nc1ccc2nc3n(c(=O)c2c1)CCC3
REMARK SMILES IDX 3 1 4 2 5 5 6 6 7 7 13 8 8 9 11 10 10 11 9 12 12 13 2 14
REMARK SMILES IDX 14 15 1 16 15 18 16 19 25 20 17 21 24 22 18 23 22 24 19 25
REMARK SMILES IDX 21 26 20 27 26 28 28 29 27 30 23 31
REMARK H PARENT 4 3 4 4 14 17
ROOT
ATOM      1  C   UNL     1      -2.755  -0.390   0.980  1.00  0.00     0.362 C 
ENDROOT
BRANCH   1   2
ATOM      2  N   UNL     1      -3.761  -1.488   1.241  1.00  0.00    -0.335 N 
ATOM      3  H   UNL     1      -3.769  -2.123   0.432  1.00  0.00     0.347 HD
ATOM      4  H   UNL     1      -3.357  -2.073   1.993  1.00  0.00     0.347 HD
BRANCH   2   5
ATOM      5  C   UNL     1      -5.137  -1.068   1.598  1.00  0.00     0.297 C 
BRANCH   5   6
ATOM      6  C   UNL     1      -5.838  -0.355   0.478  1.00  0.00     0.012 A 
ATOM      7  C   UNL     1      -5.999   1.038   0.502  1.00  0.00     0.049 A 
ATOM      8  C   UNL     1      -6.322  -1.064  -0.632  1.00  0.00     0.049 A 
ATOM      9  C   UNL     1      -6.627   1.691  -0.560  1.00  0.00     0.126 A 
ATOM     10  C   UNL     1      -6.947  -0.387  -1.680  1.00  0.00     0.126 A 
ATOM     11  C   UNL     1      -7.102   0.990  -1.657  1.00  0.00     0.078 A 
ATOM     12  F   UNL     1      -6.758   3.022  -0.516  1.00  0.00    -0.207 F 
ATOM     13  F   UNL     1      -7.394  -1.086  -2.730  1.00  0.00    -0.207 F 
ENDBRANCH   5   6
ENDBRANCH   2   5
ENDBRANCH   1   2
BRANCH   1  14
ATOM     14  C   UNL     1      -1.345  -0.981   1.024  1.00  0.00     0.279 C 
ATOM     15  N   UNL     1      -0.353  -0.128   0.591  1.00  0.00    -0.321 N 
ATOM     16  O   UNL     1      -1.225  -2.134   1.434  1.00  0.00    -0.268 OA
ATOM     17  H   UNL     1      -0.611   0.804   0.281  1.00  0.00     0.170 HD
BRANCH  15  18
ATOM     18  C   UNL     1       1.033  -0.402   0.525  1.00  0.00     0.042 A 
ATOM     19  C   UNL     1       1.614  -1.615   0.903  1.00  0.00     0.028 A 
ATOM     20  C   UNL     1       1.859   0.621   0.050  1.00  0.00     0.042 A 
ATOM     21  C   UNL     1       3.002  -1.804   0.807  1.00  0.00     0.031 A 
ATOM     22  C   UNL     1       3.244   0.422  -0.043  1.00  0.00     0.068 A 
ATOM     23  C   UNL     1       3.832  -0.789   0.334  1.00  0.00     0.078 A 
ATOM     24  C   UNL     1       4.122   1.501  -0.544  1.00  0.00     0.261 A 
ATOM     25  N   UNL     1       5.217  -1.022   0.265  1.00  0.00    -0.234 NA
ATOM     26  N   UNL     1       5.447   1.158  -0.624  1.00  0.00    -0.296 N 
ATOM     27  C   UNL     1       5.938  -0.061  -0.203  1.00  0.00     0.112 A 
ATOM     28  C   UNL     1       6.509   2.039  -1.036  1.00  0.00     0.128 C 
ATOM     29  C   UNL     1       7.429  -0.075  -0.349  1.00  0.00     0.077 C 
ATOM     30  C   UNL     1       7.669   1.094  -1.303  1.00  0.00     0.030 C 
ATOM     31  O   UNL     1       3.659   2.596  -0.844  1.00  0.00    -0.269 OA
ENDBRANCH  15  18
ENDBRANCH   1  14
TORSDOF 5
