REMARK SMILES COc1ccccc1C(=O)N1Cc2cc(NC(=O)c3cccc(Cl)c3)ccc2CC1=O
REMARK SMILES IDX 11 1 12 2 13 3 14 4 15 5 26 6 27 7 28 8 29 9 30 10 31 11
REMARK SMILES IDX 9 12 10 13 8 14 3 15 4 16 5 17 7 18 6 19 2 20 1 21 16 22
REMARK SMILES IDX 17 23 18 25 19 26 20 27 25 28 21 29 23 30 22 31 24 32
REMARK H PARENT 16 24
ROOT
ATOM      1  N   UNL     1      -2.154   0.741   0.181  1.00  0.00    -0.274 N 
ATOM      2  C   UNL     1      -0.824   1.283  -0.061  1.00  0.00     0.164 C 
ATOM      3  C   UNL     1       0.246   0.523   0.670  1.00  0.00    -0.022 A 
ATOM      4  C   UNL     1       1.523   0.324   0.126  1.00  0.00     0.032 A 
ATOM      5  C   UNL     1       2.513  -0.354   0.851  1.00  0.00     0.041 A 
ATOM      6  C   UNL     1       2.213  -0.810   2.135  1.00  0.00     0.026 A 
ATOM      7  C   UNL     1       0.945  -0.602   2.687  1.00  0.00     0.007 A 
ATOM      8  C   UNL     1      -0.043   0.056   1.953  1.00  0.00    -0.033 A 
ATOM      9  C   UNL     1      -1.404   0.335   2.525  1.00  0.00     0.136 C 
ATOM     10  C   UNL     1      -2.520   0.402   1.488  1.00  0.00     0.234 C 
ATOM     11  O   UNL     1      -3.675   0.176   1.855  1.00  0.00    -0.274 OA
ENDROOT
BRANCH   1  12
ATOM     12  C   UNL     1      -3.069   0.943  -0.867  1.00  0.00     0.264 C 
ATOM     13  O   UNL     1      -2.811   1.614  -1.867  1.00  0.00    -0.268 OA
BRANCH  12  14
ATOM     14  C   UNL     1      -4.389   0.285  -0.807  1.00  0.00     0.082 A 
ATOM     15  C   UNL     1      -5.558   1.043  -0.637  1.00  0.00     0.131 A 
ATOM     16  C   UNL     1      -6.786   0.374  -0.632  1.00  0.00     0.047 A 
ATOM     17  C   UNL     1      -6.841  -1.016  -0.801  1.00  0.00     0.004 A 
ATOM     18  C   UNL     1      -4.441  -1.105  -0.983  1.00  0.00     0.018 A 
ATOM     19  C   UNL     1      -5.672  -1.754  -0.976  1.00  0.00     0.001 A 
BRANCH  15  20
ATOM     20  O   UNL     1      -5.400   2.392  -0.464  1.00  0.00    -0.496 OA
ATOM     21  C   UNL     1      -6.576   3.175  -0.312  1.00  0.00     0.278 C 
ENDBRANCH  15  20
ENDBRANCH  12  14
ENDBRANCH   1  12
BRANCH   5  22
ATOM     22  N   UNL     1       3.769  -0.516   0.229  1.00  0.00    -0.322 N 
ATOM     23  C   UNL     1       4.862  -1.209   0.718  1.00  0.00     0.255 C 
ATOM     24  H   UNL     1       3.844  -0.138  -0.707  1.00  0.00     0.170 HD
ATOM     25  O   UNL     1       4.917  -1.865   1.750  1.00  0.00    -0.269 OA
BRANCH  23  26
ATOM     26  C   UNL     1       6.073  -1.165  -0.149  1.00  0.00     0.041 A 
ATOM     27  C   UNL     1       6.889  -2.303  -0.214  1.00  0.00     0.014 A 
ATOM     28  C   UNL     1       6.423  -0.014  -0.864  1.00  0.00     0.034 A 
ATOM     29  C   UNL     1       8.034  -2.302  -1.013  1.00  0.00     0.002 A 
ATOM     30  C   UNL     1       7.570  -0.023  -1.658  1.00  0.00     0.041 A 
ATOM     31  C   UNL     1       8.373  -1.161  -1.740  1.00  0.00     0.020 A 
ATOM     32  Cl  UNL     1       8.000   1.389  -2.544  1.00  0.00    -0.084 Cl
ENDBRANCH  23  26
ENDBRANCH   5  22
TORSDOF 5
