REMARK SMILES CCOC(=O)c1cc2c(OC(=O)N(C)C)cccc2[n+](C)c1
REMARK SMILES IDX 6 1 7 2 8 3 9 4 16 5 17 6 18 7 19 8 20 9 21 10 22 11 4 12
REMARK SMILES IDX 5 13 3 14 2 15 1 16 10 17 11 18 13 19 12 20 14 21 15 22
REMARK H PARENT
ROOT
ATOM      1  C   UNL     1       1.542  -0.067  -0.209  1.00  0.00     0.124 A 
ATOM      2  C   UNL     1       0.227  -0.125  -0.649  1.00  0.00     0.041 A 
ATOM      3  C   UNL     1      -0.524   1.052  -0.797  1.00  0.00     0.090 A 
ATOM      4  C   UNL     1      -1.874   1.044  -1.208  1.00  0.00     0.146 A 
ATOM      5  C   UNL     1      -2.597   2.219  -1.405  1.00  0.00     0.048 A 
ATOM      6  C   UNL     1      -1.990   3.441  -1.149  1.00  0.00     0.011 A 
ATOM      7  C   UNL     1      -0.666   3.482  -0.701  1.00  0.00     0.080 A 
ATOM      8  C   UNL     1       0.087   2.303  -0.515  1.00  0.00     0.216 A 
ATOM      9  N   UNL     1       1.386   2.319  -0.076  1.00  0.00    -0.200 N 
ATOM     10  C   UNL     1       2.059   3.594   0.258  1.00  0.00     0.440 C 
ATOM     11  C   UNL     1       2.095   1.171   0.076  1.00  0.00     0.324 A 
ENDROOT
BRANCH   1  12
ATOM     12  C   UNL     1       2.311  -1.324  -0.060  1.00  0.00     0.344 C 
ATOM     13  O   UNL     1       1.870  -2.415  -0.370  1.00  0.00    -0.246 OA
BRANCH  12  14
ATOM     14  O   UNL     1       3.536  -1.062   0.455  1.00  0.00    -0.462 OA
BRANCH  14  15
ATOM     15  C   UNL     1       4.352  -2.230   0.643  1.00  0.00     0.230 C 
ATOM     16  C   UNL     1       5.680  -1.787   1.224  1.00  0.00     0.049 C 
ENDBRANCH  14  15
ENDBRANCH  12  14
ENDBRANCH   1  12
BRANCH   4  17
ATOM     17  O   UNL     1      -2.547  -0.160  -1.456  1.00  0.00    -0.409 OA
BRANCH  17  18
ATOM     18  C   UNL     1      -3.043  -0.753  -0.293  1.00  0.00     0.414 C 
ATOM     19  N   UNL     1      -3.750  -1.918  -0.544  1.00  0.00    -0.314 N 
ATOM     20  O   UNL     1      -2.851  -0.294   0.830  1.00  0.00    -0.224 OA
ATOM     21  C   UNL     1      -4.427  -2.584   0.554  1.00  0.00     0.150 C 
ATOM     22  C   UNL     1      -4.080  -2.377  -1.884  1.00  0.00     0.150 C 
ENDBRANCH  17  18
ENDBRANCH   4  17
TORSDOF 5
