REMARK SMILES C[N@H+]1CC[C@H](C[C@@H]2Cc3ccccc3C2=O)CC1
REMARK SMILES IDX 6 1 5 2 2 3 3 4 18 5 4 6 17 7 1 8 7 10 8 11 15 12 9 13 14 14
REMARK SMILES IDX 10 15 13 16 11 17 12 18 16 19
REMARK H PARENT 2 9
ROOT
ATOM      1  C   UNL     1      -3.463  -1.166  -2.736  1.00  0.00     0.016 C 
ENDROOT
BRANCH   1   2
ATOM      2  C   UNL     1      -3.603  -0.833  -1.236  1.00  0.00     0.001 C 
ATOM      3  N   UNL     1      -2.298  -0.274   1.329  1.00  0.00    -0.337 N 
ATOM      4  C   UNL     1      -3.029   0.826   0.605  1.00  0.00     0.262 C 
ATOM      5  C   UNL     1      -2.924  -1.623   1.084  1.00  0.00     0.262 C 
ATOM      6  C   UNL     1      -3.019   0.547  -0.893  1.00  0.00     0.065 C 
ATOM      7  C   UNL     1      -2.902  -1.924  -0.407  1.00  0.00     0.065 C 
ATOM      8  C   UNL     1      -2.163   0.019   2.798  1.00  0.00     0.332 C 
ATOM      9  H   UNL     1      -1.340  -0.307   0.952  1.00  0.00     0.347 HD
ENDBRANCH   1   2
BRANCH   1  10
ATOM     10  C   UNL     1      -4.241  -0.244  -3.682  1.00  0.00     0.066 C 
ATOM     11  C   UNL     1      -5.777  -0.381  -3.574  1.00  0.00     0.048 C 
ATOM     12  C   UNL     1      -3.930  -0.583  -5.130  1.00  0.00     0.166 C 
ATOM     13  C   UNL     1      -6.233  -0.559  -4.987  1.00  0.00    -0.036 A 
ATOM     14  C   UNL     1      -5.174  -0.700  -5.877  1.00  0.00     0.021 A 
ATOM     15  C   UNL     1      -7.536  -0.629  -5.455  1.00  0.00     0.004 A 
ATOM     16  C   UNL     1      -5.349  -0.909  -7.232  1.00  0.00     0.012 A 
ATOM     17  C   UNL     1      -7.743  -0.835  -6.824  1.00  0.00     0.000 A 
ATOM     18  C   UNL     1      -6.658  -0.975  -7.706  1.00  0.00     0.001 A 
ATOM     19  O   UNL     1      -2.819  -0.718  -5.610  1.00  0.00    -0.294 OA
ENDBRANCH   1  10
TORSDOF 2
