REMARK SMILES O=C1CCc2cc3c(CC[C@H]4CC[N@H+](Cc5ccccc5)CC4)noc3cc2N1
REMARK SMILES IDX 10 1 11 2 13 3 14 4 12 5 22 6 23 7 15 9 16 10 17 11 21 12
REMARK SMILES IDX 18 13 20 14 19 15 9 16 8 17 7 18 24 19 6 20 26 21 25 22 5 23
REMARK SMILES IDX 27 24 4 25 28 26 3 27 29 28 2 29 1 31
REMARK H PARENT 14 8 29 30
ROOT
ATOM      1  C   UNL     1      -0.430  -0.861   0.452  1.00  0.00     0.010 C 
ENDROOT
BRANCH   1   2
ATOM      2  C   UNL     1       0.996  -0.669  -0.099  1.00  0.00     0.000 C 
ATOM      3  C   UNL     1       3.019  -1.902  -1.002  1.00  0.00     0.262 C 
ATOM      4  N   UNL     1       2.985  -1.023  -2.224  1.00  0.00    -0.331 N 
ATOM      5  C   UNL     1       1.615  -2.035  -0.430  1.00  0.00     0.065 C 
ATOM      6  C   UNL     1       2.441   0.352  -1.919  1.00  0.00     0.262 C 
ATOM      7  C   UNL     1       1.035   0.234  -1.339  1.00  0.00     0.065 C 
ATOM      8  H   UNL     1       2.349  -1.456  -2.906  1.00  0.00     0.348 HD
BRANCH   4   9
ATOM      9  C   UNL     1       4.341  -0.975  -2.902  1.00  0.00     0.299 C 
BRANCH   9  10
ATOM     10  C   UNL     1       4.282  -0.419  -4.298  1.00  0.00     0.006 A 
ATOM     11  C   UNL     1       3.714  -1.170  -5.340  1.00  0.00     0.009 A 
ATOM     12  C   UNL     1       4.777   0.865  -4.577  1.00  0.00     0.009 A 
ATOM     13  C   UNL     1       3.636  -0.643  -6.629  1.00  0.00     0.001 A 
ATOM     14  C   UNL     1       4.696   1.387  -5.869  1.00  0.00     0.001 A 
ATOM     15  C   UNL     1       4.124   0.635  -6.892  1.00  0.00     0.000 A 
ENDBRANCH   9  10
ENDBRANCH   4   9
ENDBRANCH   1   2
BRANCH   1  16
ATOM     16  C   UNL     1      -1.068   0.433   0.976  1.00  0.00     0.061 C 
BRANCH  16  17
ATOM     17  C   UNL     1      -2.312   0.166   1.752  1.00  0.00     0.091 A 
ATOM     18  C   UNL     1      -3.664   0.295   1.343  1.00  0.00     0.045 A 
ATOM     19  N   UNL     1      -2.218  -0.263   3.019  1.00  0.00    -0.084 NA
ATOM     20  C   UNL     1      -4.364   0.674   0.184  1.00  0.00     0.020 A 
ATOM     21  C   UNL     1      -4.383  -0.094   2.459  1.00  0.00     0.169 A 
ATOM     22  O   UNL     1      -3.522  -0.425   3.458  1.00  0.00    -0.356 OA
ATOM     23  C   UNL     1      -5.771   0.660   0.216  1.00  0.00    -0.023 A 
ATOM     24  C   UNL     1      -5.773  -0.138   2.530  1.00  0.00     0.077 A 
ATOM     25  C   UNL     1      -6.566   0.965  -1.026  1.00  0.00     0.047 C 
ATOM     26  C   UNL     1      -6.453   0.262   1.377  1.00  0.00     0.048 A 
ATOM     27  C   UNL     1      -7.923   1.557  -0.685  1.00  0.00     0.105 C 
ATOM     28  N   UNL     1      -7.852   0.238   1.377  1.00  0.00    -0.326 N 
ATOM     29  C   UNL     1      -8.634   0.755   0.378  1.00  0.00     0.224 C 
ATOM     30  H   UNL     1      -8.357  -0.176   2.151  1.00  0.00     0.169 HD
ATOM     31  O   UNL     1      -9.857   0.644   0.411  1.00  0.00    -0.275 OA
ENDBRANCH  16  17
ENDBRANCH   1  16
TORSDOF 5
