REMARK SMILES O=C1C(NCCN=c2c3c([nH]c4cc(Cl)ccc24)CCCC3)=CC(=O)c2c(O)cccc21
REMARK SMILES IDX 5 1 6 2 7 3 8 4 11 5 10 6 12 7 9 8 19 9 13 10 18 11 22 12
REMARK SMILES IDX 20 13 14 14 17 15 21 16 16 17 15 19 4 20 3 22 23 23 2 24
REMARK SMILES IDX 24 25 32 26 26 27 31 28 27 29 30 30 29 31 1 32 25 33 28 34
REMARK H PARENT 11 18 4 21 28 35
ROOT
ATOM      1  C   UNL     1       0.565   0.965   0.814  1.00  0.00     0.136 C 
ENDROOT
BRANCH   1   2
ATOM      2  C   UNL     1      -0.530   1.158   1.872  1.00  0.00     0.164 C 
BRANCH   2   3
ATOM      3  N   UNL     1      -1.693   1.815   1.306  1.00  0.00    -0.282 NA
BRANCH   3   4
ATOM      4  C   UNL     1      -2.608   1.283   0.580  1.00  0.00     0.072 A 
ATOM      5  N   UNL     1      -4.234   0.577  -1.628  1.00  0.00    -0.358 N 
ATOM      6  C   UNL     1      -3.585  -0.412  -0.914  1.00  0.00     0.021 A 
ATOM      7  C   UNL     1      -4.394   1.857  -1.082  1.00  0.00     0.049 A 
ATOM      8  C   UNL     1      -2.814  -0.165   0.170  1.00  0.00    -0.003 A 
ATOM      9  C   UNL     1      -3.831  -1.823  -1.417  1.00  0.00     0.054 C 
ATOM     10  C   UNL     1      -5.265   2.780  -1.671  1.00  0.00     0.047 A 
ATOM     11  C   UNL     1      -3.617   2.250   0.016  1.00  0.00     0.024 A 
ATOM     12  C   UNL     1      -2.246  -1.277   1.010  1.00  0.00     0.039 C 
ATOM     13  C   UNL     1      -2.945  -2.885  -0.775  1.00  0.00     0.007 C 
ATOM     14  C   UNL     1      -5.388   4.065  -1.138  1.00  0.00     0.043 A 
ATOM     15  C   UNL     1      -3.741   3.545   0.542  1.00  0.00     0.014 A 
ATOM     16  C   UNL     1      -2.851  -2.653   0.723  1.00  0.00     0.005 C 
ATOM     17  C   UNL     1      -4.634   4.450  -0.032  1.00  0.00     0.021 A 
ATOM     18  H   UNL     1      -4.951   0.269  -2.276  1.00  0.00     0.166 HD
ATOM     19  Cl  UNL     1      -6.476   5.185  -1.861  1.00  0.00    -0.084 Cl
ENDBRANCH   3   4
ENDBRANCH   2   3
ENDBRANCH   1   2
BRANCH   1  20
ATOM     20  N   UNL     1       1.697   0.236   1.376  1.00  0.00    -0.380 N 
ATOM     21  H   UNL     1       1.982   0.564   2.307  1.00  0.00     0.160 HD
BRANCH  20  22
ATOM     22  C   UNL     1       2.816  -0.186   0.662  1.00  0.00     0.087 C 
ATOM     23  C   UNL     1       2.847  -0.489  -0.640  1.00  0.00     0.082 C 
ATOM     24  C   UNL     1       4.082  -0.303   1.471  1.00  0.00     0.209 C 
ATOM     25  C   UNL     1       4.063  -0.948  -1.330  1.00  0.00     0.192 C 
ATOM     26  C   UNL     1       5.306  -0.786   0.806  1.00  0.00     0.039 A 
ATOM     27  C   UNL     1       5.301  -1.097  -0.552  1.00  0.00     0.075 A 
ATOM     28  C   UNL     1       6.485  -0.925   1.554  1.00  0.00     0.013 A 
ATOM     29  C   UNL     1       6.480  -1.548  -1.160  1.00  0.00     0.127 A 
ATOM     30  C   UNL     1       7.654  -1.375   0.941  1.00  0.00     0.005 A 
ATOM     31  C   UNL     1       7.651  -1.687  -0.418  1.00  0.00     0.047 A 
ATOM     32  O   UNL     1       4.088   0.011   2.659  1.00  0.00    -0.287 OA
ATOM     33  O   UNL     1       4.044  -1.207  -2.530  1.00  0.00    -0.289 OA
BRANCH  29  34
ATOM     34  O   UNL     1       6.561  -1.873  -2.488  1.00  0.00    -0.507 OA
ATOM     35  H   UNL     1       5.679  -1.729  -2.899  1.00  0.00     0.293 HD
ENDBRANCH  29  34
ENDBRANCH  20  22
ENDBRANCH   1  20
TORSDOF 6
