REMARK SMILES CC1=C(O)c2cccc(C)c2C1
REMARK SMILES IDX 3 1 2 2 1 3 12 4 11 5 9 6 10 7 8 8 7 9 6 10 5 11 4 12
REMARK H PARENT 4 13
ROOT
ATOM      1  C   UNL     1       1.595  -0.938  -0.029  1.00  0.00     0.122 C 
ATOM      2  C   UNL     1       1.914   0.353   0.142  1.00  0.00    -0.026 C 
ATOM      3  C   UNL     1       3.269   0.945   0.284  1.00  0.00     0.044 C 
ATOM      4  C   UNL     1       0.681   1.226   0.183  1.00  0.00     0.071 C 
ATOM      5  C   UNL     1      -0.415   0.210   0.004  1.00  0.00    -0.030 A 
ATOM      6  C   UNL     1      -1.792   0.414  -0.044  1.00  0.00    -0.047 A 
ATOM      7  C   UNL     1      -2.383   1.783   0.089  1.00  0.00     0.044 C 
ATOM      8  C   UNL     1      -2.603  -0.714  -0.222  1.00  0.00     0.004 A 
ATOM      9  C   UNL     1      -2.044  -1.998  -0.346  1.00  0.00     0.001 A 
ATOM     10  C   UNL     1      -0.660  -2.185  -0.296  1.00  0.00     0.012 A 
ATOM     11  C   UNL     1       0.147  -1.073  -0.121  1.00  0.00     0.020 A 
ENDROOT
BRANCH   1  12
ATOM     12  O   UNL     1       2.457  -1.986  -0.110  1.00  0.00    -0.507 OA
ATOM     13  H   UNL     1       1.936  -2.795  -0.234  1.00  0.00     0.293 HD
ENDBRANCH   1  12
TORSDOF 1
