REMARK SMILES Cc1cccc(C(=O)Nc2ccc3c(c2)CN(C(=O)c2cccc(C)c2)C(=O)C3)c1
REMARK SMILES IDX 10 1 11 2 12 3 13 4 14 5 15 6 16 7 17 8 27 9 28 10 29 11
REMARK SMILES IDX 9 12 7 13 8 14 6 16 2 17 3 18 30 19 4 20 5 21 1 22 18 23
REMARK SMILES IDX 19 24 20 25 21 26 26 27 22 28 24 29 23 30 25 31
REMARK H PARENT 9 15
ROOT
ATOM      1  C   UNL     1       1.745  -0.237   1.053  1.00  0.00     0.041 A 
ATOM      2  C   UNL     1       1.327   0.360   2.249  1.00  0.00     0.026 A 
ATOM      3  C   UNL     1       0.023   0.183   2.720  1.00  0.00     0.007 A 
ATOM      4  C   UNL     1      -0.886  -0.581   1.987  1.00  0.00    -0.033 A 
ATOM      5  C   UNL     1      -0.480  -1.178   0.791  1.00  0.00    -0.022 A 
ATOM      6  C   UNL     1       0.834  -1.009   0.330  1.00  0.00     0.032 A 
ATOM      7  C   UNL     1      -1.470  -2.038   0.058  1.00  0.00     0.164 C 
ATOM      8  N   UNL     1      -2.817  -1.491   0.136  1.00  0.00    -0.274 N 
ATOM      9  C   UNL     1      -3.307  -1.136   1.392  1.00  0.00     0.234 C 
ATOM     10  O   UNL     1      -4.506  -1.050   1.665  1.00  0.00    -0.274 OA
ATOM     11  C   UNL     1      -2.284  -0.834   2.481  1.00  0.00     0.136 C 
ENDROOT
BRANCH   1  12
ATOM     12  N   UNL     1       3.078  -0.010   0.652  1.00  0.00    -0.322 N 
ATOM     13  C   UNL     1       3.732  -0.559  -0.437  1.00  0.00     0.255 C 
ATOM     14  O   UNL     1       3.291  -1.398  -1.213  1.00  0.00    -0.269 OA
ATOM     15  H   UNL     1       3.631   0.565   1.273  1.00  0.00     0.170 HD
BRANCH  13  16
ATOM     16  C   UNL     1       5.133  -0.085  -0.626  1.00  0.00     0.040 A 
ATOM     17  C   UNL     1       6.826   1.660  -0.561  1.00  0.00    -0.050 A 
ATOM     18  C   UNL     1       7.773   0.735  -1.019  1.00  0.00     0.003 A 
ATOM     19  C   UNL     1       5.498   1.246  -0.381  1.00  0.00     0.017 A 
ATOM     20  C   UNL     1       7.407  -0.586  -1.282  1.00  0.00     0.001 A 
ATOM     21  C   UNL     1       6.088  -0.996  -1.090  1.00  0.00     0.014 A 
ATOM     22  C   UNL     1       7.214   3.092  -0.337  1.00  0.00     0.044 C 
ENDBRANCH  13  16
ENDBRANCH   1  12
BRANCH   8  23
ATOM     23  C   UNL     1      -3.689  -1.940  -0.858  1.00  0.00     0.260 C 
ATOM     24  O   UNL     1      -3.506  -2.988  -1.477  1.00  0.00    -0.269 OA
BRANCH  23  25
ATOM     25  C   UNL     1      -4.874  -1.102  -1.199  1.00  0.00     0.040 A 
ATOM     26  C   UNL     1      -6.026  -1.734  -1.680  1.00  0.00     0.014 A 
ATOM     27  C   UNL     1      -4.828   0.298  -1.121  1.00  0.00     0.017 A 
ATOM     28  C   UNL     1      -7.134  -0.974  -2.054  1.00  0.00     0.001 A 
ATOM     29  C   UNL     1      -5.945   1.065  -1.481  1.00  0.00    -0.050 A 
ATOM     30  C   UNL     1      -7.093   0.418  -1.956  1.00  0.00     0.003 A 
ATOM     31  C   UNL     1      -5.890   2.562  -1.416  1.00  0.00     0.044 C 
ENDBRANCH  23  25
ENDBRANCH   8  23
TORSDOF 4
