REMARK SMILES COc1ccccc1[C@@H](C)NS(N)(=O)=O
REMARK SMILES IDX 9 1 10 2 8 3 3 4 4 5 5 6 7 7 6 8 2 9 1 10 11 11 12 13 14 14
REMARK SMILES IDX 15 15 13 16
REMARK H PARENT 11 12 13 17 13 18
ROOT
ATOM      1  C   UNL     1       0.986  -0.213   1.045  1.00  0.00     0.101 C 
ATOM      2  C   UNL     1       1.160  -0.753   2.470  1.00  0.00     0.031 C 
ENDROOT
BRANCH   1   3
ATOM      3  C   UNL     1      -0.353  -0.602   0.431  1.00  0.00     0.012 A 
ATOM      4  C   UNL     1      -1.162   0.356  -0.216  1.00  0.00     0.123 A 
ATOM      5  C   UNL     1      -2.383  -0.030  -0.782  1.00  0.00     0.047 A 
ATOM      6  C   UNL     1      -2.809  -1.357  -0.712  1.00  0.00     0.004 A 
ATOM      7  C   UNL     1      -0.794  -1.939   0.473  1.00  0.00     0.009 A 
ATOM      8  C   UNL     1      -2.015  -2.311  -0.088  1.00  0.00     0.001 A 
BRANCH   4   9
ATOM      9  O   UNL     1      -0.656   1.631  -0.290  1.00  0.00    -0.496 OA
ATOM     10  C   UNL     1      -1.577   2.671  -0.605  1.00  0.00     0.278 C 
ENDBRANCH   4   9
ENDBRANCH   1   3
BRANCH   1  11
ATOM     11  N   UNL     1       2.115  -0.707   0.240  1.00  0.00    -0.195 NA
ATOM     12  H   UNL     1       1.962  -1.584  -0.252  1.00  0.00     0.143 HD
BRANCH  11  13
ATOM     13  S   UNL     1       2.991   0.362  -0.666  1.00  0.00     0.274 S 
ATOM     14  O   UNL     1       3.211   1.576   0.075  1.00  0.00    -0.195 OA
ATOM     15  O   UNL     1       4.048  -0.361  -1.321  1.00  0.00    -0.195 OA
BRANCH  13  16
ATOM     16  N   UNL     1       1.858   0.706  -1.829  1.00  0.00    -0.216 NA
ATOM     17  H   UNL     1       2.313   1.183  -2.607  1.00  0.00     0.138 HD
ATOM     18  H   UNL     1       1.118   1.289  -1.429  1.00  0.00     0.138 HD
ENDBRANCH  13  16
ENDBRANCH  11  13
ENDBRANCH   1  11
TORSDOF 5
