REMARK SMILES CNC(=O)Oc1ccc2c(c1)[C@]1(C)CC[N@@H+](C)[C@@H]1N2C
REMARK SMILES IDX 5 1 6 2 15 3 16 4 14 5 18 6 12 7 19 8 10 9 9 10 11 11 8 12
REMARK SMILES IDX 7 13 17 14 13 16 20 17 3 18 2 19 4 20 1 21
REMARK H PARENT 16 15 2 22
ROOT
ATOM      1  O   UNL     1       3.486  -0.400  -0.857  1.00  0.00    -0.410 OA
ENDROOT
BRANCH   1   2
ATOM      2  C   UNL     1       2.160  -0.740  -0.566  1.00  0.00     0.133 A 
ATOM      3  C   UNL     1      -1.628   1.316   1.713  1.00  0.00     0.265 C 
ATOM      4  N   UNL     1      -2.497   0.096   1.587  1.00  0.00    -0.317 N 
ATOM      5  C   UNL     1      -1.476   1.820   0.291  1.00  0.00     0.081 C 
ATOM      6  C   UNL     1      -2.409  -0.403   0.183  1.00  0.00     0.296 C 
ATOM      7  C   UNL     1      -1.437   0.549  -0.550  1.00  0.00     0.072 C 
ATOM      8  N   UNL     1      -1.786  -1.702   0.411  1.00  0.00    -0.325 N 
ATOM      9  C   UNL     1      -0.158  -0.227  -0.447  1.00  0.00    -0.007 A 
ATOM     10  C   UNL     1      -0.422  -1.506   0.057  1.00  0.00     0.045 A 
ATOM     11  C   UNL     1       1.126   0.170  -0.786  1.00  0.00     0.054 A 
ATOM     12  C   UNL     1       0.607  -2.422   0.225  1.00  0.00     0.030 A 
ATOM     13  C   UNL     1       1.911  -2.035  -0.093  1.00  0.00     0.049 A 
ATOM     14  C   UNL     1      -3.873   0.229   2.121  1.00  0.00     0.334 C 
ATOM     15  H   UNL     1      -2.029  -0.681   2.075  1.00  0.00     0.349 HD
ATOM     16  C   UNL     1      -1.825   0.787  -2.006  1.00  0.00     0.025 C 
ATOM     17  C   UNL     1      -2.374  -2.839  -0.303  1.00  0.00     0.150 C 
ENDBRANCH   1   2
BRANCH   1  18
ATOM     18  C   UNL     1       4.001   0.629  -0.079  1.00  0.00     0.412 C 
ATOM     19  N   UNL     1       5.299   0.859  -0.435  1.00  0.00    -0.324 N 
ATOM     20  O   UNL     1       3.391   1.248   0.784  1.00  0.00    -0.224 OA
ATOM     21  C   UNL     1       6.077   1.929   0.129  1.00  0.00     0.146 C 
ATOM     22  H   UNL     1       5.653   0.342  -1.229  1.00  0.00     0.166 HD
ENDBRANCH   1  18
TORSDOF 2
