REMARK SMILES C[NH+]1CCC(=CC=CC2=C(O)c3ccccc3C2)CC1
REMARK SMILES IDX 8 1 9 2 10 3 12 4 18 5 13 6 17 7 14 8 16 9 15 10 11 11 7 13
REMARK SMILES IDX 6 14 5 15 4 16 19 17 3 18 20 19 2 20 1 21
REMARK H PARENT 11 12 2 22
ROOT
ATOM      1  C   UNL     1      -0.928   1.928  -0.901  1.00  0.00     0.008 C 
ENDROOT
BRANCH   1   2
ATOM      2  C   UNL     1      -1.259   3.151  -0.210  1.00  0.00    -0.001 C 
ATOM      3  C   UNL     1      -1.421   3.345   1.112  1.00  0.00     0.126 C 
ATOM      4  C   UNL     1      -1.758   4.737   1.358  1.00  0.00     0.020 A 
ATOM      5  C   UNL     1      -1.525   4.430  -0.987  1.00  0.00     0.075 C 
ATOM      6  C   UNL     1      -2.002   5.411   2.541  1.00  0.00     0.012 A 
ATOM      7  C   UNL     1      -1.823   5.397   0.123  1.00  0.00    -0.033 A 
ATOM      8  C   UNL     1      -2.314   6.771   2.474  1.00  0.00     0.001 A 
ATOM      9  C   UNL     1      -2.131   6.745   0.043  1.00  0.00     0.005 A 
ATOM     10  C   UNL     1      -2.377   7.432   1.234  1.00  0.00     0.000 A 
BRANCH   3  11
ATOM     11  O   UNL     1      -1.325   2.458   2.137  1.00  0.00    -0.507 OA
ATOM     12  H   UNL     1      -1.240   1.575   1.737  1.00  0.00     0.293 HD
ENDBRANCH   3  11
ENDBRANCH   1   2
BRANCH   1  13
ATOM     13  C   UNL     1       0.151   1.147  -0.718  1.00  0.00     0.000 C 
BRANCH  13  14
ATOM     14  C   UNL     1       1.234   1.397   0.211  1.00  0.00    -0.000 C 
BRANCH  14  15
ATOM     15  C   UNL     1       2.315   0.624   0.432  1.00  0.00    -0.059 C 
ATOM     16  C   UNL     1       2.651  -0.679  -0.258  1.00  0.00     0.092 C 
ATOM     17  C   UNL     1       3.355   1.043   1.453  1.00  0.00     0.092 C 
ATOM     18  C   UNL     1       4.058  -0.634  -0.865  1.00  0.00     0.266 C 
ATOM     19  C   UNL     1       4.755   1.081   0.836  1.00  0.00     0.266 C 
ATOM     20  N   UNL     1       5.077  -0.261   0.199  1.00  0.00    -0.337 N 
ATOM     21  C   UNL     1       6.480  -0.300  -0.335  1.00  0.00     0.332 C 
ATOM     22  H   UNL     1       5.018  -0.971   0.941  1.00  0.00     0.347 HD
ENDBRANCH  14  15
ENDBRANCH  13  14
ENDBRANCH   1  13
TORSDOF 5
