REMARK SMILES CCOP(=O)(OCC)Oc1ccc([N+](=O)[O-])cc1
REMARK SMILES IDX 4 1 5 2 3 3 2 4 1 5 6 6 7 7 8 8 9 9 10 10 11 11 18 12 12 13
REMARK SMILES IDX 17 14 13 15 14 16 15 17 16 18
REMARK H PARENT
ROOT
ATOM      1  P   UNL     1      -1.980   0.064  -0.517  1.00  0.00     0.530 P 
ATOM      2  O   UNL     1      -3.237  -0.067  -1.321  1.00  0.00    -0.216 OA
ENDROOT
BRANCH   1   3
ATOM      3  O   UNL     1      -1.972  -0.802   0.844  1.00  0.00    -0.278 OA
BRANCH   3   4
ATOM      4  C   UNL     1      -2.343  -2.164   0.730  1.00  0.00     0.171 C 
ATOM      5  C   UNL     1      -2.053  -2.857   2.045  1.00  0.00     0.035 C 
ENDBRANCH   3   4
ENDBRANCH   1   3
BRANCH   1   6
ATOM      6  O   UNL     1      -1.674   1.562  -0.006  1.00  0.00    -0.278 OA
BRANCH   6   7
ATOM      7  C   UNL     1      -1.744   2.590  -0.979  1.00  0.00     0.171 C 
ATOM      8  C   UNL     1      -1.206   3.869  -0.372  1.00  0.00     0.035 C 
ENDBRANCH   6   7
ENDBRANCH   1   6
BRANCH   1   9
ATOM      9  O   UNL     1      -0.643  -0.384  -1.295  1.00  0.00    -0.404 OA
BRANCH   9  10
ATOM     10  C   UNL     1       0.636  -0.374  -0.817  1.00  0.00     0.132 A 
ATOM     11  C   UNL     1       1.614  -0.818  -1.712  1.00  0.00     0.054 A 
ATOM     12  C   UNL     1       1.004   0.040   0.463  1.00  0.00     0.054 A 
ATOM     13  C   UNL     1       2.959  -0.853  -1.336  1.00  0.00     0.089 A 
ATOM     14  C   UNL     1       2.348   0.011   0.852  1.00  0.00     0.089 A 
ATOM     15  C   UNL     1       3.322  -0.436  -0.050  1.00  0.00     0.269 A 
BRANCH  15  16
ATOM     16  N   UNL     1       4.733  -0.468   0.356  1.00  0.00     0.062 N 
ATOM     17  O   UNL     1       5.562  -0.870  -0.473  1.00  0.00    -0.258 OA
ATOM     18  O   UNL     1       5.011  -0.091   1.503  1.00  0.00    -0.258 OA
ENDBRANCH  15  16
ENDBRANCH   9  10
ENDBRANCH   1   9
TORSDOF 7
