REMARK SMILES COc1cc2c(cc1OC)S[C@@H](C(=O)CCc1cc[n+](Cc3coc([N+](=O)[O-])c3)cc1)C2
REMARK SMILES IDX 16 1 15 2 13 3 14 4 12 5 3 6 4 7 8 8 5 9 7 10 6 11 32 12
REMARK SMILES IDX 11 13 2 14 1 15 9 16 10 17 17 18 18 19 31 20 19 21 30 22
REMARK SMILES IDX 20 23 21 24 22 25 23 26 29 27 24 28 25 29 26 30 27 31 28 32
REMARK H PARENT
ROOT
ATOM      1  C   UNL     1       1.432  -0.326   0.686  1.00  0.00     0.044 C 
ENDROOT
BRANCH   1   2
ATOM      2  C   UNL     1       0.060  -0.857   0.715  1.00  0.00     0.081 C 
BRANCH   2   3
ATOM      3  C   UNL     1      -0.755   0.407   0.426  1.00  0.00     0.146 C 
ATOM      4  O   UNL     1      -0.046   1.480   0.296  1.00  0.00    -0.298 OA
BRANCH   3   5
ATOM      5  C   UNL     1      -2.153   0.328   0.315  1.00  0.00     0.123 C 
ATOM      6  C   UNL     1      -6.642  -0.043  -0.998  1.00  0.00     0.161 A 
ATOM      7  C   UNL     1      -5.354  -0.343  -1.330  1.00  0.00     0.055 A 
ATOM      8  C   UNL     1      -6.953   0.196   0.327  1.00  0.00     0.161 A 
ATOM      9  C   UNL     1      -4.346  -0.396  -0.362  1.00  0.00    -0.029 A 
ATOM     10  C   UNL     1      -5.980   0.139   1.359  1.00  0.00     0.065 A 
ATOM     11  C   UNL     1      -4.707  -0.157   0.891  1.00  0.00     0.015 A 
ATOM     12  C   UNL     1      -2.921  -0.643  -0.555  1.00  0.00     0.059 C 
ATOM     13  S   UNL     1      -3.196   0.415   1.777  1.00  0.00    -0.114 SA
BRANCH   6  14
ATOM     14  O   UNL     1      -7.688   0.082  -1.900  1.00  0.00    -0.493 OA
ATOM     15  C   UNL     1      -7.463  -0.066  -3.281  1.00  0.00     0.278 C 
ENDBRANCH   6  14
BRANCH   8  16
ATOM     16  O   UNL     1      -8.243   0.534   0.711  1.00  0.00    -0.493 OA
ATOM     17  C   UNL     1      -8.414   1.003   2.027  1.00  0.00     0.278 C 
ENDBRANCH   8  16
ENDBRANCH   3   5
ENDBRANCH   2   3
ENDBRANCH   1   2
BRANCH   1  18
ATOM     18  C   UNL     1       2.667  -1.042   0.688  1.00  0.00    -0.036 A 
ATOM     19  C   UNL     1       3.514  -1.232   1.753  1.00  0.00     0.074 A 
ATOM     20  C   UNL     1       3.181  -1.198  -0.669  1.00  0.00     0.074 A 
ATOM     21  C   UNL     1       4.883  -1.581   1.628  1.00  0.00     0.308 A 
ATOM     22  C   UNL     1       4.512  -1.546  -0.720  1.00  0.00     0.308 A 
ATOM     23  N   UNL     1       5.300  -1.720   0.387  1.00  0.00    -0.201 N 
BRANCH  23  24
ATOM     24  C   UNL     1       6.732  -1.665  -0.024  1.00  0.00     0.397 C 
BRANCH  24  25
ATOM     25  C   UNL     1       6.891  -0.082  -0.167  1.00  0.00     0.063 A 
ATOM     26  C   UNL     1       5.929   0.838  -0.440  1.00  0.00     0.213 A 
ATOM     27  C   UNL     1       8.024   0.626   0.099  1.00  0.00     0.143 A 
ATOM     28  O   UNL     1       6.498   2.000  -0.336  1.00  0.00    -0.409 OA
ATOM     29  C   UNL     1       7.737   1.963  -0.011  1.00  0.00     0.433 A 
BRANCH  29  30
ATOM     30  N   UNL     1       8.662   3.069   0.196  1.00  0.00     0.102 N 
ATOM     31  O   UNL     1       9.839   2.832   0.365  1.00  0.00    -0.256 OA
ATOM     32  O   UNL     1       8.247   4.378   0.141  1.00  0.00    -0.256 OA
ENDBRANCH  29  30
ENDBRANCH  24  25
ENDBRANCH  23  24
ENDBRANCH   1  18
TORSDOF 9
