REMARK SMILES CNC(=O)Oc1cccc(C[N@@H+](C)CCCOc2ccc3c(=O)c4cccnc4oc3c2)c1
REMARK SMILES IDX 12 1 13 2 11 4 10 5 9 6 33 7 8 8 6 9 7 10 5 11 3 12 2 13
REMARK SMILES IDX 4 14 1 15 14 17 15 18 16 19 17 20 18 21 19 22 32 23 20 24
REMARK SMILES IDX 31 25 21 26 30 27 22 28 29 29 24 30 28 31 25 32 27 33 26 34
REMARK SMILES IDX 23 35
REMARK H PARENT 12 3 2 16
ROOT
ATOM      1  N   UNL     1       1.280   0.420   0.378  1.00  0.00    -0.334 N 
ATOM      2  C   UNL     1       2.291  -0.450   1.075  1.00  0.00     0.333 C 
ATOM      3  H   UNL     1       0.348   0.023   0.565  1.00  0.00     0.348 HD
ENDROOT
BRANCH   1   4
ATOM      4  C   UNL     1       1.392   0.365  -1.140  1.00  0.00     0.298 C 
BRANCH   4   5
ATOM      5  C   UNL     1       2.683   0.890  -1.704  1.00  0.00     0.010 A 
ATOM      6  C   UNL     1       2.811   2.229  -2.109  1.00  0.00     0.010 A 
ATOM      7  C   UNL     1       3.804   0.054  -1.778  1.00  0.00     0.056 A 
ATOM      8  C   UNL     1       4.044   2.724  -2.545  1.00  0.00     0.004 A 
ATOM      9  C   UNL     1       5.043   0.575  -2.149  1.00  0.00     0.133 A 
ATOM     10  C   UNL     1       5.167   1.899  -2.557  1.00  0.00     0.047 A 
BRANCH   9  11
ATOM     11  O   UNL     1       6.202  -0.214  -2.156  1.00  0.00    -0.410 OA
BRANCH  11  12
ATOM     12  C   UNL     1       6.481  -0.930  -0.996  1.00  0.00     0.412 C 
ATOM     13  N   UNL     1       7.651  -1.614  -1.157  1.00  0.00    -0.324 N 
ATOM     14  O   UNL     1       5.783  -0.960   0.011  1.00  0.00    -0.224 OA
ATOM     15  C   UNL     1       8.173  -2.512  -0.162  1.00  0.00     0.146 C 
ATOM     16  H   UNL     1       8.086  -1.568  -2.069  1.00  0.00     0.166 HD
ENDBRANCH  11  12
ENDBRANCH   9  11
ENDBRANCH   4   5
ENDBRANCH   1   4
BRANCH   1  17
ATOM     17  C   UNL     1       1.245   1.835   0.905  1.00  0.00     0.265 C 
BRANCH  17  18
ATOM     18  C   UNL     1       0.731   1.927   2.343  1.00  0.00     0.103 C 
BRANCH  18  19
ATOM     19  C   UNL     1      -0.561   1.165   2.640  1.00  0.00     0.235 C 
BRANCH  19  20
ATOM     20  O   UNL     1      -1.355   1.120   1.455  1.00  0.00    -0.493 OA
BRANCH  20  21
ATOM     21  C   UNL     1      -2.564   0.486   1.534  1.00  0.00     0.123 A 
ATOM     22  C   UNL     1      -3.081  -0.157   2.661  1.00  0.00     0.047 A 
ATOM     23  C   UNL     1      -3.308   0.504   0.350  1.00  0.00     0.094 A 
ATOM     24  C   UNL     1      -4.332  -0.779   2.600  1.00  0.00     0.020 A 
ATOM     25  C   UNL     1      -4.557  -0.118   0.285  1.00  0.00     0.144 A 
ATOM     26  C   UNL     1      -5.064  -0.756   1.410  1.00  0.00     0.066 A 
ATOM     27  O   UNL     1      -5.212  -0.055  -0.918  1.00  0.00    -0.437 OA
ATOM     28  C   UNL     1      -6.378  -1.404   1.315  1.00  0.00     0.202 A 
ATOM     29  C   UNL     1      -6.451  -0.646  -1.022  1.00  0.00     0.230 A 
ATOM     30  C   UNL     1      -7.068  -1.311   0.026  1.00  0.00     0.085 A 
ATOM     31  N   UNL     1      -7.014  -0.523  -2.246  1.00  0.00    -0.221 NA
ATOM     32  C   UNL     1      -8.325  -1.880  -0.174  1.00  0.00     0.019 A 
ATOM     33  C   UNL     1      -8.236  -1.080  -2.418  1.00  0.00     0.115 A 
ATOM     34  C   UNL     1      -8.923  -1.760  -1.424  1.00  0.00     0.021 A 
ATOM     35  O   UNL     1      -6.866  -1.996   2.268  1.00  0.00    -0.288 OA
ENDBRANCH  20  21
ENDBRANCH  19  20
ENDBRANCH  18  19
ENDBRANCH  17  18
ENDBRANCH   1  17
TORSDOF 9
