REMARK SMILES O=C(C[NH2+]Cc1cc(F)cc(F)c1)Nc1ccc2nc3n(c(=O)c2c1)CCC3
REMARK SMILES IDX 3 1 4 2 5 5 6 6 7 7 13 8 8 9 11 10 10 11 9 12 12 13 2 14
REMARK SMILES IDX 14 15 1 16 15 18 16 19 25 20 17 21 24 22 18 23 22 24 19 25
REMARK SMILES IDX 21 26 20 27 26 28 28 29 27 30 23 31
REMARK H PARENT 4 3 4 4 14 17
ROOT
ATOM      1  C   UNL     1       2.405   1.076  -1.796  1.00  0.00     0.362 C 
ENDROOT
BRANCH   1   2
ATOM      2  N   UNL     1       3.812   0.917  -1.273  1.00  0.00    -0.335 N 
ATOM      3  H   UNL     1       4.510   1.079  -2.008  1.00  0.00     0.347 HD
ATOM      4  H   UNL     1       3.900  -0.075  -0.993  1.00  0.00     0.347 HD
BRANCH   2   5
ATOM      5  C   UNL     1       4.132   1.731  -0.067  1.00  0.00     0.297 C 
BRANCH   5   6
ATOM      6  C   UNL     1       5.497   1.393   0.459  1.00  0.00     0.012 A 
ATOM      7  C   UNL     1       5.674   0.312   1.335  1.00  0.00     0.049 A 
ATOM      8  C   UNL     1       6.627   2.118   0.051  1.00  0.00     0.049 A 
ATOM      9  C   UNL     1       6.950  -0.018   1.794  1.00  0.00     0.126 A 
ATOM     10  C   UNL     1       7.892   1.767   0.525  1.00  0.00     0.126 A 
ATOM     11  C   UNL     1       8.066   0.702   1.395  1.00  0.00     0.078 A 
ATOM     12  F   UNL     1       7.095  -1.054   2.628  1.00  0.00    -0.207 F 
ATOM     13  F   UNL     1       8.954   2.473   0.120  1.00  0.00    -0.207 F 
ENDBRANCH   5   6
ENDBRANCH   2   5
ENDBRANCH   1   2
BRANCH   1  14
ATOM     14  C   UNL     1       1.427   0.252  -0.954  1.00  0.00     0.279 C 
ATOM     15  N   UNL     1       0.098   0.498  -1.220  1.00  0.00    -0.321 N 
ATOM     16  O   UNL     1       1.899  -0.536  -0.135  1.00  0.00    -0.268 OA
ATOM     17  H   UNL     1      -0.140   1.169  -1.945  1.00  0.00     0.170 HD
BRANCH  15  18
ATOM     18  C   UNL     1      -1.019  -0.105  -0.597  1.00  0.00     0.042 A 
ATOM     19  C   UNL     1      -0.933  -1.066   0.415  1.00  0.00     0.028 A 
ATOM     20  C   UNL     1      -2.284   0.299  -1.035  1.00  0.00     0.042 A 
ATOM     21  C   UNL     1      -2.094  -1.615   0.979  1.00  0.00     0.031 A 
ATOM     22  C   UNL     1      -3.438  -0.255  -0.463  1.00  0.00     0.068 A 
ATOM     23  C   UNL     1      -3.358  -1.218   0.548  1.00  0.00     0.078 A 
ATOM     24  C   UNL     1      -4.778   0.169  -0.923  1.00  0.00     0.261 A 
ATOM     25  N   UNL     1      -4.493  -1.803   1.139  1.00  0.00    -0.234 NA
ATOM     26  N   UNL     1      -5.818  -0.422  -0.252  1.00  0.00    -0.296 N 
ATOM     27  C   UNL     1      -5.638  -1.384   0.721  1.00  0.00     0.112 A 
ATOM     28  C   UNL     1      -7.213  -0.216  -0.537  1.00  0.00     0.128 C 
ATOM     29  C   UNL     1      -6.974  -1.876   1.187  1.00  0.00     0.077 C 
ATOM     30  C   UNL     1      -7.912  -0.778   0.690  1.00  0.00     0.030 C 
ATOM     31  O   UNL     1      -4.898   0.979  -1.835  1.00  0.00    -0.269 OA
ENDBRANCH  15  18
ENDBRANCH   1  14
TORSDOF 5
