REMARK SMILES Cc1cc(O)nc2c1C(=O)C(NCCCCNc1c3c(nc4cc(Cl)ccc14)CCCC3)=CC2=O
REMARK SMILES IDX 14 1 13 2 12 3 11 5 4 6 3 7 6 8 2 9 7 10 8 11 34 12 9 13
REMARK SMILES IDX 33 14 1 15 35 16 10 17 5 18 15 20 16 21 17 22 18 24 19 25
REMARK SMILES IDX 28 26 20 27 32 28 27 29 22 30 21 31 29 32 31 33 26 34 23 35
REMARK SMILES IDX 30 36 24 37 25 38
REMARK H PARENT 12 4 5 19 17 23
ROOT
ATOM      1  C   UNL     1       0.713   1.258  -0.267  1.00  0.00     0.023 C 
ENDROOT
BRANCH   1   2
ATOM      2  C   UNL     1       1.616   1.505  -1.475  1.00  0.00     0.113 C 
BRANCH   2   3
ATOM      3  N   UNL     1       2.835   2.188  -1.073  1.00  0.00    -0.382 N 
ATOM      4  H   UNL     1       2.739   3.197  -0.990  1.00  0.00     0.160 HD
BRANCH   3   5
ATOM      5  C   UNL     1       3.975   1.655  -0.474  1.00  0.00     0.087 C 
ATOM      6  C   UNL     1       7.804  -1.154   1.341  1.00  0.00     0.211 A 
ATOM      7  C   UNL     1       6.936  -2.134   0.918  1.00  0.00     0.072 A 
ATOM      8  N   UNL     1       7.579   0.157   1.256  1.00  0.00    -0.209 NA
ATOM      9  C   UNL     1       5.713  -1.746   0.351  1.00  0.00    -0.032 A 
ATOM     10  C   UNL     1       6.388   0.525   0.705  1.00  0.00     0.126 A 
ATOM     11  C   UNL     1       5.425  -0.365   0.243  1.00  0.00     0.057 A 
ATOM     12  C   UNL     1       6.175   1.986   0.622  1.00  0.00     0.207 C 
ATOM     13  C   UNL     1       4.155   0.157  -0.325  1.00  0.00     0.211 C 
ATOM     14  C   UNL     1       4.939   2.460  -0.014  1.00  0.00     0.084 C 
ATOM     15  C   UNL     1       4.775  -2.830  -0.108  1.00  0.00     0.045 C 
ATOM     16  O   UNL     1       6.981   2.804   1.049  1.00  0.00    -0.287 OA
ATOM     17  O   UNL     1       3.271  -0.627  -0.653  1.00  0.00    -0.287 OA
BRANCH   6  18
ATOM     18  O   UNL     1       8.996  -1.479   1.895  1.00  0.00    -0.493 OA
ATOM     19  H   UNL     1       9.355  -0.591   2.079  1.00  0.00     0.295 HD
ENDBRANCH   6  18
ENDBRANCH   3   5
ENDBRANCH   2   3
ENDBRANCH   1   2
BRANCH   1  20
ATOM     20  C   UNL     1      -0.516   0.404  -0.593  1.00  0.00     0.023 C 
BRANCH  20  21
ATOM     21  C   UNL     1      -1.496   1.088  -1.545  1.00  0.00     0.113 C 
BRANCH  21  22
ATOM     22  N   UNL     1      -2.643   0.222  -1.871  1.00  0.00    -0.384 N 
ATOM     23  H   UNL     1      -3.077   0.545  -2.736  1.00  0.00     0.160 HD
BRANCH  22  24
ATOM     24  C   UNL     1      -3.656   0.184  -0.869  1.00  0.00     0.049 A 
ATOM     25  C   UNL     1      -3.786  -0.985  -0.093  1.00  0.00    -0.003 A 
ATOM     26  C   UNL     1      -4.527   1.287  -0.633  1.00  0.00     0.024 A 
ATOM     27  C   UNL     1      -4.723  -0.980   0.941  1.00  0.00     0.046 A 
ATOM     28  C   UNL     1      -2.919  -2.196  -0.346  1.00  0.00     0.039 C 
ATOM     29  C   UNL     1      -4.543   2.479  -1.402  1.00  0.00     0.014 A 
ATOM     30  C   UNL     1      -5.443   1.168   0.434  1.00  0.00     0.074 A 
ATOM     31  N   UNL     1      -5.530   0.076   1.201  1.00  0.00    -0.252 NA
ATOM     32  C   UNL     1      -4.958  -2.191   1.807  1.00  0.00     0.056 C 
ATOM     33  C   UNL     1      -3.448  -3.477   0.298  1.00  0.00     0.005 C 
ATOM     34  C   UNL     1      -5.421   3.521  -1.107  1.00  0.00     0.021 A 
ATOM     35  C   UNL     1      -6.306   2.217   0.714  1.00  0.00     0.049 A 
ATOM     36  C   UNL     1      -3.831  -3.215   1.746  1.00  0.00     0.007 C 
ATOM     37  C   UNL     1      -6.299   3.384  -0.043  1.00  0.00     0.043 A 
ATOM     38  Cl  UNL     1      -7.387   4.661   0.336  1.00  0.00    -0.084 Cl
ENDBRANCH  22  24
ENDBRANCH  21  22
ENDBRANCH  20  21
ENDBRANCH   1  20
TORSDOF 8
