REMARK SMILES O=C1C(=NCCNc2c3c(nc4cc(Cl)ccc24)CCCC3)C=C(O)c2ccccc21
REMARK SMILES IDX 5 1 4 2 3 3 24 4 23 5 26 6 27 7 31 8 2 9 28 10 30 11 29 12
REMARK SMILES IDX 1 13 25 14 6 16 7 17 8 19 9 20 18 21 10 22 22 23 17 24 12 25
REMARK SMILES IDX 11 26 19 27 21 28 16 29 13 30 20 31 14 32 15 33
REMARK H PARENT 25 15 7 18
ROOT
ATOM      1  C   UNL     1       0.630  -1.492   1.825  1.00  0.00     0.164 C 
ENDROOT
BRANCH   1   2
ATOM      2  N   UNL     1       1.861  -1.985   1.216  1.00  0.00    -0.279 NA
BRANCH   2   3
ATOM      3  C   UNL     1       2.780  -1.189   0.793  1.00  0.00     0.109 C 
ATOM      4  C   UNL     1       3.830   1.020   0.474  1.00  0.00     0.125 C 
ATOM      5  C   UNL     1       2.755   0.298   0.811  1.00  0.00     0.078 C 
ATOM      6  C   UNL     1       5.101   0.402   0.065  1.00  0.00     0.028 A 
ATOM      7  C   UNL     1       6.237   1.181  -0.209  1.00  0.00     0.013 A 
ATOM      8  C   UNL     1       5.205  -0.986  -0.078  1.00  0.00     0.035 A 
ATOM      9  C   UNL     1       4.032  -1.837   0.197  1.00  0.00     0.211 C 
ATOM     10  C   UNL     1       7.438   0.588  -0.612  1.00  0.00     0.001 A 
ATOM     11  C   UNL     1       6.406  -1.584  -0.487  1.00  0.00     0.013 A 
ATOM     12  C   UNL     1       7.522  -0.794  -0.752  1.00  0.00     0.001 A 
ATOM     13  O   UNL     1       4.054  -3.035  -0.051  1.00  0.00    -0.287 OA
BRANCH   4  14
ATOM     14  O   UNL     1       3.817   2.400   0.496  1.00  0.00    -0.507 OA
ATOM     15  H   UNL     1       2.946   2.715   0.791  1.00  0.00     0.293 HD
ENDBRANCH   4  14
ENDBRANCH   2   3
ENDBRANCH   1   2
BRANCH   1  16
ATOM     16  C   UNL     1      -0.460  -1.292   0.762  1.00  0.00     0.136 C 
BRANCH  16  17
ATOM     17  N   UNL     1      -1.649  -0.685   1.384  1.00  0.00    -0.382 N 
ATOM     18  H   UNL     1      -2.051  -1.329   2.063  1.00  0.00     0.160 HD
BRANCH  17  19
ATOM     19  C   UNL     1      -2.631  -0.343   0.410  1.00  0.00     0.049 A 
ATOM     20  C   UNL     1      -2.567   0.919  -0.196  1.00  0.00    -0.003 A 
ATOM     21  C   UNL     1      -3.615  -1.276  -0.027  1.00  0.00     0.024 A 
ATOM     22  C   UNL     1      -3.482   1.211  -1.205  1.00  0.00     0.046 A 
ATOM     23  C   UNL     1      -1.552   1.975   0.151  1.00  0.00     0.039 C 
ATOM     24  C   UNL     1      -3.762  -2.587   0.491  1.00  0.00     0.014 A 
ATOM     25  C   UNL     1      -4.498  -0.857  -1.051  1.00  0.00     0.074 A 
ATOM     26  N   UNL     1      -4.431   0.350  -1.627  1.00  0.00    -0.252 NA
ATOM     27  C   UNL     1      -3.392   2.549  -1.891  1.00  0.00     0.056 C 
ATOM     28  C   UNL     1      -2.188   3.367   0.228  1.00  0.00     0.005 C 
ATOM     29  C   UNL     1      -4.755  -3.446   0.019  1.00  0.00     0.021 A 
ATOM     30  C   UNL     1      -5.479  -1.726  -1.505  1.00  0.00     0.049 A 
ATOM     31  C   UNL     1      -3.222   3.668  -0.866  1.00  0.00     0.007 C 
ATOM     32  C   UNL     1      -5.612  -3.007  -0.978  1.00  0.00     0.043 A 
ATOM     33  Cl  UNL     1      -6.842  -4.054  -1.570  1.00  0.00    -0.084 Cl
ENDBRANCH  17  19
ENDBRANCH  16  17
ENDBRANCH   1  16
TORSDOF 6
