REMARK SMILES CC1=C[C@@H]2Cc3nc4cc(Cl)ccc4c(N)c3[C@H](C1)C2
REMARK SMILES IDX 15 1 17 2 6 3 7 4 8 5 9 6 10 7 11 8 12 9 13 10 14 11 5 12
REMARK SMILES IDX 4 13 3 14 2 15 1 16 19 17 18 18 20 19 16 20
REMARK H PARENT 16 21 16 22
ROOT
ATOM      1  C   UNL     1       0.622   0.622   0.423  1.00  0.00     0.046 A 
ATOM      2  C   UNL     1      -0.103   0.168  -0.693  1.00  0.00     0.001 A 
ATOM      3  C   UNL     1       0.352  -0.983  -1.344  1.00  0.00     0.047 A 
ATOM      4  N   UNL     1       1.485  -1.632  -0.986  1.00  0.00    -0.252 NA
ATOM      5  C   UNL     1       2.207  -1.164   0.038  1.00  0.00     0.074 A 
ATOM      6  C   UNL     1       3.375  -1.838   0.359  1.00  0.00     0.049 A 
ATOM      7  C   UNL     1       4.199  -1.407   1.394  1.00  0.00     0.043 A 
ATOM      8  Cl  UNL     1       5.643  -2.269   1.759  1.00  0.00    -0.084 Cl
ATOM      9  C   UNL     1       3.866  -0.280   2.131  1.00  0.00     0.021 A 
ATOM     10  C   UNL     1       2.693   0.410   1.825  1.00  0.00     0.014 A 
ATOM     11  C   UNL     1       1.837  -0.021   0.780  1.00  0.00     0.024 A 
ATOM     12  C   UNL     1      -0.366  -1.559  -2.545  1.00  0.00     0.064 C 
ATOM     13  C   UNL     1      -1.765  -0.969  -2.775  1.00  0.00     0.018 C 
ATOM     14  C   UNL     1      -2.769  -1.567  -1.813  1.00  0.00    -0.024 C 
ATOM     15  C   UNL     1      -3.163  -0.948  -0.685  1.00  0.00    -0.076 C 
ATOM     16  C   UNL     1      -4.174  -1.545   0.248  1.00  0.00     0.039 C 
ATOM     17  C   UNL     1      -2.592   0.397  -0.278  1.00  0.00     0.039 C 
ATOM     18  C   UNL     1      -1.390   0.854  -1.139  1.00  0.00     0.028 C 
ATOM     19  C   UNL     1      -1.685   0.552  -2.614  1.00  0.00     0.017 C 
ENDROOT
BRANCH   1  20
ATOM     20  N   UNL     1       0.225   1.841   1.033  1.00  0.00    -0.398 N 
ATOM     21  H   UNL     1       0.514   1.911   2.002  1.00  0.00     0.156 HD
ATOM     22  H   UNL     1       0.595   2.631   0.506  1.00  0.00     0.156 HD
ENDBRANCH   1  20
TORSDOF 1
