REMARK SMILES CC1=C[C@@H]2Cc3[nH]c4cc(Cl)ccc4c(=N)c3[C@H](C1)C2
REMARK SMILES IDX 7 1 6 2 17 3 15 4 14 5 13 6 12 7 10 8 11 9 9 10 8 11 18 12
REMARK SMILES IDX 19 13 2 14 1 15 3 16 4 17 5 18 20 19 16 21
REMARK H PARENT 7 20 16 22
ROOT
ATOM      1  N   UNL     1       2.904  -0.195   0.536  1.00  0.00    -0.358 N 
ATOM      2  C   UNL     1       1.725  -0.894   0.669  1.00  0.00     0.021 A 
ATOM      3  C   UNL     1       0.846  -1.051  -0.344  1.00  0.00     0.000 A 
ATOM      4  C   UNL     1       1.155  -0.425  -1.674  1.00  0.00     0.068 A 
ATOM      5  C   UNL     1       2.400   0.403  -1.773  1.00  0.00     0.023 A 
ATOM      6  C   UNL     1       2.753   1.084  -2.948  1.00  0.00     0.014 A 
ATOM      7  C   UNL     1       3.929   1.838  -2.997  1.00  0.00     0.021 A 
ATOM      8  C   UNL     1       4.753   1.911  -1.878  1.00  0.00     0.043 A 
ATOM      9  Cl  UNL     1       6.205   2.831  -1.945  1.00  0.00    -0.084 Cl
ATOM     10  C   UNL     1       4.411   1.243  -0.704  1.00  0.00     0.047 A 
ATOM     11  C   UNL     1       3.226   0.499  -0.637  1.00  0.00     0.049 A 
ATOM     12  C   UNL     1      -0.442  -1.849  -0.212  1.00  0.00     0.028 C 
ATOM     13  C   UNL     1      -1.646  -0.915   0.051  1.00  0.00     0.039 C 
ATOM     14  C   UNL     1      -1.754  -0.450   1.494  1.00  0.00    -0.076 C 
ATOM     15  C   UNL     1      -2.765   0.625   1.763  1.00  0.00     0.039 C 
ATOM     16  C   UNL     1      -0.976  -0.968   2.463  1.00  0.00    -0.024 C 
ATOM     17  C   UNL     1       0.032  -2.071   2.208  1.00  0.00     0.018 C 
ATOM     18  C   UNL     1       1.450  -1.487   2.044  1.00  0.00     0.062 C 
ATOM     19  C   UNL     1      -0.332  -2.854   0.943  1.00  0.00     0.017 C 
ATOM     20  H   UNL     1       3.427   0.011   1.379  1.00  0.00     0.166 HD
ENDROOT
BRANCH   4  21
ATOM     21  N   UNL     1       0.339  -0.622  -2.666  1.00  0.00    -0.300 NA
ATOM     22  H   UNL     1       0.636  -0.167  -3.526  1.00  0.00     0.188 HD
ENDBRANCH   4  21
TORSDOF 1
