REMARK SMILES CC1=C[C@H]2Cc3nc4cc(Cl)ccc4c(N)c3[C@@H](C1)C2
REMARK SMILES IDX 15 1 17 2 6 3 7 4 8 5 9 6 10 7 11 8 12 9 13 10 14 11 5 12
REMARK SMILES IDX 4 13 3 14 2 15 1 16 19 17 18 18 20 19 16 20
REMARK H PARENT 16 21 16 22
ROOT
ATOM      1  C   UNL     1       0.889   1.265  -0.913  1.00  0.00     0.046 A 
ATOM      2  C   UNL     1      -0.138   0.997   0.015  1.00  0.00     0.001 A 
ATOM      3  C   UNL     1       0.055  -0.059   0.915  1.00  0.00     0.047 A 
ATOM      4  N   UNL     1       1.195  -0.787   0.969  1.00  0.00    -0.252 NA
ATOM      5  C   UNL     1       2.202  -0.479   0.145  1.00  0.00     0.074 A 
ATOM      6  C   UNL     1       3.370  -1.216   0.262  1.00  0.00     0.049 A 
ATOM      7  C   UNL     1       4.479  -0.946  -0.533  1.00  0.00     0.043 A 
ATOM      8  Cl  UNL     1       5.913  -1.880  -0.355  1.00  0.00    -0.084 Cl
ATOM      9  C   UNL     1       4.438   0.081  -1.464  1.00  0.00     0.021 A 
ATOM     10  C   UNL     1       3.268   0.829  -1.599  1.00  0.00     0.014 A 
ATOM     11  C   UNL     1       2.122   0.558  -0.809  1.00  0.00     0.024 A 
ATOM     12  C   UNL     1      -0.979  -0.431   1.956  1.00  0.00     0.064 C 
ATOM     13  C   UNL     1      -2.342   0.241   1.750  1.00  0.00     0.018 C 
ATOM     14  C   UNL     1      -3.126  -0.455   0.658  1.00  0.00    -0.024 C 
ATOM     15  C   UNL     1      -3.188   0.003  -0.606  1.00  0.00    -0.076 C 
ATOM     16  C   UNL     1      -3.986  -0.689  -1.671  1.00  0.00     0.039 C 
ATOM     17  C   UNL     1      -2.435   1.246  -1.033  1.00  0.00     0.039 C 
ATOM     18  C   UNL     1      -1.446   1.782   0.031  1.00  0.00     0.028 C 
ATOM     19  C   UNL     1      -2.112   1.715   1.411  1.00  0.00     0.017 C 
ENDROOT
BRANCH   1  20
ATOM     20  N   UNL     1       0.772   2.362  -1.802  1.00  0.00    -0.398 N 
ATOM     21  H   UNL     1       1.323   2.258  -2.646  1.00  0.00     0.156 HD
ATOM     22  H   UNL     1      -0.183   2.610  -2.033  1.00  0.00     0.156 HD
ENDBRANCH   1  20
TORSDOF 1
