REMARK SMILES Oc1cc2cc3o[nH]c(CC[C@H]4CC[N@H+](Cc5ccccc5)CC4)c3cc2n1
REMARK SMILES IDX 10 1 9 2 8 3 7 4 6 5 25 6 5 7 26 8 4 9 27 10 3 11 28 12 2 13
REMARK SMILES IDX 1 15 11 17 12 18 24 19 13 20 23 21 14 22 15 23 16 25 17 26
REMARK SMILES IDX 18 27 22 28 19 29 21 30 20 31
REMARK H PARENT 8 14 1 16 15 24
ROOT
ATOM      1  C   UNL     1       1.179   3.144   1.117  1.00  0.00     0.058 C 
ENDROOT
BRANCH   1   2
ATOM      2  C   UNL     1       2.352   3.999   1.478  1.00  0.00     0.060 A 
ATOM      3  N   UNL     1       2.196   5.342   1.817  1.00  0.00    -0.226 N 
ATOM      4  O   UNL     1       3.438   5.899   2.226  1.00  0.00    -0.382 OA
ATOM      5  C   UNL     1       4.333   4.868   2.011  1.00  0.00     0.164 A 
ATOM      6  C   UNL     1       3.646   3.667   1.551  1.00  0.00     0.044 A 
ATOM      7  C   UNL     1       5.664   4.890   2.202  1.00  0.00     0.061 A 
ATOM      8  C   UNL     1       4.345   2.425   1.288  1.00  0.00     0.043 A 
ATOM      9  C   UNL     1       6.371   3.651   1.922  1.00  0.00     0.009 A 
ATOM     10  C   UNL     1       5.674   2.439   1.472  1.00  0.00     0.075 A 
ATOM     11  C   UNL     1       7.678   3.399   2.023  1.00  0.00     0.078 A 
ATOM     12  N   UNL     1       6.580   1.429   1.296  1.00  0.00    -0.214 NA
ATOM     13  C   UNL     1       7.691   2.010   1.616  1.00  0.00     0.211 A 
ATOM     14  H   UNL     1       1.459   5.515   2.497  1.00  0.00     0.208 HD
BRANCH  13  15
ATOM     15  O   UNL     1       8.864   1.390   1.591  1.00  0.00    -0.493 OA
ATOM     16  H   UNL     1       8.713   0.474   1.302  1.00  0.00     0.295 HD
ENDBRANCH  13  15
ENDBRANCH   1   2
BRANCH   1  17
ATOM     17  C   UNL     1       0.649   3.494  -0.280  1.00  0.00     0.010 C 
BRANCH  17  18
ATOM     18  C   UNL     1      -0.464   2.579  -0.827  1.00  0.00     0.000 C 
ATOM     19  C   UNL     1       0.028   1.154  -1.111  1.00  0.00     0.065 C 
ATOM     20  C   UNL     1      -1.704   2.534   0.073  1.00  0.00     0.065 C 
ATOM     21  C   UNL     1      -1.075   0.299  -1.723  1.00  0.00     0.262 C 
ATOM     22  C   UNL     1      -2.806   1.675  -0.537  1.00  0.00     0.262 C 
ATOM     23  N   UNL     1      -2.274   0.285  -0.807  1.00  0.00    -0.331 N 
ATOM     24  H   UNL     1      -1.975  -0.103   0.096  1.00  0.00     0.348 HD
BRANCH  23  25
ATOM     25  C   UNL     1      -3.346  -0.656  -1.324  1.00  0.00     0.299 C 
BRANCH  25  26
ATOM     26  C   UNL     1      -4.384  -0.991  -0.289  1.00  0.00     0.006 A 
ATOM     27  C   UNL     1      -4.069  -1.835   0.788  1.00  0.00     0.009 A 
ATOM     28  C   UNL     1      -5.676  -0.449  -0.373  1.00  0.00     0.009 A 
ATOM     29  C   UNL     1      -5.026  -2.123   1.763  1.00  0.00     0.001 A 
ATOM     30  C   UNL     1      -6.629  -0.740   0.605  1.00  0.00     0.001 A 
ATOM     31  C   UNL     1      -6.303  -1.574   1.672  1.00  0.00     0.000 A 
ENDBRANCH  25  26
ENDBRANCH  23  25
ENDBRANCH  17  18
ENDBRANCH   1  17
TORSDOF 6
