REMARK SMILES COc1cc(/C=C/c2nnc(-c3ccc(F)cc3)o2)ccc1O
REMARK SMILES IDX 6 1 5 2 3 3 4 4 22 5 21 6 20 7 2 8 1 9 23 10 7 12 8 13 9 14
REMARK SMILES IDX 19 15 10 16 11 17 12 18 13 19 18 20 14 21 17 22 15 23 16 24
REMARK H PARENT 23 11
ROOT
ATOM      1  C   UNL     1       0.711   0.856   0.241  1.00  0.00     0.014 C 
ENDROOT
BRANCH   1   2
ATOM      2  C   UNL     1       2.089   1.355   0.129  1.00  0.00    -0.022 A 
ATOM      3  C   UNL     1       4.302   1.135  -0.874  1.00  0.00     0.161 A 
ATOM      4  C   UNL     1       2.973   0.712  -0.753  1.00  0.00     0.058 A 
ATOM      5  C   UNL     1       4.742   2.206  -0.086  1.00  0.00     0.157 A 
ATOM      6  C   UNL     1       3.882   2.845   0.806  1.00  0.00     0.051 A 
ATOM      7  C   UNL     1       2.558   2.416   0.915  1.00  0.00     0.012 A 
BRANCH   3   8
ATOM      8  O   UNL     1       5.232   0.577  -1.710  1.00  0.00    -0.493 OA
ATOM      9  C   UNL     1       4.808  -0.483  -2.554  1.00  0.00     0.278 C 
ENDBRANCH   3   8
BRANCH   5  10
ATOM     10  O   UNL     1       6.041   2.626  -0.194  1.00  0.00    -0.504 OA
ATOM     11  H   UNL     1       6.187   3.372   0.408  1.00  0.00     0.293 HD
ENDBRANCH   5  10
ENDBRANCH   1   2
BRANCH   1  12
ATOM     12  C   UNL     1      -0.359   1.658   0.358  1.00  0.00     0.071 C 
BRANCH  12  13
ATOM     13  C   UNL     1      -1.678   1.137   0.456  1.00  0.00     0.241 A 
ATOM     14  N   UNL     1      -2.786   1.854   0.571  1.00  0.00    -0.108 NA
ATOM     15  O   UNL     1      -1.981  -0.215   0.445  1.00  0.00    -0.417 OA
ATOM     16  N   UNL     1      -3.850   0.983   0.639  1.00  0.00    -0.107 NA
ATOM     17  C   UNL     1      -3.343  -0.227   0.562  1.00  0.00     0.248 A 
BRANCH  17  18
ATOM     18  C   UNL     1      -4.007  -1.524   0.584  1.00  0.00     0.039 A 
ATOM     19  C   UNL     1      -5.407  -1.586   0.693  1.00  0.00     0.017 A 
ATOM     20  C   UNL     1      -3.286  -2.728   0.499  1.00  0.00     0.017 A 
ATOM     21  C   UNL     1      -6.070  -2.816   0.716  1.00  0.00     0.040 A 
ATOM     22  C   UNL     1      -3.949  -3.959   0.523  1.00  0.00     0.040 A 
ATOM     23  C   UNL     1      -5.334  -3.991   0.631  1.00  0.00     0.123 A 
ATOM     24  F   UNL     1      -5.967  -5.170   0.653  1.00  0.00    -0.207 F 
ENDBRANCH  17  18
ENDBRANCH  12  13
ENDBRANCH   1  12
TORSDOF 6
