REMARK SMILES O=C(Nc1ccc2c(c1)C(=O)N(CC[C@H]1CC[N@@H+](Cc3ccccc3)CC1)C2=O)c1ccccc1
REMARK SMILES IDX 14 1 15 2 17 3 18 4 16 5 26 6 27 7 19 9 20 10 21 11 25 12
REMARK SMILES IDX 22 13 24 14 23 15 13 16 12 17 10 18 28 19 8 20 7 21 9 22
REMARK SMILES IDX 6 23 4 24 5 25 11 26 29 27 3 28 2 29 1 31 30 32 31 33 35 34
REMARK SMILES IDX 32 35 34 36 33 37
REMARK H PARENT 18 8 3 30
ROOT
ATOM      1  C   UNL     1      -1.990   2.235   1.717  1.00  0.00     0.026 C 
ENDROOT
BRANCH   1   2
ATOM      2  C   UNL     1      -3.200   2.539   0.806  1.00  0.00     0.002 C 
ATOM      3  C   UNL     1      -2.636   1.033  -1.184  1.00  0.00     0.262 C 
ATOM      4  N   UNL     1      -3.845   0.187  -0.865  1.00  0.00    -0.331 N 
ATOM      5  C   UNL     1      -2.875   2.457  -0.696  1.00  0.00     0.065 C 
ATOM      6  C   UNL     1      -4.156   0.170   0.612  1.00  0.00     0.262 C 
ATOM      7  C   UNL     1      -4.375   1.595   1.111  1.00  0.00     0.065 C 
ATOM      8  H   UNL     1      -4.653   0.604  -1.342  1.00  0.00     0.348 HD
BRANCH   4   9
ATOM      9  C   UNL     1      -3.692  -1.206  -1.446  1.00  0.00     0.299 C 
BRANCH   9  10
ATOM     10  C   UNL     1      -4.983  -1.979  -1.468  1.00  0.00     0.006 A 
ATOM     11  C   UNL     1      -5.197  -3.036  -0.570  1.00  0.00     0.009 A 
ATOM     12  C   UNL     1      -6.000  -1.640  -2.375  1.00  0.00     0.009 A 
ATOM     13  C   UNL     1      -6.406  -3.733  -0.576  1.00  0.00     0.001 A 
ATOM     14  C   UNL     1      -7.207  -2.341  -2.377  1.00  0.00     0.001 A 
ATOM     15  C   UNL     1      -7.410  -3.384  -1.476  1.00  0.00     0.000 A 
ENDBRANCH   9  10
ENDBRANCH   4   9
ENDBRANCH   1   2
BRANCH   1  16
ATOM     16  C   UNL     1      -0.880   3.299   1.646  1.00  0.00     0.129 C 
BRANCH  16  17
ATOM     17  N   UNL     1       0.438   2.695   1.615  1.00  0.00    -0.274 N 
ATOM     18  C   UNL     1       0.928   2.005   0.540  1.00  0.00     0.261 C 
ATOM     19  C   UNL     1       1.318   2.697   2.662  1.00  0.00     0.261 C 
ATOM     20  C   UNL     1       2.268   1.554   0.910  1.00  0.00     0.055 A 
ATOM     21  C   UNL     1       2.508   1.982   2.203  1.00  0.00     0.053 A 
ATOM     22  C   UNL     1       3.192   0.820   0.191  1.00  0.00     0.040 A 
ATOM     23  C   UNL     1       3.696   1.710   2.846  1.00  0.00     0.017 A 
ATOM     24  C   UNL     1       4.406   0.515   0.817  1.00  0.00     0.042 A 
ATOM     25  C   UNL     1       4.653   0.973   2.136  1.00  0.00     0.027 A 
ATOM     26  O   UNL     1       0.365   1.753  -0.510  1.00  0.00    -0.269 OA
ATOM     27  O   UNL     1       1.179   3.161   3.776  1.00  0.00    -0.269 OA
BRANCH  24  28
ATOM     28  N   UNL     1       5.431  -0.228   0.196  1.00  0.00    -0.322 N 
ATOM     29  C   UNL     1       5.353  -0.906  -1.010  1.00  0.00     0.255 C 
ATOM     30  H   UNL     1       6.283  -0.353   0.731  1.00  0.00     0.170 HD
ATOM     31  O   UNL     1       4.346  -1.050  -1.693  1.00  0.00    -0.269 OA
BRANCH  29  32
ATOM     32  C   UNL     1       6.620  -1.551  -1.454  1.00  0.00     0.040 A 
ATOM     33  C   UNL     1       7.870  -0.959  -1.223  1.00  0.00     0.014 A 
ATOM     34  C   UNL     1       6.545  -2.768  -2.144  1.00  0.00     0.014 A 
ATOM     35  C   UNL     1       9.034  -1.598  -1.656  1.00  0.00     0.001 A 
ATOM     36  C   UNL     1       7.712  -3.403  -2.573  1.00  0.00     0.001 A 
ATOM     37  C   UNL     1       8.954  -2.820  -2.325  1.00  0.00     0.000 A 
ENDBRANCH  29  32
ENDBRANCH  24  28
ENDBRANCH  16  17
ENDBRANCH   1  16
TORSDOF 7
