REMARK SMILES COc1cc2c(cc1OC)S[C@@H](C(O)=CCc1cc[n+](Cc3ccsc3)cc1)C2
REMARK SMILES IDX 15 1 13 2 14 3 12 5 29 6 11 7 5 8 6 9 4 10 7 11 3 12 8 13
REMARK SMILES IDX 2 14 1 15 9 16 10 17 16 18 17 19 18 20 28 21 19 22 27 23
REMARK SMILES IDX 20 24 21 25 22 26 23 27 26 28 24 29 25 30
REMARK H PARENT 14 4
ROOT
ATOM      1  C   UNL     1       0.225   0.312   1.463  1.00  0.00     0.020 C 
ENDROOT
BRANCH   1   2
ATOM      2  C   UNL     1      -0.877  -0.127   0.825  1.00  0.00     0.102 C 
BRANCH   2   3
ATOM      3  O   UNL     1      -1.810  -0.886   1.513  1.00  0.00    -0.511 OA
ATOM      4  H   UNL     1      -1.668  -0.802   2.471  1.00  0.00     0.293 HD
ENDBRANCH   2   3
BRANCH   2   5
ATOM      5  C   UNL     1      -1.212   0.122  -0.641  1.00  0.00     0.121 C 
ATOM      6  C   UNL     1      -2.097  -0.956  -1.310  1.00  0.00     0.059 C 
ATOM      7  S   UNL     1      -2.128   1.704  -0.779  1.00  0.00    -0.114 SA
ATOM      8  C   UNL     1      -3.520  -0.481  -1.258  1.00  0.00    -0.029 A 
ATOM      9  C   UNL     1      -3.674   0.882  -1.028  1.00  0.00     0.015 A 
ATOM     10  C   UNL     1      -4.636  -1.276  -1.483  1.00  0.00     0.055 A 
ATOM     11  C   UNL     1      -4.930   1.477  -1.021  1.00  0.00     0.065 A 
ATOM     12  C   UNL     1      -5.915  -0.701  -1.450  1.00  0.00     0.161 A 
ATOM     13  C   UNL     1      -6.069   0.689  -1.245  1.00  0.00     0.161 A 
BRANCH  12  14
ATOM     14  O   UNL     1      -6.920  -1.604  -1.694  1.00  0.00    -0.493 OA
ATOM     15  C   UNL     1      -8.127  -1.403  -0.967  1.00  0.00     0.278 C 
ENDBRANCH  12  14
BRANCH  13  16
ATOM     16  O   UNL     1      -7.340   1.198  -1.300  1.00  0.00    -0.493 OA
ATOM     17  C   UNL     1      -7.498   2.609  -1.240  1.00  0.00     0.278 C 
ENDBRANCH  13  16
ENDBRANCH   2   5
ENDBRANCH   1   2
BRANCH   1  18
ATOM     18  C   UNL     1       1.315   1.178   0.895  1.00  0.00     0.067 C 
BRANCH  18  19
ATOM     19  C   UNL     1       2.643   0.454   0.845  1.00  0.00    -0.032 A 
ATOM     20  C   UNL     1       3.582   0.609   1.865  1.00  0.00     0.075 A 
ATOM     21  C   UNL     1       2.946  -0.406  -0.212  1.00  0.00     0.075 A 
ATOM     22  C   UNL     1       4.790  -0.079   1.803  1.00  0.00     0.308 A 
ATOM     23  C   UNL     1       4.166  -1.075  -0.233  1.00  0.00     0.308 A 
ATOM     24  N   UNL     1       5.063  -0.903   0.765  1.00  0.00    -0.201 N 
BRANCH  24  25
ATOM     25  C   UNL     1       6.359  -1.625   0.726  1.00  0.00     0.394 C 
BRANCH  25  26
ATOM     26  C   UNL     1       7.456  -0.692   0.319  1.00  0.00     0.027 A 
ATOM     27  C   UNL     1       8.492  -0.221   1.198  1.00  0.00     0.022 A 
ATOM     28  C   UNL     1       7.625  -0.170  -0.952  1.00  0.00     0.075 A 
ATOM     29  C   UNL     1       9.372   0.635   0.572  1.00  0.00     0.065 A 
ATOM     30  S   UNL     1       8.971   0.878  -1.069  1.00  0.00    -0.152 S 
ENDBRANCH  25  26
ENDBRANCH  24  25
ENDBRANCH  18  19
ENDBRANCH   1  18
TORSDOF 9
