REMARK SMILES COc1cccc([C@@H]2CC(c3cc(F)cc(F)c3)=NN2c2ccc(S(N)(=O)=O)cc2)c1OC
REMARK SMILES IDX 21 1 22 2 23 3 24 4 29 5 30 6 20 7 8 8 9 9 10 10 19 11 7 12
REMARK SMILES IDX 3 13 4 14 31 15 5 16 6 17 2 18 1 19 32 20 33 21 11 22 12 23
REMARK SMILES IDX 18 24 13 25 16 26 15 27 14 28 17 29 25 30 27 31 28 32 26 33
REMARK H PARENT 26 34 26 35
ROOT
ATOM      1  C   UNL     1       1.926   0.018  -0.499  1.00  0.00     0.060 A 
ATOM      2  C   UNL     1       2.046   1.415  -0.601  1.00  0.00     0.029 A 
ATOM      3  C   UNL     1       3.292   2.053  -0.559  1.00  0.00     0.024 A 
ATOM      4  C   UNL     1       4.449   1.290  -0.419  1.00  0.00     0.082 A 
ATOM      5  C   UNL     1       4.370  -0.095  -0.299  1.00  0.00     0.024 A 
ATOM      6  C   UNL     1       3.118  -0.716  -0.345  1.00  0.00     0.029 A 
ENDROOT
BRANCH   1   7
ATOM      7  N   UNL     1       0.693  -0.630  -0.538  1.00  0.00    -0.257 N 
ATOM      8  C   UNL     1      -0.616   0.018  -0.689  1.00  0.00     0.148 C 
ATOM      9  C   UNL     1      -1.531  -1.156  -1.046  1.00  0.00     0.091 C 
ATOM     10  C   UNL     1      -0.621  -2.312  -0.732  1.00  0.00     0.071 C 
ATOM     11  N   UNL     1       0.614  -1.993  -0.489  1.00  0.00    -0.176 NA
BRANCH   8  12
ATOM     12  C   UNL     1      -1.107   0.717   0.572  1.00  0.00     0.023 A 
ATOM     13  C   UNL     1      -2.607   2.350   1.629  1.00  0.00     0.161 A 
ATOM     14  C   UNL     1      -2.107   1.980   2.881  1.00  0.00     0.050 A 
ATOM     15  C   UNL     1      -2.082   1.732   0.475  1.00  0.00     0.166 A 
ATOM     16  C   UNL     1      -1.131   0.989   2.988  1.00  0.00     0.004 A 
ATOM     17  C   UNL     1      -0.645   0.354   1.848  1.00  0.00     0.010 A 
BRANCH  13  18
ATOM     18  O   UNL     1      -3.602   3.274   1.442  1.00  0.00    -0.493 OA
ATOM     19  C   UNL     1      -4.214   3.830   2.598  1.00  0.00     0.278 C 
ENDBRANCH  13  18
BRANCH  15  20
ATOM     20  O   UNL     1      -2.537   2.010  -0.795  1.00  0.00    -0.492 OA
ATOM     21  C   UNL     1      -2.469   3.397  -1.130  1.00  0.00     0.278 C 
ENDBRANCH  15  20
ENDBRANCH   8  12
BRANCH  10  22
ATOM     22  C   UNL     1      -1.102  -3.712  -0.740  1.00  0.00     0.004 A 
ATOM     23  C   UNL     1      -2.412  -4.032  -1.110  1.00  0.00     0.049 A 
ATOM     24  C   UNL     1      -0.219  -4.734  -0.371  1.00  0.00     0.049 A 
ATOM     25  C   UNL     1      -2.819  -5.364  -1.103  1.00  0.00     0.126 A 
ATOM     26  C   UNL     1      -0.654  -6.055  -0.374  1.00  0.00     0.126 A 
ATOM     27  C   UNL     1      -1.952  -6.383  -0.737  1.00  0.00     0.078 A 
ATOM     28  F   UNL     1      -4.075  -5.665  -1.459  1.00  0.00    -0.207 F 
ATOM     29  F   UNL     1       0.195  -7.028  -0.019  1.00  0.00    -0.207 F 
ENDBRANCH  10  22
ENDBRANCH   1   7
BRANCH   4  30
ATOM     30  S   UNL     1       6.035   2.077  -0.369  1.00  0.00     0.238 S 
ATOM     31  O   UNL     1       6.888   1.334   0.526  1.00  0.00    -0.207 OA
ATOM     32  O   UNL     1       5.840   3.505  -0.254  1.00  0.00    -0.207 OA
BRANCH  30  33
ATOM     33  N   UNL     1       6.583   1.827  -1.942  1.00  0.00    -0.225 NA
ATOM     34  H   UNL     1       6.671   2.732  -2.407  1.00  0.00     0.137 HD
ATOM     35  H   UNL     1       5.998   1.182  -2.472  1.00  0.00     0.137 HD
ENDBRANCH  30  33
ENDBRANCH   4  30
TORSDOF 7
