REMARK SMILES COc1cc2c(cc1OC)SC(=C(O)CCc1cc[n+](Cc3ccc(F)cc3)cc1)C2
REMARK SMILES IDX 15 1 13 2 14 3 12 5 31 6 11 7 5 8 6 9 4 10 7 11 3 12 8 13
REMARK SMILES IDX 2 14 1 15 9 16 10 17 16 18 17 19 18 20 30 21 19 22 29 23
REMARK SMILES IDX 20 24 21 25 22 26 23 27 28 28 24 29 27 30 25 31 26 32
REMARK H PARENT 14 4
ROOT
ATOM      1  C   UNL     1      -0.139  -2.389   1.945  1.00  0.00     0.080 C 
ENDROOT
BRANCH   1   2
ATOM      2  C   UNL     1      -0.864  -1.057   1.940  1.00  0.00     0.103 C 
BRANCH   2   3
ATOM      3  O   UNL     1      -0.209  -0.094   2.694  1.00  0.00    -0.511 OA
ATOM      4  H   UNL     1      -0.841   0.601   2.948  1.00  0.00     0.293 HD
ENDBRANCH   2   3
BRANCH   2   5
ATOM      5  C   UNL     1      -2.035  -0.806   1.316  1.00  0.00     0.032 C 
ATOM      6  C   UNL     1      -2.751   0.535   1.318  1.00  0.00     0.083 C 
ATOM      7  S   UNL     1      -2.868  -2.006   0.332  1.00  0.00    -0.090 SA
ATOM      8  C   UNL     1      -3.920   0.429   0.382  1.00  0.00    -0.025 A 
ATOM      9  C   UNL     1      -4.093  -0.832  -0.187  1.00  0.00     0.020 A 
ATOM     10  C   UNL     1      -4.796   1.467   0.075  1.00  0.00     0.055 A 
ATOM     11  C   UNL     1      -5.132  -1.086  -1.071  1.00  0.00     0.066 A 
ATOM     12  C   UNL     1      -5.852   1.231  -0.814  1.00  0.00     0.161 A 
ATOM     13  C   UNL     1      -6.019  -0.052  -1.392  1.00  0.00     0.161 A 
BRANCH  12  14
ATOM     14  O   UNL     1      -6.768   2.181  -1.194  1.00  0.00    -0.493 OA
ATOM     15  C   UNL     1      -6.737   3.436  -0.531  1.00  0.00     0.278 C 
ENDBRANCH  12  14
BRANCH  13  16
ATOM     16  O   UNL     1      -7.078  -0.184  -2.257  1.00  0.00    -0.493 OA
ATOM     17  C   UNL     1      -7.341  -1.474  -2.792  1.00  0.00     0.278 C 
ENDBRANCH  13  16
ENDBRANCH   2   5
ENDBRANCH   1   2
BRANCH   1  18
ATOM     18  C   UNL     1       0.804  -2.593   0.752  1.00  0.00     0.044 C 
BRANCH  18  19
ATOM     19  C   UNL     1       1.978  -1.640   0.729  1.00  0.00    -0.036 A 
ATOM     20  C   UNL     1       2.011  -0.575  -0.170  1.00  0.00     0.074 A 
ATOM     21  C   UNL     1       3.037  -1.792   1.622  1.00  0.00     0.074 A 
ATOM     22  C   UNL     1       3.087   0.303  -0.158  1.00  0.00     0.308 A 
ATOM     23  C   UNL     1       4.093  -0.889   1.600  1.00  0.00     0.308 A 
ATOM     24  N   UNL     1       4.108   0.134   0.715  1.00  0.00    -0.201 N 
BRANCH  24  25
ATOM     25  C   UNL     1       5.238   1.096   0.715  1.00  0.00     0.393 C 
BRANCH  25  26
ATOM     26  C   UNL     1       6.062   0.975  -0.543  1.00  0.00     0.017 A 
ATOM     27  C   UNL     1       6.714  -0.229  -0.865  1.00  0.00     0.013 A 
ATOM     28  C   UNL     1       6.200   2.075  -1.408  1.00  0.00     0.013 A 
ATOM     29  C   UNL     1       7.472  -0.331  -2.034  1.00  0.00     0.040 A 
ATOM     30  C   UNL     1       6.959   1.967  -2.574  1.00  0.00     0.040 A 
ATOM     31  C   UNL     1       7.586   0.766  -2.878  1.00  0.00     0.123 A 
ATOM     32  F   UNL     1       8.312   0.664  -3.997  1.00  0.00    -0.207 F 
ENDBRANCH  25  26
ENDBRANCH  24  25
ENDBRANCH  18  19
ENDBRANCH   1  18
TORSDOF 9
