REMARK SMILES CC1=C[C@@H]2Cc3[nH]c4cc(Cl)ccc4c(=N)c3[C@H](C1)C2
REMARK SMILES IDX 7 1 6 2 17 3 15 4 14 5 13 6 12 7 10 8 11 9 9 10 8 11 18 12
REMARK SMILES IDX 19 13 2 14 1 15 3 16 4 17 5 18 20 19 16 21
REMARK H PARENT 7 20 16 22
ROOT
ATOM      1  N   UNL     1       1.819  -1.133   1.813  1.00  0.00    -0.358 N 
ATOM      2  C   UNL     1       0.782  -0.925   0.929  1.00  0.00     0.021 A 
ATOM      3  C   UNL     1       0.958  -0.429  -0.318  1.00  0.00     0.000 A 
ATOM      4  C   UNL     1       2.355  -0.063  -0.750  1.00  0.00     0.068 A 
ATOM      5  C   UNL     1       3.452  -0.268   0.242  1.00  0.00     0.023 A 
ATOM      6  C   UNL     1       4.777   0.055  -0.084  1.00  0.00     0.014 A 
ATOM      7  C   UNL     1       5.793  -0.143   0.852  1.00  0.00     0.021 A 
ATOM      8  C   UNL     1       5.481  -0.666   2.105  1.00  0.00     0.043 A 
ATOM      9  Cl  UNL     1       6.734  -0.920   3.257  1.00  0.00    -0.084 Cl
ATOM     10  C   UNL     1       4.164  -0.990   2.435  1.00  0.00     0.047 A 
ATOM     11  C   UNL     1       3.137  -0.782   1.508  1.00  0.00     0.049 A 
ATOM     12  C   UNL     1      -0.196  -0.244  -1.293  1.00  0.00     0.028 C 
ATOM     13  C   UNL     1      -0.682   1.225  -1.301  1.00  0.00     0.039 C 
ATOM     14  C   UNL     1      -1.585   1.575  -0.133  1.00  0.00    -0.076 C 
ATOM     15  C   UNL     1      -1.905   3.031   0.040  1.00  0.00     0.039 C 
ATOM     16  C   UNL     1      -2.055   0.630   0.703  1.00  0.00    -0.024 C 
ATOM     17  C   UNL     1      -1.760  -0.846   0.529  1.00  0.00     0.018 C 
ATOM     18  C   UNL     1      -0.605  -1.284   1.449  1.00  0.00     0.062 C 
ATOM     19  C   UNL     1      -1.375  -1.152  -0.920  1.00  0.00     0.017 C 
ATOM     20  H   UNL     1       1.591  -1.382   2.768  1.00  0.00     0.166 HD
ENDROOT
BRANCH   4  21
ATOM     21  N   UNL     1       2.655   0.422  -1.915  1.00  0.00    -0.300 NA
ATOM     22  H   UNL     1       1.837   0.532  -2.514  1.00  0.00     0.188 HD
ENDBRANCH   4  21
TORSDOF 1
