REMARK SMILES COc1cc2c(cc1OC)C(=O)[C@H](C[C@H]1CC[N@@H+](Cc3ccccc3)CC1)C2
REMARK SMILES IDX 14 1 15 2 17 3 18 4 16 5 26 6 27 7 19 9 20 10 21 11 25 12
REMARK SMILES IDX 22 13 24 14 23 15 13 16 11 17 28 18 6 19 5 20 7 21 4 22 8 23
REMARK SMILES IDX 3 24 12 25 9 26 10 27 2 28 1 29
REMARK H PARENT 18 8
ROOT
ATOM      1  C   UNL     1       0.235   0.444  -0.510  1.00  0.00     0.016 C 
ENDROOT
BRANCH   1   2
ATOM      2  C   UNL     1      -0.768  -0.607   0.055  1.00  0.00     0.001 C 
ATOM      3  C   UNL     1      -2.674  -1.004  -1.633  1.00  0.00     0.262 C 
ATOM      4  N   UNL     1      -3.620  -0.327  -0.679  1.00  0.00    -0.331 N 
ATOM      5  C   UNL     1      -1.467  -1.575  -0.905  1.00  0.00     0.065 C 
ATOM      6  C   UNL     1      -2.956   0.687   0.222  1.00  0.00     0.262 C 
ATOM      7  C   UNL     1      -1.812   0.034   0.981  1.00  0.00     0.065 C 
ATOM      8  H   UNL     1      -4.022  -1.048  -0.069  1.00  0.00     0.348 HD
BRANCH   4   9
ATOM      9  C   UNL     1      -4.783   0.284  -1.441  1.00  0.00     0.299 C 
BRANCH   9  10
ATOM     10  C   UNL     1      -5.949   0.634  -0.557  1.00  0.00     0.006 A 
ATOM     11  C   UNL     1      -6.761  -0.375  -0.014  1.00  0.00     0.009 A 
ATOM     12  C   UNL     1      -6.230   1.973  -0.246  1.00  0.00     0.009 A 
ATOM     13  C   UNL     1      -7.825  -0.049   0.828  1.00  0.00     0.001 A 
ATOM     14  C   UNL     1      -7.295   2.294   0.596  1.00  0.00     0.001 A 
ATOM     15  C   UNL     1      -8.090   1.284   1.133  1.00  0.00     0.000 A 
ENDBRANCH   9  10
ENDBRANCH   4   9
ENDBRANCH   1   2
BRANCH   1  16
ATOM     16  C   UNL     1       0.468   0.560  -2.022  1.00  0.00     0.066 C 
ATOM     17  C   UNL     1      -0.375   1.661  -2.654  1.00  0.00     0.166 C 
ATOM     18  C   UNL     1       1.923   0.994  -2.360  1.00  0.00     0.048 C 
ATOM     19  C   UNL     1       0.451   2.475  -3.533  1.00  0.00     0.025 A 
ATOM     20  C   UNL     1       1.767   2.064  -3.392  1.00  0.00    -0.033 A 
ATOM     21  C   UNL     1       0.059   3.487  -4.390  1.00  0.00     0.062 A 
ATOM     22  C   UNL     1       2.765   2.679  -4.132  1.00  0.00     0.055 A 
ATOM     23  C   UNL     1       1.053   4.113  -5.147  1.00  0.00     0.161 A 
ATOM     24  C   UNL     1       2.411   3.707  -5.021  1.00  0.00     0.161 A 
ATOM     25  O   UNL     1      -1.571   1.835  -2.490  1.00  0.00    -0.294 OA
BRANCH  23  26
ATOM     26  O   UNL     1       0.816   5.127  -6.042  1.00  0.00    -0.493 OA
ATOM     27  C   UNL     1      -0.517   5.600  -6.176  1.00  0.00     0.278 C 
ENDBRANCH  23  26
BRANCH  24  28
ATOM     28  O   UNL     1       3.308   4.386  -5.808  1.00  0.00    -0.493 OA
ATOM     29  C   UNL     1       4.678   4.021  -5.727  1.00  0.00     0.278 C 
ENDBRANCH  24  28
ENDBRANCH   1  16
TORSDOF 6
