REMARK SMILES COc1ccc(-c2oc3cc(OC)c(I)cc3c(=O)c2O)cc1
REMARK SMILES IDX 7 1 8 2 9 3 10 4 11 5 14 6 15 7 16 8 17 9 18 10 19 11 20 12
REMARK SMILES IDX 6 13 3 14 4 15 23 16 5 17 22 18 2 19 1 20 21 21 12 23 13 24
REMARK H PARENT 21 22
ROOT
ATOM      1  C   UNL     1       0.222   0.824   0.259  1.00  0.00     0.180 A 
ATOM      2  O   UNL     1      -0.724  -0.194   0.209  1.00  0.00    -0.452 OA
ATOM      3  C   UNL     1      -2.055   0.134   0.268  1.00  0.00     0.142 A 
ATOM      4  C   UNL     1      -2.970  -0.920   0.198  1.00  0.00     0.095 A 
ATOM      5  C   UNL     1      -4.346  -0.667   0.253  1.00  0.00     0.135 A 
ATOM      6  C   UNL     1      -4.786   0.664   0.380  1.00  0.00     0.056 A 
ATOM      7  I   UNL     1      -6.827   1.155   0.473  1.00  0.00    -0.040 I 
ATOM      8  C   UNL     1      -3.870   1.720   0.450  1.00  0.00     0.034 A 
ATOM      9  C   UNL     1      -2.504   1.442   0.392  1.00  0.00     0.070 A 
ATOM     10  C   UNL     1      -1.513   2.520   0.462  1.00  0.00     0.235 A 
ATOM     11  O   UNL     1      -1.817   3.702   0.580  1.00  0.00    -0.285 OA
ATOM     12  C   UNL     1      -0.085   2.128   0.384  1.00  0.00     0.208 A 
ENDROOT
BRANCH   1  13
ATOM     13  C   UNL     1       1.610   0.321   0.184  1.00  0.00     0.021 A 
ATOM     14  C   UNL     1       4.238  -0.708   0.027  1.00  0.00     0.118 A 
ATOM     15  C   UNL     1       3.296  -1.292   0.875  1.00  0.00     0.047 A 
ATOM     16  C   UNL     1       3.865   0.388  -0.749  1.00  0.00     0.047 A 
ATOM     17  C   UNL     1       1.994  -0.787   0.952  1.00  0.00     0.016 A 
ATOM     18  C   UNL     1       2.560   0.894  -0.672  1.00  0.00     0.016 A 
BRANCH  14  19
ATOM     19  O   UNL     1       5.471  -1.299   0.047  1.00  0.00    -0.497 OA
ATOM     20  C   UNL     1       6.474  -0.718  -0.777  1.00  0.00     0.278 C 
ENDBRANCH  14  19
ENDBRANCH   1  13
BRANCH  12  21
ATOM     21  O   UNL     1       0.847   3.147   0.462  1.00  0.00    -0.502 OA
ATOM     22  H   UNL     1       0.318   3.966   0.578  1.00  0.00     0.293 HD
ENDBRANCH  12  21
BRANCH   5  23
ATOM     23  O   UNL     1      -5.309  -1.640   0.191  1.00  0.00    -0.496 OA
ATOM     24  C   UNL     1      -4.886  -2.990   0.051  1.00  0.00     0.278 C 
ENDBRANCH   5  23
TORSDOF 4
