REMARK SMILES COc1cccc2c1CCC[C@@H]2NS(=O)(=O)NC(=O)OCc1ccccc1
REMARK SMILES IDX 14 1 15 2 16 3 13 4 12 6 3 7 4 8 8 9 5 10 7 11 9 12 6 13
REMARK SMILES IDX 10 14 11 15 2 16 1 17 17 18 18 19 19 21 20 22 21 23 22 24
REMARK SMILES IDX 23 25 27 26 24 27 26 28 25 29
REMARK H PARENT 13 5 17 20
ROOT
ATOM      1  S   UNL     1       1.174  -1.340  -1.621  1.00  0.00     0.304 S 
ATOM      2  O   UNL     1       1.217  -0.635  -2.875  1.00  0.00    -0.189 OA
ATOM      3  O   UNL     1       1.881  -2.575  -1.390  1.00  0.00    -0.189 OA
ENDROOT
BRANCH   1   4
ATOM      4  N   UNL     1      -0.434  -1.678  -1.302  1.00  0.00    -0.190 NA
ATOM      5  H   UNL     1      -0.698  -2.552  -1.758  1.00  0.00     0.143 HD
BRANCH   4   6
ATOM      6  C   UNL     1      -1.416  -0.593  -1.536  1.00  0.00     0.102 C 
ATOM      7  C   UNL     1      -4.740   0.268   0.138  1.00  0.00     0.122 A 
ATOM      8  C   UNL     1      -4.674  -0.495   1.306  1.00  0.00     0.047 A 
ATOM      9  C   UNL     1      -3.680   0.203  -0.785  1.00  0.00    -0.001 A 
ATOM     10  C   UNL     1      -3.562  -1.298   1.568  1.00  0.00     0.004 A 
ATOM     11  C   UNL     1      -2.552  -0.608  -0.522  1.00  0.00    -0.023 A 
ATOM     12  C   UNL     1      -3.657   1.038  -2.045  1.00  0.00     0.040 C 
ATOM     13  C   UNL     1      -2.503  -1.350   0.664  1.00  0.00     0.006 A 
ATOM     14  C   UNL     1      -3.146   0.247  -3.250  1.00  0.00     0.007 C 
ATOM     15  C   UNL     1      -2.016  -0.743  -2.943  1.00  0.00     0.025 C 
BRANCH   7  16
ATOM     16  O   UNL     1      -5.776   1.101  -0.192  1.00  0.00    -0.496 OA
ATOM     17  C   UNL     1      -6.869   1.179   0.713  1.00  0.00     0.278 C 
ENDBRANCH   7  16
ENDBRANCH   4   6
ENDBRANCH   1   4
BRANCH   1  18
ATOM     18  N   UNL     1       1.460  -0.338  -0.353  1.00  0.00    -0.205 N 
ATOM     19  C   UNL     1       2.554   0.519  -0.320  1.00  0.00     0.422 C 
ATOM     20  H   UNL     1       1.247  -0.758   0.543  1.00  0.00     0.188 HD
ATOM     21  O   UNL     1       3.215   0.841  -1.292  1.00  0.00    -0.223 OA
BRANCH  19  22
ATOM     22  O   UNL     1       2.778   0.941   0.949  1.00  0.00    -0.444 OA
BRANCH  22  23
ATOM     23  C   UNL     1       3.910   1.799   1.124  1.00  0.00     0.270 C 
BRANCH  23  24
ATOM     24  C   UNL     1       5.082   0.982   1.599  1.00  0.00    -0.011 A 
ATOM     25  C   UNL     1       5.227   0.666   2.957  1.00  0.00     0.007 A 
ATOM     26  C   UNL     1       6.020   0.487   0.683  1.00  0.00     0.007 A 
ATOM     27  C   UNL     1       6.300  -0.112   3.392  1.00  0.00     0.000 A 
ATOM     28  C   UNL     1       7.092  -0.292   1.119  1.00  0.00     0.000 A 
ATOM     29  C   UNL     1       7.233  -0.590   2.474  1.00  0.00     0.000 A 
ENDBRANCH  23  24
ENDBRANCH  22  23
ENDBRANCH  19  22
ENDBRANCH   1  18
TORSDOF 7
