REMARK SMILES COc1cc2c(cc1OC)SC(=C(O)CCc1cc[n+](Cc3ccccc3)cc1)C2
REMARK SMILES IDX 15 1 13 2 14 3 12 5 30 6 11 7 5 8 6 9 4 10 7 11 3 12 8 13
REMARK SMILES IDX 2 14 1 15 9 16 10 17 16 18 17 19 18 20 29 21 19 22 28 23
REMARK SMILES IDX 20 24 21 25 22 26 23 27 27 28 24 29 26 30 25 31
REMARK H PARENT 14 4
ROOT
ATOM      1  C   UNL     1      -0.064  -2.573  -1.229  1.00  0.00     0.080 C 
ENDROOT
BRANCH   1   2
ATOM      2  C   UNL     1      -0.696  -1.979   0.007  1.00  0.00     0.103 C 
BRANCH   2   3
ATOM      3  O   UNL     1       0.082  -2.102   1.151  1.00  0.00    -0.511 OA
ATOM      4  H   UNL     1      -0.481  -1.808   1.897  1.00  0.00     0.293 HD
ENDBRANCH   2   3
BRANCH   2   5
ATOM      5  C   UNL     1      -1.917  -1.411   0.045  1.00  0.00     0.032 C 
ATOM      6  C   UNL     1      -2.850  -1.237  -1.138  1.00  0.00     0.083 C 
ATOM      7  S   UNL     1      -2.565  -0.739   1.539  1.00  0.00    -0.090 SA
ATOM      8  C   UNL     1      -4.034  -0.451  -0.654  1.00  0.00    -0.025 A 
ATOM      9  C   UNL     1      -4.014  -0.139   0.704  1.00  0.00     0.020 A 
ATOM     10  C   UNL     1      -5.099  -0.043  -1.444  1.00  0.00     0.055 A 
ATOM     11  C   UNL     1      -5.044   0.589   1.291  1.00  0.00     0.066 A 
ATOM     12  C   UNL     1      -6.157   0.673  -0.866  1.00  0.00     0.161 A 
ATOM     13  C   UNL     1      -6.125   1.014   0.505  1.00  0.00     0.161 A 
BRANCH  12  14
ATOM     14  O   UNL     1      -7.130   1.024  -1.768  1.00  0.00    -0.493 OA
ATOM     15  C   UNL     1      -8.469   0.979  -1.285  1.00  0.00     0.278 C 
ENDBRANCH  12  14
BRANCH  13  16
ATOM     16  O   UNL     1      -7.155   1.779   0.986  1.00  0.00    -0.493 OA
ATOM     17  C   UNL     1      -7.134   2.150   2.358  1.00  0.00     0.278 C 
ENDBRANCH  13  16
ENDBRANCH   2   5
ENDBRANCH   1   2
BRANCH   1  18
ATOM     18  C   UNL     1       0.915  -1.622  -1.933  1.00  0.00     0.044 C 
BRANCH  18  19
ATOM     19  C   UNL     1       2.148  -1.299  -1.120  1.00  0.00    -0.036 A 
ATOM     20  C   UNL     1       2.277  -0.063  -0.486  1.00  0.00     0.074 A 
ATOM     21  C   UNL     1       3.158  -2.245  -0.948  1.00  0.00     0.074 A 
ATOM     22  C   UNL     1       3.392   0.193   0.303  1.00  0.00     0.308 A 
ATOM     23  C   UNL     1       4.256  -1.944  -0.150  1.00  0.00     0.308 A 
ATOM     24  N   UNL     1       4.359  -0.741   0.457  1.00  0.00    -0.201 N 
BRANCH  24  25
ATOM     25  C   UNL     1       5.526  -0.448   1.325  1.00  0.00     0.393 C 
BRANCH  25  26
ATOM     26  C   UNL     1       6.396   0.626   0.726  1.00  0.00     0.017 A 
ATOM     27  C   UNL     1       6.605   1.833   1.414  1.00  0.00     0.010 A 
ATOM     28  C   UNL     1       7.018   0.439  -0.519  1.00  0.00     0.010 A 
ATOM     29  C   UNL     1       7.405   2.833   0.860  1.00  0.00     0.001 A 
ATOM     30  C   UNL     1       7.817   1.443  -1.068  1.00  0.00     0.001 A 
ATOM     31  C   UNL     1       8.008   2.638  -0.380  1.00  0.00     0.000 A 
ENDBRANCH  25  26
ENDBRANCH  24  25
ENDBRANCH  18  19
ENDBRANCH   1  18
TORSDOF 9
