REMARK SMILES O=C(Nc1ccc2c(c1)CN(C(=O)c1cccc(Cl)c1)C(=O)C2)c1cccc(Cl)c1
REMARK SMILES IDX 4 1 5 2 6 3 7 4 8 5 9 6 10 7 11 8 21 9 22 10 23 11 3 12 2 13
REMARK SMILES IDX 1 14 24 16 25 17 30 18 26 19 28 20 27 21 29 22 12 23 13 24
REMARK SMILES IDX 14 25 15 26 20 27 16 28 18 29 17 30 19 31
REMARK H PARENT 3 15
ROOT
ATOM      1  C   UNL     1      -1.770   1.185   0.237  1.00  0.00     0.041 A 
ATOM      2  C   UNL     1      -1.871   2.579   0.155  1.00  0.00     0.026 A 
ATOM      3  C   UNL     1      -0.725   3.377   0.101  1.00  0.00     0.007 A 
ATOM      4  C   UNL     1       0.542   2.788   0.112  1.00  0.00    -0.033 A 
ATOM      5  C   UNL     1       0.652   1.397   0.191  1.00  0.00    -0.022 A 
ATOM      6  C   UNL     1      -0.502   0.602   0.265  1.00  0.00     0.032 A 
ATOM      7  C   UNL     1       2.023   0.786   0.251  1.00  0.00     0.164 C 
ATOM      8  N   UNL     1       2.987   1.546  -0.535  1.00  0.00    -0.274 N 
ATOM      9  C   UNL     1       3.041   2.923  -0.413  1.00  0.00     0.234 C 
ATOM     10  O   UNL     1       4.062   3.584  -0.613  1.00  0.00    -0.274 OA
ATOM     11  C   UNL     1       1.792   3.625   0.101  1.00  0.00     0.136 C 
ENDROOT
BRANCH   1  12
ATOM     12  N   UNL     1      -2.976   0.454   0.301  1.00  0.00    -0.322 N 
ATOM     13  C   UNL     1      -3.120  -0.921   0.338  1.00  0.00     0.255 C 
ATOM     14  O   UNL     1      -2.228  -1.757   0.272  1.00  0.00    -0.269 OA
ATOM     15  H   UNL     1      -3.821   1.007   0.247  1.00  0.00     0.170 HD
BRANCH  13  16
ATOM     16  C   UNL     1      -4.527  -1.404   0.434  1.00  0.00     0.041 A 
ATOM     17  C   UNL     1      -4.875  -2.582  -0.239  1.00  0.00     0.014 A 
ATOM     18  C   UNL     1      -5.484  -0.729   1.202  1.00  0.00     0.034 A 
ATOM     19  C   UNL     1      -6.181  -3.070  -0.172  1.00  0.00     0.002 A 
ATOM     20  C   UNL     1      -6.786  -1.226   1.262  1.00  0.00     0.041 A 
ATOM     21  C   UNL     1      -7.140  -2.387   0.577  1.00  0.00     0.020 A 
ATOM     22  Cl  UNL     1      -7.967  -0.396   2.200  1.00  0.00    -0.084 Cl
ENDBRANCH  13  16
ENDBRANCH   1  12
BRANCH   8  23
ATOM     23  C   UNL     1       3.932   0.917  -1.331  1.00  0.00     0.260 C 
ATOM     24  O   UNL     1       4.247   1.300  -2.455  1.00  0.00    -0.269 OA
BRANCH  23  25
ATOM     25  C   UNL     1       4.502  -0.368  -0.855  1.00  0.00     0.041 A 
ATOM     26  C   UNL     1       4.965  -0.501   0.461  1.00  0.00     0.014 A 
ATOM     27  C   UNL     1       4.613  -1.433  -1.754  1.00  0.00     0.034 A 
ATOM     28  C   UNL     1       5.508  -1.715   0.886  1.00  0.00     0.002 A 
ATOM     29  C   UNL     1       5.155  -2.640  -1.320  1.00  0.00     0.041 A 
ATOM     30  C   UNL     1       5.597  -2.787  -0.004  1.00  0.00     0.020 A 
ATOM     31  Cl  UNL     1       5.282  -3.963  -2.412  1.00  0.00    -0.084 Cl
ENDBRANCH  23  25
ENDBRANCH   8  23
TORSDOF 4
