REMARK SMILES Nc1c2c(nc3cc(Cl)ccc13)[C@@H]1CC[C@H]2C1
REMARK SMILES IDX 2 1 3 2 4 3 5 4 6 5 7 6 8 7 9 8 10 9 11 10 12 11 13 12 14 13
REMARK SMILES IDX 15 14 16 15 17 16 1 17
REMARK H PARENT 1 18 1 19
ROOT
ATOM      1  C   UNL     1       0.556   1.201  -0.042  1.00  0.00     0.046 A 
ATOM      2  C   UNL     1      -0.619   0.558   0.279  1.00  0.00     0.001 A 
ATOM      3  C   UNL     1      -0.612  -0.808   0.547  1.00  0.00     0.050 A 
ATOM      4  N   UNL     1       0.455  -1.607   0.499  1.00  0.00    -0.252 NA
ATOM      5  C   UNL     1       1.602  -1.013   0.132  1.00  0.00     0.074 A 
ATOM      6  C   UNL     1       2.725  -1.818   0.033  1.00  0.00     0.049 A 
ATOM      7  C   UNL     1       3.953  -1.301  -0.371  1.00  0.00     0.043 A 
ATOM      8  Cl  UNL     1       5.322  -2.338  -0.483  1.00  0.00    -0.084 Cl
ATOM      9  C   UNL     1       4.080   0.043  -0.691  1.00  0.00     0.021 A 
ATOM     10  C   UNL     1       2.967   0.878  -0.596  1.00  0.00     0.014 A 
ATOM     11  C   UNL     1       1.712   0.382  -0.174  1.00  0.00     0.024 A 
ATOM     12  C   UNL     1      -2.049  -1.217   0.824  1.00  0.00     0.039 C 
ATOM     13  C   UNL     1      -2.814  -1.122  -0.510  1.00  0.00     0.010 C 
ATOM     14  C   UNL     1      -2.824   0.405  -0.809  1.00  0.00     0.009 C 
ATOM     15  C   UNL     1      -2.055   1.008   0.386  1.00  0.00     0.024 C 
ATOM     16  C   UNL     1      -2.510   0.072   1.523  1.00  0.00     0.018 C 
ENDROOT
BRANCH   1  17
ATOM     17  N   UNL     1       0.531   2.552  -0.424  1.00  0.00    -0.398 N 
ATOM     18  H   UNL     1       1.407   3.041  -0.272  1.00  0.00     0.156 HD
ATOM     19  H   UNL     1      -0.250   3.071  -0.037  1.00  0.00     0.156 HD
ENDBRANCH   1  17
TORSDOF 1
