REMARK SMILES CNC(=O)Oc1cccc(C[N@@H+](C)CCCOc2ccc3c(=O)ccoc3c2)c1
REMARK SMILES IDX 12 1 13 2 11 4 10 5 9 6 29 7 8 8 6 9 7 10 5 11 3 12 2 13
REMARK SMILES IDX 4 14 1 15 14 17 15 18 16 19 17 20 18 21 19 22 28 23 20 24
REMARK SMILES IDX 27 25 21 26 26 27 22 28 25 29 24 30 23 31
REMARK H PARENT 12 3 2 16
ROOT
ATOM      1  N   UNL     1       0.912  -0.921   0.940  1.00  0.00    -0.334 N 
ATOM      2  C   UNL     1       1.732  -2.016   1.575  1.00  0.00     0.333 C 
ATOM      3  H   UNL     1       0.660  -1.267   0.006  1.00  0.00     0.348 HD
ENDROOT
BRANCH   1   4
ATOM      4  C   UNL     1       1.742   0.332   0.706  1.00  0.00     0.298 C 
BRANCH   4   5
ATOM      5  C   UNL     1       2.667   0.200  -0.472  1.00  0.00     0.010 A 
ATOM      6  C   UNL     1       2.172   0.290  -1.784  1.00  0.00     0.010 A 
ATOM      7  C   UNL     1       4.037  -0.025  -0.276  1.00  0.00     0.056 A 
ATOM      8  C   UNL     1       3.033   0.162  -2.877  1.00  0.00     0.004 A 
ATOM      9  C   UNL     1       4.893  -0.118  -1.374  1.00  0.00     0.133 A 
ATOM     10  C   UNL     1       4.395  -0.047  -2.673  1.00  0.00     0.047 A 
BRANCH   9  11
ATOM     11  O   UNL     1       6.275  -0.348  -1.245  1.00  0.00    -0.410 OA
BRANCH  11  12
ATOM     12  C   UNL     1       6.998   0.343  -0.278  1.00  0.00     0.412 C 
ATOM     13  N   UNL     1       8.314  -0.015  -0.353  1.00  0.00    -0.324 N 
ATOM     14  O   UNL     1       6.535   1.148   0.518  1.00  0.00    -0.224 OA
ATOM     15  C   UNL     1       9.329   0.650   0.419  1.00  0.00     0.146 C 
ATOM     16  H   UNL     1       8.583  -0.575  -1.151  1.00  0.00     0.166 HD
ENDBRANCH  11  12
ENDBRANCH   9  11
ENDBRANCH   4   5
ENDBRANCH   1   4
BRANCH   1  17
ATOM     17  C   UNL     1      -0.351  -0.643   1.729  1.00  0.00     0.265 C 
BRANCH  17  18
ATOM     18  C   UNL     1      -1.450  -0.061   0.845  1.00  0.00     0.103 C 
BRANCH  18  19
ATOM     19  C   UNL     1      -2.136  -1.112  -0.027  1.00  0.00     0.235 C 
BRANCH  19  20
ATOM     20  O   UNL     1      -2.928  -0.475  -1.024  1.00  0.00    -0.493 OA
BRANCH  20  21
ATOM     21  C   UNL     1      -4.223  -0.143  -0.744  1.00  0.00     0.123 A 
ATOM     22  C   UNL     1      -4.902   0.462  -1.810  1.00  0.00     0.047 A 
ATOM     23  C   UNL     1      -4.890  -0.344   0.465  1.00  0.00     0.094 A 
ATOM     24  C   UNL     1      -6.233   0.865  -1.676  1.00  0.00     0.020 A 
ATOM     25  C   UNL     1      -6.223   0.058   0.602  1.00  0.00     0.141 A 
ATOM     26  C   UNL     1      -6.891   0.659  -0.464  1.00  0.00     0.065 A 
ATOM     27  O   UNL     1      -6.821  -0.170   1.820  1.00  0.00    -0.464 OA
ATOM     28  C   UNL     1      -8.293   1.072  -0.286  1.00  0.00     0.192 A 
ATOM     29  C   UNL     1      -8.134   0.214   1.966  1.00  0.00     0.199 A 
ATOM     30  C   UNL     1      -8.889   0.799   1.032  1.00  0.00     0.091 A 
ATOM     31  O   UNL     1      -8.934   1.613  -1.175  1.00  0.00    -0.289 OA
ENDBRANCH  20  21
ENDBRANCH  19  20
ENDBRANCH  18  19
ENDBRANCH  17  18
ENDBRANCH   1  17
TORSDOF 9
