REMARK SMILES CN(C)C(=O)Oc1cccc([N+](C)(C)C)c1
REMARK SMILES IDX 7 1 8 2 9 3 10 4 11 5 16 6 6 7 4 8 2 9 1 10 3 11 5 12 12 13
REMARK SMILES IDX 13 14 14 15 15 16
REMARK H PARENT
ROOT
ATOM      1  C   UNL     1       0.810  -0.119  -1.046  1.00  0.00     0.138 A 
ATOM      2  C   UNL     1       0.755   0.530  -2.272  1.00  0.00     0.048 A 
ATOM      3  C   UNL     1      -0.476   0.961  -2.755  1.00  0.00     0.010 A 
ATOM      4  C   UNL     1      -1.643   0.743  -2.009  1.00  0.00     0.068 A 
ATOM      5  C   UNL     1      -1.595   0.075  -0.776  1.00  0.00     0.135 A 
ATOM      6  C   UNL     1      -0.351  -0.384  -0.318  1.00  0.00     0.115 A 
ENDROOT
BRANCH   1   7
ATOM      7  O   UNL     1       2.075  -0.538  -0.600  1.00  0.00    -0.410 OA
BRANCH   7   8
ATOM      8  C   UNL     1       2.450  -0.199   0.704  1.00  0.00     0.414 C 
ATOM      9  N   UNL     1       3.725  -0.640   1.027  1.00  0.00    -0.314 N 
ATOM     10  C   UNL     1       4.312  -0.226   2.289  1.00  0.00     0.150 C 
ATOM     11  C   UNL     1       4.630  -1.219   0.048  1.00  0.00     0.150 C 
ATOM     12  O   UNL     1       1.720   0.416   1.478  1.00  0.00    -0.224 OA
ENDBRANCH   7   8
ENDBRANCH   1   7
BRANCH   5  13
ATOM     13  N   UNL     1      -2.829  -0.151   0.083  1.00  0.00    -0.298 N 
ATOM     14  C   UNL     1      -4.086   0.456  -0.529  1.00  0.00     0.340 C 
ATOM     15  C   UNL     1      -2.602   0.513   1.442  1.00  0.00     0.340 C 
ATOM     16  C   UNL     1      -3.051  -1.651   0.240  1.00  0.00     0.340 C 
ENDBRANCH   5  13
TORSDOF 3
