REMARK SMILES COc1cccc(OC)c1[C@H](C)NS(N)(=O)=O
REMARK SMILES IDX 11 1 12 2 10 3 3 4 4 5 5 6 7 7 6 8 2 9 1 10 8 11 9 12 13 13
REMARK SMILES IDX 14 15 16 16 17 17 15 18
REMARK H PARENT 13 14 15 19 15 20
ROOT
ATOM      1  C   UNL     1       0.494  -0.574   1.126  1.00  0.00     0.105 C 
ATOM      2  C   UNL     1       0.312  -0.264   2.615  1.00  0.00     0.031 C 
ENDROOT
BRANCH   1   3
ATOM      3  C   UNL     1      -0.579   0.138   0.311  1.00  0.00     0.054 A 
ATOM      4  C   UNL     1      -0.501   1.513  -0.011  1.00  0.00     0.127 A 
ATOM      5  C   UNL     1      -1.533   2.122  -0.739  1.00  0.00     0.047 A 
ATOM      6  C   UNL     1      -2.651   1.388  -1.137  1.00  0.00     0.008 A 
ATOM      7  C   UNL     1      -1.711  -0.582  -0.118  1.00  0.00     0.127 A 
ATOM      8  C   UNL     1      -2.745   0.039  -0.820  1.00  0.00     0.047 A 
BRANCH   4   9
ATOM      9  O   UNL     1       0.621   2.176   0.425  1.00  0.00    -0.496 OA
ATOM     10  C   UNL     1       0.720   3.567   0.137  1.00  0.00     0.278 C 
ENDBRANCH   4   9
BRANCH   7  11
ATOM     11  O   UNL     1      -1.834  -1.905   0.229  1.00  0.00    -0.496 OA
ATOM     12  C   UNL     1      -1.770  -2.743  -0.928  1.00  0.00     0.278 C 
ENDBRANCH   7  11
ENDBRANCH   1   3
BRANCH   1  13
ATOM     13  N   UNL     1       1.885  -0.202   0.759  1.00  0.00    -0.195 NA
ATOM     14  H   UNL     1       1.933   0.809   0.596  1.00  0.00     0.143 HD
BRANCH  13  15
ATOM     15  S   UNL     1       2.579  -1.006  -0.512  1.00  0.00     0.274 S 
ATOM     16  O   UNL     1       1.627  -1.240  -1.563  1.00  0.00    -0.195 OA
ATOM     17  O   UNL     1       3.875  -0.424  -0.747  1.00  0.00    -0.195 OA
BRANCH  15  18
ATOM     18  N   UNL     1       2.863  -2.462   0.244  1.00  0.00    -0.216 NA
ATOM     19  H   UNL     1       3.628  -2.334   0.906  1.00  0.00     0.138 HD
ATOM     20  H   UNL     1       3.104  -3.158  -0.460  1.00  0.00     0.138 HD
ENDBRANCH  15  18
ENDBRANCH  13  15
ENDBRANCH   1  13
TORSDOF 6
