REMARK SMILES CCCCCCNC(=O)Oc1ccc2c(c1)[C@]1(C)CC[N@H+](C)[C@@H]1C2
REMARK SMILES IDX 6 1 7 2 8 3 9 4 10 6 11 7 20 8 21 9 19 10 23 11 17 12 24 13
REMARK SMILES IDX 15 14 14 15 16 16 13 17 12 18 22 19 18 21 5 22 4 23 3 24
REMARK SMILES IDX 2 25 1 26
REMARK H PARENT 7 5 21 20
ROOT
ATOM      1  C   UNL     1       3.759   1.852   0.566  1.00  0.00     0.119 C 
ENDROOT
BRANCH   1   2
ATOM      2  N   UNL     1       2.634   1.453   1.382  1.00  0.00    -0.321 N 
ATOM      3  C   UNL     1       1.492   0.922   0.854  1.00  0.00     0.412 C 
ATOM      4  O   UNL     1       1.264   0.804  -0.343  1.00  0.00    -0.224 OA
ATOM      5  H   UNL     1       2.733   1.410   2.387  1.00  0.00     0.167 HD
BRANCH   3   6
ATOM      6  O   UNL     1       0.645   0.539   1.885  1.00  0.00    -0.410 OA
BRANCH   6   7
ATOM      7  C   UNL     1      -0.569  -0.035   1.483  1.00  0.00     0.133 A 
ATOM      8  C   UNL     1      -6.214   0.951  -0.172  1.00  0.00     0.263 C 
ATOM      9  N   UNL     1      -5.982  -0.289  -1.010  1.00  0.00    -0.334 N 
ATOM     10  C   UNL     1      -4.859   1.332   0.410  1.00  0.00     0.079 C 
ATOM     11  C   UNL     1      -4.537  -0.705  -0.834  1.00  0.00     0.198 C 
ATOM     12  C   UNL     1      -3.814   0.605  -0.443  1.00  0.00     0.050 C 
ATOM     13  C   UNL     1      -4.285  -1.710   0.312  1.00  0.00     0.101 C 
ATOM     14  C   UNL     1      -2.676   0.066   0.377  1.00  0.00    -0.029 A 
ATOM     15  C   UNL     1      -2.939  -1.252   0.788  1.00  0.00    -0.038 A 
ATOM     16  C   UNL     1      -1.496   0.695   0.735  1.00  0.00     0.052 A 
ATOM     17  C   UNL     1      -2.038  -1.960   1.570  1.00  0.00     0.008 A 
ATOM     18  C   UNL     1      -0.837  -1.340   1.918  1.00  0.00     0.047 A 
ATOM     19  C   UNL     1      -7.016  -1.358  -0.864  1.00  0.00     0.333 C 
ATOM     20  H   UNL     1      -6.051   0.021  -1.989  1.00  0.00     0.348 HD
ATOM     21  C   UNL     1      -3.389   1.420  -1.664  1.00  0.00     0.023 C 
ENDBRANCH   6   7
ENDBRANCH   3   6
ENDBRANCH   1   2
BRANCH   1  22
ATOM     22  C   UNL     1       4.655   0.662   0.226  1.00  0.00     0.021 C 
BRANCH  22  23
ATOM     23  C   UNL     1       5.860   1.099  -0.609  1.00  0.00     0.002 C 
BRANCH  23  24
ATOM     24  C   UNL     1       6.733  -0.070  -1.075  1.00  0.00    -0.000 C 
BRANCH  24  25
ATOM     25  C   UNL     1       7.433  -0.801   0.071  1.00  0.00    -0.003 C 
ATOM     26  C   UNL     1       8.374  -1.877  -0.451  1.00  0.00     0.004 C 
ENDBRANCH  24  25
ENDBRANCH  23  24
ENDBRANCH  22  23
ENDBRANCH   1  22
TORSDOF 7
